REMARK SMILES COc1ccc(NC(C)(C)C2=N[C@@H](C(=O)NCCCCNC(=O)c3ccc(-c4c5nc(c(-c6c(F)cccc6F)c6ccc([nH]6)c(-c6c(F)cccc6F)c6nc(c(-c7c(F)cccc7F)c7ccc4[nH]7)C=C6)C=C5)cc3)CS2)cc1
REMARK SMILES IDX 17 1 16 2 14 3 15 4 13 6 11 7 12 8 79 9 78 10 8 11 9 12
REMARK SMILES IDX 10 13 7 14 6 16 3 17 4 18 81 19 5 20 80 21 2 22 1 23 18 24
REMARK SMILES IDX 19 25 20 26 21 27 22 28 23 30 24 31 25 32 77 33 26 34 76 35
REMARK SMILES IDX 27 36 28 37 29 38 70 39 30 40 75 41 69 42 71 43 31 44 74 45
REMARK SMILES IDX 68 46 67 47 32 49 58 50 41 51 57 52 42 53 45 54 56 55 72 56
REMARK SMILES IDX 43 57 44 58 55 60 73 61 46 62 33 63 34 64 39 65 35 66 36 67
REMARK SMILES IDX 38 68 40 69 37 70 59 71 60 72 65 73 61 74 62 75 64 76 66 77
REMARK SMILES IDX 63 78 47 79 48 80 53 81 49 82 50 83 52 84 54 85 51 86
REMARK H PARENT 16 5 7 15 21 29 71 48 45 59
REMARK Flexibility Score: inf
ROOT
ATOM      1  C   UNL     1      -0.522  -3.686  -3.136  1.00  0.00     0.116 C 
ENDROOT
BRANCH   1   2
ATOM      2  N   UNL     1      -1.478  -4.710  -3.508  1.00  0.00    -0.354 N 
ATOM      3  C   UNL     1      -2.134  -4.889  -4.689  1.00  0.00     0.245 C 
ATOM      4  O   UNL     1      -2.947  -5.818  -4.750  1.00  0.00    -0.273 OA
ATOM      5  H   UNL     1      -1.683  -5.371  -2.807  1.00  0.00     0.163 HD
BRANCH   3   6
ATOM      6  C   UNL     1      -1.958  -3.941  -5.874  1.00  0.00     0.205 C 
ATOM      7  C   UNL     1      -0.427  -2.483  -6.718  1.00  0.00     0.094 C 
ATOM      8  N   UNL     1      -0.520  -3.647  -6.143  1.00  0.00    -0.266 NA
ATOM      9  S   UNL     1      -1.945  -1.607  -6.933  1.00  0.00    -0.106 SA
ATOM     10  C   UNL     1      -2.718  -2.644  -5.675  1.00  0.00     0.113 C 
BRANCH   7  11
ATOM     11  C   UNL     1       0.918  -1.875  -7.196  1.00  0.00     0.080 C 
ATOM     12  C   UNL     1       0.796  -0.649  -8.111  1.00  0.00     0.042 C 
ATOM     13  C   UNL     1       1.605  -2.995  -8.016  1.00  0.00     0.042 C 
BRANCH  11  14
ATOM     14  N   UNL     1       1.841  -1.550  -6.084  1.00  0.00    -0.374 N 
ATOM     15  H   UNL     1       2.766  -1.860  -6.214  1.00  0.00     0.161 HD
BRANCH  14  16
ATOM     16  C   UNL     1       1.619  -0.887  -4.898  1.00  0.00     0.035 A 
ATOM     17  C   UNL     1       1.191   0.128  -2.274  1.00  0.00     0.119 A 
ATOM     18  C   UNL     1       0.212   0.237  -3.258  1.00  0.00     0.048 A 
ATOM     19  C   UNL     1       2.416  -0.426  -2.619  1.00  0.00     0.048 A 
ATOM     20  C   UNL     1       0.436  -0.240  -4.556  1.00  0.00     0.029 A 
ATOM     21  C   UNL     1       2.616  -0.936  -3.911  1.00  0.00     0.029 A 
BRANCH  17  22
ATOM     22  O   UNL     1       0.779   0.482  -1.025  1.00  0.00    -0.497 OA
ATOM     23  C   UNL     1       1.748   0.865  -0.059  1.00  0.00     0.278 C 
ENDBRANCH  17  22
ENDBRANCH  14  16
ENDBRANCH  11  14
ENDBRANCH   7  11
ENDBRANCH   3   6
ENDBRANCH   1   2
BRANCH   1  24
ATOM     24  C   UNL     1      -0.879  -3.060  -1.793  1.00  0.00     0.023 C 
BRANCH  24  25
ATOM     25  C   UNL     1      -0.547  -3.906  -0.568  1.00  0.00     0.023 C 
BRANCH  25  26
ATOM     26  C   UNL     1       0.915  -4.317  -0.427  1.00  0.00     0.116 C 
BRANCH  26  27
ATOM     27  N   UNL     1       1.854  -3.203  -0.449  1.00  0.00    -0.352 N 
ATOM     28  C   UNL     1       2.965  -2.983   0.331  1.00  0.00     0.251 C 
ATOM     29  H   UNL     1       1.666  -2.507  -1.119  1.00  0.00     0.163 HD
ATOM     30  O   UNL     1       3.636  -1.962   0.207  1.00  0.00    -0.269 OA
BRANCH  28  31
ATOM     31  C   UNL     1       3.322  -3.962   1.375  1.00  0.00     0.039 A 
ATOM     32  C   UNL     1       3.555  -3.501   2.674  1.00  0.00     0.014 A 
ATOM     33  C   UNL     1       3.355  -5.327   1.090  1.00  0.00     0.014 A 
ATOM     34  C   UNL     1       3.716  -4.420   3.710  1.00  0.00     0.010 A 
ATOM     35  C   UNL     1       3.426  -6.240   2.134  1.00  0.00     0.010 A 
ATOM     36  C   UNL     1       3.593  -5.795   3.456  1.00  0.00    -0.014 A 
BRANCH  36  37
ATOM     37  C   UNL     1       3.614  -6.792   4.553  1.00  0.00     0.031 A 
ATOM     38  C   UNL     1       4.683  -7.846   4.585  1.00  0.00     0.074 A 
ATOM     39  C   UNL     1       2.617  -6.806   5.460  1.00  0.00     0.049 A 
ATOM     40  N   UNL     1       4.800  -8.882   5.375  1.00  0.00    -0.248 NA
ATOM     41  C   UNL     1       5.742  -7.742   3.568  1.00  0.00     0.031 C 
ATOM     42  C   UNL     1       1.491  -5.870   5.502  1.00  0.00     0.029 A 
ATOM     43  N   UNL     1       2.382  -7.652   6.515  1.00  0.00    -0.354 N 
ATOM     44  C   UNL     1       5.924  -9.566   4.933  1.00  0.00     0.074 A 
ATOM     45  C   UNL     1       6.426  -8.856   3.776  1.00  0.00     0.031 C 
ATOM     46  C   UNL     1       0.701  -6.178   6.543  1.00  0.00     0.029 A 
ATOM     47  C   UNL     1       1.240  -7.353   7.218  1.00  0.00     0.049 A 
ATOM     48  H   UNL     1       2.977  -8.402   6.747  1.00  0.00     0.167 HD
ATOM     49  C   UNL     1       6.500 -10.674   5.456  1.00  0.00     0.037 A 
ATOM     50  C   UNL     1       0.687  -7.965   8.282  1.00  0.00     0.037 A 
ATOM     51  C   UNL     1       6.022 -11.352   6.631  1.00  0.00     0.049 A 
ATOM     52  C   UNL     1       1.363  -9.175   8.863  1.00  0.00     0.074 A 
ATOM     53  C   UNL     1       6.565 -12.450   7.275  1.00  0.00     0.029 A 
ATOM     54  N   UNL     1       4.890 -10.988   7.344  1.00  0.00    -0.354 N 
ATOM     55  N   UNL     1       2.454  -9.782   8.465  1.00  0.00    -0.248 NA
ATOM     56  C   UNL     1       0.734  -9.781  10.045  1.00  0.00     0.031 C 
ATOM     57  C   UNL     1       5.747 -12.765   8.365  1.00  0.00     0.029 A 
ATOM     58  C   UNL     1       4.716 -11.841   8.420  1.00  0.00     0.049 A 
ATOM     59  H   UNL     1       4.298 -10.234   7.119  1.00  0.00     0.167 HD
ATOM     60  C   UNL     1       2.660 -10.821   9.363  1.00  0.00     0.074 A 
ATOM     61  C   UNL     1       1.585 -10.756  10.332  1.00  0.00     0.031 C 
ATOM     62  C   UNL     1       3.651 -11.745   9.384  1.00  0.00     0.037 A 
BRANCH  49  63
ATOM     63  C   UNL     1       7.718 -11.208   4.764  1.00  0.00     0.057 A 
ATOM     64  C   UNL     1       8.946 -10.534   4.810  1.00  0.00     0.134 A 
ATOM     65  C   UNL     1       7.670 -12.416   4.057  1.00  0.00     0.134 A 
ATOM     66  F   UNL     1       9.055  -9.364   5.457  1.00  0.00    -0.206 F 
ATOM     67  C   UNL     1      10.075 -11.028   4.156  1.00  0.00     0.040 A 
ATOM     68  C   UNL     1       8.799 -12.934   3.421  1.00  0.00     0.040 A 
ATOM     69  F   UNL     1       6.527 -13.113   3.976  1.00  0.00    -0.206 F 
ATOM     70  C   UNL     1      10.004 -12.235   3.463  1.00  0.00     0.006 A 
ENDBRANCH  49  63
BRANCH  50  71
ATOM     71  C   UNL     1      -0.553  -7.425   8.892  1.00  0.00     0.057 A 
ATOM     72  C   UNL     1      -0.520  -6.789  10.139  1.00  0.00     0.134 A 
ATOM     73  C   UNL     1      -1.795  -7.537   8.257  1.00  0.00     0.134 A 
ATOM     74  F   UNL     1       0.638  -6.667  10.803  1.00  0.00    -0.206 F 
ATOM     75  C   UNL     1      -1.681  -6.302  10.743  1.00  0.00     0.040 A 
ATOM     76  C   UNL     1      -2.960  -7.035   8.839  1.00  0.00     0.040 A 
ATOM     77  F   UNL     1      -1.891  -8.128   7.057  1.00  0.00    -0.206 F 
ATOM     78  C   UNL     1      -2.905  -6.421  10.090  1.00  0.00     0.006 A 
ENDBRANCH  50  71
BRANCH  62  79
ATOM     79  C   UNL     1       3.645 -12.727  10.516  1.00  0.00     0.057 A 
ATOM     80  C   UNL     1       2.734 -13.789  10.569  1.00  0.00     0.134 A 
ATOM     81  C   UNL     1       4.591 -12.630  11.544  1.00  0.00     0.134 A 
ATOM     82  F   UNL     1       1.795 -13.927   9.621  1.00  0.00    -0.206 F 
ATOM     83  C   UNL     1       2.753 -14.711  11.617  1.00  0.00     0.040 A 
ATOM     84  C   UNL     1       4.635 -13.559  12.584  1.00  0.00     0.040 A 
ATOM     85  F   UNL     1       5.496 -11.639  11.546  1.00  0.00    -0.206 F 
ATOM     86  C   UNL     1       3.710 -14.600  12.624  1.00  0.00     0.006 A 
ENDBRANCH  62  79
ENDBRANCH  36  37
ENDBRANCH  28  31
ENDBRANCH  26  27
ENDBRANCH  25  26
ENDBRANCH  24  25
ENDBRANCH   1  24
TORSDOF 15
