REMARK SMILES O=C(NCCCCNC(=O)c1cncnc1N1CC[C@H]2[NH2+]CCC[C@]2(CO)C1)c1ccc(-c2c3nc(c(-c4c(F)cccc4F)c4ccc([nH]4)c(-c4c(F)cccc4F)c4nc(c(-c5c(F)cccc5F)c5ccc2[nH]5)C=C4)C=C3)cc1
REMARK SMILES IDX 6 1 5 2 4 3 3 4 1 5 2 6 29 8 30 9 82 10 31 11 81 12 32 13
REMARK SMILES IDX 33 14 34 15 75 16 35 17 80 18 74 19 76 20 36 21 79 22 73 23
REMARK SMILES IDX 72 24 37 26 63 27 46 28 62 29 47 30 50 31 61 32 77 33 48 34
REMARK SMILES IDX 49 35 60 37 78 38 51 39 38 40 39 41 44 42 40 43 41 44 43 45
REMARK SMILES IDX 45 46 42 47 64 48 65 49 70 50 66 51 67 52 69 53 71 54 68 55
REMARK SMILES IDX 52 56 53 57 58 58 54 59 55 60 57 61 59 62 56 63 7 64 8 65
REMARK SMILES IDX 9 66 10 68 11 69 12 70 16 71 13 72 15 73 14 74 17 75 18 76
REMARK SMILES IDX 28 77 19 78 25 79 20 80 24 81 21 82 23 83 22 84 26 87 27 88
REMARK H PARENT 3 7 76 25 50 36 8 67 21 85 21 86 27 89
REMARK Flexibility Score: inf
ROOT
ATOM      1  C   UNL     1       4.421   2.204  -3.400  1.00  0.00     0.023 C 
ENDROOT
BRANCH   1   2
ATOM      2  C   UNL     1       4.905   0.968  -2.648  1.00  0.00     0.023 C 
BRANCH   2   3
ATOM      3  C   UNL     1       4.586   0.936  -1.160  1.00  0.00     0.116 C 
BRANCH   3   4
ATOM      4  N   UNL     1       3.160   0.901  -0.870  1.00  0.00    -0.352 N 
ATOM      5  O   UNL     1       1.240   0.089  -0.006  1.00  0.00    -0.269 OA
ATOM      6  C   UNL     1       2.458   0.039  -0.055  1.00  0.00     0.251 C 
ATOM      7  H   UNL     1       2.621   1.591  -1.319  1.00  0.00     0.163 HD
BRANCH   6   8
ATOM      8  C   UNL     1       3.192  -0.977   0.737  1.00  0.00     0.039 A 
ATOM      9  C   UNL     1       4.345  -0.630   1.441  1.00  0.00     0.014 A 
ATOM     10  C   UNL     1       2.729  -2.296   0.756  1.00  0.00     0.014 A 
ATOM     11  C   UNL     1       5.125  -1.626   2.015  1.00  0.00     0.010 A 
ATOM     12  C   UNL     1       3.466  -3.284   1.420  1.00  0.00     0.010 A 
ATOM     13  C   UNL     1       4.691  -2.963   2.023  1.00  0.00    -0.014 A 
BRANCH  13  14
ATOM     14  C   UNL     1       5.520  -3.974   2.729  1.00  0.00     0.031 A 
ATOM     15  C   UNL     1       6.189  -5.101   1.993  1.00  0.00     0.074 A 
ATOM     16  C   UNL     1       5.726  -3.815   4.051  1.00  0.00     0.049 A 
ATOM     17  N   UNL     1       7.013  -6.008   2.455  1.00  0.00    -0.248 NA
ATOM     18  C   UNL     1       5.895  -5.238   0.558  1.00  0.00     0.031 C 
ATOM     19  C   UNL     1       5.109  -2.773   4.877  1.00  0.00     0.029 A 
ATOM     20  N   UNL     1       6.533  -4.495   4.925  1.00  0.00    -0.354 N 
ATOM     21  C   UNL     1       7.327  -6.827   1.378  1.00  0.00     0.074 A 
ATOM     22  C   UNL     1       6.585  -6.327   0.241  1.00  0.00     0.031 C 
ATOM     23  C   UNL     1       5.612  -2.840   6.118  1.00  0.00     0.029 A 
ATOM     24  C   UNL     1       6.538  -3.963   6.191  1.00  0.00     0.049 A 
ATOM     25  H   UNL     1       7.059  -5.288   4.669  1.00  0.00     0.167 HD
ATOM     26  C   UNL     1       8.165  -7.892   1.341  1.00  0.00     0.037 A 
ATOM     27  C   UNL     1       7.209  -4.338   7.295  1.00  0.00     0.037 A 
ATOM     28  C   UNL     1       8.912  -8.381   2.473  1.00  0.00     0.049 A 
ATOM     29  C   UNL     1       8.138  -5.512   7.218  1.00  0.00     0.074 A 
ATOM     30  C   UNL     1       9.793  -9.448   2.530  1.00  0.00     0.029 A 
ATOM     31  N   UNL     1       8.870  -7.832   3.746  1.00  0.00    -0.354 N 
ATOM     32  N   UNL     1       8.433  -6.264   6.186  1.00  0.00    -0.248 NA
ATOM     33  C   UNL     1       8.823  -5.893   8.460  1.00  0.00     0.031 C 
ATOM     34  C   UNL     1      10.261  -9.563   3.844  1.00  0.00     0.029 A 
ATOM     35  C   UNL     1       9.701  -8.544   4.597  1.00  0.00     0.049 A 
ATOM     36  H   UNL     1       8.330  -7.051   4.006  1.00  0.00     0.167 HD
ATOM     37  C   UNL     1       9.335  -7.208   6.653  1.00  0.00     0.074 A 
ATOM     38  C   UNL     1       9.568  -6.910   8.052  1.00  0.00     0.031 C 
ATOM     39  C   UNL     1       9.909  -8.240   5.988  1.00  0.00     0.037 A 
BRANCH  26  40
ATOM     40  C   UNL     1       8.322  -8.613   0.034  1.00  0.00     0.057 A 
ATOM     41  C   UNL     1       9.070  -8.072  -1.019  1.00  0.00     0.134 A 
ATOM     42  C   UNL     1       7.779  -9.891  -0.149  1.00  0.00     0.134 A 
ATOM     43  F   UNL     1       9.608  -6.848  -0.912  1.00  0.00    -0.206 F 
ATOM     44  C   UNL     1       9.265  -8.774  -2.211  1.00  0.00     0.040 A 
ATOM     45  C   UNL     1       7.983 -10.610  -1.328  1.00  0.00     0.040 A 
ATOM     46  F   UNL     1       7.057 -10.470   0.823  1.00  0.00    -0.206 F 
ATOM     47  C   UNL     1       8.728 -10.050  -2.364  1.00  0.00     0.006 A 
ENDBRANCH  26  40
BRANCH  27  48
ATOM     48  C   UNL     1       7.016  -3.595   8.563  1.00  0.00     0.057 A 
ATOM     49  C   UNL     1       8.033  -2.802   9.104  1.00  0.00     0.134 A 
ATOM     50  C   UNL     1       5.801  -3.653   9.258  1.00  0.00     0.134 A 
ATOM     51  F   UNL     1       9.223  -2.720   8.492  1.00  0.00    -0.206 F 
ATOM     52  C   UNL     1       7.856  -2.105  10.300  1.00  0.00     0.040 A 
ATOM     53  C   UNL     1       5.601  -2.940  10.440  1.00  0.00     0.040 A 
ATOM     54  F   UNL     1       4.785  -4.388   8.784  1.00  0.00    -0.206 F 
ATOM     55  C   UNL     1       6.634  -2.168  10.968  1.00  0.00     0.006 A 
ENDBRANCH  27  48
BRANCH  39  56
ATOM     56  C   UNL     1      10.839  -9.111   6.776  1.00  0.00     0.057 A 
ATOM     57  C   UNL     1      10.360 -10.018   7.730  1.00  0.00     0.134 A 
ATOM     58  C   UNL     1      12.223  -9.041   6.584  1.00  0.00     0.134 A 
ATOM     59  F   UNL     1       9.043 -10.119   7.971  1.00  0.00    -0.206 F 
ATOM     60  C   UNL     1      11.228 -10.805   8.488  1.00  0.00     0.040 A 
ATOM     61  C   UNL     1      13.101  -9.839   7.319  1.00  0.00     0.040 A 
ATOM     62  F   UNL     1      12.745  -8.196   5.682  1.00  0.00    -0.206 F 
ATOM     63  C   UNL     1      12.604 -10.718   8.280  1.00  0.00     0.006 A 
ENDBRANCH  39  56
ENDBRANCH  13  14
ENDBRANCH   6   8
ENDBRANCH   3   4
ENDBRANCH   2   3
ENDBRANCH   1   2
BRANCH   1  64
ATOM     64  C   UNL     1       4.814   3.543  -2.784  1.00  0.00     0.116 C 
BRANCH  64  65
ATOM     65  N   UNL     1       6.254   3.705  -2.633  1.00  0.00    -0.352 N 
ATOM     66  C   UNL     1       7.077   4.685  -3.139  1.00  0.00     0.256 C 
ATOM     67  H   UNL     1       6.702   3.015  -2.091  1.00  0.00     0.163 HD
ATOM     68  O   UNL     1       8.274   4.677  -2.874  1.00  0.00    -0.269 OA
BRANCH  66  69
ATOM     69  C   UNL     1       6.500   5.751  -3.961  1.00  0.00     0.100 A 
ATOM     70  C   UNL     1       5.597   6.608  -3.353  1.00  0.00     0.130 A 
ATOM     71  C   UNL     1       6.847   6.032  -5.275  1.00  0.00     0.144 A 
ATOM     72  N   UNL     1       4.971   7.617  -3.983  1.00  0.00    -0.244 NA
ATOM     73  N   UNL     1       6.231   7.048  -5.927  1.00  0.00    -0.219 NA
ATOM     74  C   UNL     1       5.322   7.777  -5.263  1.00  0.00     0.224 A 
BRANCH  71  75
ATOM     75  N   UNL     1       7.848   5.409  -6.007  1.00  0.00    -0.355 N 
ATOM     76  C   UNL     1       8.026   3.962  -5.998  1.00  0.00     0.124 C 
ATOM     77  C   UNL     1       9.054   6.248  -6.106  1.00  0.00     0.133 C 
ATOM     78  C   UNL     1       8.870   3.520  -7.198  1.00  0.00     0.087 C 
ATOM     79  C   UNL     1       9.932   5.837  -7.305  1.00  0.00     0.063 C 
ATOM     80  C   UNL     1      10.185   4.309  -7.227  1.00  0.00     0.194 C 
ATOM     81  C   UNL     1      11.307   6.545  -7.191  1.00  0.00     0.023 C 
ATOM     82  N   UNL     1      11.061   3.856  -8.322  1.00  0.00    -0.343 N 
ATOM     83  C   UNL     1      12.292   6.027  -8.239  1.00  0.00     0.062 C 
ATOM     84  C   UNL     1      12.378   4.500  -8.234  1.00  0.00     0.260 C 
ATOM     85  H   UNL     1      10.631   4.093  -9.216  1.00  0.00     0.346 HD
ATOM     86  H   UNL     1      11.184   2.846  -8.247  1.00  0.00     0.346 HD
BRANCH  79  87
ATOM     87  C   UNL     1       9.216   6.247  -8.619  1.00  0.00     0.171 C 
BRANCH  87  88
ATOM     88  O   UNL     1       9.159   7.668  -8.751  1.00  0.00    -0.395 OA
ATOM     89  H   UNL     1       8.661   8.042  -8.007  1.00  0.00     0.210 HD
ENDBRANCH  87  88
ENDBRANCH  79  87
ENDBRANCH  71  75
ENDBRANCH  66  69
ENDBRANCH  64  65
ENDBRANCH   1  64
TORSDOF 14
