REMARK SMILES CCOC(=O)c1c(NC(=O)[C@@H]2[C@@H](C(=O)NCCCCNC(=O)c3ccc(-c4c5nc(c(-c6c(F)cccc6F)c6ccc([nH]6)c(-c6c(F)cccc6F)c6nc(c(-c7c(F)cccc7F)c7ccc4[nH]7)C=C6)C=C5)cc3)[C@@H]3C=C[C@H]2CC3)sc2c1CCC2
REMARK SMILES IDX 16 1 15 2 13 3 14 4 12 6 11 7 80 8 77 9 79 10 81 11 78 12
REMARK SMILES IDX 82 13 9 14 8 15 10 17 7 18 6 19 85 20 83 21 84 22 86 23
REMARK SMILES IDX 88 24 87 25 4 26 5 27 3 28 2 29 1 30 17 31 18 32 19 33 20 34
REMARK SMILES IDX 21 35 22 37 23 38 24 39 76 40 25 41 75 42 26 43 27 44 28 45
REMARK SMILES IDX 69 46 29 47 74 48 68 49 70 50 30 51 73 52 67 53 66 54 31 56
REMARK SMILES IDX 57 57 40 58 56 59 41 60 44 61 55 62 71 63 42 64 43 65 54 67
REMARK SMILES IDX 72 68 45 69 32 70 33 71 38 72 34 73 35 74 37 75 39 76 36 77
REMARK SMILES IDX 58 78 59 79 64 80 60 81 61 82 63 83 65 84 62 85 46 86 47 87
REMARK SMILES IDX 52 88 48 89 49 90 51 91 53 92 50 93
REMARK H PARENT 15 5 8 16 20 36 70 55 44 66
REMARK Flexibility Score: inf
ROOT
ATOM      1  C   UNL     1       8.553  -2.421   6.704  1.00  0.00     0.116 C 
ENDROOT
BRANCH   1   2
ATOM      2  N   UNL     1       8.908  -3.396   5.678  1.00  0.00    -0.356 N 
ATOM      3  C   UNL     1       8.294  -3.956   4.600  1.00  0.00     0.224 C 
ATOM      4  O   UNL     1       9.075  -4.511   3.809  1.00  0.00    -0.275 OA
ATOM      5  H   UNL     1       9.825  -3.734   5.796  1.00  0.00     0.163 HD
BRANCH   3   6
ATOM      6  C   UNL     1       6.778  -4.103   4.328  1.00  0.00     0.098 C 
ATOM      7  C   UNL     1       5.879  -2.870   4.512  1.00  0.00     0.099 C 
ATOM      8  C   UNL     1       4.742  -3.191   5.528  1.00  0.00     0.025 C 
ATOM      9  C   UNL     1       6.206  -5.311   5.141  1.00  0.00     0.025 C 
ATOM     10  C   UNL     1       3.968  -4.405   5.096  1.00  0.00    -0.027 C 
ATOM     11  C   UNL     1       5.375  -3.687   6.873  1.00  0.00     0.009 C 
ATOM     12  C   UNL     1       4.725  -5.501   4.905  1.00  0.00    -0.027 C 
ATOM     13  C   UNL     1       6.212  -4.984   6.633  1.00  0.00     0.009 C 
BRANCH   7  14
ATOM     14  C   UNL     1       5.554  -2.070   3.219  1.00  0.00     0.229 C 
ATOM     15  N   UNL     1       4.658  -2.302   2.225  1.00  0.00    -0.317 N 
ATOM     16  H   UNL     1       4.645  -1.592   1.543  1.00  0.00     0.170 HD
ATOM     17  O   UNL     1       6.175  -0.996   3.083  1.00  0.00    -0.274 OA
BRANCH  15  18
ATOM     18  C   UNL     1       3.765  -3.313   1.969  1.00  0.00     0.110 A 
ATOM     19  C   UNL     1       2.486  -3.225   1.407  1.00  0.00     0.098 A 
ATOM     20  C   UNL     1       1.796  -4.425   1.746  1.00  0.00    -0.017 A 
ATOM     21  S   UNL     1       4.265  -4.949   1.966  1.00  0.00    -0.122 S 
ATOM     22  C   UNL     1       2.665  -5.400   2.157  1.00  0.00     0.011 A 
ATOM     23  C   UNL     1       0.403  -4.937   1.772  1.00  0.00     0.038 C 
ATOM     24  C   UNL     1       2.024  -6.642   2.640  1.00  0.00     0.047 C 
ATOM     25  C   UNL     1       0.534  -6.186   2.707  1.00  0.00     0.010 C 
BRANCH  19  26
ATOM     26  C   UNL     1       2.005  -2.043   0.710  1.00  0.00     0.341 C 
ATOM     27  O   UNL     1       2.776  -1.206   0.254  1.00  0.00    -0.246 OA
BRANCH  26  28
ATOM     28  O   UNL     1       0.653  -2.021   0.543  1.00  0.00    -0.462 OA
BRANCH  28  29
ATOM     29  C   UNL     1       0.143  -1.102  -0.438  1.00  0.00     0.230 C 
ATOM     30  C   UNL     1       0.337   0.365  -0.088  1.00  0.00     0.049 C 
ENDBRANCH  28  29
ENDBRANCH  26  28
ENDBRANCH  19  26
ENDBRANCH  15  18
ENDBRANCH   7  14
ENDBRANCH   3   6
ENDBRANCH   1   2
BRANCH   1  31
ATOM     31  C   UNL     1       8.539  -2.926   8.157  1.00  0.00     0.023 C 
BRANCH  31  32
ATOM     32  C   UNL     1       9.887  -3.185   8.823  1.00  0.00     0.023 C 
BRANCH  32  33
ATOM     33  C   UNL     1      10.714  -1.930   9.045  1.00  0.00     0.116 C 
BRANCH  33  34
ATOM     34  N   UNL     1       9.982  -0.895   9.764  1.00  0.00    -0.352 N 
ATOM     35  C   UNL     1      10.249   0.468   9.805  1.00  0.00     0.251 C 
ATOM     36  H   UNL     1       9.203  -1.199  10.285  1.00  0.00     0.163 HD
ATOM     37  O   UNL     1       9.738   1.199  10.616  1.00  0.00    -0.269 OA
BRANCH  35  38
ATOM     38  C   UNL     1      11.212   0.975   8.817  1.00  0.00     0.039 A 
ATOM     39  C   UNL     1      12.425   1.509   9.246  1.00  0.00     0.014 A 
ATOM     40  C   UNL     1      10.956   0.737   7.468  1.00  0.00     0.014 A 
ATOM     41  C   UNL     1      13.434   1.704   8.309  1.00  0.00     0.010 A 
ATOM     42  C   UNL     1      11.993   0.826   6.561  1.00  0.00     0.010 A 
ATOM     43  C   UNL     1      13.233   1.320   6.971  1.00  0.00    -0.014 A 
BRANCH  43  44
ATOM     44  C   UNL     1      14.365   1.354   6.043  1.00  0.00     0.031 A 
ATOM     45  C   UNL     1      15.624   0.680   6.488  1.00  0.00     0.074 A 
ATOM     46  C   UNL     1      14.293   1.795   4.771  1.00  0.00     0.049 A 
ATOM     47  N   UNL     1      16.772   1.221   6.740  1.00  0.00    -0.248 NA
ATOM     48  C   UNL     1      15.587  -0.770   6.729  1.00  0.00     0.031 C 
ATOM     49  C   UNL     1      13.114   2.190   3.996  1.00  0.00     0.029 A 
ATOM     50  N   UNL     1      15.305   1.899   3.865  1.00  0.00    -0.354 N 
ATOM     51  C   UNL     1      17.654   0.175   7.016  1.00  0.00     0.074 A 
ATOM     52  C   UNL     1      16.845  -1.014   7.105  1.00  0.00     0.031 C 
ATOM     53  C   UNL     1      13.446   2.285   2.690  1.00  0.00     0.029 A 
ATOM     54  C   UNL     1      14.884   2.141   2.569  1.00  0.00     0.049 A 
ATOM     55  H   UNL     1      16.254   1.809   4.111  1.00  0.00     0.167 HD
ATOM     56  C   UNL     1      19.007   0.345   6.980  1.00  0.00     0.037 A 
ATOM     57  C   UNL     1      15.658   2.216   1.464  1.00  0.00     0.037 A 
ATOM     58  C   UNL     1      19.364   1.740   7.009  1.00  0.00     0.049 A 
ATOM     59  C   UNL     1      17.043   2.506   1.900  1.00  0.00     0.074 A 
ATOM     60  C   UNL     1      19.162   2.785   7.889  1.00  0.00     0.029 A 
ATOM     61  N   UNL     1      19.774   2.324   5.837  1.00  0.00    -0.354 N 
ATOM     62  N   UNL     1      17.424   3.635   2.428  1.00  0.00    -0.248 NA
ATOM     63  C   UNL     1      17.948   1.386   2.104  1.00  0.00     0.031 C 
ATOM     64  C   UNL     1      18.968   3.930   7.059  1.00  0.00     0.029 A 
ATOM     65  C   UNL     1      19.104   3.514   5.734  1.00  0.00     0.049 A 
ATOM     66  H   UNL     1      20.425   1.959   5.195  1.00  0.00     0.167 HD
ATOM     67  C   UNL     1      18.376   3.282   3.372  1.00  0.00     0.074 A 
ATOM     68  C   UNL     1      18.745   1.909   3.039  1.00  0.00     0.031 C 
ATOM     69  C   UNL     1      18.574   4.034   4.495  1.00  0.00     0.037 A 
BRANCH  56  70
ATOM     70  C   UNL     1      20.019  -0.716   6.603  1.00  0.00     0.057 A 
ATOM     71  C   UNL     1      21.395  -0.442   6.740  1.00  0.00     0.134 A 
ATOM     72  C   UNL     1      19.716  -1.863   5.846  1.00  0.00     0.134 A 
ATOM     73  F   UNL     1      21.822   0.627   7.430  1.00  0.00    -0.206 F 
ATOM     74  C   UNL     1      22.386  -1.203   6.105  1.00  0.00     0.040 A 
ATOM     75  C   UNL     1      20.700  -2.660   5.249  1.00  0.00     0.040 A 
ATOM     76  F   UNL     1      18.458  -2.218   5.560  1.00  0.00    -0.206 F 
ATOM     77  C   UNL     1      22.038  -2.313   5.348  1.00  0.00     0.006 A 
ENDBRANCH  56  70
BRANCH  57  78
ATOM     78  C   UNL     1      15.311   1.841   0.081  1.00  0.00     0.057 A 
ATOM     79  C   UNL     1      16.047   2.317  -1.010  1.00  0.00     0.134 A 
ATOM     80  C   UNL     1      14.409   0.795  -0.185  1.00  0.00     0.134 A 
ATOM     81  F   UNL     1      16.958   3.288  -0.845  1.00  0.00    -0.206 F 
ATOM     82  C   UNL     1      15.912   1.769  -2.291  1.00  0.00     0.040 A 
ATOM     83  C   UNL     1      14.258   0.244  -1.460  1.00  0.00     0.040 A 
ATOM     84  F   UNL     1      13.709   0.218   0.803  1.00  0.00    -0.206 F 
ATOM     85  C   UNL     1      15.023   0.721  -2.516  1.00  0.00     0.006 A 
ENDBRANCH  57  78
BRANCH  69  86
ATOM     86  C   UNL     1      17.951   5.401   4.548  1.00  0.00     0.057 A 
ATOM     87  C   UNL     1      16.568   5.634   4.526  1.00  0.00     0.134 A 
ATOM     88  C   UNL     1      18.773   6.508   4.786  1.00  0.00     0.134 A 
ATOM     89  F   UNL     1      15.696   4.625   4.411  1.00  0.00    -0.206 F 
ATOM     90  C   UNL     1      16.032   6.916   4.684  1.00  0.00     0.040 A 
ATOM     91  C   UNL     1      18.249   7.789   4.979  1.00  0.00     0.040 A 
ATOM     92  F   UNL     1      20.104   6.355   4.883  1.00  0.00    -0.206 F 
ATOM     93  C   UNL     1      16.874   7.998   4.917  1.00  0.00     0.006 A 
ENDBRANCH  69  86
ENDBRANCH  43  44
ENDBRANCH  35  38
ENDBRANCH  33  34
ENDBRANCH  32  33
ENDBRANCH  31  32
ENDBRANCH   1  31
TORSDOF 16
