REMARK SMILES C[C@@](NC(=O)CCOC1CC[NH2+]CC1)(C(=O)NCCCCNC(=O)c1ccc(-c2c3nc(c(-c4c(F)cccc4F)c4ccc([nH]4)c(-c4c(F)cccc4F)c4nc(c(-c5c(F)cccc5F)c5ccc2[nH]5)C=C4)C=C3)cc1)C(F)(F)F
REMARK SMILES IDX 18 1 17 2 15 3 16 4 2 6 1 7 3 8 4 9 5 11 6 12 7 13 8 14 9 15
REMARK SMILES IDX 10 16 14 17 11 18 13 19 12 20 79 23 80 24 81 25 82 26 19 27
REMARK SMILES IDX 20 28 21 29 22 30 23 31 24 33 25 34 26 35 78 36 27 37 77 38
REMARK SMILES IDX 28 39 29 40 30 41 71 42 31 43 76 44 70 45 72 46 32 47 75 48
REMARK SMILES IDX 69 49 68 50 33 52 59 53 42 54 58 55 43 56 46 57 57 58 73 59
REMARK SMILES IDX 44 60 45 61 56 63 74 64 47 65 34 66 35 67 40 68 36 69 37 70
REMARK SMILES IDX 39 71 41 72 38 73 60 74 61 75 66 76 62 77 63 78 65 79 67 80
REMARK SMILES IDX 64 81 48 82 49 83 54 84 50 85 51 86 53 87 55 88 52 89
REMARK H PARENT 17 5 3 10 12 21 12 22 22 32 72 51 46 62
REMARK Flexibility Score: inf
ROOT
ATOM      1  C   UNL     1      -1.234  -0.604  -1.273  1.00  0.00     0.116 C 
ENDROOT
BRANCH   1   2
ATOM      2  N   UNL     1      -1.924  -0.317  -0.024  1.00  0.00    -0.354 N 
ATOM      3  C   UNL     1      -1.576   0.339   1.122  1.00  0.00     0.254 C 
ATOM      4  O   UNL     1      -2.554   0.668   1.807  1.00  0.00    -0.272 OA
ATOM      5  H   UNL     1      -2.841  -0.673  -0.001  1.00  0.00     0.163 HD
BRANCH   3   6
ATOM      6  C   UNL     1      -0.147   0.792   1.535  1.00  0.00     0.212 C 
ATOM      7  C   UNL     1       0.934  -0.189   1.042  1.00  0.00     0.056 C 
BRANCH   6   8
ATOM      8  N   UNL     1       0.308   2.151   1.092  1.00  0.00    -0.334 N 
ATOM      9  C   UNL     1      -0.309   3.357   1.167  1.00  0.00     0.223 C 
ATOM     10  H   UNL     1       1.202   2.171   0.679  1.00  0.00     0.164 HD
ATOM     11  O   UNL     1       0.312   4.269   1.715  1.00  0.00    -0.275 OA
BRANCH   9  12
ATOM     12  C   UNL     1      -1.636   3.610   0.502  1.00  0.00     0.128 C 
BRANCH  12  13
ATOM     13  C   UNL     1      -1.793   3.110  -0.931  1.00  0.00     0.170 C 
BRANCH  13  14
ATOM     14  O   UNL     1      -0.807   3.532  -1.876  1.00  0.00    -0.377 OA
BRANCH  14  15
ATOM     15  C   UNL     1       0.393   2.746  -1.931  1.00  0.00     0.129 C 
ATOM     16  C   UNL     1       1.590   3.650  -1.661  1.00  0.00     0.093 C 
ATOM     17  C   UNL     1       0.555   2.060  -3.289  1.00  0.00     0.093 C 
ATOM     18  C   UNL     1       1.807   4.612  -2.821  1.00  0.00     0.263 C 
ATOM     19  C   UNL     1       0.858   3.052  -4.401  1.00  0.00     0.263 C 
ATOM     20  N   UNL     1       2.018   3.882  -4.073  1.00  0.00    -0.346 N 
ATOM     21  H   UNL     1       2.838   3.284  -3.976  1.00  0.00     0.346 HD
ATOM     22  H   UNL     1       2.154   4.558  -4.824  1.00  0.00     0.346 HD
ENDBRANCH  14  15
ENDBRANCH  13  14
ENDBRANCH  12  13
ENDBRANCH   9  12
ENDBRANCH   6   8
BRANCH   6  23
ATOM     23  C   UNL     1      -0.138   0.715   3.090  1.00  0.00     0.420 C 
ATOM     24  F   UNL     1      -0.425  -0.529   3.536  1.00  0.00    -0.168 F 
ATOM     25  F   UNL     1       1.110   1.009   3.552  1.00  0.00    -0.168 F 
ATOM     26  F   UNL     1      -0.976   1.589   3.681  1.00  0.00    -0.168 F 
ENDBRANCH   6  23
ENDBRANCH   3   6
ENDBRANCH   1   2
BRANCH   1  27
ATOM     27  C   UNL     1      -2.035  -1.458  -2.265  1.00  0.00     0.023 C 
BRANCH  27  28
ATOM     28  C   UNL     1      -3.420  -0.955  -2.698  1.00  0.00     0.023 C 
BRANCH  28  29
ATOM     29  C   UNL     1      -3.499   0.410  -3.382  1.00  0.00     0.116 C 
BRANCH  29  30
ATOM     30  N   UNL     1      -2.864   0.461  -4.690  1.00  0.00    -0.352 N 
ATOM     31  C   UNL     1      -3.382   0.688  -5.945  1.00  0.00     0.251 C 
ATOM     32  H   UNL     1      -1.892   0.305  -4.675  1.00  0.00     0.163 HD
ATOM     33  O   UNL     1      -2.631   0.647  -6.918  1.00  0.00    -0.269 OA
BRANCH  31  34
ATOM     34  C   UNL     1      -4.831   0.918  -6.162  1.00  0.00     0.039 A 
ATOM     35  C   UNL     1      -5.467   0.211  -7.189  1.00  0.00     0.014 A 
ATOM     36  C   UNL     1      -5.568   1.816  -5.388  1.00  0.00     0.014 A 
ATOM     37  C   UNL     1      -6.851   0.313  -7.361  1.00  0.00     0.010 A 
ATOM     38  C   UNL     1      -6.959   1.870  -5.517  1.00  0.00     0.010 A 
ATOM     39  C   UNL     1      -7.619   1.097  -6.485  1.00  0.00    -0.014 A 
BRANCH  39  40
ATOM     40  C   UNL     1      -9.107   1.056  -6.521  1.00  0.00     0.031 A 
ATOM     41  C   UNL     1      -9.912   2.282  -6.851  1.00  0.00     0.074 A 
ATOM     42  C   UNL     1      -9.744  -0.079  -6.168  1.00  0.00     0.049 A 
ATOM     43  N   UNL     1     -11.212   2.446  -6.840  1.00  0.00    -0.248 NA
ATOM     44  C   UNL     1      -9.157   3.488  -7.221  1.00  0.00     0.031 C 
ATOM     45  C   UNL     1      -9.091  -1.330  -5.775  1.00  0.00     0.029 A 
ATOM     46  N   UNL     1     -11.085  -0.363  -6.068  1.00  0.00    -0.354 N 
ATOM     47  C   UNL     1     -11.431   3.773  -7.185  1.00  0.00     0.074 A 
ATOM     48  C   UNL     1     -10.128   4.381  -7.361  1.00  0.00     0.031 C 
ATOM     49  C   UNL     1     -10.028  -2.247  -5.492  1.00  0.00     0.029 A 
ATOM     50  C   UNL     1     -11.348  -1.644  -5.647  1.00  0.00     0.049 A 
ATOM     51  H   UNL     1     -11.791   0.290  -6.278  1.00  0.00     0.167 HD
ATOM     52  C   UNL     1     -12.608   4.423  -7.357  1.00  0.00     0.037 A 
ATOM     53  C   UNL     1     -12.518  -2.266  -5.402  1.00  0.00     0.037 A 
ATOM     54  C   UNL     1     -13.907   3.818  -7.206  1.00  0.00     0.049 A 
ATOM     55  C   UNL     1     -13.809  -1.525  -5.604  1.00  0.00     0.074 A 
ATOM     56  C   UNL     1     -15.153   4.387  -7.415  1.00  0.00     0.029 A 
ATOM     57  N   UNL     1     -14.130   2.510  -6.806  1.00  0.00    -0.354 N 
ATOM     58  N   UNL     1     -13.998  -0.287  -5.989  1.00  0.00    -0.248 NA
ATOM     59  C   UNL     1     -15.049  -2.269  -5.340  1.00  0.00     0.031 C 
ATOM     60  C   UNL     1     -16.129   3.432  -7.110  1.00  0.00     0.029 A 
ATOM     61  C   UNL     1     -15.491   2.257  -6.748  1.00  0.00     0.049 A 
ATOM     62  H   UNL     1     -13.425   1.856  -6.595  1.00  0.00     0.167 HD
ATOM     63  C   UNL     1     -15.375  -0.112  -6.040  1.00  0.00     0.074 A 
ATOM     64  C   UNL     1     -15.974  -1.373  -5.657  1.00  0.00     0.031 C 
ATOM     65  C   UNL     1     -16.078   0.997  -6.374  1.00  0.00     0.037 A 
BRANCH  52  66
ATOM     66  C   UNL     1     -12.545   5.873  -7.738  1.00  0.00     0.057 A 
ATOM     67  C   UNL     1     -12.147   6.280  -9.018  1.00  0.00     0.134 A 
ATOM     68  C   UNL     1     -12.923   6.870  -6.830  1.00  0.00     0.134 A 
ATOM     69  F   UNL     1     -11.765   5.374  -9.931  1.00  0.00    -0.206 F 
ATOM     70  C   UNL     1     -12.102   7.629  -9.373  1.00  0.00     0.040 A 
ATOM     71  C   UNL     1     -12.905   8.221  -7.182  1.00  0.00     0.040 A 
ATOM     72  F   UNL     1     -13.324   6.548  -5.591  1.00  0.00    -0.206 F 
ATOM     73  C   UNL     1     -12.487   8.604  -8.455  1.00  0.00     0.006 A 
ENDBRANCH  52  66
BRANCH  53  74
ATOM     74  C   UNL     1     -12.525  -3.680  -4.954  1.00  0.00     0.057 A 
ATOM     75  C   UNL     1     -12.947  -4.704  -5.811  1.00  0.00     0.134 A 
ATOM     76  C   UNL     1     -12.122  -4.042  -3.664  1.00  0.00     0.134 A 
ATOM     77  F   UNL     1     -13.363  -4.415  -7.052  1.00  0.00    -0.206 F 
ATOM     78  C   UNL     1     -12.984  -6.035  -5.396  1.00  0.00     0.040 A 
ATOM     79  C   UNL     1     -12.133  -5.373  -3.242  1.00  0.00     0.040 A 
ATOM     80  F   UNL     1     -11.700  -3.108  -2.799  1.00  0.00    -0.206 F 
ATOM     81  C   UNL     1     -12.572  -6.373  -4.108  1.00  0.00     0.006 A 
ENDBRANCH  53  74
BRANCH  65  82
ATOM     82  C   UNL     1     -17.574   0.887  -6.373  1.00  0.00     0.057 A 
ATOM     83  C   UNL     1     -18.310   0.841  -5.182  1.00  0.00     0.134 A 
ATOM     84  C   UNL     1     -18.288   0.863  -7.577  1.00  0.00     0.134 A 
ATOM     85  F   UNL     1     -17.684   0.845  -3.995  1.00  0.00    -0.206 F 
ATOM     86  C   UNL     1     -19.704   0.755  -5.190  1.00  0.00     0.040 A 
ATOM     87  C   UNL     1     -19.682   0.799  -7.598  1.00  0.00     0.040 A 
ATOM     88  F   UNL     1     -17.643   0.909  -8.753  1.00  0.00    -0.206 F 
ATOM     89  C   UNL     1     -20.393   0.741  -6.401  1.00  0.00     0.006 A 
ENDBRANCH  65  82
ENDBRANCH  39  40
ENDBRANCH  31  34
ENDBRANCH  29  30
ENDBRANCH  28  29
ENDBRANCH  27  28
ENDBRANCH   1  27
TORSDOF 17
