REMARK SMILES CC(C)(C)OC(=O)Nc1ccc(-c2cccc(Cl)c2C(=O)NCCCCNC(=O)c2ccc(-c3c4nc(c(-c5c(F)cccc5F)c5ccc([nH]5)c(-c5c(F)cccc5F)c5nc(c(-c6c(F)cccc6F)c6ccc3[nH]6)C=C5)C=C4)cc2)cc1
REMARK SMILES IDX 23 1 22 2 20 3 21 4 19 6 13 7 14 8 15 9 17 10 16 11 18 12
REMARK SMILES IDX 12 13 9 14 10 15 85 16 11 17 84 18 8 19 6 20 7 21 5 23 2 24
REMARK SMILES IDX 1 25 3 26 4 27 24 28 25 29 26 30 27 31 28 32 29 34 30 35
REMARK SMILES IDX 31 36 83 37 32 38 82 39 33 40 34 41 35 42 76 43 36 44 81 45
REMARK SMILES IDX 75 46 77 47 37 48 80 49 74 50 73 51 38 53 64 54 47 55 63 56
REMARK SMILES IDX 48 57 51 58 62 59 78 60 49 61 50 62 61 64 79 65 52 66 39 67
REMARK SMILES IDX 40 68 45 69 41 70 42 71 44 72 46 73 43 74 65 75 66 76 71 77
REMARK SMILES IDX 67 78 68 79 70 80 72 81 69 82 53 83 54 84 59 85 55 86 56 87
REMARK SMILES IDX 58 88 60 89 57 90
REMARK H PARENT 22 5 8 22 27 33 77 52 51 63
REMARK Flexibility Score: inf
ROOT
ATOM      1  C   UNL     1       4.560  -1.579  -6.012  1.00  0.00     0.116 C 
ENDROOT
BRANCH   1   2
ATOM      2  N   UNL     1       5.897  -1.167  -5.694  1.00  0.00    -0.352 N 
ATOM      3  C   UNL     1       6.359   0.127  -5.529  1.00  0.00     0.253 C 
ATOM      4  O   UNL     1       7.335   0.270  -4.790  1.00  0.00    -0.269 OA
ATOM      5  H   UNL     1       6.560  -1.886  -5.580  1.00  0.00     0.163 HD
BRANCH   3   6
ATOM      6  C   UNL     1       5.809   1.348  -6.224  1.00  0.00     0.066 A 
ATOM      7  C   UNL     1       4.469   1.829  -6.152  1.00  0.00    -0.004 A 
ATOM      8  C   UNL     1       4.159   3.091  -6.722  1.00  0.00     0.009 A 
ATOM      9  C   UNL     1       5.118   3.880  -7.341  1.00  0.00     0.002 A 
ATOM     10  C   UNL     1       6.762   2.161  -6.894  1.00  0.00     0.054 A 
ATOM     11  C   UNL     1       6.417   3.411  -7.432  1.00  0.00     0.021 A 
ATOM     12  Cl  UNL     1       8.408   1.679  -7.175  1.00  0.00    -0.083 Cl
BRANCH   7  13
ATOM     13  C   UNL     1       3.328   1.135  -5.542  1.00  0.00    -0.017 A 
ATOM     14  C   UNL     1       1.211  -0.405  -4.455  1.00  0.00     0.044 A 
ATOM     15  C   UNL     1       1.259  -0.143  -5.825  1.00  0.00     0.027 A 
ATOM     16  C   UNL     1       2.195   0.163  -3.634  1.00  0.00     0.027 A 
ATOM     17  C   UNL     1       2.286   0.643  -6.357  1.00  0.00     0.011 A 
ATOM     18  C   UNL     1       3.241   0.927  -4.168  1.00  0.00     0.011 A 
BRANCH  14  19
ATOM     19  N   UNL     1       0.205  -1.284  -4.012  1.00  0.00    -0.291 N 
ATOM     20  C   UNL     1      -0.182  -1.646  -2.745  1.00  0.00     0.412 C 
ATOM     21  O   UNL     1      -1.060  -2.470  -2.554  1.00  0.00    -0.224 OA
ATOM     22  H   UNL     1      -0.310  -1.713  -4.734  1.00  0.00     0.173 HD
BRANCH  20  23
ATOM     23  O   UNL     1       0.465  -0.973  -1.774  1.00  0.00    -0.444 OA
BRANCH  23  24
ATOM     24  C   UNL     1       0.168  -1.154  -0.374  1.00  0.00     0.106 C 
ATOM     25  C   UNL     1       0.873   0.037   0.287  1.00  0.00     0.056 C 
ATOM     26  C   UNL     1       0.786  -2.460   0.126  1.00  0.00     0.056 C 
ATOM     27  C   UNL     1      -1.332  -1.072  -0.080  1.00  0.00     0.056 C 
ENDBRANCH  23  24
ENDBRANCH  20  23
ENDBRANCH  14  19
ENDBRANCH   7  13
ENDBRANCH   3   6
ENDBRANCH   1   2
BRANCH   1  28
ATOM     28  C   UNL     1       4.317  -2.998  -6.495  1.00  0.00     0.023 C 
BRANCH  28  29
ATOM     29  C   UNL     1       4.515  -4.135  -5.494  1.00  0.00     0.023 C 
BRANCH  29  30
ATOM     30  C   UNL     1       3.845  -3.991  -4.127  1.00  0.00     0.116 C 
BRANCH  30  31
ATOM     31  N   UNL     1       2.417  -3.732  -4.227  1.00  0.00    -0.352 N 
ATOM     32  C   UNL     1       1.331  -4.472  -3.827  1.00  0.00     0.251 C 
ATOM     33  H   UNL     1       2.188  -2.875  -4.656  1.00  0.00     0.163 HD
ATOM     34  O   UNL     1       0.260  -4.278  -4.400  1.00  0.00    -0.269 OA
BRANCH  32  35
ATOM     35  C   UNL     1       1.444  -5.514  -2.774  1.00  0.00     0.039 A 
ATOM     36  C   UNL     1       0.528  -6.570  -2.780  1.00  0.00     0.014 A 
ATOM     37  C   UNL     1       2.460  -5.498  -1.817  1.00  0.00     0.014 A 
ATOM     38  C   UNL     1       0.744  -7.682  -1.966  1.00  0.00     0.010 A 
ATOM     39  C   UNL     1       2.748  -6.652  -1.093  1.00  0.00     0.010 A 
ATOM     40  C   UNL     1       1.923  -7.776  -1.207  1.00  0.00    -0.014 A 
BRANCH  40  41
ATOM     41  C   UNL     1       2.368  -9.092  -0.682  1.00  0.00     0.031 A 
ATOM     42  C   UNL     1       2.590  -9.324   0.782  1.00  0.00     0.074 A 
ATOM     43  C   UNL     1       2.648 -10.064  -1.576  1.00  0.00     0.049 A 
ATOM     44  N   UNL     1       2.940 -10.426   1.395  1.00  0.00    -0.248 NA
ATOM     45  C   UNL     1       2.435  -8.165   1.674  1.00  0.00     0.031 C 
ATOM     46  C   UNL     1       2.579  -9.914  -3.035  1.00  0.00     0.029 A 
ATOM     47  N   UNL     1       3.036 -11.368  -1.404  1.00  0.00    -0.354 N 
ATOM     48  C   UNL     1       3.043 -10.096   2.739  1.00  0.00     0.074 A 
ATOM     49  C   UNL     1       2.788  -8.676   2.845  1.00  0.00     0.031 C 
ATOM     50  C   UNL     1       2.843 -11.092  -3.617  1.00  0.00     0.029 A 
ATOM     51  C   UNL     1       3.147 -12.069  -2.582  1.00  0.00     0.049 A 
ATOM     52  H   UNL     1       3.218 -11.764  -0.521  1.00  0.00     0.167 HD
ATOM     53  C   UNL     1       3.301 -10.912   3.790  1.00  0.00     0.037 A 
ATOM     54  C   UNL     1       3.450 -13.362  -2.803  1.00  0.00     0.037 A 
ATOM     55  C   UNL     1       3.557 -12.324   3.664  1.00  0.00     0.049 A 
ATOM     56  C   UNL     1       3.707 -14.248  -1.619  1.00  0.00     0.074 A 
ATOM     57  C   UNL     1       3.772 -13.256   4.664  1.00  0.00     0.029 A 
ATOM     58  N   UNL     1       3.644 -13.007   2.458  1.00  0.00    -0.354 N 
ATOM     59  N   UNL     1       3.695 -13.946  -0.343  1.00  0.00    -0.248 NA
ATOM     60  C   UNL     1       4.006 -15.656  -1.903  1.00  0.00     0.031 C 
ATOM     61  C   UNL     1       4.045 -14.489   4.061  1.00  0.00     0.029 A 
ATOM     62  C   UNL     1       3.935 -14.342   2.687  1.00  0.00     0.049 A 
ATOM     63  H   UNL     1       3.518 -12.601   1.569  1.00  0.00     0.167 HD
ATOM     64  C   UNL     1       3.959 -15.130   0.330  1.00  0.00     0.074 A 
ATOM     65  C   UNL     1       4.099 -16.159  -0.681  1.00  0.00     0.031 C 
ATOM     66  C   UNL     1       4.077 -15.348   1.664  1.00  0.00     0.037 A 
BRANCH  53  67
ATOM     67  C   UNL     1       3.316 -10.293   5.160  1.00  0.00     0.057 A 
ATOM     68  C   UNL     1       2.151  -9.787   5.757  1.00  0.00     0.134 A 
ATOM     69  C   UNL     1       4.500 -10.222   5.905  1.00  0.00     0.134 A 
ATOM     70  F   UNL     1       0.983  -9.813   5.098  1.00  0.00    -0.206 F 
ATOM     71  C   UNL     1       2.171  -9.205   7.026  1.00  0.00     0.040 A 
ATOM     72  C   UNL     1       4.526  -9.670   7.188  1.00  0.00     0.040 A 
ATOM     73  F   UNL     1       5.651 -10.691   5.402  1.00  0.00    -0.206 F 
ATOM     74  C   UNL     1       3.361  -9.151   7.748  1.00  0.00     0.006 A 
ENDBRANCH  53  67
BRANCH  54  75
ATOM     75  C   UNL     1       3.479 -13.899  -4.189  1.00  0.00     0.057 A 
ATOM     76  C   UNL     1       2.526 -14.826  -4.628  1.00  0.00     0.134 A 
ATOM     77  C   UNL     1       4.457 -13.502  -5.109  1.00  0.00     0.134 A 
ATOM     78  F   UNL     1       1.568 -15.256  -3.792  1.00  0.00    -0.206 F 
ATOM     79  C   UNL     1       2.559 -15.359  -5.918  1.00  0.00     0.040 A 
ATOM     80  C   UNL     1       4.485 -14.003  -6.412  1.00  0.00     0.040 A 
ATOM     81  F   UNL     1       5.391 -12.605  -4.760  1.00  0.00    -0.206 F 
ATOM     82  C   UNL     1       3.540 -14.943  -6.816  1.00  0.00     0.006 A 
ENDBRANCH  54  75
BRANCH  66  83
ATOM     83  C   UNL     1       4.341 -16.762   2.095  1.00  0.00     0.057 A 
ATOM     84  C   UNL     1       5.560 -17.404   1.838  1.00  0.00     0.134 A 
ATOM     85  C   UNL     1       3.360 -17.490   2.780  1.00  0.00     0.134 A 
ATOM     86  F   UNL     1       6.537 -16.767   1.174  1.00  0.00    -0.206 F 
ATOM     87  C   UNL     1       5.778 -18.731   2.210  1.00  0.00     0.040 A 
ATOM     88  C   UNL     1       3.579 -18.806   3.189  1.00  0.00     0.040 A 
ATOM     89  F   UNL     1       2.173 -16.934   3.068  1.00  0.00    -0.206 F 
ATOM     90  C   UNL     1       4.787 -19.434   2.893  1.00  0.00     0.006 A 
ENDBRANCH  66  83
ENDBRANCH  40  41
ENDBRANCH  32  35
ENDBRANCH  30  31
ENDBRANCH  29  30
ENDBRANCH  28  29
ENDBRANCH   1  28
TORSDOF 15
