REMARK SMILES COc1cccc([C@H](CC(=O)NCCCCNC(=O)c2ccc(-c3c4nc(c(-c5c(F)cccc5F)c5ccc([nH]5)c(-c5c(F)cccc5F)c5nc(c(-c6c(F)cccc6F)c6ccc3[nH]6)C=C5)C=C4)cc2)NS(=O)(=O)c2ccc3c(c2)C[C@@H](C)N3C(C)=O)c1
REMARK SMILES IDX 13 1 12 2 10 3 11 4 9 6 8 7 7 8 3 9 4 10 91 11 5 12 6 13
REMARK SMILES IDX 2 14 1 15 74 16 75 18 76 19 77 20 78 21 79 22 83 23 80 24
REMARK SMILES IDX 82 25 81 26 84 27 87 28 85 29 86 30 88 31 89 32 90 33 14 34
REMARK SMILES IDX 15 35 16 36 17 37 18 38 19 40 20 41 21 42 73 43 22 44 72 45
REMARK SMILES IDX 23 46 24 47 25 48 66 49 26 50 71 51 65 52 67 53 27 54 70 55
REMARK SMILES IDX 64 56 63 57 28 59 54 60 37 61 53 62 38 63 41 64 52 65 68 66
REMARK SMILES IDX 39 67 40 68 51 70 69 71 42 72 29 73 30 74 35 75 31 76 32 77
REMARK SMILES IDX 34 78 36 79 33 80 55 81 56 82 61 83 57 84 58 85 60 86 62 87
REMARK SMILES IDX 59 88 43 89 44 90 49 91 45 92 46 93 48 94 50 95 47 96
REMARK H PARENT 12 5 74 17 17 39 67 58 41 69
REMARK Flexibility Score: inf
ROOT
ATOM      1  C   UNL     1       2.688   3.451  -3.664  1.00  0.00     0.116 C 
ENDROOT
BRANCH   1   2
ATOM      2  N   UNL     1       1.908   2.544  -4.485  1.00  0.00    -0.356 N 
ATOM      3  C   UNL     1       2.003   1.191  -4.623  1.00  0.00     0.221 C 
ATOM      4  O   UNL     1       1.213   0.645  -5.394  1.00  0.00    -0.275 OA
ATOM      5  H   UNL     1       1.204   2.971  -5.024  1.00  0.00     0.163 HD
BRANCH   3   6
ATOM      6  C   UNL     1       3.025   0.391  -3.828  1.00  0.00     0.124 C 
BRANCH   6   7
ATOM      7  C   UNL     1       4.436   0.215  -4.448  1.00  0.00     0.109 C 
BRANCH   7   8
ATOM      8  C   UNL     1       4.610  -0.937  -5.423  1.00  0.00    -0.026 A 
ATOM      9  C   UNL     1       6.238  -2.288  -6.653  1.00  0.00     0.119 A 
ATOM     10  C   UNL     1       5.232  -2.684  -7.528  1.00  0.00     0.046 A 
ATOM     11  C   UNL     1       5.901  -1.483  -5.569  1.00  0.00     0.051 A 
ATOM     12  C   UNL     1       3.917  -2.266  -7.326  1.00  0.00     0.004 A 
ATOM     13  C   UNL     1       3.609  -1.383  -6.290  1.00  0.00     0.005 A 
BRANCH   9  14
ATOM     14  O   UNL     1       7.499  -2.713  -6.968  1.00  0.00    -0.497 OA
ATOM     15  C   UNL     1       8.581  -2.122  -6.251  1.00  0.00     0.278 C 
ENDBRANCH   9  14
ENDBRANCH   7   8
BRANCH   7  16
ATOM     16  N   UNL     1       4.885   1.476  -5.064  1.00  0.00    -0.203 NA
ATOM     17  H   UNL     1       4.419   2.214  -4.536  1.00  0.00     0.142 HD
BRANCH  16  18
ATOM     18  S   UNL     1       6.481   1.984  -5.218  1.00  0.00     0.241 S 
ATOM     19  O   UNL     1       7.322   0.946  -5.739  1.00  0.00    -0.207 OA
ATOM     20  O   UNL     1       6.414   3.269  -5.891  1.00  0.00    -0.207 OA
BRANCH  18  21
ATOM     21  C   UNL     1       6.984   2.290  -3.549  1.00  0.00     0.082 A 
ATOM     22  C   UNL     1       7.395   1.207  -2.739  1.00  0.00     0.024 A 
ATOM     23  C   UNL     1       7.024   3.605  -3.088  1.00  0.00     0.027 A 
ATOM     24  C   UNL     1       7.772   1.417  -1.413  1.00  0.00     0.028 A 
ATOM     25  C   UNL     1       7.357   3.791  -1.767  1.00  0.00    -0.021 A 
ATOM     26  C   UNL     1       7.700   2.710  -0.940  1.00  0.00     0.047 A 
ATOM     27  C   UNL     1       7.483   5.085  -1.017  1.00  0.00     0.063 C 
ATOM     28  N   UNL     1       7.975   3.201   0.350  1.00  0.00    -0.309 N 
ATOM     29  C   UNL     1       7.346   4.547   0.415  1.00  0.00     0.092 C 
ATOM     30  C   UNL     1       5.852   4.407   0.783  1.00  0.00     0.032 C 
BRANCH  28  31
ATOM     31  C   UNL     1       9.101   2.760   1.020  1.00  0.00     0.224 C 
ATOM     32  C   UNL     1      10.162   3.822   1.206  1.00  0.00     0.115 C 
ATOM     33  O   UNL     1       9.333   1.580   1.280  1.00  0.00    -0.275 OA
ENDBRANCH  28  31
ENDBRANCH  18  21
ENDBRANCH  16  18
ENDBRANCH   7  16
ENDBRANCH   6   7
ENDBRANCH   3   6
ENDBRANCH   1   2
BRANCH   1  34
ATOM     34  C   UNL     1       3.609   4.324  -4.508  1.00  0.00     0.023 C 
BRANCH  34  35
ATOM     35  C   UNL     1       2.942   5.410  -5.330  1.00  0.00     0.023 C 
BRANCH  35  36
ATOM     36  C   UNL     1       2.182   6.427  -4.508  1.00  0.00     0.116 C 
BRANCH  36  37
ATOM     37  N   UNL     1       3.013   7.082  -3.504  1.00  0.00    -0.352 N 
ATOM     38  C   UNL     1       3.247   8.422  -3.313  1.00  0.00     0.251 C 
ATOM     39  H   UNL     1       3.471   6.478  -2.875  1.00  0.00     0.163 HD
ATOM     40  O   UNL     1       4.100   8.798  -2.517  1.00  0.00    -0.269 OA
BRANCH  38  41
ATOM     41  C   UNL     1       2.475   9.398  -4.109  1.00  0.00     0.039 A 
ATOM     42  C   UNL     1       3.142  10.450  -4.738  1.00  0.00     0.014 A 
ATOM     43  C   UNL     1       1.104   9.214  -4.298  1.00  0.00     0.014 A 
ATOM     44  C   UNL     1       2.442  11.267  -5.628  1.00  0.00     0.010 A 
ATOM     45  C   UNL     1       0.445   9.943  -5.275  1.00  0.00     0.010 A 
ATOM     46  C   UNL     1       1.101  10.988  -5.941  1.00  0.00    -0.014 A 
BRANCH  46  47
ATOM     47  C   UNL     1       0.349  11.785  -6.941  1.00  0.00     0.031 A 
ATOM     48  C   UNL     1      -0.901  12.512  -6.524  1.00  0.00     0.074 A 
ATOM     49  C   UNL     1       0.740  11.790  -8.231  1.00  0.00     0.049 A 
ATOM     50  N   UNL     1      -1.751  13.185  -7.257  1.00  0.00    -0.248 NA
ATOM     51  C   UNL     1      -1.267  12.441  -5.099  1.00  0.00     0.031 C 
ATOM     52  C   UNL     1       1.898  11.075  -8.772  1.00  0.00     0.029 A 
ATOM     53  N   UNL     1       0.196  12.414  -9.326  1.00  0.00    -0.354 N 
ATOM     54  C   UNL     1      -2.755  13.593  -6.388  1.00  0.00     0.074 A 
ATOM     55  C   UNL     1      -2.449  13.035  -5.091  1.00  0.00     0.031 C 
ATOM     56  C   UNL     1       1.997  11.328 -10.087  1.00  0.00     0.029 A 
ATOM     57  C   UNL     1       0.887  12.184 -10.492  1.00  0.00     0.049 A 
ATOM     58  H   UNL     1      -0.613  12.973  -9.281  1.00  0.00     0.167 HD
ATOM     59  C   UNL     1      -3.820  14.389  -6.640  1.00  0.00     0.037 A 
ATOM     60  C   UNL     1       0.646  12.611 -11.746  1.00  0.00     0.037 A 
ATOM     61  C   UNL     1      -4.100  14.973  -7.924  1.00  0.00     0.049 A 
ATOM     62  C   UNL     1      -0.546  13.493 -12.000  1.00  0.00     0.074 A 
ATOM     63  C   UNL     1      -5.111  15.850  -8.269  1.00  0.00     0.029 A 
ATOM     64  N   UNL     1      -3.363  14.735  -9.075  1.00  0.00    -0.354 N 
ATOM     65  N   UNL     1      -1.444  13.937 -11.153  1.00  0.00    -0.248 NA
ATOM     66  C   UNL     1      -0.755  13.939 -13.385  1.00  0.00     0.031 C 
ATOM     67  C   UNL     1      -5.018  16.103  -9.641  1.00  0.00     0.029 A 
ATOM     68  C   UNL     1      -3.914  15.429 -10.138  1.00  0.00     0.049 A 
ATOM     69  H   UNL     1      -2.567  14.158  -9.127  1.00  0.00     0.167 HD
ATOM     70  C   UNL     1      -2.304  14.737 -11.894  1.00  0.00     0.074 A 
ATOM     71  C   UNL     1      -1.812  14.729 -13.256  1.00  0.00     0.031 C 
ATOM     72  C   UNL     1      -3.403  15.417 -11.485  1.00  0.00     0.037 A 
BRANCH  59  73
ATOM     73  C   UNL     1      -4.753  14.680  -5.500  1.00  0.00     0.057 A 
ATOM     74  C   UNL     1      -4.367  15.469  -4.407  1.00  0.00     0.134 A 
ATOM     75  C   UNL     1      -6.064  14.186  -5.506  1.00  0.00     0.134 A 
ATOM     76  F   UNL     1      -3.121  15.961  -4.331  1.00  0.00    -0.206 F 
ATOM     77  C   UNL     1      -5.239  15.731  -3.349  1.00  0.00     0.040 A 
ATOM     78  C   UNL     1      -6.955  14.467  -4.469  1.00  0.00     0.040 A 
ATOM     79  F   UNL     1      -6.502  13.426  -6.521  1.00  0.00    -0.206 F 
ATOM     80  C   UNL     1      -6.540  15.235  -3.383  1.00  0.00     0.006 A 
ENDBRANCH  59  73
BRANCH  60  81
ATOM     81  C   UNL     1       1.560  12.233 -12.854  1.00  0.00     0.057 A 
ATOM     82  C   UNL     1       2.372  13.189 -13.478  1.00  0.00     0.134 A 
ATOM     83  C   UNL     1       1.637  10.918 -13.327  1.00  0.00     0.134 A 
ATOM     84  F   UNL     1       2.331  14.470 -13.082  1.00  0.00    -0.206 F 
ATOM     85  C   UNL     1       3.206  12.857 -14.547  1.00  0.00     0.040 A 
ATOM     86  C   UNL     1       2.487  10.566 -14.377  1.00  0.00     0.040 A 
ATOM     87  F   UNL     1       0.893   9.952 -12.768  1.00  0.00    -0.206 F 
ATOM     88  C   UNL     1       3.268  11.540 -14.996  1.00  0.00     0.006 A 
ENDBRANCH  60  81
BRANCH  72  89
ATOM     89  C   UNL     1      -4.124  16.242 -12.511  1.00  0.00     0.057 A 
ATOM     90  C   UNL     1      -4.881  15.658 -13.533  1.00  0.00     0.134 A 
ATOM     91  C   UNL     1      -4.097  17.641 -12.443  1.00  0.00     0.134 A 
ATOM     92  F   UNL     1      -4.939  14.323 -13.660  1.00  0.00    -0.206 F 
ATOM     93  C   UNL     1      -5.568  16.436 -14.466  1.00  0.00     0.040 A 
ATOM     94  C   UNL     1      -4.804  18.429 -13.352  1.00  0.00     0.040 A 
ATOM     95  F   UNL     1      -3.400  18.264 -11.481  1.00  0.00    -0.206 F 
ATOM     96  C   UNL     1      -5.537  17.826 -14.371  1.00  0.00     0.006 A 
ENDBRANCH  72  89
ENDBRANCH  46  47
ENDBRANCH  38  41
ENDBRANCH  36  37
ENDBRANCH  35  36
ENDBRANCH  34  35
ENDBRANCH   1  34
TORSDOF 18
