REMARK SMILES COC(=O)c1ccc(N2C[C@@H](C(=O)NCCCCNC(=O)c3ccc(-c4c5nc(c(-c6c(F)cccc6F)c6ccc([nH]6)c(-c6c(F)cccc6F)c6nc(c(-c7c(F)cccc7F)c7ccc4[nH]7)C=C6)C=C5)cc3)CC2=O)cc1
REMARK SMILES IDX 16 1 15 2 14 3 12 4 13 5 11 7 9 8 10 9 77 10 76 11 78 12
REMARK SMILES IDX 8 13 5 14 6 15 80 16 7 17 79 18 3 19 4 20 2 21 1 22 17 23
REMARK SMILES IDX 18 24 19 25 20 26 21 28 22 29 23 30 75 31 24 32 74 33 25 34
REMARK SMILES IDX 26 35 27 36 68 37 28 38 73 39 67 40 69 41 29 42 72 43 66 44
REMARK SMILES IDX 65 45 30 47 56 48 39 49 55 50 40 51 43 52 54 53 70 54 41 55
REMARK SMILES IDX 42 56 53 58 71 59 44 60 31 61 32 62 37 63 33 64 34 65 36 66
REMARK SMILES IDX 38 67 35 68 57 69 58 70 63 71 59 72 60 73 62 74 64 75 61 76
REMARK SMILES IDX 45 77 46 78 51 79 47 80 48 81 50 82 52 83 49 84
REMARK H PARENT 14 6 19 27 69 46 43 57
REMARK Flexibility Score: inf
ROOT
ATOM      1  C   UNL     1      -3.818   1.868 -10.044  1.00  0.00     0.023 C 
ENDROOT
BRANCH   1   2
ATOM      2  C   UNL     1      -2.353   1.786  -9.617  1.00  0.00     0.116 C 
BRANCH   2   3
ATOM      3  N   UNL     1      -1.486   2.517 -10.522  1.00  0.00    -0.356 N 
ATOM      4  C   UNL     1      -0.753   3.647 -10.354  1.00  0.00     0.225 C 
ATOM      5  O   UNL     1      -0.092   4.038 -11.320  1.00  0.00    -0.275 OA
ATOM      6  H   UNL     1      -1.416   2.122 -11.420  1.00  0.00     0.163 HD
BRANCH   4   7
ATOM      7  C   UNL     1      -0.682   4.400  -9.041  1.00  0.00     0.107 C 
ATOM      8  N   UNL     1      -0.766   3.747  -6.773  1.00  0.00    -0.312 N 
ATOM      9  C   UNL     1       0.039   3.613  -7.964  1.00  0.00     0.139 C 
ATOM     10  C   UNL     1      -1.993   4.358  -7.025  1.00  0.00     0.227 C 
ATOM     11  C   UNL     1      -2.016   4.829  -8.457  1.00  0.00     0.116 C 
ATOM     12  O   UNL     1      -2.918   4.552  -6.250  1.00  0.00    -0.274 OA
BRANCH   8  13
ATOM     13  C   UNL     1      -0.343   3.245  -5.518  1.00  0.00     0.044 A 
ATOM     14  C   UNL     1       0.525   2.302  -3.007  1.00  0.00     0.060 A 
ATOM     15  C   UNL     1       1.446   2.814  -3.923  1.00  0.00     0.018 A 
ATOM     16  C   UNL     1      -0.831   2.258  -3.340  1.00  0.00     0.018 A 
ATOM     17  C   UNL     1       1.017   3.253  -5.178  1.00  0.00     0.027 A 
ATOM     18  C   UNL     1      -1.261   2.751  -4.580  1.00  0.00     0.027 A 
BRANCH  14  19
ATOM     19  C   UNL     1       1.034   1.847  -1.695  1.00  0.00     0.337 C 
ATOM     20  O   UNL     1       1.991   2.359  -1.133  1.00  0.00    -0.246 OA
BRANCH  19  21
ATOM     21  O   UNL     1       0.351   0.751  -1.288  1.00  0.00    -0.465 OA
ATOM     22  C   UNL     1       0.879   0.157  -0.100  1.00  0.00     0.282 C 
ENDBRANCH  19  21
ENDBRANCH  14  19
ENDBRANCH   8  13
ENDBRANCH   4   7
ENDBRANCH   2   3
ENDBRANCH   1   2
BRANCH   1  23
ATOM     23  C   UNL     1      -4.137   1.189 -11.378  1.00  0.00     0.023 C 
BRANCH  23  24
ATOM     24  C   UNL     1      -3.737  -0.278 -11.473  1.00  0.00     0.116 C 
BRANCH  24  25
ATOM     25  N   UNL     1      -4.361  -1.106 -10.453  1.00  0.00    -0.352 N 
ATOM     26  C   UNL     1      -5.000  -2.316 -10.590  1.00  0.00     0.251 C 
ATOM     27  H   UNL     1      -4.321  -0.751  -9.536  1.00  0.00     0.163 HD
ATOM     28  O   UNL     1      -5.587  -2.817  -9.637  1.00  0.00    -0.269 OA
BRANCH  26  29
ATOM     29  C   UNL     1      -5.006  -2.995 -11.902  1.00  0.00     0.039 A 
ATOM     30  C   UNL     1      -6.211  -3.499 -12.396  1.00  0.00     0.014 A 
ATOM     31  C   UNL     1      -3.834  -3.108 -12.655  1.00  0.00     0.014 A 
ATOM     32  C   UNL     1      -6.256  -4.050 -13.678  1.00  0.00     0.010 A 
ATOM     33  C   UNL     1      -3.896  -3.582 -13.961  1.00  0.00     0.010 A 
ATOM     34  C   UNL     1      -5.107  -4.057 -14.487  1.00  0.00    -0.014 A 
BRANCH  34  35
ATOM     35  C   UNL     1      -5.154  -4.549 -15.888  1.00  0.00     0.031 A 
ATOM     36  C   UNL     1      -4.338  -5.744 -16.297  1.00  0.00     0.074 A 
ATOM     37  C   UNL     1      -5.878  -3.881 -16.806  1.00  0.00     0.049 A 
ATOM     38  N   UNL     1      -4.191  -6.279 -17.483  1.00  0.00    -0.248 NA
ATOM     39  C   UNL     1      -3.561  -6.408 -15.238  1.00  0.00     0.031 C 
ATOM     40  C   UNL     1      -6.678  -2.682 -16.547  1.00  0.00     0.029 A 
ATOM     41  N   UNL     1      -6.052  -4.110 -18.148  1.00  0.00    -0.354 N 
ATOM     42  C   UNL     1      -3.302  -7.332 -17.314  1.00  0.00     0.074 A 
ATOM     43  C   UNL     1      -2.894  -7.323 -15.926  1.00  0.00     0.031 C 
ATOM     44  C   UNL     1      -7.279  -2.299 -17.685  1.00  0.00     0.029 A 
ATOM     45  C   UNL     1      -6.874  -3.196 -18.762  1.00  0.00     0.049 A 
ATOM     46  H   UNL     1      -5.628  -4.859 -18.626  1.00  0.00     0.167 HD
ATOM     47  C   UNL     1      -2.883  -8.243 -18.225  1.00  0.00     0.037 A 
ATOM     48  C   UNL     1      -7.253  -3.088 -20.050  1.00  0.00     0.037 A 
ATOM     49  C   UNL     1      -3.302  -8.259 -19.602  1.00  0.00     0.049 A 
ATOM     50  C   UNL     1      -6.752  -4.095 -21.049  1.00  0.00     0.074 A 
ATOM     51  C   UNL     1      -2.972  -9.167 -20.593  1.00  0.00     0.029 A 
ATOM     52  N   UNL     1      -4.139  -7.319 -20.185  1.00  0.00    -0.354 N 
ATOM     53  N   UNL     1      -5.963  -5.125 -20.862  1.00  0.00    -0.248 NA
ATOM     54  C   UNL     1      -7.199  -3.925 -22.439  1.00  0.00     0.031 C 
ATOM     55  C   UNL     1      -3.569  -8.748 -21.787  1.00  0.00     0.029 A 
ATOM     56  C   UNL     1      -4.318  -7.611 -21.527  1.00  0.00     0.049 A 
ATOM     57  H   UNL     1      -4.547  -6.556 -19.714  1.00  0.00     0.167 HD
ATOM     58  C   UNL     1      -5.846  -5.745 -22.099  1.00  0.00     0.074 A 
ATOM     59  C   UNL     1      -6.655  -4.982 -23.027  1.00  0.00     0.031 C 
ATOM     60  C   UNL     1      -5.134  -6.848 -22.437  1.00  0.00     0.037 A 
BRANCH  47  61
ATOM     61  C   UNL     1      -1.922  -9.298 -17.756  1.00  0.00     0.057 A 
ATOM     62  C   UNL     1      -2.310 -10.307 -16.864  1.00  0.00     0.134 A 
ATOM     63  C   UNL     1      -0.601  -9.321 -18.220  1.00  0.00     0.134 A 
ATOM     64  F   UNL     1      -3.557 -10.336 -16.371  1.00  0.00    -0.206 F 
ATOM     65  C   UNL     1      -1.411 -11.281 -16.426  1.00  0.00     0.040 A 
ATOM     66  C   UNL     1       0.299 -10.309 -17.814  1.00  0.00     0.040 A 
ATOM     67  F   UNL     1      -0.164  -8.390 -19.081  1.00  0.00    -0.206 F 
ATOM     68  C   UNL     1      -0.103 -11.287 -16.907  1.00  0.00     0.006 A 
ENDBRANCH  47  61
BRANCH  48  69
ATOM     69  C   UNL     1      -8.175  -2.001 -20.468  1.00  0.00     0.057 A 
ATOM     70  C   UNL     1      -9.485  -2.284 -20.874  1.00  0.00     0.134 A 
ATOM     71  C   UNL     1      -7.770  -0.661 -20.486  1.00  0.00     0.134 A 
ATOM     72  F   UNL     1      -9.925  -3.550 -20.896  1.00  0.00    -0.206 F 
ATOM     73  C   UNL     1     -10.351  -1.278 -21.304  1.00  0.00     0.040 A 
ATOM     74  C   UNL     1      -8.635   0.358 -20.887  1.00  0.00     0.040 A 
ATOM     75  F   UNL     1      -6.531  -0.322 -20.102  1.00  0.00    -0.206 F 
ATOM     76  C   UNL     1      -9.928   0.050 -21.306  1.00  0.00     0.006 A 
ENDBRANCH  48  69
BRANCH  60  77
ATOM     77  C   UNL     1      -5.233  -7.323 -23.858  1.00  0.00     0.057 A 
ATOM     78  C   UNL     1      -4.640  -6.626 -24.918  1.00  0.00     0.134 A 
ATOM     79  C   UNL     1      -5.899  -8.518 -24.163  1.00  0.00     0.134 A 
ATOM     80  F   UNL     1      -3.998  -5.468 -24.696  1.00  0.00    -0.206 F 
ATOM     81  C   UNL     1      -4.727  -7.086 -26.233  1.00  0.00     0.040 A 
ATOM     82  C   UNL     1      -5.967  -9.003 -25.469  1.00  0.00     0.040 A 
ATOM     83  F   UNL     1      -6.481  -9.240 -23.194  1.00  0.00    -0.206 F 
ATOM     84  C   UNL     1      -5.386  -8.283 -26.510  1.00  0.00     0.006 A 
ENDBRANCH  60  77
ENDBRANCH  34  35
ENDBRANCH  26  29
ENDBRANCH  24  25
ENDBRANCH  23  24
ENDBRANCH   1  23
TORSDOF 14
