REMARK SMILES Cc1cc(C)n([C@@H](C(=O)NCCCCNC(=O)c2ccc(-c3c4nc(c(-c5c(F)cccc5F)c5ccc([nH]5)c(-c5c(F)cccc5F)c5nc(c(-c6c(F)cccc6F)c6ccc3[nH]6)C=C5)C=C4)cc2)C(C)C)n1
REMARK SMILES IDX 13 1 12 2 11 3 10 4 8 5 9 6 7 8 6 9 1 10 2 11 3 12 75 13
REMARK SMILES IDX 4 14 5 15 72 16 73 17 74 18 14 19 15 20 16 21 17 23 18 24
REMARK SMILES IDX 19 25 71 26 20 27 70 28 21 29 22 30 23 31 64 32 24 33 69 34
REMARK SMILES IDX 63 35 65 36 25 37 68 38 62 39 61 40 26 42 52 43 35 44 51 45
REMARK SMILES IDX 36 46 39 47 50 48 66 49 37 50 38 51 49 53 67 54 40 55 27 56
REMARK SMILES IDX 28 57 33 58 29 59 30 60 32 61 34 62 31 63 53 64 54 65 59 66
REMARK SMILES IDX 55 67 56 68 58 69 60 70 57 71 41 72 42 73 47 74 43 75 44 76
REMARK SMILES IDX 46 77 48 78 45 79
REMARK H PARENT 10 7 15 22 65 41 39 52
REMARK Flexibility Score: inf
ROOT
ATOM      1  C   UNL     1       3.819   2.505  -4.072  1.00  0.00     0.023 C 
ENDROOT
BRANCH   1   2
ATOM      2  C   UNL     1       3.249   2.484  -2.647  1.00  0.00     0.023 C 
BRANCH   2   3
ATOM      3  C   UNL     1       3.333   3.800  -1.861  1.00  0.00     0.116 C 
BRANCH   3   4
ATOM      4  N   UNL     1       2.540   4.858  -2.467  1.00  0.00    -0.354 N 
ATOM      5  C   UNL     1       1.298   5.325  -2.127  1.00  0.00     0.245 C 
ATOM      6  O   UNL     1       0.789   6.152  -2.889  1.00  0.00    -0.273 OA
ATOM      7  H   UNL     1       2.959   5.306  -3.238  1.00  0.00     0.163 HD
BRANCH   5   8
ATOM      8  C   UNL     1       0.602   4.851  -0.843  1.00  0.00     0.199 C 
BRANCH   8   9
ATOM      9  N   UNL     1       0.233   3.437  -0.975  1.00  0.00    -0.257 N 
ATOM     10  C   UNL     1       0.918   0.132   0.113  1.00  0.00     0.069 C 
ATOM     11  C   UNL     1       0.400   1.359  -0.536  1.00  0.00     0.060 A 
ATOM     12  C   UNL     1      -0.468   1.466  -1.639  1.00  0.00     0.048 A 
ATOM     13  N   UNL     1       0.786   2.562  -0.101  1.00  0.00    -0.177 NA
ATOM     14  C   UNL     1      -0.565   2.816  -1.910  1.00  0.00     0.037 A 
ATOM     15  C   UNL     1      -1.314   3.504  -2.990  1.00  0.00     0.066 C 
ENDBRANCH   8   9
BRANCH   8  16
ATOM     16  C   UNL     1      -0.600   5.738  -0.399  1.00  0.00     0.017 C 
ATOM     17  C   UNL     1      -1.236   5.219   0.901  1.00  0.00     0.010 C 
ATOM     18  C   UNL     1      -0.198   7.203  -0.171  1.00  0.00     0.010 C 
ENDBRANCH   8  16
ENDBRANCH   5   8
ENDBRANCH   3   4
ENDBRANCH   2   3
ENDBRANCH   1   2
BRANCH   1  19
ATOM     19  C   UNL     1       5.301   2.826  -4.160  1.00  0.00     0.116 C 
BRANCH  19  20
ATOM     20  N   UNL     1       6.153   1.816  -3.530  1.00  0.00    -0.352 N 
ATOM     21  C   UNL     1       7.532   1.849  -3.387  1.00  0.00     0.251 C 
ATOM     22  H   UNL     1       5.695   1.023  -3.168  1.00  0.00     0.163 HD
ATOM     23  O   UNL     1       8.185   0.835  -3.224  1.00  0.00    -0.269 OA
BRANCH  21  24
ATOM     24  C   UNL     1       8.189   3.169  -3.414  1.00  0.00     0.039 A 
ATOM     25  C   UNL     1       9.367   3.401  -4.127  1.00  0.00     0.014 A 
ATOM     26  C   UNL     1       7.543   4.200  -2.739  1.00  0.00     0.014 A 
ATOM     27  C   UNL     1       9.840   4.709  -4.220  1.00  0.00     0.010 A 
ATOM     28  C   UNL     1       7.902   5.496  -2.985  1.00  0.00     0.010 A 
ATOM     29  C   UNL     1       9.086   5.755  -3.662  1.00  0.00    -0.014 A 
BRANCH  29  30
ATOM     30  C   UNL     1       9.446   7.152  -3.870  1.00  0.00     0.031 A 
ATOM     31  C   UNL     1       9.571   7.537  -5.301  1.00  0.00     0.074 A 
ATOM     32  C   UNL     1       9.435   8.063  -2.870  1.00  0.00     0.049 A 
ATOM     33  N   UNL     1      10.653   7.831  -5.940  1.00  0.00    -0.248 NA
ATOM     34  C   UNL     1       8.383   7.431  -6.166  1.00  0.00     0.031 C 
ATOM     35  C   UNL     1       9.015   7.883  -1.474  1.00  0.00     0.029 A 
ATOM     36  N   UNL     1       9.714   9.394  -2.919  1.00  0.00    -0.354 N 
ATOM     37  C   UNL     1      10.255   8.175  -7.229  1.00  0.00     0.074 A 
ATOM     38  C   UNL     1       8.896   7.722  -7.364  1.00  0.00     0.031 C 
ATOM     39  C   UNL     1       8.840   9.088  -0.887  1.00  0.00     0.029 A 
ATOM     40  C   UNL     1       9.313  10.113  -1.795  1.00  0.00     0.049 A 
ATOM     41  H   UNL     1      10.164   9.815  -3.686  1.00  0.00     0.167 HD
ATOM     42  C   UNL     1      10.994   9.041  -7.976  1.00  0.00     0.037 A 
ATOM     43  C   UNL     1       9.360  11.460  -1.634  1.00  0.00     0.037 A 
ATOM     44  C   UNL     1      12.301   9.230  -7.396  1.00  0.00     0.049 A 
ATOM     45  C   UNL     1      10.332  11.980  -2.625  1.00  0.00     0.074 A 
ATOM     46  C   UNL     1      13.388   8.422  -7.133  1.00  0.00     0.029 A 
ATOM     47  N   UNL     1      12.471  10.356  -6.630  1.00  0.00    -0.354 N 
ATOM     48  N   UNL     1      11.611  11.730  -2.586  1.00  0.00    -0.248 NA
ATOM     49  C   UNL     1       9.814  12.392  -3.918  1.00  0.00     0.031 C 
ATOM     50  C   UNL     1      13.907   8.895  -5.891  1.00  0.00     0.029 A 
ATOM     51  C   UNL     1      13.163  10.010  -5.501  1.00  0.00     0.049 A 
ATOM     52  H   UNL     1      12.149  11.259  -6.854  1.00  0.00     0.167 HD
ATOM     53  C   UNL     1      11.965  11.512  -3.909  1.00  0.00     0.074 A 
ATOM     54  C   UNL     1      10.842  12.029  -4.689  1.00  0.00     0.031 C 
ATOM     55  C   UNL     1      12.995  10.671  -4.225  1.00  0.00     0.037 A 
BRANCH  42  56
ATOM     56  C   UNL     1      10.422  10.039  -8.956  1.00  0.00     0.057 A 
ATOM     57  C   UNL     1      11.306  10.794  -9.751  1.00  0.00     0.134 A 
ATOM     58  C   UNL     1       9.094  10.510  -8.929  1.00  0.00     0.134 A 
ATOM     59  F   UNL     1      12.601  10.458  -9.849  1.00  0.00    -0.206 F 
ATOM     60  C   UNL     1      10.916  11.973 -10.398  1.00  0.00     0.040 A 
ATOM     61  C   UNL     1       8.683  11.658  -9.614  1.00  0.00     0.040 A 
ATOM     62  F   UNL     1       8.150   9.957  -8.161  1.00  0.00    -0.206 F 
ATOM     63  C   UNL     1       9.601  12.414 -10.323  1.00  0.00     0.006 A 
ENDBRANCH  42  56
BRANCH  43  64
ATOM     64  C   UNL     1       8.397  12.350  -0.944  1.00  0.00     0.057 A 
ATOM     65  C   UNL     1       8.732  13.677  -0.633  1.00  0.00     0.134 A 
ATOM     66  C   UNL     1       7.033  12.023  -0.854  1.00  0.00     0.134 A 
ATOM     67  F   UNL     1      10.002  14.098  -0.730  1.00  0.00    -0.206 F 
ATOM     68  C   UNL     1       7.765  14.632  -0.288  1.00  0.00     0.040 A 
ATOM     69  C   UNL     1       6.058  12.965  -0.508  1.00  0.00     0.040 A 
ATOM     70  F   UNL     1       6.592  10.803  -1.194  1.00  0.00    -0.206 F 
ATOM     71  C   UNL     1       6.420  14.280  -0.239  1.00  0.00     0.006 A 
ENDBRANCH  43  64
BRANCH  55  72
ATOM     72  C   UNL     1      13.913  10.238  -3.112  1.00  0.00     0.057 A 
ATOM     73  C   UNL     1      13.527   9.455  -2.013  1.00  0.00     0.134 A 
ATOM     74  C   UNL     1      15.278  10.516  -3.236  1.00  0.00     0.134 A 
ATOM     75  F   UNL     1      12.259   9.059  -1.851  1.00  0.00    -0.206 F 
ATOM     76  C   UNL     1      14.453   9.005  -1.064  1.00  0.00     0.040 A 
ATOM     77  C   UNL     1      16.217  10.045  -2.316  1.00  0.00     0.040 A 
ATOM     78  F   UNL     1      15.730  11.217  -4.289  1.00  0.00    -0.206 F 
ATOM     79  C   UNL     1      15.805   9.295  -1.219  1.00  0.00     0.006 A 
ENDBRANCH  55  72
ENDBRANCH  29  30
ENDBRANCH  21  24
ENDBRANCH  19  20
ENDBRANCH   1  19
TORSDOF 13
