REMARK SMILES O=C(CC[C@H]1CCCC[N@H+]1C[C@@H]1COc2ccccc21)NCCCCNC(=O)c1ccc(-c2c3nc(c(-c4c(F)cccc4F)c4ccc([nH]4)c(-c4c(F)cccc4F)c4nc(c(-c5c(F)cccc5F)c5ccc2[nH]5)C=C4)C=C3)cc1
REMARK SMILES IDX 22 1 21 2 1 3 2 4 3 6 4 7 5 8 6 9 10 10 7 11 9 12 8 14 11 15
REMARK SMILES IDX 12 16 13 17 20 18 14 19 15 20 19 21 16 22 18 23 17 24 23 25
REMARK SMILES IDX 24 26 25 27 26 28 27 29 28 31 29 32 30 33 82 34 31 35 81 36
REMARK SMILES IDX 32 37 33 38 34 39 75 40 35 41 80 42 74 43 76 44 36 45 79 46
REMARK SMILES IDX 73 47 72 48 37 50 63 51 46 52 62 53 47 54 50 55 61 56 77 57
REMARK SMILES IDX 48 58 49 59 60 61 78 62 51 63 38 64 39 65 44 66 40 67 41 68
REMARK SMILES IDX 43 69 45 70 42 71 64 72 65 73 70 74 66 75 67 76 69 77 71 78
REMARK SMILES IDX 68 79 52 80 53 81 58 82 54 83 55 84 57 85 59 86 56 87
REMARK H PARENT 21 5 10 13 26 30 76 49 50 60
REMARK Flexibility Score: inf
ROOT
ATOM      1  C   UNL     1      -0.585   4.217   0.295  1.00  0.00     0.116 C 
ENDROOT
BRANCH   1   2
ATOM      2  N   UNL     1       0.212   3.185  -0.335  1.00  0.00    -0.356 N 
ATOM      3  O   UNL     1      -0.853   3.261  -2.378  1.00  0.00    -0.275 OA
ATOM      4  C   UNL     1       0.027   2.805  -1.661  1.00  0.00     0.220 C 
ATOM      5  H   UNL     1       0.911   2.736   0.194  1.00  0.00     0.163 HD
BRANCH   4   6
ATOM      6  C   UNL     1       0.991   1.725  -2.110  1.00  0.00     0.106 C 
BRANCH   6   7
ATOM      7  C   UNL     1       1.756   1.909  -3.422  1.00  0.00     0.075 C 
BRANCH   7   8
ATOM      8  C   UNL     1       2.968   2.881  -3.436  1.00  0.00     0.184 C 
ATOM      9  C   UNL     1       2.740   4.030  -4.448  1.00  0.00     0.065 C 
ATOM     10  N   UNL     1       3.365   3.422  -2.155  1.00  0.00    -0.332 N 
ATOM     11  C   UNL     1       1.594   4.920  -4.025  1.00  0.00     0.012 C 
ATOM     12  C   UNL     1       2.785   4.684  -1.721  1.00  0.00     0.262 C 
ATOM     13  H   UNL     1       4.055   3.106  -2.837  1.00  0.00     0.348 HD
ATOM     14  C   UNL     1       1.817   5.463  -2.630  1.00  0.00     0.062 C 
BRANCH  10  15
ATOM     15  C   UNL     1       4.212   2.762  -1.153  1.00  0.00     0.274 C 
BRANCH  15  16
ATOM     16  C   UNL     1       4.739   1.300  -1.136  1.00  0.00     0.116 C 
ATOM     17  C   UNL     1       5.560   0.858  -2.352  1.00  0.00     0.244 C 
ATOM     18  C   UNL     1       3.790   0.163  -1.015  1.00  0.00     0.006 A 
ATOM     19  O   UNL     1       5.048  -0.392  -2.873  1.00  0.00    -0.492 OA
ATOM     20  C   UNL     1       4.013  -0.732  -2.046  1.00  0.00     0.123 A 
ATOM     21  C   UNL     1       2.813  -0.099  -0.061  1.00  0.00     0.008 A 
ATOM     22  C   UNL     1       3.232  -1.859  -2.219  1.00  0.00     0.047 A 
ATOM     23  C   UNL     1       1.982  -1.210  -0.242  1.00  0.00     0.001 A 
ATOM     24  C   UNL     1       2.185  -2.081  -1.322  1.00  0.00     0.004 A 
ENDBRANCH  15  16
ENDBRANCH  10  15
ENDBRANCH   7   8
ENDBRANCH   6   7
ENDBRANCH   4   6
ENDBRANCH   1   2
BRANCH   1  25
ATOM     25  C   UNL     1       0.006   4.758   1.606  1.00  0.00     0.023 C 
BRANCH  25  26
ATOM     26  C   UNL     1       1.320   5.553   1.546  1.00  0.00     0.023 C 
BRANCH  26  27
ATOM     27  C   UNL     1       1.349   6.801   0.660  1.00  0.00     0.116 C 
BRANCH  27  28
ATOM     28  N   UNL     1       0.518   7.885   1.142  1.00  0.00    -0.352 N 
ATOM     29  C   UNL     1       0.783   9.225   1.293  1.00  0.00     0.251 C 
ATOM     30  H   UNL     1      -0.391   7.615   1.406  1.00  0.00     0.163 HD
ATOM     31  O   UNL     1      -0.092   9.952   1.751  1.00  0.00    -0.269 OA
BRANCH  29  32
ATOM     32  C   UNL     1       2.108   9.818   0.967  1.00  0.00     0.039 A 
ATOM     33  C   UNL     1       2.635  10.749   1.871  1.00  0.00     0.014 A 
ATOM     34  C   UNL     1       2.802   9.551  -0.217  1.00  0.00     0.014 A 
ATOM     35  C   UNL     1       3.868  11.363   1.624  1.00  0.00     0.010 A 
ATOM     36  C   UNL     1       4.061  10.132  -0.442  1.00  0.00     0.010 A 
ATOM     37  C   UNL     1       4.614  11.038   0.479  1.00  0.00    -0.014 A 
BRANCH  37  38
ATOM     38  C   UNL     1       5.974  11.618   0.277  1.00  0.00     0.031 A 
ATOM     39  C   UNL     1       6.261  12.572  -0.853  1.00  0.00     0.074 A 
ATOM     40  C   UNL     1       6.976  11.269   1.111  1.00  0.00     0.049 A 
ATOM     41  N   UNL     1       7.389  13.155  -1.178  1.00  0.00    -0.248 NA
ATOM     42  C   UNL     1       5.138  12.904  -1.740  1.00  0.00     0.031 C 
ATOM     43  C   UNL     1       6.851  10.342   2.237  1.00  0.00     0.029 A 
ATOM     44  N   UNL     1       8.297  11.650   1.142  1.00  0.00    -0.354 N 
ATOM     45  C   UNL     1       7.115  13.918  -2.307  1.00  0.00     0.074 A 
ATOM     46  C   UNL     1       5.723  13.688  -2.636  1.00  0.00     0.031 C 
ATOM     47  C   UNL     1       8.036  10.242   2.858  1.00  0.00     0.029 A 
ATOM     48  C   UNL     1       9.017  11.063   2.155  1.00  0.00     0.049 A 
ATOM     49  H   UNL     1       8.689  12.284   0.499  1.00  0.00     0.167 HD
ATOM     50  C   UNL     1       7.939  14.745  -2.998  1.00  0.00     0.037 A 
ATOM     51  C   UNL     1      10.322  11.161   2.479  1.00  0.00     0.037 A 
ATOM     52  C   UNL     1       9.324  14.984  -2.671  1.00  0.00     0.049 A 
ATOM     53  C   UNL     1      11.224  12.055   1.673  1.00  0.00     0.074 A 
ATOM     54  C   UNL     1      10.219  15.843  -3.288  1.00  0.00     0.029 A 
ATOM     55  N   UNL     1      10.018  14.357  -1.647  1.00  0.00    -0.354 N 
ATOM     56  N   UNL     1      10.932  12.815   0.647  1.00  0.00    -0.248 NA
ATOM     57  C   UNL     1      12.638  12.106   2.074  1.00  0.00     0.031 C 
ATOM     58  C   UNL     1      11.468  15.693  -2.675  1.00  0.00     0.029 A 
ATOM     59  C   UNL     1      11.337  14.787  -1.636  1.00  0.00     0.049 A 
ATOM     60  H   UNL     1       9.632  13.703  -1.021  1.00  0.00     0.167 HD
ATOM     61  C   UNL     1      12.115  13.458   0.301  1.00  0.00     0.074 A 
ATOM     62  C   UNL     1      13.125  13.009   1.235  1.00  0.00     0.031 C 
ATOM     63  C   UNL     1      12.340  14.343  -0.701  1.00  0.00     0.037 A 
BRANCH  50  64
ATOM     64  C   UNL     1       7.369  15.456  -4.194  1.00  0.00     0.057 A 
ATOM     65  C   UNL     1       6.426  16.484  -4.064  1.00  0.00     0.134 A 
ATOM     66  C   UNL     1       7.808  15.145  -5.488  1.00  0.00     0.134 A 
ATOM     67  F   UNL     1       5.960  16.831  -2.855  1.00  0.00    -0.206 F 
ATOM     68  C   UNL     1       5.920  17.157  -5.179  1.00  0.00     0.040 A 
ATOM     69  C   UNL     1       7.331  15.830  -6.607  1.00  0.00     0.040 A 
ATOM     70  F   UNL     1       8.721  14.182  -5.685  1.00  0.00    -0.206 F 
ATOM     71  C   UNL     1       6.378  16.835  -6.454  1.00  0.00     0.006 A 
ENDBRANCH  50  64
BRANCH  51  72
ATOM     72  C   UNL     1      10.861  10.395   3.633  1.00  0.00     0.057 A 
ATOM     73  C   UNL     1      11.298  11.044   4.794  1.00  0.00     0.134 A 
ATOM     74  C   UNL     1      10.971   8.999   3.596  1.00  0.00     0.134 A 
ATOM     75  F   UNL     1      11.240  12.381   4.882  1.00  0.00    -0.206 F 
ATOM     76  C   UNL     1      11.844  10.338   5.867  1.00  0.00     0.040 A 
ATOM     77  C   UNL     1      11.488   8.277   4.673  1.00  0.00     0.040 A 
ATOM     78  F   UNL     1      10.566   8.316   2.516  1.00  0.00    -0.206 F 
ATOM     79  C   UNL     1      11.935   8.948   5.810  1.00  0.00     0.006 A 
ENDBRANCH  51  72
BRANCH  63  80
ATOM     80  C   UNL     1      13.724  14.918  -0.819  1.00  0.00     0.057 A 
ATOM     81  C   UNL     1      14.814  14.152  -1.251  1.00  0.00     0.134 A 
ATOM     82  C   UNL     1      13.961  16.268  -0.528  1.00  0.00     0.134 A 
ATOM     83  F   UNL     1      14.661  12.849  -1.533  1.00  0.00    -0.206 F 
ATOM     84  C   UNL     1      16.094  14.701  -1.365  1.00  0.00     0.040 A 
ATOM     85  C   UNL     1      15.229  16.835  -0.666  1.00  0.00     0.040 A 
ATOM     86  F   UNL     1      12.961  17.063  -0.117  1.00  0.00    -0.206 F 
ATOM     87  C   UNL     1      16.302  16.049  -1.079  1.00  0.00     0.006 A 
ENDBRANCH  63  80
ENDBRANCH  37  38
ENDBRANCH  29  32
ENDBRANCH  27  28
ENDBRANCH  26  27
ENDBRANCH  25  26
ENDBRANCH   1  25
TORSDOF 15
