REMARK SMILES O=C(NCCCCNC(=O)[C@H]1CCCN(C(=O)C2CC[NH+](Cc3ccco3)CC2)C1)c1ccc(-c2c3nc(c(-c4c(F)cccc4F)c4ccc([nH]4)c(-c4c(F)cccc4F)c4nc(c(-c5c(F)cccc5F)c5ccc2[nH]5)C=C4)C=C3)cc1
REMARK SMILES IDX 6 1 5 2 4 3 3 4 1 5 2 6 31 8 32 9 84 10 33 11 83 12 34 13
REMARK SMILES IDX 35 14 36 15 77 16 37 17 82 18 76 19 78 20 38 21 81 22 75 23
REMARK SMILES IDX 74 24 39 26 65 27 48 28 64 29 49 30 52 31 63 32 79 33 50 34
REMARK SMILES IDX 51 35 62 37 80 38 53 39 40 40 41 41 46 42 42 43 43 44 45 45
REMARK SMILES IDX 47 46 44 47 66 48 67 49 72 50 68 51 69 52 71 53 73 54 70 55
REMARK SMILES IDX 54 56 55 57 60 58 56 59 57 60 59 61 61 62 58 63 7 64 8 65
REMARK SMILES IDX 9 66 10 68 11 69 12 70 30 71 13 72 15 73 14 74 16 75 17 76
REMARK SMILES IDX 18 77 19 78 29 79 20 80 28 81 21 82 22 84 23 85 24 86 27 87
REMARK SMILES IDX 25 88 26 89
REMARK H PARENT 3 7 78 25 52 36 8 67 21 83
REMARK Flexibility Score: inf
ROOT
ATOM      1  C   UNL     1       6.133  -3.124  -4.618  1.00  0.00     0.023 C 
ENDROOT
BRANCH   1   2
ATOM      2  C   UNL     1       6.335  -2.873  -6.112  1.00  0.00     0.023 C 
BRANCH   2   3
ATOM      3  C   UNL     1       5.053  -2.803  -6.934  1.00  0.00     0.116 C 
BRANCH   3   4
ATOM      4  N   UNL     1       4.104  -1.810  -6.455  1.00  0.00    -0.352 N 
ATOM      5  O   UNL     1       2.538  -0.191  -6.679  1.00  0.00    -0.269 OA
ATOM      6  C   UNL     1       3.229  -1.047  -7.199  1.00  0.00     0.251 C 
ATOM      7  H   UNL     1       4.084  -1.665  -5.481  1.00  0.00     0.163 HD
BRANCH   6   8
ATOM      8  C   UNL     1       3.189  -1.266  -8.659  1.00  0.00     0.039 A 
ATOM      9  C   UNL     1       3.012  -2.554  -9.170  1.00  0.00     0.014 A 
ATOM     10  C   UNL     1       3.416  -0.183  -9.510  1.00  0.00     0.014 A 
ATOM     11  C   UNL     1       3.209  -2.782 -10.525  1.00  0.00     0.010 A 
ATOM     12  C   UNL     1       3.538  -0.405 -10.883  1.00  0.00     0.010 A 
ATOM     13  C   UNL     1       3.478  -1.711 -11.394  1.00  0.00    -0.014 A 
BRANCH  13  14
ATOM     14  C   UNL     1       3.666  -1.980 -12.839  1.00  0.00     0.031 A 
ATOM     15  C   UNL     1       4.996  -1.762 -13.502  1.00  0.00     0.074 A 
ATOM     16  C   UNL     1       2.626  -2.460 -13.545  1.00  0.00     0.049 A 
ATOM     17  N   UNL     1       5.338  -1.968 -14.749  1.00  0.00    -0.248 NA
ATOM     18  C   UNL     1       6.083  -1.237 -12.662  1.00  0.00     0.031 C 
ATOM     19  C   UNL     1       1.287  -2.709 -13.006  1.00  0.00     0.029 A 
ATOM     20  N   UNL     1       2.535  -2.847 -14.856  1.00  0.00    -0.354 N 
ATOM     21  C   UNL     1       6.666  -1.573 -14.851  1.00  0.00     0.074 A 
ATOM     22  C   UNL     1       7.065  -1.099 -13.543  1.00  0.00     0.031 C 
ATOM     23  C   UNL     1       0.524  -3.256 -13.963  1.00  0.00     0.029 A 
ATOM     24  C   UNL     1       1.301  -3.343 -15.194  1.00  0.00     0.049 A 
ATOM     25  H   UNL     1       3.282  -2.775 -15.494  1.00  0.00     0.167 HD
ATOM     26  C   UNL     1       7.476  -1.607 -15.937  1.00  0.00     0.037 A 
ATOM     27  C   UNL     1       0.843  -3.811 -16.368  1.00  0.00     0.037 A 
ATOM     28  C   UNL     1       7.081  -2.105 -17.229  1.00  0.00     0.049 A 
ATOM     29  C   UNL     1       1.760  -3.834 -17.554  1.00  0.00     0.074 A 
ATOM     30  C   UNL     1       7.841  -2.220 -18.381  1.00  0.00     0.029 A 
ATOM     31  N   UNL     1       5.812  -2.572 -17.541  1.00  0.00    -0.354 N 
ATOM     32  N   UNL     1       3.018  -3.478 -17.630  1.00  0.00    -0.248 NA
ATOM     33  C   UNL     1       1.190  -4.318 -18.818  1.00  0.00     0.031 C 
ATOM     34  C   UNL     1       7.022  -2.723 -19.399  1.00  0.00     0.029 A 
ATOM     35  C   UNL     1       5.763  -2.958 -18.871  1.00  0.00     0.049 A 
ATOM     36  H   UNL     1       5.058  -2.622 -16.911  1.00  0.00     0.167 HD
ATOM     37  C   UNL     1       3.399  -3.711 -18.943  1.00  0.00     0.074 A 
ATOM     38  C   UNL     1       2.240  -4.252 -19.625  1.00  0.00     0.031 C 
ATOM     39  C   UNL     1       4.601  -3.495 -19.532  1.00  0.00     0.037 A 
BRANCH  26  40
ATOM     40  C   UNL     1       8.868  -1.068 -15.778  1.00  0.00     0.057 A 
ATOM     41  C   UNL     1       9.857  -1.758 -15.066  1.00  0.00     0.134 A 
ATOM     42  C   UNL     1       9.231   0.148 -16.372  1.00  0.00     0.134 A 
ATOM     43  F   UNL     1       9.572  -2.922 -14.463  1.00  0.00    -0.206 F 
ATOM     44  C   UNL     1      11.150  -1.248 -14.932  1.00  0.00     0.040 A 
ATOM     45  C   UNL     1      10.526   0.658 -16.263  1.00  0.00     0.040 A 
ATOM     46  F   UNL     1       8.333   0.859 -17.072  1.00  0.00    -0.206 F 
ATOM     47  C   UNL     1      11.489  -0.038 -15.536  1.00  0.00     0.006 A 
ENDBRANCH  26  40
BRANCH  27  48
ATOM     48  C   UNL     1      -0.549  -4.311 -16.461  1.00  0.00     0.057 A 
ATOM     49  C   UNL     1      -0.815  -5.679 -16.582  1.00  0.00     0.134 A 
ATOM     50  C   UNL     1      -1.643  -3.441 -16.393  1.00  0.00     0.134 A 
ATOM     51  F   UNL     1       0.195  -6.558 -16.665  1.00  0.00    -0.206 F 
ATOM     52  C   UNL     1      -2.121  -6.165 -16.637  1.00  0.00     0.040 A 
ATOM     53  C   UNL     1      -2.955  -3.915 -16.424  1.00  0.00     0.040 A 
ATOM     54  F   UNL     1      -1.451  -2.120 -16.266  1.00  0.00    -0.206 F 
ATOM     55  C   UNL     1      -3.196  -5.282 -16.549  1.00  0.00     0.006 A 
ENDBRANCH  27  48
BRANCH  39  56
ATOM     56  C   UNL     1       4.723  -3.873 -20.977  1.00  0.00     0.057 A 
ATOM     57  C   UNL     1       4.142  -3.103 -21.992  1.00  0.00     0.134 A 
ATOM     58  C   UNL     1       5.442  -5.013 -21.356  1.00  0.00     0.134 A 
ATOM     59  F   UNL     1       3.427  -2.009 -21.691  1.00  0.00    -0.206 F 
ATOM     60  C   UNL     1       4.254  -3.467 -23.334  1.00  0.00     0.040 A 
ATOM     61  C   UNL     1       5.579  -5.375 -22.696  1.00  0.00     0.040 A 
ATOM     62  F   UNL     1       6.025  -5.790 -20.430  1.00  0.00    -0.206 F 
ATOM     63  C   UNL     1       4.979  -4.604 -23.689  1.00  0.00     0.006 A 
ENDBRANCH  39  56
ENDBRANCH  13  14
ENDBRANCH   6   8
ENDBRANCH   3   4
ENDBRANCH   2   3
ENDBRANCH   1   2
BRANCH   1  64
ATOM     64  C   UNL     1       5.210  -4.296  -4.311  1.00  0.00     0.116 C 
BRANCH  64  65
ATOM     65  N   UNL     1       5.781  -5.574  -4.710  1.00  0.00    -0.356 N 
ATOM     66  C   UNL     1       6.591  -6.491  -4.118  1.00  0.00     0.224 C 
ATOM     67  H   UNL     1       5.520  -5.835  -5.622  1.00  0.00     0.163 HD
ATOM     68  O   UNL     1       6.900  -7.452  -4.832  1.00  0.00    -0.275 OA
BRANCH  66  69
ATOM     69  C   UNL     1       7.163  -6.360  -2.697  1.00  0.00     0.098 C 
ATOM     70  C   UNL     1       6.265  -5.546  -1.757  1.00  0.00     0.017 C 
ATOM     71  C   UNL     1       7.497  -7.805  -2.180  1.00  0.00     0.133 C 
ATOM     72  C   UNL     1       6.418  -5.861  -0.291  1.00  0.00     0.022 C 
ATOM     73  N   UNL     1       7.413  -7.966  -0.719  1.00  0.00    -0.342 N 
ATOM     74  C   UNL     1       6.247  -7.351  -0.162  1.00  0.00     0.119 C 
BRANCH  73  75
ATOM     75  C   UNL     1       8.359  -8.677  -0.007  1.00  0.00     0.226 C 
ATOM     76  O   UNL     1       9.268  -9.262  -0.612  1.00  0.00    -0.275 OA
BRANCH  75  77
ATOM     77  C   UNL     1       8.339  -8.799   1.547  1.00  0.00     0.090 C 
ATOM     78  C   UNL     1       7.458  -9.905   2.122  1.00  0.00     0.075 C 
ATOM     79  C   UNL     1       8.287  -7.532   2.403  1.00  0.00     0.075 C 
ATOM     80  C   UNL     1       6.057  -9.456   2.520  1.00  0.00     0.263 C 
ATOM     81  C   UNL     1       6.927  -7.151   3.010  1.00  0.00     0.263 C 
ATOM     82  N   UNL     1       6.003  -8.239   3.329  1.00  0.00    -0.329 N 
ATOM     83  H   UNL     1       6.381  -8.582   4.212  1.00  0.00     0.348 HD
BRANCH  82  84
ATOM     84  C   UNL     1       4.619  -7.754   3.559  1.00  0.00     0.338 C 
BRANCH  84  85
ATOM     85  C   UNL     1       3.809  -7.424   2.334  1.00  0.00     0.157 A 
ATOM     86  C   UNL     1       3.075  -8.189   1.444  1.00  0.00     0.052 A 
ATOM     87  O   UNL     1       3.716  -6.106   1.978  1.00  0.00    -0.463 OA
ATOM     88  C   UNL     1       2.535  -7.299   0.484  1.00  0.00     0.042 A 
ATOM     89  C   UNL     1       2.936  -6.042   0.866  1.00  0.00     0.195 A 
ENDBRANCH  84  85
ENDBRANCH  82  84
ENDBRANCH  75  77
ENDBRANCH  73  75
ENDBRANCH  66  69
ENDBRANCH  64  65
ENDBRANCH   1  64
TORSDOF 15
