REMARK SMILES Cc1ccc(S(=O)(=O)N[C@@H](Cc2cccc(F)c2)C(=O)NCCCCNC(=O)c2ccc(-c3c4nc(c(-c5c(F)cccc5F)c5ccc([nH]5)c(-c5c(F)cccc5F)c5nc(c(-c6c(F)cccc6F)c6ccc3[nH]6)C=C5)C=C4)cc2)cc1
REMARK SMILES IDX 23 1 22 2 21 3 19 4 20 5 10 7 9 8 6 10 7 11 8 12 5 13 1 14
REMARK SMILES IDX 2 15 3 16 84 17 4 18 83 19 11 20 12 21 13 22 18 23 14 24
REMARK SMILES IDX 16 25 15 26 17 27 24 28 25 29 26 30 27 31 28 33 29 34 30 35
REMARK SMILES IDX 82 36 31 37 81 38 32 39 33 40 34 41 75 42 35 43 80 44 74 45
REMARK SMILES IDX 76 46 36 47 79 48 73 49 72 50 37 52 63 53 46 54 62 55 47 56
REMARK SMILES IDX 50 57 61 58 77 59 48 60 49 61 60 63 78 64 51 65 38 66 39 67
REMARK SMILES IDX 44 68 40 69 41 70 43 71 45 72 42 73 64 74 65 75 70 76 66 77
REMARK SMILES IDX 67 78 69 79 71 80 68 81 52 82 53 83 58 84 54 85 55 86 57 87
REMARK SMILES IDX 59 88 56 89
REMARK H PARENT 21 6 9 9 26 32 76 51 50 62
REMARK Flexibility Score: inf
ROOT
ATOM      1  C   UNL     1      -7.516   2.697   0.430  1.00  0.00     0.023 C 
ENDROOT
BRANCH   1   2
ATOM      2  C   UNL     1      -6.662   2.868  -0.830  1.00  0.00     0.116 C 
BRANCH   2   3
ATOM      3  N   UNL     1      -5.571   3.806  -0.621  1.00  0.00    -0.355 N 
ATOM      4  C   UNL     1      -4.229   3.649  -0.793  1.00  0.00     0.238 C 
ATOM      5  O   UNL     1      -3.497   4.588  -0.466  1.00  0.00    -0.273 OA
ATOM      6  H   UNL     1      -5.846   4.697  -0.304  1.00  0.00     0.163 HD
BRANCH   4   7
ATOM      7  C   UNL     1      -3.626   2.331  -1.307  1.00  0.00     0.163 C 
BRANCH   7   8
ATOM      8  N   UNL     1      -3.906   1.395  -0.191  1.00  0.00    -0.198 NA
ATOM      9  H   UNL     1      -3.539   1.855   0.642  1.00  0.00     0.142 HD
BRANCH   8  10
ATOM     10  S   UNL     1      -3.392  -0.175  -0.082  1.00  0.00     0.241 S 
ATOM     11  O   UNL     1      -3.705  -0.823  -1.344  1.00  0.00    -0.207 OA
ATOM     12  O   UNL     1      -3.907  -0.661   1.168  1.00  0.00    -0.207 OA
BRANCH  10  13
ATOM     13  C   UNL     1      -1.631  -0.114   0.064  1.00  0.00     0.082 A 
ATOM     14  C   UNL     1       2.662  -0.075   0.055  1.00  0.00     0.044 C 
ATOM     15  C   UNL     1       1.162  -0.087   0.087  1.00  0.00    -0.051 A 
ATOM     16  C   UNL     1       0.470  -1.283  -0.143  1.00  0.00     0.005 A 
ATOM     17  C   UNL     1       0.442   1.081   0.364  1.00  0.00     0.005 A 
ATOM     18  C   UNL     1      -0.923  -1.296  -0.167  1.00  0.00     0.022 A 
ATOM     19  C   UNL     1      -0.954   1.069   0.369  1.00  0.00     0.022 A 
ENDBRANCH  10  13
ENDBRANCH   8  10
ENDBRANCH   7   8
BRANCH   7  20
ATOM     20  C   UNL     1      -4.105   1.838  -2.683  1.00  0.00     0.065 C 
BRANCH  20  21
ATOM     21  C   UNL     1      -4.502   2.787  -3.802  1.00  0.00    -0.043 A 
ATOM     22  C   UNL     1      -5.021   2.201  -4.973  1.00  0.00     0.004 A 
ATOM     23  C   UNL     1      -4.423   4.184  -3.763  1.00  0.00     0.043 A 
ATOM     24  C   UNL     1      -5.488   2.981  -6.033  1.00  0.00     0.003 A 
ATOM     25  C   UNL     1      -4.942   4.956  -4.803  1.00  0.00     0.123 A 
ATOM     26  C   UNL     1      -5.477   4.367  -5.936  1.00  0.00     0.039 A 
ATOM     27  F   UNL     1      -4.933   6.291  -4.695  1.00  0.00    -0.207 F 
ENDBRANCH  20  21
ENDBRANCH   7  20
ENDBRANCH   4   7
ENDBRANCH   2   3
ENDBRANCH   1   2
BRANCH   1  28
ATOM     28  C   UNL     1      -8.178   3.978   0.939  1.00  0.00     0.023 C 
BRANCH  28  29
ATOM     29  C   UNL     1      -9.249   4.532   0.012  1.00  0.00     0.116 C 
BRANCH  29  30
ATOM     30  N   UNL     1     -10.568   3.952   0.209  1.00  0.00    -0.352 N 
ATOM     31  C   UNL     1     -11.751   4.179  -0.471  1.00  0.00     0.251 C 
ATOM     32  H   UNL     1     -10.629   3.296   0.941  1.00  0.00     0.163 HD
ATOM     33  O   UNL     1     -12.784   3.651  -0.066  1.00  0.00    -0.269 OA
BRANCH  31  34
ATOM     34  C   UNL     1     -11.756   4.902  -1.771  1.00  0.00     0.039 A 
ATOM     35  C   UNL     1     -12.623   4.428  -2.767  1.00  0.00     0.014 A 
ATOM     36  C   UNL     1     -10.781   5.836  -2.099  1.00  0.00     0.014 A 
ATOM     37  C   UNL     1     -12.318   4.652  -4.106  1.00  0.00     0.010 A 
ATOM     38  C   UNL     1     -10.403   5.964  -3.416  1.00  0.00     0.010 A 
ATOM     39  C   UNL     1     -11.129   5.306  -4.409  1.00  0.00    -0.014 A 
BRANCH  39  40
ATOM     40  C   UNL     1     -10.527   5.333  -5.730  1.00  0.00     0.031 A 
ATOM     41  C   UNL     1     -10.681   6.531  -6.569  1.00  0.00     0.074 A 
ATOM     42  C   UNL     1      -9.713   4.321  -6.098  1.00  0.00     0.049 A 
ATOM     43  N   UNL     1     -10.428   6.575  -7.829  1.00  0.00    -0.248 NA
ATOM     44  C   UNL     1     -11.167   7.795  -6.032  1.00  0.00     0.031 C 
ATOM     45  C   UNL     1      -8.803   4.277  -7.236  1.00  0.00     0.029 A 
ATOM     46  N   UNL     1      -9.718   3.008  -5.609  1.00  0.00    -0.354 N 
ATOM     47  C   UNL     1     -10.465   7.893  -8.222  1.00  0.00     0.074 A 
ATOM     48  C   UNL     1     -10.976   8.607  -7.075  1.00  0.00     0.031 C 
ATOM     49  C   UNL     1      -8.585   2.992  -7.560  1.00  0.00     0.029 A 
ATOM     50  C   UNL     1      -9.471   2.189  -6.737  1.00  0.00     0.049 A 
ATOM     51  H   UNL     1      -9.863   2.718  -4.679  1.00  0.00     0.167 HD
ATOM     52  C   UNL     1      -9.953   8.226  -9.442  1.00  0.00     0.037 A 
ATOM     53  C   UNL     1     -10.453   1.368  -7.217  1.00  0.00     0.037 A 
ATOM     54  C   UNL     1      -9.567   7.027 -10.190  1.00  0.00     0.049 A 
ATOM     55  C   UNL     1     -10.909   1.718  -8.621  1.00  0.00     0.074 A 
ATOM     56  C   UNL     1      -8.379   6.339 -10.376  1.00  0.00     0.029 A 
ATOM     57  N   UNL     1     -10.569   6.172 -10.614  1.00  0.00    -0.354 N 
ATOM     58  N   UNL     1     -10.515   2.777  -9.276  1.00  0.00    -0.248 NA
ATOM     59  C   UNL     1     -11.900   0.945  -9.370  1.00  0.00     0.031 C 
ATOM     60  C   UNL     1      -8.694   5.033 -10.857  1.00  0.00     0.029 A 
ATOM     61  C   UNL     1     -10.070   4.938 -10.981  1.00  0.00     0.049 A 
ATOM     62  H   UNL     1     -11.523   6.414 -10.649  1.00  0.00     0.167 HD
ATOM     63  C   UNL     1     -11.180   2.857 -10.464  1.00  0.00     0.074 A 
ATOM     64  C   UNL     1     -12.043   1.690 -10.480  1.00  0.00     0.031 C 
ATOM     65  C   UNL     1     -11.004   3.885 -11.343  1.00  0.00     0.037 A 
BRANCH  52  66
ATOM     66  C   UNL     1      -9.612   9.632  -9.878  1.00  0.00     0.057 A 
ATOM     67  C   UNL     1      -8.608   9.854 -10.841  1.00  0.00     0.134 A 
ATOM     68  C   UNL     1     -10.194  10.808  -9.373  1.00  0.00     0.134 A 
ATOM     69  F   UNL     1      -8.014   8.841 -11.486  1.00  0.00    -0.206 F 
ATOM     70  C   UNL     1      -8.157  11.134 -11.195  1.00  0.00     0.040 A 
ATOM     71  C   UNL     1      -9.716  12.092  -9.673  1.00  0.00     0.040 A 
ATOM     72  F   UNL     1     -11.298  10.783  -8.618  1.00  0.00    -0.206 F 
ATOM     73  C   UNL     1      -8.686  12.259 -10.583  1.00  0.00     0.006 A 
ENDBRANCH  52  66
BRANCH  53  74
ATOM     74  C   UNL     1     -11.324   0.843  -6.128  1.00  0.00     0.057 A 
ATOM     75  C   UNL     1     -10.722   0.109  -5.086  1.00  0.00     0.134 A 
ATOM     76  C   UNL     1     -12.586   1.385  -5.875  1.00  0.00     0.134 A 
ATOM     77  F   UNL     1      -9.512  -0.447  -5.265  1.00  0.00    -0.206 F 
ATOM     78  C   UNL     1     -11.275   0.058  -3.805  1.00  0.00     0.040 A 
ATOM     79  C   UNL     1     -13.164   1.312  -4.603  1.00  0.00     0.040 A 
ATOM     80  F   UNL     1     -13.223   2.102  -6.811  1.00  0.00    -0.206 F 
ATOM     81  C   UNL     1     -12.484   0.696  -3.552  1.00  0.00     0.006 A 
ENDBRANCH  53  74
BRANCH  65  82
ATOM     82  C   UNL     1     -11.735   3.953 -12.644  1.00  0.00     0.057 A 
ATOM     83  C   UNL     1     -11.740   2.882 -13.546  1.00  0.00     0.134 A 
ATOM     84  C   UNL     1     -12.357   5.136 -13.078  1.00  0.00     0.134 A 
ATOM     85  F   UNL     1     -11.134   1.724 -13.242  1.00  0.00    -0.206 F 
ATOM     86  C   UNL     1     -12.359   2.971 -14.796  1.00  0.00     0.040 A 
ATOM     87  C   UNL     1     -12.935   5.255 -14.343  1.00  0.00     0.040 A 
ATOM     88  F   UNL     1     -12.445   6.213 -12.283  1.00  0.00    -0.206 F 
ATOM     89  C   UNL     1     -12.947   4.165 -15.203  1.00  0.00     0.006 A 
ENDBRANCH  65  82
ENDBRANCH  39  40
ENDBRANCH  31  34
ENDBRANCH  29  30
ENDBRANCH  28  29
ENDBRANCH   1  28
TORSDOF 16
