REMARK SMILES O=C(NCCCCNC(=O)[C@H]1CC[C@@H](CN2CC(=O)N3CCCC[C@H]3C2=O)O1)c1ccc(-c2c3nc(c(-c4c(F)cccc4F)c4ccc([nH]4)c(-c4c(F)cccc4F)c4nc(c(-c5c(F)cccc5F)c5ccc2[nH]5)C=C4)C=C3)cc1
REMARK SMILES IDX 5 1 4 2 3 3 1 4 2 5 29 7 30 8 82 9 31 10 81 11 32 12 33 13
REMARK SMILES IDX 34 14 75 15 35 16 80 17 74 18 76 19 36 20 79 21 73 22 72 23
REMARK SMILES IDX 37 25 63 26 46 27 62 28 47 29 50 30 61 31 77 32 48 33 49 34
REMARK SMILES IDX 60 36 78 37 51 38 38 39 39 40 44 41 40 42 41 43 43 44 45 45
REMARK SMILES IDX 42 46 64 47 65 48 70 49 66 50 67 51 69 52 71 53 68 54 52 55
REMARK SMILES IDX 53 56 58 57 54 58 55 59 57 60 59 61 56 62 6 63 7 64 8 65
REMARK SMILES IDX 9 66 10 68 11 69 12 70 28 71 13 72 14 73 15 74 16 75 17 76
REMARK SMILES IDX 26 77 18 78 25 79 27 80 19 81 20 82 24 83 21 84 23 85 22 86
REMARK H PARENT 3 6 76 24 50 35 8 67
REMARK Flexibility Score: inf
ROOT
ATOM      1  C   UNL     1      10.295   0.836   6.740  1.00  0.00     0.023 C 
ENDROOT
BRANCH   1   2
ATOM      2  C   UNL     1      11.643   0.126   6.684  1.00  0.00     0.116 C 
BRANCH   2   3
ATOM      3  N   UNL     1      12.307   0.260   5.397  1.00  0.00    -0.352 N 
ATOM      4  O   UNL     1      13.915   0.871   3.939  1.00  0.00    -0.269 OA
ATOM      5  C   UNL     1      13.572   0.711   5.107  1.00  0.00     0.251 C 
ATOM      6  H   UNL     1      11.770  -0.013   4.617  1.00  0.00     0.163 HD
BRANCH   5   7
ATOM      7  C   UNL     1      14.514   1.031   6.201  1.00  0.00     0.039 A 
ATOM      8  C   UNL     1      14.683   0.163   7.282  1.00  0.00     0.014 A 
ATOM      9  C   UNL     1      15.251   2.217   6.131  1.00  0.00     0.014 A 
ATOM     10  C   UNL     1      15.487   0.539   8.353  1.00  0.00     0.010 A 
ATOM     11  C   UNL     1      16.116   2.559   7.173  1.00  0.00     0.010 A 
ATOM     12  C   UNL     1      16.219   1.736   8.305  1.00  0.00    -0.014 A 
BRANCH  12  13
ATOM     13  C   UNL     1      17.138   2.084   9.416  1.00  0.00     0.031 A 
ATOM     14  C   UNL     1      16.893   3.288  10.277  1.00  0.00     0.074 A 
ATOM     15  C   UNL     1      18.216   1.306   9.632  1.00  0.00     0.049 A 
ATOM     16  N   UNL     1      17.618   3.760  11.261  1.00  0.00    -0.248 NA
ATOM     17  C   UNL     1      15.683   4.073   9.993  1.00  0.00     0.031 C 
ATOM     18  C   UNL     1      18.568   0.121   8.846  1.00  0.00     0.029 A 
ATOM     19  N   UNL     1      19.215   1.397  10.566  1.00  0.00    -0.354 N 
ATOM     20  C   UNL     1      16.966   4.905  11.699  1.00  0.00     0.074 A 
ATOM     21  C   UNL     1      15.799   5.071  10.858  1.00  0.00     0.031 C 
ATOM     22  C   UNL     1      19.695  -0.412   9.338  1.00  0.00     0.029 A 
ATOM     23  C   UNL     1      20.174   0.423  10.434  1.00  0.00     0.049 A 
ATOM     24  H   UNL     1      19.242   2.092  11.262  1.00  0.00     0.167 HD
ATOM     25  C   UNL     1      17.309   5.736  12.713  1.00  0.00     0.037 A 
ATOM     26  C   UNL     1      21.328   0.237  11.099  1.00  0.00     0.037 A 
ATOM     27  C   UNL     1      18.467   5.556  13.552  1.00  0.00     0.049 A 
ATOM     28  C   UNL     1      21.699   1.182  12.203  1.00  0.00     0.074 A 
ATOM     29  C   UNL     1      18.868   6.309  14.642  1.00  0.00     0.029 A 
ATOM     30  N   UNL     1      19.417   4.558  13.386  1.00  0.00    -0.354 N 
ATOM     31  N   UNL     1      21.046   2.230  12.642  1.00  0.00    -0.248 NA
ATOM     32  C   UNL     1      22.963   0.921  12.903  1.00  0.00     0.031 C 
ATOM     33  C   UNL     1      20.086   5.798  15.103  1.00  0.00     0.029 A 
ATOM     34  C   UNL     1      20.419   4.696  14.333  1.00  0.00     0.049 A 
ATOM     35  H   UNL     1      19.384   3.856  12.697  1.00  0.00     0.167 HD
ATOM     36  C   UNL     1      21.810   2.748  13.678  1.00  0.00     0.074 A 
ATOM     37  C   UNL     1      22.970   1.888  13.811  1.00  0.00     0.031 C 
ATOM     38  C   UNL     1      21.571   3.836  14.449  1.00  0.00     0.037 A 
BRANCH  25  39
ATOM     39  C   UNL     1      16.435   6.934  12.953  1.00  0.00     0.057 A 
ATOM     40  C   UNL     1      15.147   6.818  13.491  1.00  0.00     0.134 A 
ATOM     41  C   UNL     1      16.901   8.224  12.668  1.00  0.00     0.134 A 
ATOM     42  F   UNL     1      14.636   5.612  13.780  1.00  0.00    -0.206 F 
ATOM     43  C   UNL     1      14.342   7.940  13.707  1.00  0.00     0.040 A 
ATOM     44  C   UNL     1      16.116   9.354  12.904  1.00  0.00     0.040 A 
ATOM     45  F   UNL     1      18.129   8.408  12.160  1.00  0.00    -0.206 F 
ATOM     46  C   UNL     1      14.829   9.213  13.418  1.00  0.00     0.006 A 
ENDBRANCH  25  39
BRANCH  26  47
ATOM     47  C   UNL     1      22.213  -0.887  10.710  1.00  0.00     0.057 A 
ATOM     48  C   UNL     1      22.349  -2.018  11.521  1.00  0.00     0.134 A 
ATOM     49  C   UNL     1      22.900  -0.878   9.489  1.00  0.00     0.134 A 
ATOM     50  F   UNL     1      21.726  -2.078  12.707  1.00  0.00    -0.206 F 
ATOM     51  C   UNL     1      23.139  -3.101  11.132  1.00  0.00     0.040 A 
ATOM     52  C   UNL     1      23.672  -1.963   9.077  1.00  0.00     0.040 A 
ATOM     53  F   UNL     1      22.798   0.175   8.664  1.00  0.00    -0.206 F 
ATOM     54  C   UNL     1      23.795  -3.079   9.902  1.00  0.00     0.006 A 
ENDBRANCH  26  47
BRANCH  38  55
ATOM     55  C   UNL     1      22.573   4.150  15.520  1.00  0.00     0.057 A 
ATOM     56  C   UNL     1      23.824   4.703  15.219  1.00  0.00     0.134 A 
ATOM     57  C   UNL     1      22.263   3.942  16.869  1.00  0.00     0.134 A 
ATOM     58  F   UNL     1      24.186   4.912  13.944  1.00  0.00    -0.206 F 
ATOM     59  C   UNL     1      24.737   5.026  16.224  1.00  0.00     0.040 A 
ATOM     60  C   UNL     1      23.158   4.282  17.884  1.00  0.00     0.040 A 
ATOM     61  F   UNL     1      21.079   3.420  17.224  1.00  0.00    -0.206 F 
ATOM     62  C   UNL     1      24.401   4.823  17.561  1.00  0.00     0.006 A 
ENDBRANCH  38  55
ENDBRANCH  12  13
ENDBRANCH   5   7
ENDBRANCH   2   3
ENDBRANCH   1   2
BRANCH   1  63
ATOM     63  C   UNL     1       9.258   0.370   5.719  1.00  0.00     0.023 C 
BRANCH  63  64
ATOM     64  C   UNL     1       9.013  -1.135   5.665  1.00  0.00     0.116 C 
BRANCH  64  65
ATOM     65  N   UNL     1       8.549  -1.683   6.925  1.00  0.00    -0.354 N 
ATOM     66  C   UNL     1       7.526  -2.554   7.170  1.00  0.00     0.249 C 
ATOM     67  H   UNL     1       9.045  -1.383   7.721  1.00  0.00     0.163 HD
ATOM     68  O   UNL     1       7.439  -3.031   8.305  1.00  0.00    -0.272 OA
BRANCH  66  69
ATOM     69  C   UNL     1       6.496  -2.869   6.071  1.00  0.00     0.207 C 
ATOM     70  C   UNL     1       6.019  -4.312   6.118  1.00  0.00     0.045 C 
ATOM     71  O   UNL     1       5.339  -2.038   6.275  1.00  0.00    -0.363 OA
ATOM     72  C   UNL     1       4.810  -4.245   7.015  1.00  0.00     0.037 C 
ATOM     73  C   UNL     1       4.238  -2.876   6.686  1.00  0.00     0.139 C 
BRANCH  73  74
ATOM     74  C   UNL     1       3.416  -2.221   7.806  1.00  0.00     0.152 C 
BRANCH  74  75
ATOM     75  N   UNL     1       4.140  -2.066   9.070  1.00  0.00    -0.329 N 
ATOM     76  C   UNL     1       4.877  -0.829   9.295  1.00  0.00     0.219 C 
ATOM     77  C   UNL     1       3.913  -2.943  10.116  1.00  0.00     0.245 C 
ATOM     78  C   UNL     1       6.049  -0.911  10.273  1.00  0.00     0.242 C 
ATOM     79  C   UNL     1       4.737  -2.705  11.392  1.00  0.00     0.174 C 
ATOM     80  O   UNL     1       3.058  -3.829  10.069  1.00  0.00    -0.272 OA
ATOM     81  O   UNL     1       6.923  -0.043  10.288  1.00  0.00    -0.273 OA
ATOM     82  N   UNL     1       5.947  -1.897  11.241  1.00  0.00    -0.329 N 
ATOM     83  C   UNL     1       3.886  -2.131  12.528  1.00  0.00     0.035 C 
ATOM     84  C   UNL     1       6.818  -1.872  12.405  1.00  0.00     0.120 C 
ATOM     85  C   UNL     1       4.717  -2.040  13.817  1.00  0.00     0.004 C 
ATOM     86  C   UNL     1       6.044  -1.300  13.597  1.00  0.00     0.022 C 
ENDBRANCH  74  75
ENDBRANCH  73  74
ENDBRANCH  66  69
ENDBRANCH  64  65
ENDBRANCH  63  64
ENDBRANCH   1  63
TORSDOF 13
