REMARK SMILES N#Cc1ccn2cc(C(=O)NCCCCNC(=O)c3ccc(-c4c5nc(c(-c6c(F)cccc6F)c6ccc([nH]6)c(-c6c(F)cccc6F)c6nc(c(-c7c(F)cccc7F)c7ccc4[nH]7)C=C6)C=C5)cc3)nc2c1
REMARK SMILES IDX 14 1 13 2 12 3 11 4 9 5 10 6 8 8 3 9 4 10 75 11 5 12 74 13
REMARK SMILES IDX 6 14 73 15 7 16 2 17 1 18 15 19 16 20 17 21 18 23 19 24
REMARK SMILES IDX 20 25 72 26 21 27 71 28 22 29 23 30 24 31 65 32 25 33 70 34
REMARK SMILES IDX 64 35 66 36 26 37 69 38 63 39 62 40 27 42 53 43 36 44 52 45
REMARK SMILES IDX 37 46 40 47 51 48 67 49 38 50 39 51 50 53 68 54 41 55 28 56
REMARK SMILES IDX 29 57 34 58 30 59 31 60 33 61 35 62 32 63 54 64 55 65 60 66
REMARK SMILES IDX 56 67 57 68 59 69 61 70 58 71 42 72 43 73 48 74 44 75 45 76
REMARK SMILES IDX 47 77 49 78 46 79
REMARK H PARENT 11 7 16 22 66 41 40 52
REMARK Flexibility Score: inf
ROOT
ATOM      1  C   UNL     1       9.385   6.562   1.142  1.00  0.00     0.023 C 
ENDROOT
BRANCH   1   2
ATOM      2  C   UNL     1       8.216   5.573   1.093  1.00  0.00     0.023 C 
BRANCH   2   3
ATOM      3  C   UNL     1       8.207   4.652  -0.124  1.00  0.00     0.116 C 
BRANCH   3   4
ATOM      4  N   UNL     1       9.292   3.687  -0.088  1.00  0.00    -0.351 N 
ATOM      5  C   UNL     1       9.285   2.308  -0.070  1.00  0.00     0.271 C 
ATOM      6  O   UNL     1      10.367   1.734  -0.078  1.00  0.00    -0.267 OA
ATOM      7  H   UNL     1      10.191   4.088  -0.074  1.00  0.00     0.163 HD
BRANCH   5   8
ATOM      8  C   UNL     1       8.020   1.563  -0.053  1.00  0.00     0.147 A 
ATOM      9  C   UNL     1       3.837  -0.053  -0.063  1.00  0.00     0.057 A 
ATOM     10  C   UNL     1       4.553  -1.329  -0.072  1.00  0.00     0.038 A 
ATOM     11  C   UNL     1       4.493   1.122  -0.048  1.00  0.00     0.067 A 
ATOM     12  C   UNL     1       5.899  -1.320  -0.071  1.00  0.00     0.094 A 
ATOM     13  C   UNL     1       5.911   1.125  -0.044  1.00  0.00     0.138 A 
ATOM     14  N   UNL     1       6.567  -0.097  -0.059  1.00  0.00    -0.306 N 
ATOM     15  N   UNL     1       6.759   2.122  -0.029  1.00  0.00    -0.223 NA
ATOM     16  C   UNL     1       7.908   0.179  -0.064  1.00  0.00     0.127 A 
BRANCH   9  17
ATOM     17  C   UNL     1       2.317  -0.053  -0.063  1.00  0.00     0.099 C 
ATOM     18  N   UNL     1       1.056  -0.053  -0.063  1.00  0.00    -0.192 NA
ENDBRANCH   9  17
ENDBRANCH   5   8
ENDBRANCH   3   4
ENDBRANCH   2   3
ENDBRANCH   1   2
BRANCH   1  19
ATOM     19  C   UNL     1       9.556   7.424  -0.111  1.00  0.00     0.116 C 
BRANCH  19  20
ATOM     20  N   UNL     1       8.373   8.169  -0.492  1.00  0.00    -0.352 N 
ATOM     21  C   UNL     1       7.846   9.383  -0.151  1.00  0.00     0.251 C 
ATOM     22  H   UNL     1       7.819   7.688  -1.150  1.00  0.00     0.163 HD
ATOM     23  O   UNL     1       6.886   9.768  -0.825  1.00  0.00    -0.269 OA
BRANCH  21  24
ATOM     24  C   UNL     1       8.300  10.229   0.987  1.00  0.00     0.039 A 
ATOM     25  C   UNL     1       9.429   9.999   1.772  1.00  0.00     0.014 A 
ATOM     26  C   UNL     1       7.480  11.331   1.302  1.00  0.00     0.014 A 
ATOM     27  C   UNL     1       9.691  10.794   2.883  1.00  0.00     0.010 A 
ATOM     28  C   UNL     1       7.746  12.142   2.401  1.00  0.00     0.010 A 
ATOM     29  C   UNL     1       8.837  11.851   3.211  1.00  0.00    -0.014 A 
BRANCH  29  30
ATOM     30  C   UNL     1       9.236  12.726   4.312  1.00  0.00     0.031 A 
ATOM     31  C   UNL     1      10.523  13.445   4.081  1.00  0.00     0.074 A 
ATOM     32  C   UNL     1       8.469  12.981   5.391  1.00  0.00     0.049 A 
ATOM     33  N   UNL     1      11.603  13.405   4.791  1.00  0.00    -0.248 NA
ATOM     34  C   UNL     1      10.658  14.216   2.833  1.00  0.00     0.031 C 
ATOM     35  C   UNL     1       7.079  12.573   5.608  1.00  0.00     0.029 A 
ATOM     36  N   UNL     1       8.738  13.753   6.487  1.00  0.00    -0.354 N 
ATOM     37  C   UNL     1      12.494  14.292   4.185  1.00  0.00     0.074 A 
ATOM     38  C   UNL     1      11.919  14.639   2.915  1.00  0.00     0.031 C 
ATOM     39  C   UNL     1       6.566  13.273   6.644  1.00  0.00     0.029 A 
ATOM     40  C   UNL     1       7.616  14.085   7.238  1.00  0.00     0.049 A 
ATOM     41  H   UNL     1       9.647  14.047   6.723  1.00  0.00     0.167 HD
ATOM     42  C   UNL     1      13.515  14.854   4.889  1.00  0.00     0.037 A 
ATOM     43  C   UNL     1       7.536  14.999   8.237  1.00  0.00     0.037 A 
ATOM     44  C   UNL     1      13.821  14.074   6.062  1.00  0.00     0.049 A 
ATOM     45  C   UNL     1       8.910  15.279   8.710  1.00  0.00     0.074 A 
ATOM     46  C   UNL     1      14.259  12.789   6.310  1.00  0.00     0.029 A 
ATOM     47  N   UNL     1      13.372  14.557   7.263  1.00  0.00    -0.354 N 
ATOM     48  N   UNL     1       9.631  14.453   9.410  1.00  0.00    -0.248 NA
ATOM     49  C   UNL     1       9.640  16.375   8.092  1.00  0.00     0.031 C 
ATOM     50  C   UNL     1      13.654  12.417   7.547  1.00  0.00     0.029 A 
ATOM     51  C   UNL     1      12.916  13.508   8.008  1.00  0.00     0.049 A 
ATOM     52  H   UNL     1      13.377  15.501   7.542  1.00  0.00     0.167 HD
ATOM     53  C   UNL     1      10.924  14.650   8.954  1.00  0.00     0.074 A 
ATOM     54  C   UNL     1      10.888  15.933   8.260  1.00  0.00     0.031 C 
ATOM     55  C   UNL     1      11.816  13.618   8.935  1.00  0.00     0.037 A 
BRANCH  42  56
ATOM     56  C   UNL     1      13.901  16.323   4.790  1.00  0.00     0.057 A 
ATOM     57  C   UNL     1      13.117  17.322   4.179  1.00  0.00     0.134 A 
ATOM     58  C   UNL     1      14.912  16.811   5.645  1.00  0.00     0.134 A 
ATOM     59  F   UNL     1      12.123  17.049   3.328  1.00  0.00    -0.206 F 
ATOM     60  C   UNL     1      13.251  18.682   4.480  1.00  0.00     0.040 A 
ATOM     61  C   UNL     1      15.022  18.164   5.988  1.00  0.00     0.040 A 
ATOM     62  F   UNL     1      15.757  15.973   6.265  1.00  0.00    -0.206 F 
ATOM     63  C   UNL     1      14.172  19.103   5.423  1.00  0.00     0.006 A 
ENDBRANCH  42  56
BRANCH  43  64
ATOM     64  C   UNL     1       6.387  15.817   8.691  1.00  0.00     0.057 A 
ATOM     65  C   UNL     1       5.368  16.210   7.808  1.00  0.00     0.134 A 
ATOM     66  C   UNL     1       6.401  16.463   9.938  1.00  0.00     0.134 A 
ATOM     67  F   UNL     1       5.301  15.717   6.564  1.00  0.00    -0.206 F 
ATOM     68  C   UNL     1       4.431  17.197   8.135  1.00  0.00     0.040 A 
ATOM     69  C   UNL     1       5.476  17.460  10.274  1.00  0.00     0.040 A 
ATOM     70  F   UNL     1       7.356  16.189  10.839  1.00  0.00    -0.206 F 
ATOM     71  C   UNL     1       4.492  17.838   9.366  1.00  0.00     0.006 A 
ENDBRANCH  43  64
BRANCH  55  72
ATOM     72  C   UNL     1      11.502  12.410   9.768  1.00  0.00     0.057 A 
ATOM     73  C   UNL     1      12.438  12.011  10.730  1.00  0.00     0.134 A 
ATOM     74  C   UNL     1      10.385  11.584   9.583  1.00  0.00     0.134 A 
ATOM     75  F   UNL     1      13.558  12.726  10.923  1.00  0.00    -0.206 F 
ATOM     76  C   UNL     1      12.268  10.851  11.487  1.00  0.00     0.040 A 
ATOM     77  C   UNL     1      10.183  10.441  10.363  1.00  0.00     0.040 A 
ATOM     78  F   UNL     1       9.487  11.830   8.619  1.00  0.00    -0.206 F 
ATOM     79  C   UNL     1      11.130  10.069  11.315  1.00  0.00     0.006 A 
ENDBRANCH  55  72
ENDBRANCH  29  30
ENDBRANCH  21  24
ENDBRANCH  19  20
ENDBRANCH   1  19
TORSDOF 12
