REMARK SMILES Cc1ccc2[nH]c(C(=O)NCCCCNC(=O)c3ccc(-c4c5nc(c(-c6c(F)cccc6F)c6ccc([nH]6)c(-c6c(F)cccc6F)c6nc(c(-c7c(F)cccc7F)c7ccc4[nH]7)C=C6)C=C5)cc3)c(C[N@@H+]3CCC[N@H+](Cc4ccncc4)CC3)c2c1
REMARK SMILES IDX 8 1 9 2 10 3 7 5 1 6 2 7 3 8 89 9 4 10 88 11 5 12 72 13 6 14
REMARK SMILES IDX 73 16 74 17 75 19 87 21 86 22 78 23 77 25 76 26 79 28 80 29
REMARK SMILES IDX 81 30 85 31 82 32 84 33 83 34 11 35 12 36 13 37 14 38 15 39
REMARK SMILES IDX 16 40 17 42 18 43 19 44 71 45 20 46 70 47 21 48 22 49 23 50
REMARK SMILES IDX 64 51 24 52 69 53 63 54 65 55 25 56 68 57 62 58 61 59 26 61
REMARK SMILES IDX 52 62 35 63 51 64 36 65 39 66 50 67 66 68 37 69 38 70 49 72
REMARK SMILES IDX 67 73 40 74 27 75 28 76 33 77 29 78 30 79 32 80 34 81 31 82
REMARK SMILES IDX 53 83 54 84 59 85 55 86 56 87 58 88 60 89 57 90 41 91 42 92
REMARK SMILES IDX 47 93 43 94 44 95 46 96 48 97 45 98
REMARK H PARENT 10 4 6 15 74 18 78 24 15 41 65 60 39 71
REMARK Flexibility Score: 90.00
ROOT
ATOM      1  C   UNL     1      -3.983  -1.087  -1.093  1.00  0.00     0.268 C 
ATOM      2  O   UNL     1      -4.724  -0.099  -1.147  1.00  0.00    -0.268 OA
ATOM      3  N   UNL     1      -4.598  -2.273  -1.395  1.00  0.00    -0.351 N 
ATOM      4  H   UNL     1      -5.580  -2.252  -1.319  1.00  0.00     0.163 HD
ENDROOT
BRANCH   1   5
ATOM      5  C   UNL     1      -2.568  -0.941  -0.776  1.00  0.00     0.114 A 
ATOM      6  C   UNL     1       3.416  -0.409   0.115  1.00  0.00     0.044 C 
ATOM      7  C   UNL     1       1.966  -0.103  -0.116  1.00  0.00    -0.050 A 
ATOM      8  C   UNL     1       1.540   1.181  -0.461  1.00  0.00     0.005 A 
ATOM      9  C   UNL     1       1.026  -1.139  -0.012  1.00  0.00     0.014 A 
ATOM     10  C   UNL     1       0.201   1.446  -0.765  1.00  0.00     0.027 A 
ATOM     11  C   UNL     1      -0.337  -0.891  -0.279  1.00  0.00     0.009 A 
ATOM     12  C   UNL     1      -0.700   0.378  -0.697  1.00  0.00     0.046 A 
ATOM     13  C   UNL     1      -1.540  -1.681  -0.161  1.00  0.00     0.045 A 
ATOM     14  N   UNL     1      -2.037   0.327  -0.968  1.00  0.00    -0.350 N 
ATOM     15  H   UNL     1      -2.565   1.103  -1.266  1.00  0.00     0.167 HD
BRANCH  13  16
ATOM     16  C   UNL     1      -1.510  -3.036   0.502  1.00  0.00     0.302 C 
BRANCH  16  17
ATOM     17  N   UNL     1      -2.209  -3.176   1.816  1.00  0.00    -0.326 N 
ATOM     18  H   UNL     1      -2.380  -4.174   1.942  1.00  0.00     0.348 HD
BRANCH  17  19
ATOM     19  C   UNL     1      -3.514  -2.525   1.852  1.00  0.00     0.268 CG0
ATOM     20  G   UNL     1      -4.578  -3.115   2.770  1.00  0.00     0.000 G0
ENDBRANCH  17  19
BRANCH  17  21
ATOM     21  C   UNL     1      -1.357  -2.678   2.916  1.00  0.00     0.324 C 
BRANCH  21  22
ATOM     22  C   UNL     1      -1.861  -2.818   4.385  1.00  0.00     0.324 C 
BRANCH  22  23
ATOM     23  N   UNL     1      -3.217  -2.452   4.785  1.00  0.00    -0.326 N 
ATOM     24  H   UNL     1      -3.173  -2.697   5.774  1.00  0.00     0.348 HD
BRANCH  23  25
ATOM     25  C   UNL     1      -4.246  -3.300   4.234  1.00  0.00     0.268 C 
BRANCH  25  26
ATOM     26  C   UNL     1      -4.578  -3.115   2.770  1.00  0.00     0.123 CG0
ATOM     27  G   UNL     1      -3.514  -2.525   1.852  1.00  0.00     0.000 G0
ENDBRANCH  25  26
ENDBRANCH  23  25
BRANCH  23  28
ATOM     28  C   UNL     1      -3.559  -1.071   5.115  1.00  0.00     0.299 C 
BRANCH  28  29
ATOM     29  C   UNL     1      -3.506  -0.049   4.006  1.00  0.00     0.009 A 
ATOM     30  C   UNL     1      -4.637   0.267   3.239  1.00  0.00     0.029 A 
ATOM     31  C   UNL     1      -2.290   0.542   3.654  1.00  0.00     0.029 A 
ATOM     32  C   UNL     1      -4.478   1.068   2.114  1.00  0.00     0.111 A 
ATOM     33  C   UNL     1      -2.234   1.336   2.519  1.00  0.00     0.111 A 
ATOM     34  N   UNL     1      -3.301   1.613   1.740  1.00  0.00    -0.265 NA
ENDBRANCH  28  29
ENDBRANCH  23  28
ENDBRANCH  22  23
ENDBRANCH  21  22
ENDBRANCH  17  21
ENDBRANCH  16  17
ENDBRANCH  13  16
ENDBRANCH   1   5
BRANCH   3  35
ATOM     35  C   UNL     1      -4.061  -3.547  -1.803  1.00  0.00     0.116 C 
BRANCH  35  36
ATOM     36  C   UNL     1      -4.089  -4.625  -0.729  1.00  0.00     0.023 C 
BRANCH  36  37
ATOM     37  C   UNL     1      -5.446  -5.019  -0.189  1.00  0.00     0.023 C 
BRANCH  37  38
ATOM     38  C   UNL     1      -6.024  -6.151  -0.983  1.00  0.00     0.116 C 
BRANCH  38  39
ATOM     39  N   UNL     1      -5.176  -7.346  -0.905  1.00  0.00    -0.352 N 
ATOM     40  C   UNL     1      -5.519  -8.639  -0.594  1.00  0.00     0.251 C 
ATOM     41  H   UNL     1      -4.223  -7.199  -1.105  1.00  0.00     0.163 HD
ATOM     42  O   UNL     1      -4.673  -9.482  -0.368  1.00  0.00    -0.269 OA
BRANCH  40  43
ATOM     43  C   UNL     1      -6.953  -8.949  -0.516  1.00  0.00     0.039 A 
ATOM     44  C   UNL     1      -7.439  -9.737   0.523  1.00  0.00     0.014 A 
ATOM     45  C   UNL     1      -7.815  -8.333  -1.422  1.00  0.00     0.014 A 
ATOM     46  C   UNL     1      -8.816  -9.858   0.674  1.00  0.00     0.010 A 
ATOM     47  C   UNL     1      -9.155  -8.268  -1.128  1.00  0.00     0.010 A 
ATOM     48  C   UNL     1      -9.678  -9.093  -0.130  1.00  0.00    -0.014 A 
BRANCH  48  49
ATOM     49  C   UNL     1     -11.146  -9.205  -0.045  1.00  0.00     0.031 A 
ATOM     50  C   UNL     1     -11.912  -9.575  -1.289  1.00  0.00     0.074 A 
ATOM     51  C   UNL     1     -11.773  -8.904   1.106  1.00  0.00     0.049 A 
ATOM     52  N   UNL     1     -13.203  -9.615  -1.484  1.00  0.00    -0.248 NA
ATOM     53  C   UNL     1     -11.123  -9.870  -2.503  1.00  0.00     0.031 C 
ATOM     54  C   UNL     1     -11.124  -8.454   2.341  1.00  0.00     0.029 A 
ATOM     55  N   UNL     1     -13.103  -8.937   1.423  1.00  0.00    -0.354 N 
ATOM     56  C   UNL     1     -13.364  -9.894  -2.836  1.00  0.00     0.074 A 
ATOM     57  C   UNL     1     -12.056  -9.899  -3.438  1.00  0.00     0.031 C 
ATOM     58  C   UNL     1     -12.054  -8.313   3.298  1.00  0.00     0.029 A 
ATOM     59  C   UNL     1     -13.362  -8.615   2.732  1.00  0.00     0.049 A 
ATOM     60  H   UNL     1     -13.807  -9.168   0.774  1.00  0.00     0.167 HD
ATOM     61  C   UNL     1     -14.501 -10.184  -3.506  1.00  0.00     0.037 A 
ATOM     62  C   UNL     1     -14.534  -8.581   3.390  1.00  0.00     0.037 A 
ATOM     63  C   UNL     1     -15.784 -10.253  -2.868  1.00  0.00     0.049 A 
ATOM     64  C   UNL     1     -15.783  -8.949   2.637  1.00  0.00     0.074 A 
ATOM     65  C   UNL     1     -17.000 -10.614  -3.411  1.00  0.00     0.029 A 
ATOM     66  N   UNL     1     -16.004  -9.967  -1.528  1.00  0.00    -0.354 N 
ATOM     67  N   UNL     1     -15.919  -9.287   1.376  1.00  0.00    -0.248 NA
ATOM     68  C   UNL     1     -17.038  -8.940   3.397  1.00  0.00     0.031 C 
ATOM     69  C   UNL     1     -17.968 -10.502  -2.408  1.00  0.00     0.029 A 
ATOM     70  C   UNL     1     -17.343 -10.126  -1.228  1.00  0.00     0.049 A 
ATOM     71  H   UNL     1     -15.309  -9.692  -0.886  1.00  0.00     0.167 HD
ATOM     72  C   UNL     1     -17.268  -9.557   1.197  1.00  0.00     0.074 A 
ATOM     73  C   UNL     1     -17.903  -9.362   2.486  1.00  0.00     0.031 C 
ATOM     74  C   UNL     1     -17.930  -9.930   0.073  1.00  0.00     0.037 A 
BRANCH  61  75
ATOM     75  C   UNL     1     -14.388 -10.469  -4.976  1.00  0.00     0.057 A 
ATOM     76  C   UNL     1     -13.716 -11.599  -5.467  1.00  0.00     0.134 A 
ATOM     77  C   UNL     1     -14.953  -9.600  -5.917  1.00  0.00     0.134 A 
ATOM     78  F   UNL     1     -13.130 -12.463  -4.623  1.00  0.00    -0.206 F 
ATOM     79  C   UNL     1     -13.577 -11.832  -6.836  1.00  0.00     0.040 A 
ATOM     80  C   UNL     1     -14.852  -9.842  -7.288  1.00  0.00     0.040 A 
ATOM     81  F   UNL     1     -15.608  -8.498  -5.520  1.00  0.00    -0.206 F 
ATOM     82  C   UNL     1     -14.154 -10.956  -7.751  1.00  0.00     0.006 A 
ENDBRANCH  61  75
BRANCH  62  83
ATOM     83  C   UNL     1     -14.570  -8.238   4.834  1.00  0.00     0.057 A 
ATOM     84  C   UNL     1     -14.892  -9.201   5.798  1.00  0.00     0.134 A 
ATOM     85  C   UNL     1     -14.277  -6.946   5.289  1.00  0.00     0.134 A 
ATOM     86  F   UNL     1     -15.189 -10.455   5.426  1.00  0.00    -0.206 F 
ATOM     87  C   UNL     1     -14.947  -8.888   7.157  1.00  0.00     0.040 A 
ATOM     88  C   UNL     1     -14.301  -6.626   6.647  1.00  0.00     0.040 A 
ATOM     89  F   UNL     1     -13.943  -5.981   4.420  1.00  0.00    -0.206 F 
ATOM     90  C   UNL     1     -14.647  -7.596   7.585  1.00  0.00     0.006 A 
ENDBRANCH  62  83
BRANCH  74  91
ATOM     91  C   UNL     1     -19.401 -10.182   0.203  1.00  0.00     0.057 A 
ATOM     92  C   UNL     1     -20.316  -9.138   0.385  1.00  0.00     0.134 A 
ATOM     93  C   UNL     1     -19.910 -11.482   0.089  1.00  0.00     0.134 A 
ATOM     94  F   UNL     1     -19.888  -7.873   0.510  1.00  0.00    -0.206 F 
ATOM     95  C   UNL     1     -21.686  -9.382   0.475  1.00  0.00     0.040 A 
ATOM     96  C   UNL     1     -21.280 -11.734   0.145  1.00  0.00     0.040 A 
ATOM     97  F   UNL     1     -19.085 -12.523  -0.101  1.00  0.00    -0.206 F 
ATOM     98  C   UNL     1     -22.171 -10.682   0.346  1.00  0.00     0.006 A 
ENDBRANCH  74  91
ENDBRANCH  48  49
ENDBRANCH  40  43
ENDBRANCH  38  39
ENDBRANCH  37  38
ENDBRANCH  36  37
ENDBRANCH  35  36
ENDBRANCH   3  35
TORSDOF 15
