REMARK SMILES O=C1C[C@@H](C(=O)NCCCCNC(=O)c2ccc(-c3c4nc(c(-c5c(F)cccc5F)c5ccc([nH]5)c(-c5c(F)cccc5F)c5nc(c(-c6c(F)cccc6F)c6ccc3[nH]6)C=C5)C=C4)cc2)C2(CC[NH+](Cc3c[nH]nc3-c3ccc(Cl)cc3)CC2)N1
REMARK SMILES IDX 9 1 8 2 7 3 5 4 6 5 4 7 1 8 2 9 3 10 88 11 69 12 70 14 87 15
REMARK SMILES IDX 71 16 86 17 72 18 73 20 74 21 75 22 78 23 76 24 77 25 79 27
REMARK SMILES IDX 80 28 85 29 81 30 84 31 82 32 83 33 10 34 11 35 12 36 13 37
REMARK SMILES IDX 14 39 15 40 16 41 68 42 17 43 67 44 18 45 19 46 20 47 61 48
REMARK SMILES IDX 21 49 66 50 60 51 62 52 22 53 65 54 59 55 58 56 23 58 49 59
REMARK SMILES IDX 32 60 48 61 33 62 36 63 47 64 63 65 34 66 35 67 46 69 64 70
REMARK SMILES IDX 37 71 24 72 25 73 30 74 26 75 27 76 29 77 31 78 28 79 50 80
REMARK SMILES IDX 51 81 56 82 52 83 53 84 55 85 57 86 54 87 38 88 39 89 44 90
REMARK SMILES IDX 40 91 41 92 43 93 45 94 42 95
REMARK H PARENT 7 6 88 13 72 19 76 26 12 38 62 57 36 68
REMARK Flexibility Score: inf
ROOT
ATOM      1  C   UNL     1       1.792   3.280  -0.718  1.00  0.00     0.023 C 
ENDROOT
BRANCH   1   2
ATOM      2  C   UNL     1       1.716   1.933  -1.443  1.00  0.00     0.116 C 
BRANCH   2   3
ATOM      3  N   UNL     1       2.740   1.742  -2.457  1.00  0.00    -0.356 N 
ATOM      4  C   UNL     1       3.831   0.936  -2.540  1.00  0.00     0.226 C 
ATOM      5  O   UNL     1       4.492   1.022  -3.582  1.00  0.00    -0.275 OA
ATOM      6  H   UNL     1       2.617   2.316  -3.248  1.00  0.00     0.163 HD
BRANCH   4   7
ATOM      7  C   UNL     1       4.314  -0.016  -1.439  1.00  0.00     0.114 C 
ATOM      8  O   UNL     1       1.813  -1.172   0.836  1.00  0.00    -0.275 OA
ATOM      9  C   UNL     1       2.763  -0.691   0.250  1.00  0.00     0.221 C 
ATOM     10  C   UNL     1       3.282  -1.100  -1.103  1.00  0.00     0.116 C 
ATOM     11  N   UNL     1       3.520   0.367   0.704  1.00  0.00    -0.349 N 
ATOM     12  C   UNL     1       4.722   0.606  -0.085  1.00  0.00     0.063 C 
ATOM     13  H   UNL     1       3.273   0.910   1.488  1.00  0.00     0.164 HD
ATOM     14  C   UNL     1       5.049   2.105  -0.167  1.00  0.00     0.091 C 
ATOM     15  C   UNL     1       5.843  -0.216   0.618  1.00  0.00     0.091 C 
ATOM     16  C   UNL     1       6.516   2.419  -0.388  1.00  0.00     0.264 C 
ATOM     17  C   UNL     1       7.259   0.357   0.557  1.00  0.00     0.264 C 
ATOM     18  N   UNL     1       7.358   1.804   0.614  1.00  0.00    -0.331 N 
ATOM     19  H   UNL     1       8.327   1.994   0.359  1.00  0.00     0.348 HD
BRANCH  18  20
ATOM     20  C   UNL     1       7.447   2.476   1.920  1.00  0.00     0.303 C 
BRANCH  20  21
ATOM     21  C   UNL     1       6.203   2.478   2.756  1.00  0.00     0.052 A 
ATOM     22  C   UNL     1       5.724   1.431   3.524  1.00  0.00     0.115 A 
ATOM     23  C   UNL     1       5.307   3.562   3.076  1.00  0.00     0.101 A 
ATOM     24  N   UNL     1       4.562   1.849   4.087  1.00  0.00    -0.285 N 
ATOM     25  N   UNL     1       4.283   3.128   3.831  1.00  0.00    -0.175 NA
ATOM     26  H   UNL     1       3.984   1.267   4.631  1.00  0.00     0.189 HD
BRANCH  23  27
ATOM     27  C   UNL     1       5.385   4.989   2.753  1.00  0.00     0.003 A 
ATOM     28  C   UNL     1       5.380   5.917   3.807  1.00  0.00     0.012 A 
ATOM     29  C   UNL     1       5.421   5.469   1.440  1.00  0.00     0.012 A 
ATOM     30  C   UNL     1       5.451   7.290   3.554  1.00  0.00     0.021 A 
ATOM     31  C   UNL     1       5.500   6.843   1.183  1.00  0.00     0.021 A 
ATOM     32  C   UNL     1       5.521   7.746   2.242  1.00  0.00     0.041 A 
ATOM     33  Cl  UNL     1       5.624   9.434   1.925  1.00  0.00    -0.084 Cl
ENDBRANCH  23  27
ENDBRANCH  20  21
ENDBRANCH  18  20
ENDBRANCH   4   7
ENDBRANCH   2   3
ENDBRANCH   1   2
BRANCH   1  34
ATOM     34  C   UNL     1       1.426   4.482  -1.579  1.00  0.00     0.023 C 
BRANCH  34  35
ATOM     35  C   UNL     1       0.065   4.365  -2.246  1.00  0.00     0.116 C 
BRANCH  35  36
ATOM     36  N   UNL     1      -1.010   4.101  -1.297  1.00  0.00    -0.352 N 
ATOM     37  C   UNL     1      -2.238   4.710  -1.209  1.00  0.00     0.251 C 
ATOM     38  H   UNL     1      -0.834   3.395  -0.635  1.00  0.00     0.163 HD
ATOM     39  O   UNL     1      -2.993   4.487  -0.271  1.00  0.00    -0.269 OA
BRANCH  37  40
ATOM     40  C   UNL     1      -2.607   5.676  -2.257  1.00  0.00     0.039 A 
ATOM     41  C   UNL     1      -2.997   6.962  -1.886  1.00  0.00     0.014 A 
ATOM     42  C   UNL     1      -2.446   5.330  -3.601  1.00  0.00     0.014 A 
ATOM     43  C   UNL     1      -3.144   7.936  -2.872  1.00  0.00     0.010 A 
ATOM     44  C   UNL     1      -2.497   6.323  -4.567  1.00  0.00     0.010 A 
ATOM     45  C   UNL     1      -2.843   7.636  -4.212  1.00  0.00    -0.014 A 
BRANCH  45  46
ATOM     46  C   UNL     1      -2.870   8.682  -5.261  1.00  0.00     0.031 A 
ATOM     47  C   UNL     1      -3.816   8.552  -6.420  1.00  0.00     0.074 A 
ATOM     48  C   UNL     1      -1.988   9.700  -5.211  1.00  0.00     0.049 A 
ATOM     49  N   UNL     1      -3.929   9.306  -7.483  1.00  0.00    -0.248 NA
ATOM     50  C   UNL     1      -4.737   7.402  -6.399  1.00  0.00     0.031 C 
ATOM     51  C   UNL     1      -0.984   9.904  -4.164  1.00  0.00     0.029 A 
ATOM     52  N   UNL     1      -1.785  10.750  -6.071  1.00  0.00    -0.354 N 
ATOM     53  C   UNL     1      -4.917   8.714  -8.259  1.00  0.00     0.074 A 
ATOM     54  C   UNL     1      -5.332   7.509  -7.577  1.00  0.00     0.031 C 
ATOM     55  C   UNL     1      -0.287  11.019  -4.433  1.00  0.00     0.029 A 
ATOM     56  C   UNL     1      -0.760  11.583  -5.692  1.00  0.00     0.049 A 
ATOM     57  H   UNL     1      -2.322  10.892  -6.884  1.00  0.00     0.167 HD
ATOM     58  C   UNL     1      -5.447   9.151  -9.425  1.00  0.00     0.037 A 
ATOM     59  C   UNL     1      -0.250  12.671  -6.301  1.00  0.00     0.037 A 
ATOM     60  C   UNL     1      -5.046  10.365 -10.086  1.00  0.00     0.049 A 
ATOM     61  C   UNL     1      -0.850  13.127  -7.603  1.00  0.00     0.074 A 
ATOM     62  C   UNL     1      -5.570  10.931 -11.234  1.00  0.00     0.029 A 
ATOM     63  N   UNL     1      -4.019  11.193  -9.662  1.00  0.00    -0.354 N 
ATOM     64  N   UNL     1      -1.840  12.604  -8.286  1.00  0.00    -0.248 NA
ATOM     65  C   UNL     1      -0.265  14.326  -8.218  1.00  0.00     0.031 C 
ATOM     66  C   UNL     1      -4.820  12.071 -11.538  1.00  0.00     0.029 A 
ATOM     67  C   UNL     1      -3.870  12.249 -10.545  1.00  0.00     0.049 A 
ATOM     68  H   UNL     1      -3.475  11.051  -8.853  1.00  0.00     0.167 HD
ATOM     69  C   UNL     1      -2.014  13.424  -9.393  1.00  0.00     0.074 A 
ATOM     70  C   UNL     1      -1.040  14.489  -9.280  1.00  0.00     0.031 C 
ATOM     71  C   UNL     1      -2.898  13.305 -10.414  1.00  0.00     0.037 A 
BRANCH  58  72
ATOM     72  C   UNL     1      -6.517   8.313 -10.061  1.00  0.00     0.057 A 
ATOM     73  C   UNL     1      -7.795   8.187  -9.498  1.00  0.00     0.134 A 
ATOM     74  C   UNL     1      -6.281   7.658 -11.276  1.00  0.00     0.134 A 
ATOM     75  F   UNL     1      -8.084   8.777  -8.328  1.00  0.00    -0.206 F 
ATOM     76  C   UNL     1      -8.790   7.423 -10.109  1.00  0.00     0.040 A 
ATOM     77  C   UNL     1      -7.277   6.916 -11.912  1.00  0.00     0.040 A 
ATOM     78  F   UNL     1      -5.081   7.738 -11.871  1.00  0.00    -0.206 F 
ATOM     79  C   UNL     1      -8.535   6.793 -11.326  1.00  0.00     0.006 A 
ENDBRANCH  58  72
BRANCH  59  80
ATOM     80  C   UNL     1       0.889  13.406  -5.692  1.00  0.00     0.057 A 
ATOM     81  C   UNL     1       0.732  14.706  -5.197  1.00  0.00     0.134 A 
ATOM     82  C   UNL     1       2.167  12.838  -5.612  1.00  0.00     0.134 A 
ATOM     83  F   UNL     1      -0.462  15.313  -5.261  1.00  0.00    -0.206 F 
ATOM     84  C   UNL     1       1.808  15.425  -4.672  1.00  0.00     0.040 A 
ATOM     85  C   UNL     1       3.244  13.533  -5.061  1.00  0.00     0.040 A 
ATOM     86  F   UNL     1       2.384  11.592  -6.059  1.00  0.00    -0.206 F 
ATOM     87  C   UNL     1       3.068  14.836  -4.599  1.00  0.00     0.006 A 
ENDBRANCH  59  80
BRANCH  71  88
ATOM     88  C   UNL     1      -2.875  14.370 -11.472  1.00  0.00     0.057 A 
ATOM     89  C   UNL     1      -1.823  14.483 -12.389  1.00  0.00     0.134 A 
ATOM     90  C   UNL     1      -3.942  15.270 -11.598  1.00  0.00     0.134 A 
ATOM     91  F   UNL     1      -0.765  13.660 -12.316  1.00  0.00    -0.206 F 
ATOM     92  C   UNL     1      -1.819  15.468 -13.377  1.00  0.00     0.040 A 
ATOM     93  C   UNL     1      -3.965  16.239 -12.602  1.00  0.00     0.040 A 
ATOM     94  F   UNL     1      -4.987  15.211 -10.759  1.00  0.00    -0.206 F 
ATOM     95  C   UNL     1      -2.897  16.345 -13.490  1.00  0.00     0.006 A 
ENDBRANCH  71  88
ENDBRANCH  45  46
ENDBRANCH  37  40
ENDBRANCH  35  36
ENDBRANCH  34  35
ENDBRANCH   1  34
TORSDOF 14
