REMARK SMILES CC[NH2+]C(C)(C)C(=O)N[C@@](C)(C(=O)NCCCCNC(=O)c1ccc(-c2c3nc(c(-c4c(F)cccc4F)c4ccc([nH]4)c(-c4c(F)cccc4F)c4nc(c(-c5c(F)cccc5F)c5ccc2[nH]5)C=C4)C=C3)cc1)C(F)(F)F
REMARK SMILES IDX 15 1 14 2 12 3 13 4 10 6 11 7 9 8 7 9 8 10 4 12 5 13 6 14
REMARK SMILES IDX 3 15 2 18 1 19 76 20 77 21 78 22 79 23 16 24 17 25 18 26
REMARK SMILES IDX 19 27 20 28 21 30 22 31 23 32 75 33 24 34 74 35 25 36 26 37
REMARK SMILES IDX 27 38 68 39 28 40 73 41 67 42 69 43 29 44 72 45 66 46 65 47
REMARK SMILES IDX 30 49 56 50 39 51 55 52 40 53 43 54 54 55 70 56 41 57 42 58
REMARK SMILES IDX 53 60 71 61 44 62 31 63 32 64 37 65 33 66 34 67 36 68 38 69
REMARK SMILES IDX 35 70 57 71 58 72 63 73 59 74 60 75 62 76 64 77 61 78 45 79
REMARK SMILES IDX 46 80 51 81 47 82 48 83 50 84 52 85 49 86
REMARK H PARENT 14 5 9 11 3 16 3 17 19 29 69 48 43 59
REMARK Flexibility Score: inf
ROOT
ATOM      1  C   UNL     1      -3.878   3.949  -5.568  1.00  0.00     0.116 C 
ENDROOT
BRANCH   1   2
ATOM      2  N   UNL     1      -2.732   4.817  -5.353  1.00  0.00    -0.354 N 
ATOM      3  C   UNL     1      -1.380   4.643  -5.433  1.00  0.00     0.254 C 
ATOM      4  O   UNL     1      -0.720   5.658  -5.195  1.00  0.00    -0.272 OA
ATOM      5  H   UNL     1      -2.987   5.731  -5.091  1.00  0.00     0.163 HD
BRANCH   3   6
ATOM      6  C   UNL     1      -0.716   3.285  -5.766  1.00  0.00     0.212 C 
ATOM      7  C   UNL     1      -1.233   2.712  -7.107  1.00  0.00     0.056 C 
BRANCH   6   8
ATOM      8  N   UNL     1      -1.172   2.338  -4.662  1.00  0.00    -0.329 N 
ATOM      9  C   UNL     1      -0.753   1.663  -3.558  1.00  0.00     0.281 C 
ATOM     10  O   UNL     1      -1.690   1.207  -2.889  1.00  0.00    -0.268 OA
ATOM     11  H   UNL     1      -2.127   2.141  -4.800  1.00  0.00     0.165 HD
BRANCH   9  12
ATOM     12  C   UNL     1       0.731   1.441  -3.172  1.00  0.00     0.169 C 
ATOM     13  C   UNL     1       1.367   2.788  -2.808  1.00  0.00     0.090 C 
ATOM     14  C   UNL     1       1.397   0.734  -4.373  1.00  0.00     0.090 C 
BRANCH  12  15
ATOM     15  N   UNL     1       0.941   0.449  -2.077  1.00  0.00    -0.334 N 
ATOM     16  H   UNL     1       0.511  -0.425  -2.379  1.00  0.00     0.347 HD
ATOM     17  H   UNL     1       1.952   0.436  -1.947  1.00  0.00     0.347 HD
BRANCH  15  18
ATOM     18  C   UNL     1       0.419   0.746  -0.747  1.00  0.00     0.257 C 
ATOM     19  C   UNL     1       0.931  -0.318   0.221  1.00  0.00     0.071 C 
ENDBRANCH  15  18
ENDBRANCH  12  15
ENDBRANCH   9  12
ENDBRANCH   6   8
BRANCH   6  20
ATOM     20  C   UNL     1       0.778   3.629  -6.063  1.00  0.00     0.420 C 
ATOM     21  F   UNL     1       1.471   4.157  -5.043  1.00  0.00    -0.168 F 
ATOM     22  F   UNL     1       1.467   2.539  -6.482  1.00  0.00    -0.168 F 
ATOM     23  F   UNL     1       0.873   4.513  -7.096  1.00  0.00    -0.168 F 
ENDBRANCH   6  20
ENDBRANCH   3   6
ENDBRANCH   1   2
BRANCH   1  24
ATOM     24  C   UNL     1      -4.846   3.978  -4.390  1.00  0.00     0.023 C 
BRANCH  24  25
ATOM     25  C   UNL     1      -5.516   5.328  -4.138  1.00  0.00     0.023 C 
BRANCH  25  26
ATOM     26  C   UNL     1      -6.199   5.952  -5.349  1.00  0.00     0.116 C 
BRANCH  26  27
ATOM     27  N   UNL     1      -7.219   5.095  -5.933  1.00  0.00    -0.352 N 
ATOM     28  C   UNL     1      -8.512   5.398  -6.283  1.00  0.00     0.251 C 
ATOM     29  H   UNL     1      -6.944   4.164  -6.099  1.00  0.00     0.163 HD
ATOM     30  O   UNL     1      -9.278   4.508  -6.641  1.00  0.00    -0.269 OA
BRANCH  28  31
ATOM     31  C   UNL     1      -8.989   6.794  -6.194  1.00  0.00     0.039 A 
ATOM     32  C   UNL     1     -10.218   7.045  -5.580  1.00  0.00     0.014 A 
ATOM     33  C   UNL     1      -8.219   7.850  -6.687  1.00  0.00     0.014 A 
ATOM     34  C   UNL     1     -10.639   8.363  -5.394  1.00  0.00     0.010 A 
ATOM     35  C   UNL     1      -8.600   9.163  -6.427  1.00  0.00     0.010 A 
ATOM     36  C   UNL     1      -9.812   9.434  -5.774  1.00  0.00    -0.014 A 
BRANCH  36  37
ATOM     37  C   UNL     1     -10.195  10.838  -5.475  1.00  0.00     0.031 A 
ATOM     38  C   UNL     1     -10.431  11.818  -6.590  1.00  0.00     0.074 A 
ATOM     39  C   UNL     1     -10.275  11.244  -4.192  1.00  0.00     0.049 A 
ATOM     40  N   UNL     1     -10.730  13.091  -6.521  1.00  0.00    -0.248 NA
ATOM     41  C   UNL     1     -10.290  11.309  -7.964  1.00  0.00     0.031 C 
ATOM     42  C   UNL     1     -10.016  10.404  -3.021  1.00  0.00     0.029 A 
ATOM     43  N   UNL     1     -10.592  12.468  -3.658  1.00  0.00    -0.354 N 
ATOM     44  C   UNL     1     -10.808  13.533  -7.836  1.00  0.00     0.074 A 
ATOM     45  C   UNL     1     -10.466  12.410  -8.680  1.00  0.00     0.031 C 
ATOM     46  C   UNL     1     -10.210  11.129  -1.908  1.00  0.00     0.029 A 
ATOM     47  C   UNL     1     -10.566  12.493  -2.284  1.00  0.00     0.049 A 
ATOM     48  H   UNL     1     -10.816  13.253  -4.207  1.00  0.00     0.167 HD
ATOM     49  C   UNL     1     -11.159  14.757  -8.298  1.00  0.00     0.037 A 
ATOM     50  C   UNL     1     -10.796  13.503  -1.424  1.00  0.00     0.037 A 
ATOM     51  C   UNL     1     -11.512  15.870  -7.456  1.00  0.00     0.049 A 
ATOM     52  C   UNL     1     -11.167  14.857  -1.964  1.00  0.00     0.074 A 
ATOM     53  C   UNL     1     -11.930  17.135  -7.831  1.00  0.00     0.029 A 
ATOM     54  N   UNL     1     -11.485  15.853  -6.070  1.00  0.00    -0.354 N 
ATOM     55  N   UNL     1     -11.307  15.240  -3.210  1.00  0.00    -0.248 NA
ATOM     56  C   UNL     1     -11.421  15.916  -0.978  1.00  0.00     0.031 C 
ATOM     57  C   UNL     1     -12.106  17.899  -6.673  1.00  0.00     0.029 A 
ATOM     58  C   UNL     1     -11.855  17.094  -5.575  1.00  0.00     0.049 A 
ATOM     59  H   UNL     1     -11.239  15.075  -5.519  1.00  0.00     0.167 HD
ATOM     60  C   UNL     1     -11.692  16.574  -3.157  1.00  0.00     0.074 A 
ATOM     61  C   UNL     1     -11.783  16.926  -1.756  1.00  0.00     0.031 C 
ATOM     62  C   UNL     1     -11.946  17.430  -4.177  1.00  0.00     0.037 A 
BRANCH  49  63
ATOM     63  C   UNL     1     -11.187  14.955  -9.787  1.00  0.00     0.057 A 
ATOM     64  C   UNL     1     -12.156  14.343 -10.595  1.00  0.00     0.134 A 
ATOM     65  C   UNL     1     -10.267  15.803 -10.415  1.00  0.00     0.134 A 
ATOM     66  F   UNL     1     -13.060  13.510 -10.059  1.00  0.00    -0.206 F 
ATOM     67  C   UNL     1     -12.193  14.550 -11.975  1.00  0.00     0.040 A 
ATOM     68  C   UNL     1     -10.312  16.041 -11.790  1.00  0.00     0.040 A 
ATOM     69  F   UNL     1      -9.316  16.426  -9.702  1.00  0.00    -0.206 F 
ATOM     70  C   UNL     1     -11.275  15.408 -12.575  1.00  0.00     0.006 A 
ENDBRANCH  49  63
BRANCH  50  71
ATOM     71  C   UNL     1     -10.693  13.275   0.041  1.00  0.00     0.057 A 
ATOM     72  C   UNL     1     -11.826  13.322   0.863  1.00  0.00     0.134 A 
ATOM     73  C   UNL     1      -9.461  13.027   0.657  1.00  0.00     0.134 A 
ATOM     74  F   UNL     1     -13.033  13.575   0.335  1.00  0.00    -0.206 F 
ATOM     75  C   UNL     1     -11.734  13.158   2.246  1.00  0.00     0.040 A 
ATOM     76  C   UNL     1      -9.359  12.831   2.035  1.00  0.00     0.040 A 
ATOM     77  F   UNL     1      -8.339  12.960  -0.074  1.00  0.00    -0.206 F 
ATOM     78  C   UNL     1     -10.497  12.907   2.835  1.00  0.00     0.006 A 
ENDBRANCH  50  71
BRANCH  62  79
ATOM     79  C   UNL     1     -12.381  18.821  -3.813  1.00  0.00     0.057 A 
ATOM     80  C   UNL     1     -11.500  19.748  -3.241  1.00  0.00     0.134 A 
ATOM     81  C   UNL     1     -13.692  19.245  -4.065  1.00  0.00     0.134 A 
ATOM     82  F   UNL     1     -10.234  19.403  -2.963  1.00  0.00    -0.206 F 
ATOM     83  C   UNL     1     -11.916  21.038  -2.906  1.00  0.00     0.040 A 
ATOM     84  C   UNL     1     -14.111  20.541  -3.763  1.00  0.00     0.040 A 
ATOM     85  F   UNL     1     -14.584  18.411  -4.620  1.00  0.00    -0.206 F 
ATOM     86  C   UNL     1     -13.224  21.439  -3.173  1.00  0.00     0.006 A 
ENDBRANCH  62  79
ENDBRANCH  36  37
ENDBRANCH  28  31
ENDBRANCH  26  27
ENDBRANCH  25  26
ENDBRANCH  24  25
ENDBRANCH   1  24
TORSDOF 16
