REMARK SMILES Cc1nc(C)c(C(=O)N2CCC([C@H](C)C(=O)NCCCCNC(=O)c3ccc(-c4c5nc(c(-c6c(F)cccc6F)c6ccc([nH]6)c(-c6c(F)cccc6F)c6nc(c(-c7c(F)cccc7F)c7ccc4[nH]7)C=C6)C=C5)cc3)CC2)s1
REMARK SMILES IDX 19 1 18 2 17 3 15 4 16 5 13 7 14 8 12 9 7 10 8 11 9 12 10 13
REMARK SMILES IDX 80 14 11 15 79 16 6 17 1 18 2 19 3 20 81 21 4 22 5 23 20 24
REMARK SMILES IDX 21 25 22 26 23 27 24 29 25 30 26 31 78 32 27 33 77 34 28 35
REMARK SMILES IDX 29 36 30 37 71 38 31 39 76 40 70 41 72 42 32 43 75 44 69 45
REMARK SMILES IDX 68 46 33 48 59 49 42 50 58 51 43 52 46 53 57 54 73 55 44 56
REMARK SMILES IDX 45 57 56 59 74 60 47 61 34 62 35 63 40 64 36 65 37 66 39 67
REMARK SMILES IDX 41 68 38 69 60 70 61 71 66 72 62 73 63 74 65 75 67 76 64 77
REMARK SMILES IDX 48 78 49 79 54 80 50 81 51 82 53 83 55 84 52 85
REMARK H PARENT 17 6 22 28 72 47 46 58
REMARK Flexibility Score: inf
ROOT
ATOM      1  C   UNL     1       3.690  -6.322   1.622  1.00  0.00     0.023 C 
ENDROOT
BRANCH   1   2
ATOM      2  C   UNL     1       2.648  -7.413   1.442  1.00  0.00     0.116 C 
BRANCH   2   3
ATOM      3  N   UNL     1       1.815  -7.615   2.604  1.00  0.00    -0.356 N 
ATOM      4  C   UNL     1       0.477  -7.845   2.675  1.00  0.00     0.223 C 
ATOM      5  O   UNL     1       0.009  -8.129   3.781  1.00  0.00    -0.275 OA
ATOM      6  H   UNL     1       2.283  -7.583   3.469  1.00  0.00     0.163 HD
BRANCH   4   7
ATOM      7  C   UNL     1      -0.441  -7.759   1.447  1.00  0.00     0.078 C 
ATOM      8  C   UNL     1      -0.514  -6.324   0.915  1.00  0.00     0.018 C 
BRANCH   7   9
ATOM      9  C   UNL     1      -0.309  -8.897   0.380  1.00  0.00     0.005 C 
ATOM     10  C   UNL     1       2.356 -11.158  -1.888  1.00  0.00     0.265 C 
ATOM     11  O   UNL     1       3.157 -10.322  -2.313  1.00  0.00    -0.268 OA
ATOM     12  N   UNL     1       1.147 -10.728  -1.337  1.00  0.00    -0.338 N 
ATOM     13  C   UNL     1       0.446  -9.621  -1.952  1.00  0.00     0.120 C 
ATOM     14  C   UNL     1       0.550 -11.269  -0.123  1.00  0.00     0.120 C 
ATOM     15  C   UNL     1       0.265  -8.462  -0.986  1.00  0.00     0.026 C 
ATOM     16  C   UNL     1       0.384 -10.168   0.925  1.00  0.00     0.026 C 
BRANCH  10  17
ATOM     17  C   UNL     1       2.578 -12.590  -2.035  1.00  0.00     0.115 A 
ATOM     18  C   UNL     1       1.806 -16.338  -2.743  1.00  0.00     0.079 C 
ATOM     19  C   UNL     1       2.331 -14.972  -2.480  1.00  0.00     0.091 A 
ATOM     20  N   UNL     1       3.605 -14.653  -2.472  1.00  0.00    -0.246 NA
ATOM     21  S   UNL     1       1.253 -13.679  -2.205  1.00  0.00    -0.113 S 
ATOM     22  C   UNL     1       3.761 -13.285  -2.257  1.00  0.00     0.061 A 
ATOM     23  C   UNL     1       5.150 -12.752  -2.331  1.00  0.00     0.068 C 
ENDBRANCH  10  17
ENDBRANCH   7   9
ENDBRANCH   4   7
ENDBRANCH   2   3
ENDBRANCH   1   2
BRANCH   1  24
ATOM     24  C   UNL     1       4.774  -6.632   2.646  1.00  0.00     0.023 C 
BRANCH  24  25
ATOM     25  C   UNL     1       5.483  -7.968   2.457  1.00  0.00     0.116 C 
BRANCH  25  26
ATOM     26  N   UNL     1       6.115  -8.107   1.152  1.00  0.00    -0.352 N 
ATOM     27  C   UNL     1       7.418  -8.427   0.853  1.00  0.00     0.251 C 
ATOM     28  H   UNL     1       5.528  -7.951   0.378  1.00  0.00     0.163 HD
ATOM     29  O   UNL     1       7.828  -8.372  -0.302  1.00  0.00    -0.269 OA
BRANCH  27  30
ATOM     30  C   UNL     1       8.338  -8.805   1.944  1.00  0.00     0.039 A 
ATOM     31  C   UNL     1       9.585  -8.182   2.024  1.00  0.00     0.014 A 
ATOM     32  C   UNL     1       7.948  -9.737   2.909  1.00  0.00     0.014 A 
ATOM     33  C   UNL     1      10.410  -8.435   3.121  1.00  0.00     0.010 A 
ATOM     34  C   UNL     1       8.732  -9.922   4.042  1.00  0.00     0.010 A 
ATOM     35  C   UNL     1       9.970  -9.273   4.160  1.00  0.00    -0.014 A 
BRANCH  35  36
ATOM     36  C   UNL     1      10.791  -9.479   5.380  1.00  0.00     0.031 A 
ATOM     37  C   UNL     1      11.311 -10.849   5.715  1.00  0.00     0.074 A 
ATOM     38  C   UNL     1      11.015  -8.448   6.217  1.00  0.00     0.049 A 
ATOM     39  N   UNL     1      11.991 -11.242   6.763  1.00  0.00    -0.248 NA
ATOM     40  C   UNL     1      11.002 -11.927   4.762  1.00  0.00     0.031 C 
ATOM     41  C   UNL     1      10.515  -7.083   6.034  1.00  0.00     0.029 A 
ATOM     42  N   UNL     1      11.713  -8.389   7.397  1.00  0.00    -0.354 N 
ATOM     43  C   UNL     1      12.182 -12.608   6.597  1.00  0.00     0.074 A 
ATOM     44  C   UNL     1      11.492 -12.988   5.384  1.00  0.00     0.031 C 
ATOM     45  C   UNL     1      10.942  -6.318   7.052  1.00  0.00     0.029 A 
ATOM     46  C   UNL     1      11.714  -7.143   7.976  1.00  0.00     0.049 A 
ATOM     47  H   UNL     1      12.170  -9.166   7.792  1.00  0.00     0.167 HD
ATOM     48  C   UNL     1      12.893 -13.463   7.369  1.00  0.00     0.037 A 
ATOM     49  C   UNL     1      12.270  -6.715   9.125  1.00  0.00     0.037 A 
ATOM     50  C   UNL     1      13.594 -13.080   8.566  1.00  0.00     0.049 A 
ATOM     51  C   UNL     1      13.054  -7.685   9.966  1.00  0.00     0.074 A 
ATOM     52  C   UNL     1      14.380 -13.863   9.393  1.00  0.00     0.029 A 
ATOM     53  N   UNL     1      13.594 -11.802   9.104  1.00  0.00    -0.354 N 
ATOM     54  N   UNL     1      13.282  -8.960   9.762  1.00  0.00    -0.248 NA
ATOM     55  C   UNL     1      13.666  -7.154  11.192  1.00  0.00     0.031 C 
ATOM     56  C   UNL     1      14.825 -13.067  10.454  1.00  0.00     0.029 A 
ATOM     57  C   UNL     1      14.355 -11.778  10.262  1.00  0.00     0.049 A 
ATOM     58  H   UNL     1      13.124 -11.027   8.721  1.00  0.00     0.167 HD
ATOM     59  C   UNL     1      14.085  -9.376  10.816  1.00  0.00     0.074 A 
ATOM     60  C   UNL     1      14.318  -8.214  11.648  1.00  0.00     0.031 C 
ATOM     61  C   UNL     1      14.583 -10.610  11.073  1.00  0.00     0.037 A 
BRANCH  48  62
ATOM     62  C   UNL     1      12.956 -14.897   6.930  1.00  0.00     0.057 A 
ATOM     63  C   UNL     1      13.672 -15.286   5.789  1.00  0.00     0.134 A 
ATOM     64  C   UNL     1      12.318 -15.904   7.665  1.00  0.00     0.134 A 
ATOM     65  F   UNL     1      14.295 -14.369   5.033  1.00  0.00    -0.206 F 
ATOM     66  C   UNL     1      13.729 -16.619   5.381  1.00  0.00     0.040 A 
ATOM     67  C   UNL     1      12.392 -17.244   7.282  1.00  0.00     0.040 A 
ATOM     68  F   UNL     1      11.619 -15.603   8.770  1.00  0.00    -0.206 F 
ATOM     69  C   UNL     1      13.093 -17.604   6.133  1.00  0.00     0.006 A 
ENDBRANCH  48  62
BRANCH  49  70
ATOM     70  C   UNL     1      12.127  -5.297   9.540  1.00  0.00     0.057 A 
ATOM     71  C   UNL     1      13.223  -4.426   9.531  1.00  0.00     0.134 A 
ATOM     72  C   UNL     1      10.898  -4.782   9.970  1.00  0.00     0.134 A 
ATOM     73  F   UNL     1      14.430  -4.865   9.146  1.00  0.00    -0.206 F 
ATOM     74  C   UNL     1      13.108  -3.101   9.956  1.00  0.00     0.040 A 
ATOM     75  C   UNL     1      10.763  -3.453  10.374  1.00  0.00     0.040 A 
ATOM     76  F   UNL     1       9.808  -5.562   9.995  1.00  0.00    -0.206 F 
ATOM     77  C   UNL     1      11.874  -2.610  10.376  1.00  0.00     0.006 A 
ENDBRANCH  49  70
BRANCH  61  78
ATOM     78  C   UNL     1      15.458 -10.757  12.284  1.00  0.00     0.057 A 
ATOM     79  C   UNL     1      14.936 -10.716  13.583  1.00  0.00     0.134 A 
ATOM     80  C   UNL     1      16.834 -10.975  12.145  1.00  0.00     0.134 A 
ATOM     81  F   UNL     1      13.628 -10.498  13.784  1.00  0.00    -0.206 F 
ATOM     82  C   UNL     1      15.758 -10.863  14.702  1.00  0.00     0.040 A 
ATOM     83  C   UNL     1      17.661 -11.150  13.255  1.00  0.00     0.040 A 
ATOM     84  F   UNL     1      17.396 -11.034  10.928  1.00  0.00    -0.206 F 
ATOM     85  C   UNL     1      17.123 -11.087  14.539  1.00  0.00     0.006 A 
ENDBRANCH  61  78
ENDBRANCH  35  36
ENDBRANCH  27  30
ENDBRANCH  25  26
ENDBRANCH  24  25
ENDBRANCH   1  24
TORSDOF 13
