REMARK SMILES CC(=O)N[C@@H](Cc1cc(Br)c(O)c(Br)c1)C(=O)NCCCCNC(=O)c1ccc(-c2c3nc(c(-c4c(F)cccc4F)c4ccc([nH]4)c(-c4c(F)cccc4F)c4nc(c(-c5c(F)cccc5F)c5ccc2[nH]5)C=C4)C=C3)cc1
REMARK SMILES IDX 20 1 19 2 18 3 16 4 17 5 5 7 4 8 1 9 2 10 3 11 6 13 7 14
REMARK SMILES IDX 8 15 15 16 9 17 13 18 10 19 11 20 14 21 12 22 21 24 22 25
REMARK SMILES IDX 23 26 24 27 25 29 26 30 27 31 79 32 28 33 78 34 29 35 30 36
REMARK SMILES IDX 31 37 72 38 32 39 77 40 71 41 73 42 33 43 76 44 70 45 69 46
REMARK SMILES IDX 34 48 60 49 43 50 59 51 44 52 47 53 58 54 74 55 45 56 46 57
REMARK SMILES IDX 57 59 75 60 48 61 35 62 36 63 41 64 37 65 38 66 40 67 42 68
REMARK SMILES IDX 39 69 61 70 62 71 67 72 63 73 64 74 66 75 68 76 65 77 49 78
REMARK SMILES IDX 50 79 55 80 51 81 52 82 54 83 56 84 53 85
REMARK H PARENT 18 6 4 12 12 23 23 28 73 47 47 58
REMARK Flexibility Score: inf
ROOT
ATOM      1  C   UNL     1      -1.442  -5.691   0.631  1.00  0.00     0.023 C 
ENDROOT
BRANCH   1   2
ATOM      2  C   UNL     1      -0.033  -5.313   0.203  1.00  0.00     0.116 C 
BRANCH   2   3
ATOM      3  N   UNL     1       0.055  -4.640  -1.075  1.00  0.00    -0.354 N 
ATOM      4  C   UNL     1       0.938  -3.692  -1.509  1.00  0.00     0.242 C 
ATOM      5  O   UNL     1       1.071  -3.584  -2.735  1.00  0.00    -0.273 OA
ATOM      6  H   UNL     1      -0.626  -4.906  -1.734  1.00  0.00     0.163 HD
BRANCH   4   7
ATOM      7  C   UNL     1       1.847  -2.860  -0.568  1.00  0.00     0.175 C 
BRANCH   7   8
ATOM      8  N   UNL     1       1.173  -2.343   0.626  1.00  0.00    -0.344 N 
ATOM      9  C   UNL     1       0.959  -0.006  -0.143  1.00  0.00     0.114 C 
ATOM     10  C   UNL     1       0.654  -1.102   0.838  1.00  0.00     0.217 C 
ATOM     11  O   UNL     1      -0.026  -0.908   1.844  1.00  0.00    -0.275 OA
ATOM     12  H   UNL     1       1.083  -2.977   1.374  1.00  0.00     0.164 HD
ENDBRANCH   7   8
BRANCH   7  13
ATOM     13  C   UNL     1       3.213  -3.520  -0.272  1.00  0.00     0.070 C 
BRANCH  13  14
ATOM     14  C   UNL     1       3.195  -4.843   0.458  1.00  0.00    -0.043 A 
ATOM     15  C   UNL     1       3.377  -6.043  -0.248  1.00  0.00     0.023 A 
ATOM     16  C   UNL     1       2.951  -4.899   1.838  1.00  0.00     0.023 A 
ATOM     17  C   UNL     1       3.244  -7.274   0.404  1.00  0.00     0.061 A 
ATOM     18  C   UNL     1       2.799  -6.132   2.481  1.00  0.00     0.061 A 
ATOM     19  Br  UNL     1       3.417  -8.867  -0.610  1.00  0.00    -0.047 Br
ATOM     20  C   UNL     1       2.930  -7.322   1.764  1.00  0.00     0.143 A 
ATOM     21  Br  UNL     1       2.324  -6.129   4.318  1.00  0.00    -0.047 Br
BRANCH  20  22
ATOM     22  O   UNL     1       2.717  -8.513   2.402  1.00  0.00    -0.506 OA
ATOM     23  H   UNL     1       2.802  -9.319   1.931  1.00  0.00     0.293 HD
ENDBRANCH  20  22
ENDBRANCH  13  14
ENDBRANCH   7  13
ENDBRANCH   4   7
ENDBRANCH   2   3
ENDBRANCH   1   2
BRANCH   1  24
ATOM     24  C   UNL     1      -2.076  -6.836  -0.152  1.00  0.00     0.023 C 
BRANCH  24  25
ATOM     25  C   UNL     1      -1.234  -8.100  -0.301  1.00  0.00     0.116 C 
BRANCH  25  26
ATOM     26  N   UNL     1      -0.798  -8.690   0.959  1.00  0.00    -0.352 N 
ATOM     27  C   UNL     1      -0.866 -10.008   1.353  1.00  0.00     0.251 C 
ATOM     28  H   UNL     1      -0.406  -8.066   1.612  1.00  0.00     0.163 HD
ATOM     29  O   UNL     1      -0.486 -10.363   2.463  1.00  0.00    -0.269 OA
BRANCH  27  30
ATOM     30  C   UNL     1      -1.440 -10.997   0.422  1.00  0.00     0.039 A 
ATOM     31  C   UNL     1      -2.559 -11.733   0.819  1.00  0.00     0.014 A 
ATOM     32  C   UNL     1      -0.926 -11.116  -0.871  1.00  0.00     0.014 A 
ATOM     33  C   UNL     1      -3.232 -12.517  -0.121  1.00  0.00     0.010 A 
ATOM     34  C   UNL     1      -1.637 -11.842  -1.819  1.00  0.00     0.010 A 
ATOM     35  C   UNL     1      -2.807 -12.532  -1.458  1.00  0.00    -0.014 A 
BRANCH  35  36
ATOM     36  C   UNL     1      -3.568 -13.240  -2.517  1.00  0.00     0.031 A 
ATOM     37  C   UNL     1      -2.923 -14.372  -3.263  1.00  0.00     0.074 A 
ATOM     38  C   UNL     1      -4.783 -12.790  -2.888  1.00  0.00     0.049 A 
ATOM     39  N   UNL     1      -3.327 -14.988  -4.343  1.00  0.00    -0.248 NA
ATOM     40  C   UNL     1      -1.632 -14.847  -2.742  1.00  0.00     0.031 C 
ATOM     41  C   UNL     1      -5.504 -11.676  -2.269  1.00  0.00     0.029 A 
ATOM     42  N   UNL     1      -5.617 -13.202  -3.898  1.00  0.00    -0.354 N 
ATOM     43  C   UNL     1      -2.324 -15.897  -4.652  1.00  0.00     0.074 A 
ATOM     44  C   UNL     1      -1.279 -15.729  -3.665  1.00  0.00     0.031 C 
ATOM     45  C   UNL     1      -6.673 -11.499  -2.906  1.00  0.00     0.029 A 
ATOM     46  C   UNL     1      -6.766 -12.455  -4.005  1.00  0.00     0.049 A 
ATOM     47  H   UNL     1      -5.410 -13.960  -4.491  1.00  0.00     0.167 HD
ATOM     48  C   UNL     1      -2.284 -16.799  -5.661  1.00  0.00     0.037 A 
ATOM     49  C   UNL     1      -7.771 -12.523  -4.899  1.00  0.00     0.037 A 
ATOM     50  C   UNL     1      -3.344 -16.996  -6.612  1.00  0.00     0.049 A 
ATOM     51  C   UNL     1      -7.712 -13.546  -5.998  1.00  0.00     0.074 A 
ATOM     52  C   UNL     1      -3.425 -17.928  -7.632  1.00  0.00     0.029 A 
ATOM     53  N   UNL     1      -4.514 -16.253  -6.653  1.00  0.00    -0.354 N 
ATOM     54  N   UNL     1      -6.775 -14.425  -6.257  1.00  0.00    -0.248 NA
ATOM     55  C   UNL     1      -8.848 -13.585  -6.931  1.00  0.00     0.031 C 
ATOM     56  C   UNL     1      -4.635 -17.733  -8.306  1.00  0.00     0.029 A 
ATOM     57  C   UNL     1      -5.319 -16.700  -7.686  1.00  0.00     0.049 A 
ATOM     58  H   UNL     1      -4.737 -15.516  -6.039  1.00  0.00     0.167 HD
ATOM     59  C   UNL     1      -7.220 -15.140  -7.361  1.00  0.00     0.074 A 
ATOM     60  C   UNL     1      -8.512 -14.595  -7.723  1.00  0.00     0.031 C 
ATOM     61  C   UNL     1      -6.612 -16.159  -8.015  1.00  0.00     0.037 A 
BRANCH  48  62
ATOM     62  C   UNL     1      -1.052 -17.643  -5.780  1.00  0.00     0.057 A 
ATOM     63  C   UNL     1      -0.772 -18.671  -4.872  1.00  0.00     0.134 A 
ATOM     64  C   UNL     1      -0.145 -17.438  -6.827  1.00  0.00     0.134 A 
ATOM     65  F   UNL     1      -1.594 -18.907  -3.838  1.00  0.00    -0.206 F 
ATOM     66  C   UNL     1       0.380 -19.451  -4.986  1.00  0.00     0.040 A 
ATOM     67  C   UNL     1       0.998 -18.227  -6.966  1.00  0.00     0.040 A 
ATOM     68  F   UNL     1      -0.356 -16.471  -7.733  1.00  0.00    -0.206 F 
ATOM     69  C   UNL     1       1.266 -19.232  -6.039  1.00  0.00     0.006 A 
ENDBRANCH  48  62
BRANCH  49  70
ATOM     70  C   UNL     1      -8.929 -11.603  -4.785  1.00  0.00     0.057 A 
ATOM     71  C   UNL     1     -10.176 -12.071  -4.355  1.00  0.00     0.134 A 
ATOM     72  C   UNL     1      -8.824 -10.245  -5.104  1.00  0.00     0.134 A 
ATOM     73  F   UNL     1     -10.342 -13.368  -4.054  1.00  0.00    -0.206 F 
ATOM     74  C   UNL     1     -11.282 -11.226  -4.261  1.00  0.00     0.040 A 
ATOM     75  C   UNL     1      -9.917  -9.383  -4.996  1.00  0.00     0.040 A 
ATOM     76  F   UNL     1      -7.654  -9.734  -5.516  1.00  0.00    -0.206 F 
ATOM     77  C   UNL     1     -11.152  -9.875  -4.579  1.00  0.00     0.006 A 
ENDBRANCH  49  70
BRANCH  61  78
ATOM     78  C   UNL     1      -7.353 -16.784  -9.157  1.00  0.00     0.057 A 
ATOM     79  C   UNL     1      -7.428 -16.168 -10.411  1.00  0.00     0.134 A 
ATOM     80  C   UNL     1      -7.938 -18.048  -9.015  1.00  0.00     0.134 A 
ATOM     81  F   UNL     1      -6.896 -14.952 -10.604  1.00  0.00    -0.206 F 
ATOM     82  C   UNL     1      -8.068 -16.787 -11.486  1.00  0.00     0.040 A 
ATOM     83  C   UNL     1      -8.564 -18.684 -10.087  1.00  0.00     0.040 A 
ATOM     84  F   UNL     1      -7.893 -18.691  -7.839  1.00  0.00    -0.206 F 
ATOM     85  C   UNL     1      -8.631 -18.052 -11.327  1.00  0.00     0.006 A 
ENDBRANCH  61  78
ENDBRANCH  35  36
ENDBRANCH  27  30
ENDBRANCH  25  26
ENDBRANCH  24  25
ENDBRANCH   1  24
TORSDOF 15
