REMARK SMILES CC(C)[C@H](NC(=O)OCc1ccccc1)C(=O)NCC(=O)NCCCCNC(=O)c1ccc(-c2c3nc(c(-c4c(F)cccc4F)c4ccc([nH]4)c(-c4c(F)cccc4F)c4nc(c(-c5c(F)cccc5F)c5ccc2[nH]5)C=C4)C=C3)cc1
REMARK SMILES IDX 20 1 21 2 22 3 19 5 18 6 16 7 17 8 4 10 2 11 1 12 3 13 5 14
REMARK SMILES IDX 6 15 7 17 8 18 9 19 10 20 11 21 15 22 12 23 14 24 13 25
REMARK SMILES IDX 23 26 24 27 25 28 26 29 27 30 28 31 29 33 30 34 31 35 83 36
REMARK SMILES IDX 32 37 82 38 33 39 34 40 35 41 76 42 36 43 81 44 75 45 77 46
REMARK SMILES IDX 37 47 80 48 74 49 73 50 38 52 64 53 47 54 63 55 48 56 51 57
REMARK SMILES IDX 62 58 78 59 49 60 50 61 61 63 79 64 52 65 39 66 40 67 45 68
REMARK SMILES IDX 41 69 42 70 44 71 46 72 43 73 65 74 66 75 71 76 67 77 68 78
REMARK SMILES IDX 70 79 72 80 69 81 53 82 54 83 59 84 55 85 56 86 58 87 60 88
REMARK SMILES IDX 57 89
REMARK H PARENT 22 4 18 9 5 16 27 32 77 51 51 62
REMARK Flexibility Score: inf
ROOT
ATOM      1  C   UNL     1       1.285  -4.255   2.657  1.00  0.00     0.239 C 
ATOM      2  O   UNL     1       1.250  -5.294   3.320  1.00  0.00    -0.273 OA
ATOM      3  N   UNL     1       2.479  -3.600   2.525  1.00  0.00    -0.355 N 
ATOM      4  H   UNL     1       3.258  -4.075   2.895  1.00  0.00     0.163 HD
ENDROOT
BRANCH   1   5
ATOM      5  C   UNL     1       0.015  -3.700   2.010  1.00  0.00     0.216 C 
BRANCH   5   6
ATOM      6  N   UNL     1      -0.984  -3.169   2.909  1.00  0.00    -0.345 N 
ATOM      7  C   UNL     1      -1.741  -2.045   2.836  1.00  0.00     0.243 C 
ATOM      8  O   UNL     1      -2.696  -1.971   3.622  1.00  0.00    -0.273 OA
ATOM      9  H   UNL     1      -1.142  -3.717   3.711  1.00  0.00     0.164 HD
BRANCH   7  10
ATOM     10  C   UNL     1      -1.460  -0.850   1.877  1.00  0.00     0.177 C 
BRANCH  10  11
ATOM     11  C   UNL     1      -1.641  -1.116   0.338  1.00  0.00     0.015 C 
ATOM     12  C   UNL     1      -0.395  -1.223  -0.560  1.00  0.00     0.010 C 
ATOM     13  C   UNL     1      -2.615  -2.266   0.056  1.00  0.00     0.010 C 
ENDBRANCH  10  11
BRANCH  10  14
ATOM     14  N   UNL     1      -0.281  -0.051   2.222  1.00  0.00    -0.309 N 
ATOM     15  C   UNL     1       0.058   0.386   3.484  1.00  0.00     0.408 C 
ATOM     16  H   UNL     1       0.324   0.195   1.485  1.00  0.00     0.167 HD
ATOM     17  O   UNL     1       0.780   1.380   3.609  1.00  0.00    -0.225 OA
BRANCH  15  18
ATOM     18  O   UNL     1      -0.307  -0.440   4.490  1.00  0.00    -0.445 OA
BRANCH  18  19
ATOM     19  C   UNL     1       0.279  -0.245   5.806  1.00  0.00     0.270 C 
BRANCH  19  20
ATOM     20  C   UNL     1       1.107  -1.446   6.252  1.00  0.00    -0.011 A 
ATOM     21  C   UNL     1       0.756  -2.752   5.890  1.00  0.00     0.007 A 
ATOM     22  C   UNL     1       2.270  -1.276   7.024  1.00  0.00     0.007 A 
ATOM     23  C   UNL     1       1.606  -3.831   6.157  1.00  0.00     0.000 A 
ATOM     24  C   UNL     1       3.126  -2.356   7.288  1.00  0.00     0.000 A 
ATOM     25  C   UNL     1       2.808  -3.630   6.826  1.00  0.00     0.000 A 
ENDBRANCH  19  20
ENDBRANCH  18  19
ENDBRANCH  15  18
ENDBRANCH  10  14
ENDBRANCH   7  10
ENDBRANCH   5   6
ENDBRANCH   1   5
BRANCH   3  26
ATOM     26  C   UNL     1       2.776  -2.310   1.920  1.00  0.00     0.116 C 
BRANCH  26  27
ATOM     27  C   UNL     1       2.626  -1.180   2.921  1.00  0.00     0.023 C 
BRANCH  27  28
ATOM     28  C   UNL     1       3.766  -1.028   3.910  1.00  0.00     0.023 C 
BRANCH  28  29
ATOM     29  C   UNL     1       4.762   0.051   3.542  1.00  0.00     0.116 C 
BRANCH  29  30
ATOM     30  N   UNL     1       4.267   1.411   3.766  1.00  0.00    -0.352 N 
ATOM     31  C   UNL     1       4.820   2.476   4.449  1.00  0.00     0.251 C 
ATOM     32  H   UNL     1       3.390   1.598   3.360  1.00  0.00     0.163 HD
ATOM     33  O   UNL     1       4.201   3.534   4.539  1.00  0.00    -0.269 OA
BRANCH  31  34
ATOM     34  C   UNL     1       6.125   2.344   5.144  1.00  0.00     0.039 A 
ATOM     35  C   UNL     1       6.331   3.016   6.354  1.00  0.00     0.014 A 
ATOM     36  C   UNL     1       7.127   1.519   4.650  1.00  0.00     0.014 A 
ATOM     37  C   UNL     1       7.487   2.765   7.104  1.00  0.00     0.010 A 
ATOM     38  C   UNL     1       8.169   1.127   5.476  1.00  0.00     0.010 A 
ATOM     39  C   UNL     1       8.386   1.766   6.703  1.00  0.00    -0.014 A 
BRANCH  39  40
ATOM     40  C   UNL     1       9.583   1.390   7.505  1.00  0.00     0.031 A 
ATOM     41  C   UNL     1      10.948   1.398   6.857  1.00  0.00     0.074 A 
ATOM     42  C   UNL     1       9.444   0.953   8.773  1.00  0.00     0.049 A 
ATOM     43  N   UNL     1      12.093   0.972   7.327  1.00  0.00    -0.248 NA
ATOM     44  C   UNL     1      11.027   1.898   5.472  1.00  0.00     0.031 C 
ATOM     45  C   UNL     1       8.178   0.822   9.498  1.00  0.00     0.029 A 
ATOM     46  N   UNL     1      10.384   0.525   9.678  1.00  0.00    -0.354 N 
ATOM     47  C   UNL     1      13.004   1.115   6.285  1.00  0.00     0.074 A 
ATOM     48  C   UNL     1      12.267   1.582   5.136  1.00  0.00     0.031 C 
ATOM     49  C   UNL     1       8.424   0.393  10.746  1.00  0.00     0.029 A 
ATOM     50  C   UNL     1       9.857   0.169  10.897  1.00  0.00     0.049 A 
ATOM     51  H   UNL     1      11.346   0.478   9.473  1.00  0.00     0.167 HD
ATOM     52  C   UNL     1      14.343   0.919   6.293  1.00  0.00     0.037 A 
ATOM     53  C   UNL     1      10.462  -0.289  12.009  1.00  0.00     0.037 A 
ATOM     54  C   UNL     1      15.086   0.523   7.458  1.00  0.00     0.049 A 
ATOM     55  C   UNL     1      11.956  -0.467  12.006  1.00  0.00     0.074 A 
ATOM     56  C   UNL     1      16.454   0.379   7.600  1.00  0.00     0.029 A 
ATOM     57  N   UNL     1      14.518   0.218   8.686  1.00  0.00    -0.354 N 
ATOM     58  N   UNL     1      12.813  -0.257  11.035  1.00  0.00    -0.248 NA
ATOM     59  C   UNL     1      12.569  -0.940  13.255  1.00  0.00     0.031 C 
ATOM     60  C   UNL     1      16.711  -0.057   8.904  1.00  0.00     0.029 A 
ATOM     61  C   UNL     1      15.508  -0.131   9.588  1.00  0.00     0.049 A 
ATOM     62  H   UNL     1      13.554   0.247   8.886  1.00  0.00     0.167 HD
ATOM     63  C   UNL     1      14.065  -0.541  11.565  1.00  0.00     0.074 A 
ATOM     64  C   UNL     1      13.858  -0.921  12.947  1.00  0.00     0.031 C 
ATOM     65  C   UNL     1      15.279  -0.494  10.962  1.00  0.00     0.037 A 
BRANCH  52  66
ATOM     66  C   UNL     1      15.090   1.159   5.011  1.00  0.00     0.057 A 
ATOM     67  C   UNL     1      15.224   2.440   4.458  1.00  0.00     0.134 A 
ATOM     68  C   UNL     1      15.703   0.098   4.332  1.00  0.00     0.134 A 
ATOM     69  F   UNL     1      14.649   3.499   5.047  1.00  0.00    -0.206 F 
ATOM     70  C   UNL     1      15.911   2.653   3.261  1.00  0.00     0.040 A 
ATOM     71  C   UNL     1      16.422   0.304   3.152  1.00  0.00     0.040 A 
ATOM     72  F   UNL     1      15.620  -1.154   4.806  1.00  0.00    -0.206 F 
ATOM     73  C   UNL     1      16.520   1.583   2.610  1.00  0.00     0.006 A 
ENDBRANCH  52  66
BRANCH  53  74
ATOM     74  C   UNL     1       9.666  -0.581  13.231  1.00  0.00     0.057 A 
ATOM     75  C   UNL     1       9.791   0.212  14.379  1.00  0.00     0.134 A 
ATOM     76  C   UNL     1       8.776  -1.660  13.289  1.00  0.00     0.134 A 
ATOM     77  F   UNL     1      10.640   1.250  14.393  1.00  0.00    -0.206 F 
ATOM     78  C   UNL     1       9.081  -0.072  15.547  1.00  0.00     0.040 A 
ATOM     79  C   UNL     1       8.038  -1.938  14.442  1.00  0.00     0.040 A 
ATOM     80  F   UNL     1       8.602  -2.453  12.222  1.00  0.00    -0.206 F 
ATOM     81  C   UNL     1       8.197  -1.148  15.579  1.00  0.00     0.006 A 
ENDBRANCH  53  74
BRANCH  65  82
ATOM     82  C   UNL     1      16.477  -0.821  11.804  1.00  0.00     0.057 A 
ATOM     83  C   UNL     1      16.748  -2.127  12.232  1.00  0.00     0.134 A 
ATOM     84  C   UNL     1      17.394   0.179  12.153  1.00  0.00     0.134 A 
ATOM     85  F   UNL     1      15.904  -3.128  11.939  1.00  0.00    -0.206 F 
ATOM     86  C   UNL     1      17.875  -2.421  13.000  1.00  0.00     0.040 A 
ATOM     87  C   UNL     1      18.539  -0.108  12.895  1.00  0.00     0.040 A 
ATOM     88  F   UNL     1      17.199   1.448  11.764  1.00  0.00    -0.206 F 
ATOM     89  C   UNL     1      18.779  -1.411  13.327  1.00  0.00     0.006 A 
ENDBRANCH  65  82
ENDBRANCH  39  40
ENDBRANCH  31  34
ENDBRANCH  29  30
ENDBRANCH  28  29
ENDBRANCH  27  28
ENDBRANCH  26  27
ENDBRANCH   3  26
TORSDOF 18
