REMARK SMILES COc1ccc(C(=O)c2ccccc2)cc1[C@@H](C)C(=O)NCCCCNC(=O)c1ccc(-c2c3nc(c(-c4c(F)cccc4F)c4ccc([nH]4)c(-c4c(F)cccc4F)c4nc(c(-c5c(F)cccc5F)c5ccc2[nH]5)C=C4)C=C3)cc1
REMARK SMILES IDX 23 1 22 2 21 3 19 4 20 5 17 7 18 8 16 9 3 10 4 11 5 12 15 13
REMARK SMILES IDX 6 14 2 15 1 16 7 17 8 18 9 19 10 20 14 21 11 22 13 23 12 24
REMARK SMILES IDX 24 25 25 26 26 27 27 28 28 30 29 31 30 32 82 33 31 34 81 35
REMARK SMILES IDX 32 36 33 37 34 38 75 39 35 40 80 41 74 42 76 43 36 44 79 45
REMARK SMILES IDX 73 46 72 47 37 49 63 50 46 51 62 52 47 53 50 54 61 55 77 56
REMARK SMILES IDX 48 57 49 58 60 60 78 61 51 62 38 63 39 64 44 65 40 66 41 67
REMARK SMILES IDX 43 68 45 69 42 70 64 71 65 72 70 73 66 74 67 75 69 76 71 77
REMARK SMILES IDX 68 78 52 79 53 80 58 81 54 82 55 83 57 84 59 85 56 86
REMARK H PARENT 21 6 26 29 76 48 50 59
REMARK Flexibility Score: inf
ROOT
ATOM      1  C   UNL     1       4.293   4.919   1.303  1.00  0.00     0.023 C 
ENDROOT
BRANCH   1   2
ATOM      2  C   UNL     1       5.108   3.686   0.921  1.00  0.00     0.116 C 
BRANCH   2   3
ATOM      3  N   UNL     1       4.489   2.475   1.406  1.00  0.00    -0.356 N 
ATOM      4  C   UNL     1       3.647   1.588   0.814  1.00  0.00     0.227 C 
ATOM      5  O   UNL     1       3.185   0.713   1.558  1.00  0.00    -0.274 OA
ATOM      6  H   UNL     1       4.719   2.251   2.337  1.00  0.00     0.163 HD
BRANCH   4   7
ATOM      7  C   UNL     1       3.241   1.630  -0.673  1.00  0.00     0.109 C 
ATOM      8  C   UNL     1       4.389   1.721  -1.677  1.00  0.00     0.023 C 
BRANCH   7   9
ATOM      9  C   UNL     1       2.064   2.561  -0.946  1.00  0.00     0.007 A 
ATOM     10  C   UNL     1       0.753   2.069  -1.043  1.00  0.00     0.122 A 
ATOM     11  C   UNL     1      -0.332   2.933  -1.206  1.00  0.00     0.047 A 
ATOM     12  C   UNL     1      -0.132   4.313  -1.240  1.00  0.00     0.016 A 
ATOM     13  C   UNL     1       2.244   3.955  -1.059  1.00  0.00     0.020 A 
ATOM     14  C   UNL     1       1.161   4.842  -1.173  1.00  0.00     0.023 A 
BRANCH  10  15
ATOM     15  O   UNL     1       0.496   0.727  -1.124  1.00  0.00    -0.496 OA
ATOM     16  C   UNL     1       0.335   0.127   0.162  1.00  0.00     0.278 C 
ENDBRANCH  10  15
BRANCH  14  17
ATOM     17  C   UNL     1       1.302   6.332  -1.129  1.00  0.00     0.193 C 
ATOM     18  O   UNL     1       0.300   7.025  -0.959  1.00  0.00    -0.289 OA
BRANCH  17  19
ATOM     19  C   UNL     1       2.605   7.034  -1.206  1.00  0.00     0.022 A 
ATOM     20  C   UNL     1       2.854   8.058  -0.280  1.00  0.00     0.012 A 
ATOM     21  C   UNL     1       3.553   6.740  -2.192  1.00  0.00     0.012 A 
ATOM     22  C   UNL     1       4.057   8.762  -0.321  1.00  0.00     0.001 A 
ATOM     23  C   UNL     1       4.759   7.445  -2.225  1.00  0.00     0.001 A 
ATOM     24  C   UNL     1       5.005   8.456  -1.296  1.00  0.00     0.000 A 
ENDBRANCH  17  19
ENDBRANCH  14  17
ENDBRANCH   7   9
ENDBRANCH   4   7
ENDBRANCH   2   3
ENDBRANCH   1   2
BRANCH   1  25
ATOM     25  C   UNL     1       4.706   5.617   2.587  1.00  0.00     0.023 C 
BRANCH  25  26
ATOM     26  C   UNL     1       6.154   6.078   2.625  1.00  0.00     0.116 C 
BRANCH  26  27
ATOM     27  N   UNL     1       6.583   6.827   1.448  1.00  0.00    -0.352 N 
ATOM     28  C   UNL     1       7.465   7.879   1.394  1.00  0.00     0.251 C 
ATOM     29  H   UNL     1       6.193   6.544   0.590  1.00  0.00     0.163 HD
ATOM     30  O   UNL     1       7.750   8.435   0.340  1.00  0.00    -0.269 OA
BRANCH  28  31
ATOM     31  C   UNL     1       8.047   8.355   2.653  1.00  0.00     0.039 A 
ATOM     32  C   UNL     1       7.870   9.689   3.024  1.00  0.00     0.014 A 
ATOM     33  C   UNL     1       8.687   7.442   3.494  1.00  0.00     0.014 A 
ATOM     34  C   UNL     1       8.302  10.105   4.279  1.00  0.00     0.010 A 
ATOM     35  C   UNL     1       9.028   7.835   4.774  1.00  0.00     0.010 A 
ATOM     36  C   UNL     1       8.860   9.172   5.166  1.00  0.00    -0.014 A 
BRANCH  36  37
ATOM     37  C   UNL     1       9.362   9.564   6.498  1.00  0.00     0.031 A 
ATOM     38  C   UNL     1      10.830   9.413   6.775  1.00  0.00     0.074 A 
ATOM     39  C   UNL     1       8.498   9.934   7.459  1.00  0.00     0.049 A 
ATOM     40  N   UNL     1      11.473   9.491   7.909  1.00  0.00    -0.248 NA
ATOM     41  C   UNL     1      11.681   9.071   5.621  1.00  0.00     0.031 C 
ATOM     42  C   UNL     1       7.049  10.068   7.293  1.00  0.00     0.029 A 
ATOM     43  N   UNL     1       8.713  10.241   8.776  1.00  0.00    -0.354 N 
ATOM     44  C   UNL     1      12.790   9.167   7.611  1.00  0.00     0.074 A 
ATOM     45  C   UNL     1      12.845   8.837   6.205  1.00  0.00     0.031 C 
ATOM     46  C   UNL     1       6.506  10.444   8.463  1.00  0.00     0.029 A 
ATOM     47  C   UNL     1       7.562  10.533   9.466  1.00  0.00     0.049 A 
ATOM     48  H   UNL     1       9.606  10.250   9.188  1.00  0.00     0.167 HD
ATOM     49  C   UNL     1      13.861   9.170   8.437  1.00  0.00     0.037 A 
ATOM     50  C   UNL     1       7.390  10.828  10.768  1.00  0.00     0.037 A 
ATOM     51  C   UNL     1      13.786   9.548   9.822  1.00  0.00     0.049 A 
ATOM     52  C   UNL     1       8.602  10.862  11.658  1.00  0.00     0.074 A 
ATOM     53  C   UNL     1      14.806   9.648  10.749  1.00  0.00     0.029 A 
ATOM     54  N   UNL     1      12.611   9.903  10.473  1.00  0.00    -0.354 N 
ATOM     55  N   UNL     1       9.852  10.594  11.362  1.00  0.00    -0.248 NA
ATOM     56  C   UNL     1       8.383  11.248  13.057  1.00  0.00     0.031 C 
ATOM     57  C   UNL     1      14.243  10.034  11.971  1.00  0.00     0.029 A 
ATOM     58  C   UNL     1      12.880  10.218  11.792  1.00  0.00     0.049 A 
ATOM     59  H   UNL     1      11.720   9.926  10.056  1.00  0.00     0.167 HD
ATOM     60  C   UNL     1      10.574  10.805  12.529  1.00  0.00     0.074 A 
ATOM     61  C   UNL     1       9.620  11.239  13.532  1.00  0.00     0.031 C 
ATOM     62  C   UNL     1      11.902  10.655  12.757  1.00  0.00     0.037 A 
BRANCH  49  63
ATOM     63  C   UNL     1      15.184   8.759   7.857  1.00  0.00     0.057 A 
ATOM     64  C   UNL     1      15.850   9.537   6.899  1.00  0.00     0.134 A 
ATOM     65  C   UNL     1      15.802   7.567   8.258  1.00  0.00     0.134 A 
ATOM     66  F   UNL     1      15.305  10.680   6.455  1.00  0.00    -0.206 F 
ATOM     67  C   UNL     1      17.060   9.129   6.336  1.00  0.00     0.040 A 
ATOM     68  C   UNL     1      17.028   7.164   7.725  1.00  0.00     0.040 A 
ATOM     69  F   UNL     1      15.223   6.772   9.170  1.00  0.00    -0.206 F 
ATOM     70  C   UNL     1      17.656   7.941   6.754  1.00  0.00     0.006 A 
ENDBRANCH  49  63
BRANCH  50  71
ATOM     71  C   UNL     1       6.037  11.144  11.289  1.00  0.00     0.057 A 
ATOM     72  C   UNL     1       5.703  12.448  11.675  1.00  0.00     0.134 A 
ATOM     73  C   UNL     1       5.042  10.166  11.402  1.00  0.00     0.134 A 
ATOM     74  F   UNL     1       6.616  13.427  11.602  1.00  0.00    -0.206 F 
ATOM     75  C   UNL     1       4.437  12.765  12.171  1.00  0.00     0.040 A 
ATOM     76  C   UNL     1       3.763  10.473  11.874  1.00  0.00     0.040 A 
ATOM     77  F   UNL     1       5.292   8.900  11.038  1.00  0.00    -0.206 F 
ATOM     78  C   UNL     1       3.461  11.776  12.266  1.00  0.00     0.006 A 
ENDBRANCH  50  71
BRANCH  62  79
ATOM     79  C   UNL     1      12.396  11.004  14.128  1.00  0.00     0.057 A 
ATOM     80  C   UNL     1      12.141  10.186  15.235  1.00  0.00     0.134 A 
ATOM     81  C   UNL     1      13.166  12.156  14.332  1.00  0.00     0.134 A 
ATOM     82  F   UNL     1      11.399   9.076  15.104  1.00  0.00    -0.206 F 
ATOM     83  C   UNL     1      12.614  10.516  16.506  1.00  0.00     0.040 A 
ATOM     84  C   UNL     1      13.667  12.482  15.592  1.00  0.00     0.040 A 
ATOM     85  F   UNL     1      13.453  12.974  13.309  1.00  0.00    -0.206 F 
ATOM     86  C   UNL     1      13.384  11.664  16.684  1.00  0.00     0.006 A 
ENDBRANCH  62  79
ENDBRANCH  36  37
ENDBRANCH  28  31
ENDBRANCH  26  27
ENDBRANCH  25  26
ENDBRANCH   1  25
TORSDOF 15
