REMARK SMILES Cn1cc(/C=C/C(=O)Nc2ccc(C(=O)NCCCCNC(=O)c3ccc(-c4c5nc(c(-c6c(F)cccc6F)c6ccc([nH]6)c(-c6c(F)cccc6F)c6nc(c(-c7c(F)cccc7F)c7ccc4[nH]7)C=C6)C=C5)cc3)c(O)c2)cn1
REMARK SMILES IDX 18 1 17 2 16 3 14 4 15 5 13 7 10 8 11 9 80 10 12 11 78 12
REMARK SMILES IDX 9 13 7 14 8 15 6 17 5 18 4 19 1 20 2 21 3 22 82 23 81 24
REMARK SMILES IDX 79 25 19 27 20 28 21 29 22 30 23 32 24 33 25 34 77 35 26 36
REMARK SMILES IDX 76 37 27 38 28 39 29 40 70 41 30 42 75 43 69 44 71 45 31 46
REMARK SMILES IDX 74 47 68 48 67 49 32 51 58 52 41 53 57 54 42 55 45 56 56 57
REMARK SMILES IDX 72 58 43 59 44 60 55 62 73 63 46 64 33 65 34 66 39 67 35 68
REMARK SMILES IDX 36 69 38 70 40 71 37 72 59 73 60 74 65 75 61 76 62 77 64 78
REMARK SMILES IDX 66 79 63 80 47 81 48 82 53 83 49 84 50 85 52 86 54 87 51 88
REMARK H PARENT 16 6 9 16 79 26 21 31 71 50 45 61
REMARK Flexibility Score: inf
ROOT
ATOM      1  C   UNL     1       0.040  -6.973   3.631  1.00  0.00     0.023 C 
ENDROOT
BRANCH   1   2
ATOM      2  C   UNL     1       0.858  -6.929   2.342  1.00  0.00     0.116 C 
BRANCH   2   3
ATOM      3  N   UNL     1       0.072  -6.796   1.125  1.00  0.00    -0.352 N 
ATOM      4  C   UNL     1       0.397  -6.243  -0.093  1.00  0.00     0.255 C 
ATOM      5  O   UNL     1      -0.449  -6.254  -0.986  1.00  0.00    -0.269 OA
ATOM      6  H   UNL     1      -0.840  -7.160   1.181  1.00  0.00     0.163 HD
BRANCH   4   7
ATOM      7  C   UNL     1       1.693  -5.557  -0.331  1.00  0.00     0.081 A 
ATOM      8  C   UNL     1       3.924  -3.853  -0.461  1.00  0.00     0.045 A 
ATOM      9  C   UNL     1       2.760  -3.540  -1.160  1.00  0.00     0.027 A 
ATOM     10  C   UNL     1       4.040  -5.125   0.103  1.00  0.00     0.073 A 
ATOM     11  C   UNL     1       1.638  -4.366  -1.065  1.00  0.00     0.020 A 
ATOM     12  C   UNL     1       2.938  -5.985   0.133  1.00  0.00     0.130 A 
BRANCH   8  13
ATOM     13  N   UNL     1       4.988  -2.953  -0.270  1.00  0.00    -0.322 N 
ATOM     14  C   UNL     1       5.046  -1.586  -0.295  1.00  0.00     0.248 C 
ATOM     15  O   UNL     1       6.139  -1.021  -0.250  1.00  0.00    -0.270 OA
ATOM     16  H   UNL     1       5.852  -3.388  -0.083  1.00  0.00     0.170 HD
BRANCH  14  17
ATOM     17  C   UNL     1       3.823  -0.750  -0.353  1.00  0.00     0.072 C 
ATOM     18  C   UNL     1       2.745  -0.966   0.419  1.00  0.00     0.017 C 
BRANCH  18  19
ATOM     19  C   UNL     1       1.511  -0.274   0.284  1.00  0.00     0.013 A 
ATOM     20  C   UNL     1      -2.063  -0.014  -0.034  1.00  0.00     0.173 C 
ATOM     21  N   UNL     1      -0.631   0.122   0.083  1.00  0.00    -0.275 N 
ATOM     22  C   UNL     1       0.271  -0.871   0.337  1.00  0.00     0.116 A 
ATOM     23  N   UNL     1      -0.062   1.330  -0.094  1.00  0.00    -0.181 NA
ATOM     24  C   UNL     1       1.247   1.083   0.022  1.00  0.00     0.143 A 
ENDBRANCH  18  19
ENDBRANCH  14  17
ENDBRANCH   8  13
BRANCH  12  25
ATOM     25  O   UNL     1       3.172  -7.239   0.623  1.00  0.00    -0.507 OA
ATOM     26  H   UNL     1       2.474  -7.862   0.668  1.00  0.00     0.293 HD
ENDBRANCH  12  25
ENDBRANCH   4   7
ENDBRANCH   2   3
ENDBRANCH   1   2
BRANCH   1  27
ATOM     27  C   UNL     1      -1.060  -8.032   3.711  1.00  0.00     0.023 C 
BRANCH  27  28
ATOM     28  C   UNL     1      -0.690  -9.438   3.250  1.00  0.00     0.116 C 
BRANCH  28  29
ATOM     29  N   UNL     1       0.368 -10.055   4.034  1.00  0.00    -0.352 N 
ATOM     30  C   UNL     1       0.356 -11.189   4.813  1.00  0.00     0.251 C 
ATOM     31  H   UNL     1       1.233  -9.585   4.002  1.00  0.00     0.163 HD
ATOM     32  O   UNL     1       1.352 -11.487   5.467  1.00  0.00    -0.269 OA
BRANCH  30  33
ATOM     33  C   UNL     1      -0.859 -12.029   4.909  1.00  0.00     0.039 A 
ATOM     34  C   UNL     1      -1.277 -12.461   6.172  1.00  0.00     0.014 A 
ATOM     35  C   UNL     1      -1.591 -12.386   3.776  1.00  0.00     0.014 A 
ATOM     36  C   UNL     1      -2.479 -13.162   6.306  1.00  0.00     0.010 A 
ATOM     37  C   UNL     1      -2.831 -13.008   3.920  1.00  0.00     0.010 A 
ATOM     38  C   UNL     1      -3.295 -13.393   5.187  1.00  0.00    -0.014 A 
BRANCH  38  39
ATOM     39  C   UNL     1      -4.636 -14.023   5.320  1.00  0.00     0.031 A 
ATOM     40  C   UNL     1      -4.932 -15.331   4.638  1.00  0.00     0.074 A 
ATOM     41  C   UNL     1      -5.611 -13.385   6.000  1.00  0.00     0.049 A 
ATOM     42  N   UNL     1      -6.065 -15.982   4.551  1.00  0.00    -0.248 NA
ATOM     43  C   UNL     1      -3.811 -15.983   3.941  1.00  0.00     0.031 C 
ATOM     44  C   UNL     1      -5.472 -12.092   6.674  1.00  0.00     0.029 A 
ATOM     45  N   UNL     1      -6.921 -13.733   6.225  1.00  0.00    -0.354 N 
ATOM     46  C   UNL     1      -5.795 -17.111   3.788  1.00  0.00     0.074 A 
ATOM     47  C   UNL     1      -4.408 -17.027   3.385  1.00  0.00     0.031 C 
ATOM     48  C   UNL     1      -6.639 -11.768   7.253  1.00  0.00     0.029 A 
ATOM     49  C   UNL     1      -7.622 -12.805   6.958  1.00  0.00     0.049 A 
ATOM     50  H   UNL     1      -7.320 -14.569   5.893  1.00  0.00     0.167 HD
ATOM     51  C   UNL     1      -6.617 -18.142   3.477  1.00  0.00     0.037 A 
ATOM     52  C   UNL     1      -8.914 -12.786   7.339  1.00  0.00     0.037 A 
ATOM     53  C   UNL     1      -7.991 -18.239   3.892  1.00  0.00     0.049 A 
ATOM     54  C   UNL     1      -9.812 -13.931   6.954  1.00  0.00     0.074 A 
ATOM     55  C   UNL     1      -8.898 -19.255   3.642  1.00  0.00     0.029 A 
ATOM     56  N   UNL     1      -8.655 -17.288   4.651  1.00  0.00    -0.354 N 
ATOM     57  N   UNL     1      -9.527 -15.012   6.270  1.00  0.00    -0.248 NA
ATOM     58  C   UNL     1     -11.211 -13.854   7.399  1.00  0.00     0.031 C 
ATOM     59  C   UNL     1     -10.120 -18.905   4.225  1.00  0.00     0.029 A 
ATOM     60  C   UNL     1      -9.961 -17.692   4.874  1.00  0.00     0.049 A 
ATOM     61  H   UNL     1      -8.257 -16.451   4.983  1.00  0.00     0.167 HD
ATOM     62  C   UNL     1     -10.698 -15.758   6.235  1.00  0.00     0.074 A 
ATOM     63  C   UNL     1     -11.693 -15.014   6.978  1.00  0.00     0.031 C 
ATOM     64  C   UNL     1     -10.931 -16.952   5.638  1.00  0.00     0.037 A 
BRANCH  51  65
ATOM     65  C   UNL     1      -6.041 -19.265   2.666  1.00  0.00     0.057 A 
ATOM     66  C   UNL     1      -5.115 -20.163   3.215  1.00  0.00     0.134 A 
ATOM     67  C   UNL     1      -6.450 -19.486   1.345  1.00  0.00     0.134 A 
ATOM     68  F   UNL     1      -4.674 -19.999   4.471  1.00  0.00    -0.206 F 
ATOM     69  C   UNL     1      -4.602 -21.228   2.473  1.00  0.00     0.040 A 
ATOM     70  C   UNL     1      -5.963 -20.563   0.602  1.00  0.00     0.040 A 
ATOM     71  F   UNL     1      -7.338 -18.669   0.760  1.00  0.00    -0.206 F 
ATOM     72  C   UNL     1      -5.033 -21.435   1.165  1.00  0.00     0.006 A 
ENDBRANCH  51  65
BRANCH  52  73
ATOM     73  C   UNL     1      -9.451 -11.653   8.138  1.00  0.00     0.057 A 
ATOM     74  C   UNL     1      -9.859 -11.836   9.465  1.00  0.00     0.134 A 
ATOM     75  C   UNL     1      -9.619 -10.379   7.583  1.00  0.00     0.134 A 
ATOM     76  F   UNL     1      -9.742 -13.039  10.047  1.00  0.00    -0.206 F 
ATOM     77  C   UNL     1     -10.447 -10.805  10.200  1.00  0.00     0.040 A 
ATOM     78  C   UNL     1     -10.179  -9.331   8.315  1.00  0.00     0.040 A 
ATOM     79  F   UNL     1      -9.242 -10.135   6.319  1.00  0.00    -0.206 F 
ATOM     80  C   UNL     1     -10.607  -9.546   9.624  1.00  0.00     0.006 A 
ENDBRANCH  52  73
BRANCH  64  81
ATOM     81  C   UNL     1     -12.295 -17.553   5.811  1.00  0.00     0.057 A 
ATOM     82  C   UNL     1     -13.421 -17.037   5.157  1.00  0.00     0.134 A 
ATOM     83  C   UNL     1     -12.476 -18.685   6.616  1.00  0.00     0.134 A 
ATOM     84  F   UNL     1     -13.316 -15.946   4.383  1.00  0.00    -0.206 F 
ATOM     85  C   UNL     1     -14.683 -17.610   5.317  1.00  0.00     0.040 A 
ATOM     86  C   UNL     1     -13.728 -19.283   6.763  1.00  0.00     0.040 A 
ATOM     87  F   UNL     1     -11.437 -19.234   7.263  1.00  0.00    -0.206 F 
ATOM     88  C   UNL     1     -14.837 -18.741   6.117  1.00  0.00     0.006 A 
ENDBRANCH  64  81
ENDBRANCH  38  39
ENDBRANCH  30  33
ENDBRANCH  28  29
ENDBRANCH  27  28
ENDBRANCH   1  27
TORSDOF 15
