REMARK SMILES O=C(NCCCCNC(=O)[C@H]1CCCC[C@H]1C(=O)N1CCN(S(=O)(=O)c2ccc(F)cc2)CC1)c1ccc(-c2c3nc(c(-c4c(F)cccc4F)c4ccc([nH]4)c(-c4c(F)cccc4F)c4nc(c(-c5c(F)cccc5F)c5ccc2[nH]5)C=C4)C=C3)cc1
REMARK SMILES IDX 6 1 5 2 4 3 3 4 1 5 2 6 35 8 36 9 88 10 37 11 87 12 38 13
REMARK SMILES IDX 39 14 40 15 81 16 41 17 86 18 80 19 82 20 42 21 85 22 79 23
REMARK SMILES IDX 78 24 43 26 69 27 52 28 68 29 53 30 56 31 67 32 83 33 54 34
REMARK SMILES IDX 55 35 66 37 84 38 57 39 44 40 45 41 50 42 46 43 47 44 49 45
REMARK SMILES IDX 51 46 48 47 70 48 71 49 76 50 72 51 73 52 75 53 77 54 74 55
REMARK SMILES IDX 58 56 59 57 64 58 60 59 61 60 63 61 65 62 62 63 7 64 8 65
REMARK SMILES IDX 9 66 10 68 11 69 12 70 16 71 13 72 15 73 14 74 17 75 18 76
REMARK SMILES IDX 19 77 20 78 34 79 21 80 33 81 22 82 23 83 24 84 25 85 26 86
REMARK SMILES IDX 27 87 32 88 28 89 31 90 29 91 30 92
REMARK H PARENT 3 7 82 25 56 36 8 67
REMARK Flexibility Score: inf
ROOT
ATOM      1  C   UNL     1       7.981   2.184  -4.365  1.00  0.00     0.023 C 
ENDROOT
BRANCH   1   2
ATOM      2  C   UNL     1       7.999   1.588  -5.776  1.00  0.00     0.023 C 
BRANCH   2   3
ATOM      3  C   UNL     1       9.342   1.427  -6.470  1.00  0.00     0.116 C 
BRANCH   3   4
ATOM      4  N   UNL     1      10.203   0.432  -5.867  1.00  0.00    -0.352 N 
ATOM      5  O   UNL     1      11.571  -1.353  -5.778  1.00  0.00    -0.269 OA
ATOM      6  C   UNL     1      10.971  -0.538  -6.473  1.00  0.00     0.251 C 
ATOM      7  H   UNL     1      10.247   0.452  -4.883  1.00  0.00     0.163 HD
BRANCH   6   8
ATOM      8  C   UNL     1      11.066  -0.631  -7.955  1.00  0.00     0.039 A 
ATOM      9  C   UNL     1      11.198   0.505  -8.754  1.00  0.00     0.014 A 
ATOM     10  C   UNL     1      11.070  -1.896  -8.556  1.00  0.00     0.014 A 
ATOM     11  C   UNL     1      11.210   0.384 -10.143  1.00  0.00     0.010 A 
ATOM     12  C   UNL     1      11.158  -2.020  -9.950  1.00  0.00     0.010 A 
ATOM     13  C   UNL     1      11.204  -0.878 -10.761  1.00  0.00    -0.014 A 
BRANCH  13  14
ATOM     14  C   UNL     1      11.333  -0.959 -12.242  1.00  0.00     0.031 A 
ATOM     15  C   UNL     1      10.226  -1.497 -13.107  1.00  0.00     0.074 A 
ATOM     16  C   UNL     1      12.453  -0.477 -12.818  1.00  0.00     0.049 A 
ATOM     17  N   UNL     1      10.165  -1.566 -14.415  1.00  0.00    -0.248 NA
ATOM     18  C   UNL     1       9.038  -2.034 -12.426  1.00  0.00     0.031 C 
ATOM     19  C   UNL     1      13.608   0.057 -12.091  1.00  0.00     0.029 A 
ATOM     20  N   UNL     1      12.793  -0.319 -14.138  1.00  0.00    -0.354 N 
ATOM     21  C   UNL     1       8.947  -2.165 -14.712  1.00  0.00     0.074 A 
ATOM     22  C   UNL     1       8.305  -2.459 -13.448  1.00  0.00     0.031 C 
ATOM     23  C   UNL     1      14.489   0.555 -12.969  1.00  0.00     0.029 A 
ATOM     24  C   UNL     1      13.994   0.324 -14.321  1.00  0.00     0.049 A 
ATOM     25  H   UNL     1      12.232  -0.636 -14.882  1.00  0.00     0.167 HD
ATOM     26  C   UNL     1       8.413  -2.437 -15.927  1.00  0.00     0.037 A 
ATOM     27  C   UNL     1      14.631   0.691 -15.449  1.00  0.00     0.037 A 
ATOM     28  C   UNL     1       9.038  -2.121 -17.187  1.00  0.00     0.049 A 
ATOM     29  C   UNL     1      14.012   0.380 -16.779  1.00  0.00     0.074 A 
ATOM     30  C   UNL     1       8.553  -2.339 -18.466  1.00  0.00     0.029 A 
ATOM     31  N   UNL     1      10.277  -1.518 -17.329  1.00  0.00    -0.354 N 
ATOM     32  N   UNL     1      12.857  -0.181 -17.038  1.00  0.00    -0.248 NA
ATOM     33  C   UNL     1      14.791   0.737 -17.972  1.00  0.00     0.031 C 
ATOM     34  C   UNL     1       9.511  -1.895 -19.383  1.00  0.00     0.029 A 
ATOM     35  C   UNL     1      10.578  -1.369 -18.674  1.00  0.00     0.049 A 
ATOM     36  H   UNL     1      10.858  -1.237 -16.585  1.00  0.00     0.167 HD
ATOM     37  C   UNL     1      12.771  -0.246 -18.421  1.00  0.00     0.074 A 
ATOM     38  C   UNL     1      13.976   0.361 -18.948  1.00  0.00     0.031 C 
ATOM     39  C   UNL     1      11.785  -0.775 -19.185  1.00  0.00     0.037 A 
BRANCH  26  40
ATOM     40  C   UNL     1       7.073  -3.110 -15.974  1.00  0.00     0.057 A 
ATOM     41  C   UNL     1       6.960  -4.449 -16.371  1.00  0.00     0.134 A 
ATOM     42  C   UNL     1       5.890  -2.402 -15.734  1.00  0.00     0.134 A 
ATOM     43  F   UNL     1       8.057  -5.178 -16.627  1.00  0.00    -0.206 F 
ATOM     44  C   UNL     1       5.715  -5.056 -16.544  1.00  0.00     0.040 A 
ATOM     45  C   UNL     1       4.639  -3.004 -15.886  1.00  0.00     0.040 A 
ATOM     46  F   UNL     1       5.932  -1.118 -15.349  1.00  0.00    -0.206 F 
ATOM     47  C   UNL     1       4.549  -4.331 -16.303  1.00  0.00     0.006 A 
ENDBRANCH  26  40
BRANCH  27  48
ATOM     48  C   UNL     1      15.928   1.406 -15.363  1.00  0.00     0.057 A 
ATOM     49  C   UNL     1      17.089   0.762 -14.919  1.00  0.00     0.134 A 
ATOM     50  C   UNL     1      16.030   2.758 -15.707  1.00  0.00     0.134 A 
ATOM     51  F   UNL     1      17.054  -0.532 -14.570  1.00  0.00    -0.206 F 
ATOM     52  C   UNL     1      18.301   1.442 -14.801  1.00  0.00     0.040 A 
ATOM     53  C   UNL     1      17.241   3.445 -15.618  1.00  0.00     0.040 A 
ATOM     54  F   UNL     1      14.956   3.422 -16.159  1.00  0.00    -0.206 F 
ATOM     55  C   UNL     1      18.380   2.787 -15.155  1.00  0.00     0.006 A 
ENDBRANCH  27  48
BRANCH  39  56
ATOM     56  C   UNL     1      11.973  -0.726 -20.671  1.00  0.00     0.057 A 
ATOM     57  C   UNL     1      11.232   0.161 -21.461  1.00  0.00     0.134 A 
ATOM     58  C   UNL     1      12.866  -1.587 -21.321  1.00  0.00     0.134 A 
ATOM     59  F   UNL     1      10.356   1.006 -20.898  1.00  0.00    -0.206 F 
ATOM     60  C   UNL     1      11.371   0.187 -22.849  1.00  0.00     0.040 A 
ATOM     61  C   UNL     1      13.028  -1.556 -22.707  1.00  0.00     0.040 A 
ATOM     62  F   UNL     1      13.614  -2.450 -20.617  1.00  0.00    -0.206 F 
ATOM     63  C   UNL     1      12.274  -0.670 -23.475  1.00  0.00     0.006 A 
ENDBRANCH  39  56
ENDBRANCH  13  14
ENDBRANCH   6   8
ENDBRANCH   3   4
ENDBRANCH   2   3
ENDBRANCH   1   2
BRANCH   1  64
ATOM     64  C   UNL     1       8.774   3.475  -4.139  1.00  0.00     0.116 C 
BRANCH  64  65
ATOM     65  N   UNL     1       8.413   4.568  -5.026  1.00  0.00    -0.356 N 
ATOM     66  C   UNL     1       7.429   5.513  -4.933  1.00  0.00     0.223 C 
ATOM     67  H   UNL     1       8.973   4.641  -5.832  1.00  0.00     0.163 HD
ATOM     68  O   UNL     1       7.349   6.324  -5.859  1.00  0.00    -0.275 OA
BRANCH  66  69
ATOM     69  C   UNL     1       6.459   5.518  -3.755  1.00  0.00     0.091 C 
ATOM     70  C   UNL     1       6.828   6.782  -2.933  1.00  0.00     0.014 C 
ATOM     71  C   UNL     1       4.938   5.528  -4.065  1.00  0.00     0.091 C 
ATOM     72  C   UNL     1       6.296   8.091  -3.537  1.00  0.00     0.001 C 
ATOM     73  C   UNL     1       4.429   6.840  -4.679  1.00  0.00     0.014 C 
ATOM     74  C   UNL     1       4.798   8.034  -3.806  1.00  0.00     0.001 C 
BRANCH  71  75
ATOM     75  C   UNL     1       4.195   4.321  -4.697  1.00  0.00     0.226 C 
ATOM     76  O   UNL     1       3.468   3.618  -3.992  1.00  0.00    -0.275 OA
ATOM     77  N   UNL     1       4.201   4.176  -6.070  1.00  0.00    -0.340 N 
ATOM     78  C   UNL     1       3.047   3.645  -6.808  1.00  0.00     0.136 C 
ATOM     79  C   UNL     1       5.423   4.022  -6.809  1.00  0.00     0.136 C 
ATOM     80  C   UNL     1       2.986   4.199  -8.265  1.00  0.00     0.124 C 
ATOM     81  C   UNL     1       5.361   4.792  -8.112  1.00  0.00     0.124 C 
ATOM     82  N   UNL     1       4.326   4.181  -8.996  1.00  0.00    -0.194 NA
BRANCH  82  83
ATOM     83  S   UNL     1       4.682   2.687  -9.761  1.00  0.00     0.243 S 
ATOM     84  O   UNL     1       4.883   1.679  -8.738  1.00  0.00    -0.207 OA
ATOM     85  O   UNL     1       3.682   2.493 -10.785  1.00  0.00    -0.207 OA
BRANCH  83  86
ATOM     86  C   UNL     1       6.266   2.904 -10.567  1.00  0.00     0.082 A 
ATOM     87  C   UNL     1       7.441   2.911  -9.798  1.00  0.00     0.025 A 
ATOM     88  C   UNL     1       6.348   2.925 -11.963  1.00  0.00     0.025 A 
ATOM     89  C   UNL     1       8.683   3.039 -10.418  1.00  0.00     0.040 A 
ATOM     90  C   UNL     1       7.602   2.998 -12.581  1.00  0.00     0.040 A 
ATOM     91  C   UNL     1       8.754   3.070 -11.804  1.00  0.00     0.123 A 
ATOM     92  F   UNL     1       9.953   3.152 -12.394  1.00  0.00    -0.207 F 
ENDBRANCH  83  86
ENDBRANCH  82  83
ENDBRANCH  71  75
ENDBRANCH  66  69
ENDBRANCH  64  65
ENDBRANCH   1  64
TORSDOF 14
