REMARK SMILES O=C(NCCCCNC(=O)C(F)(F)[C@H](O)c1ccccc1C1CC1)c1ccc(-c2c3nc(c(-c4c(F)cccc4F)c4ccc([nH]4)c(-c4c(F)cccc4F)c4nc(c(-c5c(F)cccc5F)c5ccc2[nH]5)C=C4)C=C3)cc1
REMARK SMILES IDX 6 1 5 2 4 3 3 4 1 5 2 6 25 8 26 9 78 10 27 11 77 12 28 13
REMARK SMILES IDX 29 14 30 15 71 16 31 17 76 18 70 19 72 20 32 21 75 22 69 23
REMARK SMILES IDX 68 24 33 26 59 27 42 28 58 29 43 30 46 31 57 32 73 33 44 34
REMARK SMILES IDX 45 35 56 37 74 38 47 39 34 40 35 41 40 42 36 43 37 44 39 45
REMARK SMILES IDX 41 46 38 47 60 48 61 49 66 50 62 51 63 52 65 53 67 54 64 55
REMARK SMILES IDX 48 56 49 57 54 58 50 59 51 60 53 61 55 62 52 63 7 64 8 65
REMARK SMILES IDX 9 66 10 68 11 69 12 70 13 71 14 72 16 73 17 74 21 75 18 76
REMARK SMILES IDX 20 77 19 78 22 79 23 80 24 81 15 82
REMARK H PARENT 3 7 72 25 46 36 8 67 15 83
REMARK Flexibility Score: inf
ROOT
ATOM      1  C   UNL     1       9.797   8.997  -3.532  1.00  0.00     0.023 C 
ENDROOT
BRANCH   1   2
ATOM      2  C   UNL     1       9.259  10.209  -2.777  1.00  0.00     0.023 C 
BRANCH   2   3
ATOM      3  C   UNL     1       9.654  10.286  -1.312  1.00  0.00     0.116 C 
BRANCH   3   4
ATOM      4  N   UNL     1      11.088  10.364  -1.082  1.00  0.00    -0.352 N 
ATOM      5  O   UNL     1      12.963  11.082  -0.034  1.00  0.00    -0.269 OA
ATOM      6  C   UNL     1      11.748  11.027  -0.064  1.00  0.00     0.251 C 
ATOM      7  H   UNL     1      11.657   9.888  -1.729  1.00  0.00     0.163 HD
BRANCH   6   8
ATOM      8  C   UNL     1      10.938  11.711   0.971  1.00  0.00     0.039 A 
ATOM      9  C   UNL     1       9.863  11.053   1.568  1.00  0.00     0.014 A 
ATOM     10  C   UNL     1      11.218  13.042   1.293  1.00  0.00     0.014 A 
ATOM     11  C   UNL     1       8.968  11.772   2.346  1.00  0.00     0.010 A 
ATOM     12  C   UNL     1      10.369  13.738   2.162  1.00  0.00     0.010 A 
ATOM     13  C   UNL     1       9.214  13.120   2.663  1.00  0.00    -0.014 A 
BRANCH  13  14
ATOM     14  C   UNL     1       8.264  13.816   3.567  1.00  0.00     0.031 A 
ATOM     15  C   UNL     1       7.428  14.973   3.096  1.00  0.00     0.074 A 
ATOM     16  C   UNL     1       8.102  13.327   4.812  1.00  0.00     0.049 A 
ATOM     17  N   UNL     1       6.488  15.621   3.739  1.00  0.00    -0.248 NA
ATOM     18  C   UNL     1       7.677  15.476   1.737  1.00  0.00     0.031 C 
ATOM     19  C   UNL     1       8.875  12.222   5.386  1.00  0.00     0.029 A 
ATOM     20  N   UNL     1       7.216  13.662   5.802  1.00  0.00    -0.354 N 
ATOM     21  C   UNL     1       6.044  16.612   2.874  1.00  0.00     0.074 A 
ATOM     22  C   UNL     1       6.834  16.499   1.666  1.00  0.00     0.031 C 
ATOM     23  C   UNL     1       8.384  11.924   6.596  1.00  0.00     0.029 A 
ATOM     24  C   UNL     1       7.305  12.853   6.909  1.00  0.00     0.049 A 
ATOM     25  H   UNL     1       6.579  14.408   5.728  1.00  0.00     0.167 HD
ATOM     26  C   UNL     1       5.062  17.526   3.068  1.00  0.00     0.037 A 
ATOM     27  C   UNL     1       6.600  12.858   8.054  1.00  0.00     0.037 A 
ATOM     28  C   UNL     1       4.270  17.628   4.268  1.00  0.00     0.049 A 
ATOM     29  C   UNL     1       5.509  13.869   8.232  1.00  0.00     0.074 A 
ATOM     30  C   UNL     1       3.249  18.519   4.556  1.00  0.00     0.029 A 
ATOM     31  N   UNL     1       4.405  16.807   5.377  1.00  0.00    -0.354 N 
ATOM     32  N   UNL     1       5.097  14.792   7.397  1.00  0.00    -0.248 NA
ATOM     33  C   UNL     1       4.787  13.843   9.510  1.00  0.00     0.031 C 
ATOM     34  C   UNL     1       2.788  18.256   5.851  1.00  0.00     0.029 A 
ATOM     35  C   UNL     1       3.494  17.176   6.354  1.00  0.00     0.049 A 
ATOM     36  H   UNL     1       5.054  16.070   5.458  1.00  0.00     0.167 HD
ATOM     37  C   UNL     1       4.071  15.460   8.050  1.00  0.00     0.074 A 
ATOM     38  C   UNL     1       3.898  14.809   9.333  1.00  0.00     0.031 C 
ATOM     39  C   UNL     1       3.347  16.525   7.630  1.00  0.00     0.037 A 
BRANCH  26  40
ATOM     40  C   UNL     1       4.787  18.500   1.959  1.00  0.00     0.057 A 
ATOM     41  C   UNL     1       4.117  18.115   0.790  1.00  0.00     0.134 A 
ATOM     42  C   UNL     1       5.137  19.850   2.088  1.00  0.00     0.134 A 
ATOM     43  F   UNL     1       3.764  16.835   0.600  1.00  0.00    -0.206 F 
ATOM     44  C   UNL     1       3.816  19.037  -0.215  1.00  0.00     0.040 A 
ATOM     45  C   UNL     1       4.823  20.784   1.098  1.00  0.00     0.040 A 
ATOM     46  F   UNL     1       5.774  20.287   3.185  1.00  0.00    -0.206 F 
ATOM     47  C   UNL     1       4.162  20.377  -0.059  1.00  0.00     0.006 A 
ENDBRANCH  26  40
BRANCH  27  48
ATOM     48  C   UNL     1       6.919  11.874   9.117  1.00  0.00     0.057 A 
ATOM     49  C   UNL     1       6.040  10.833   9.432  1.00  0.00     0.134 A 
ATOM     50  C   UNL     1       8.122  11.944   9.830  1.00  0.00     0.134 A 
ATOM     51  F   UNL     1       4.865  10.724   8.793  1.00  0.00    -0.206 F 
ATOM     52  C   UNL     1       6.339   9.902  10.427  1.00  0.00     0.040 A 
ATOM     53  C   UNL     1       8.447  11.005  10.808  1.00  0.00     0.040 A 
ATOM     54  F   UNL     1       9.010  12.913   9.566  1.00  0.00    -0.206 F 
ATOM     55  C   UNL     1       7.550   9.983  11.113  1.00  0.00     0.006 A 
ENDBRANCH  27  48
BRANCH  39  56
ATOM     56  C   UNL     1       2.308  17.043   8.578  1.00  0.00     0.057 A 
ATOM     57  C   UNL     1       2.659  17.759   9.729  1.00  0.00     0.134 A 
ATOM     58  C   UNL     1       0.946  16.823   8.339  1.00  0.00     0.134 A 
ATOM     59  F   UNL     1       3.948  17.988  10.020  1.00  0.00    -0.206 F 
ATOM     60  C   UNL     1       1.692  18.211  10.628  1.00  0.00     0.040 A 
ATOM     61  C   UNL     1      -0.031  17.290   9.219  1.00  0.00     0.040 A 
ATOM     62  F   UNL     1       0.545  16.148   7.251  1.00  0.00    -0.206 F 
ATOM     63  C   UNL     1       0.342  17.979  10.372  1.00  0.00     0.006 A 
ENDBRANCH  39  56
ENDBRANCH  13  14
ENDBRANCH   6   8
ENDBRANCH   3   4
ENDBRANCH   2   3
ENDBRANCH   1   2
BRANCH   1  64
ATOM     64  C   UNL     1       9.495   7.639  -2.889  1.00  0.00     0.116 C 
BRANCH  64  65
ATOM     65  N   UNL     1       8.077   7.293  -2.907  1.00  0.00    -0.351 N 
ATOM     66  C   UNL     1       7.429   6.514  -3.853  1.00  0.00     0.293 C 
ATOM     67  H   UNL     1       7.526   7.648  -2.173  1.00  0.00     0.163 HD
ATOM     68  O   UNL     1       6.214   6.332  -3.745  1.00  0.00    -0.268 OA
BRANCH  66  69
ATOM     69  C   UNL     1       8.281   5.961  -5.017  1.00  0.00     0.353 C 
ATOM     70  F   UNL     1       8.910   7.044  -5.554  1.00  0.00    -0.192 F 
ATOM     71  F   UNL     1       9.275   5.161  -4.524  1.00  0.00    -0.192 F 
BRANCH  69  72
ATOM     72  C   UNL     1       7.517   5.224  -6.158  1.00  0.00     0.225 C 
BRANCH  72  73
ATOM     73  C   UNL     1       8.398   4.167  -6.860  1.00  0.00    -0.009 A 
ATOM     74  C   UNL     1       8.098   2.804  -6.565  1.00  0.00     0.007 A 
ATOM     75  C   UNL     1       9.503   4.443  -7.718  1.00  0.00    -0.039 A 
ATOM     76  C   UNL     1       8.850   1.738  -7.055  1.00  0.00     0.000 A 
ATOM     77  C   UNL     1      10.274   3.318  -8.137  1.00  0.00     0.004 A 
ATOM     78  C   UNL     1       9.961   1.997  -7.827  1.00  0.00     0.000 A 
BRANCH  75  79
ATOM     79  C   UNL     1       9.994   5.750  -8.339  1.00  0.00     0.019 C 
ATOM     80  C   UNL     1       9.463   7.139  -8.189  1.00  0.00     0.009 C 
ATOM     81  C   UNL     1      10.742   6.749  -7.492  1.00  0.00     0.009 C 
ENDBRANCH  75  79
ENDBRANCH  72  73
BRANCH  72  82
ATOM     82  O   UNL     1       6.287   4.596  -5.724  1.00  0.00    -0.381 OA
ATOM     83  H   UNL     1       6.490   3.888  -5.093  1.00  0.00     0.211 HD
ENDBRANCH  72  82
ENDBRANCH  69  72
ENDBRANCH  66  69
ENDBRANCH  64  65
ENDBRANCH   1  64
TORSDOF 15
