REMARK SMILES C[N@@H+]1CC[N@@H+](Cc2ncc[nH]2)C[C@@]12CCC(=O)N(CC(=O)NCCCCNC(=O)c1ccc(-c3c4nc(c(-c5c(F)cccc5F)c5ccc([nH]5)c(-c5c(F)cccc5F)c5nc(c(-c6c(F)cccc6F)c6ccc3[nH]6)C=C5)C=C4)cc1)CC2
REMARK SMILES IDX 20 1 21 2 22 3 19 5 18 6 16 7 17 8 15 9 14 10 13 11 1 12
REMARK SMILES IDX 2 13 3 14 4 16 12 17 5 19 6 21 7 22 8 23 11 24 9 25 10 26
REMARK SMILES IDX 84 28 85 29 23 31 24 32 25 33 26 34 27 35 28 36 29 38 30 39
REMARK SMILES IDX 31 40 83 41 32 42 82 43 33 44 34 45 35 46 76 47 36 48 81 49
REMARK SMILES IDX 75 50 77 51 37 52 80 53 74 54 73 55 38 57 64 58 47 59 63 60
REMARK SMILES IDX 48 61 51 62 62 63 78 64 49 65 50 66 61 68 79 69 52 70 39 71
REMARK SMILES IDX 40 72 45 73 41 74 42 75 44 76 46 77 43 78 65 79 66 80 71 81
REMARK SMILES IDX 67 82 68 83 70 84 72 85 69 86 53 87 54 88 59 89 55 90 56 91
REMARK SMILES IDX 58 92 60 93 57 94
REMARK H PARENT 22 4 2 15 5 20 11 27 27 37 77 56 51 67
REMARK Flexibility Score: 80.00
ROOT
ATOM      1  C   UNL     1      -6.047  -1.282  -2.675  1.00  0.00     0.239 C 
ATOM      2  O   UNL     1      -6.907  -1.286  -3.561  1.00  0.00    -0.273 OA
ATOM      3  N   UNL     1      -6.481  -1.081  -1.393  1.00  0.00    -0.355 N 
ATOM      4  H   UNL     1      -7.368  -0.664  -1.301  1.00  0.00     0.163 HD
ENDROOT
BRANCH   1   5
ATOM      5  C   UNL     1      -4.577  -1.660  -2.971  1.00  0.00     0.219 C 
BRANCH   5   6
ATOM      6  N   UNL     1      -3.585  -0.718  -2.429  1.00  0.00    -0.333 N 
BRANCH   6   7
ATOM      7  C   UNL     1      -3.598   0.550  -2.985  1.00  0.00     0.223 C 
ATOM      8  O   UNL     1      -4.348   0.866  -3.906  1.00  0.00    -0.275 OA
BRANCH   7   9
ATOM      9  C   UNL     1      -2.678   1.565  -2.373  1.00  0.00     0.107 C 
BRANCH   9  10
ATOM     10  C   UNL     1      -1.223   1.260  -2.696  1.00  0.00     0.084 C 
BRANCH  10  11
ATOM     11  C   UNL     1      -0.471   0.323  -1.691  1.00  0.00     0.149 CG0
ATOM     12  C   UNL     1       1.792  -0.689  -1.290  1.00  0.00     0.333 C 
ATOM     13  N   UNL     1       0.958   0.168  -2.149  1.00  0.00    -0.323 N 
ATOM     14  C   UNL     1       1.614   1.496  -2.234  1.00  0.00     0.324 C 
ATOM     15  H   UNL     1       0.890  -0.287  -3.059  1.00  0.00     0.348 HD
ATOM     16  C   UNL     1       1.226   2.545  -1.148  1.00  0.00     0.324 C 
ATOM     17  C   UNL     1      -0.464   0.927  -0.238  1.00  0.00     0.332 C 
ATOM     18  G   UNL     1      -1.163  -1.081  -1.743  1.00  0.00     0.000 G0
ATOM     19  N   UNL     1       0.409   2.082  -0.026  1.00  0.00    -0.319 N 
ATOM     20  H   UNL     1       1.089   1.588   0.552  1.00  0.00     0.348 HD
BRANCH  19  21
ATOM     21  C   UNL     1      -0.042   3.141   0.877  1.00  0.00     0.339 C 
BRANCH  21  22
ATOM     22  C   UNL     1      -1.407   3.704   0.609  1.00  0.00     0.161 A 
ATOM     23  N   UNL     1      -1.734   4.703  -0.189  1.00  0.00    -0.236 NA
ATOM     24  N   UNL     1      -2.521   3.243   1.275  1.00  0.00    -0.344 N 
ATOM     25  C   UNL     1      -3.087   4.881  -0.034  1.00  0.00     0.131 A 
ATOM     26  C   UNL     1      -3.598   3.970   0.857  1.00  0.00     0.104 A 
ATOM     27  H   UNL     1      -2.537   2.516   1.938  1.00  0.00     0.167 HD
ENDBRANCH  21  22
ENDBRANCH  19  21
ENDBRANCH  10  11
ENDBRANCH   9  10
ENDBRANCH   7   9
ENDBRANCH   6   7
BRANCH   6  28
ATOM     28  C   UNL     1      -2.650  -1.151  -1.390  1.00  0.00     0.127 C 
BRANCH  28  29
ATOM     29  C   UNL     1      -1.163  -1.081  -1.743  1.00  0.00     0.096 CG0
ATOM     30  G   UNL     1      -0.471   0.323  -1.691  1.00  0.00     0.000 G0
ENDBRANCH  28  29
ENDBRANCH   6  28
ENDBRANCH   5   6
ENDBRANCH   1   5
BRANCH   3  31
ATOM     31  C   UNL     1      -5.808  -1.401  -0.158  1.00  0.00     0.116 C 
BRANCH  31  32
ATOM     32  C   UNL     1      -5.231  -0.172   0.537  1.00  0.00     0.023 C 
BRANCH  32  33
ATOM     33  C   UNL     1      -6.238   0.710   1.264  1.00  0.00     0.023 C 
BRANCH  33  34
ATOM     34  C   UNL     1      -7.071   0.010   2.328  1.00  0.00     0.116 C 
BRANCH  34  35
ATOM     35  N   UNL     1      -6.271  -0.682   3.329  1.00  0.00    -0.352 N 
ATOM     36  C   UNL     1      -6.436  -0.723   4.693  1.00  0.00     0.251 C 
ATOM     37  H   UNL     1      -5.504  -1.192   2.979  1.00  0.00     0.163 HD
ATOM     38  O   UNL     1      -5.591  -1.271   5.396  1.00  0.00    -0.269 OA
BRANCH  36  39
ATOM     39  C   UNL     1      -7.608  -0.068   5.310  1.00  0.00     0.039 A 
ATOM     40  C   UNL     1      -7.417   0.735   6.437  1.00  0.00     0.014 A 
ATOM     41  C   UNL     1      -8.883  -0.214   4.757  1.00  0.00     0.014 A 
ATOM     42  C   UNL     1      -8.491   1.458   6.958  1.00  0.00     0.010 A 
ATOM     43  C   UNL     1      -9.931   0.570   5.225  1.00  0.00     0.010 A 
ATOM     44  C   UNL     1      -9.745   1.415   6.329  1.00  0.00    -0.014 A 
BRANCH  44  45
ATOM     45  C   UNL     1     -10.874   2.255   6.800  1.00  0.00     0.031 A 
ATOM     46  C   UNL     1     -12.126   1.612   7.326  1.00  0.00     0.074 A 
ATOM     47  C   UNL     1     -10.803   3.594   6.675  1.00  0.00     0.049 A 
ATOM     48  N   UNL     1     -13.242   2.173   7.714  1.00  0.00    -0.248 NA
ATOM     49  C   UNL     1     -12.136   0.142   7.393  1.00  0.00     0.031 C 
ATOM     50  C   UNL     1      -9.671   4.335   6.112  1.00  0.00     0.029 A 
ATOM     51  N   UNL     1     -11.710   4.571   6.998  1.00  0.00    -0.354 N 
ATOM     52  C   UNL     1     -14.093   1.127   8.047  1.00  0.00     0.074 A 
ATOM     53  C   UNL     1     -13.383  -0.102   7.770  1.00  0.00     0.031 C 
ATOM     54  C   UNL     1      -9.943   5.649   6.150  1.00  0.00     0.029 A 
ATOM     55  C   UNL     1     -11.277   5.842   6.710  1.00  0.00     0.049 A 
ATOM     56  H   UNL     1     -12.588   4.379   7.400  1.00  0.00     0.167 HD
ATOM     57  C   UNL     1     -15.345   1.186   8.559  1.00  0.00     0.037 A 
ATOM     58  C   UNL     1     -11.888   7.030   6.876  1.00  0.00     0.037 A 
ATOM     59  C   UNL     1     -16.034   2.409   8.871  1.00  0.00     0.049 A 
ATOM     60  C   UNL     1     -13.263   7.071   7.481  1.00  0.00     0.074 A 
ATOM     61  C   UNL     1     -17.269   2.574   9.475  1.00  0.00     0.029 A 
ATOM     62  N   UNL     1     -15.546   3.679   8.604  1.00  0.00    -0.354 N 
ATOM     63  N   UNL     1     -14.023   6.076   7.870  1.00  0.00    -0.248 NA
ATOM     64  C   UNL     1     -13.861   8.399   7.676  1.00  0.00     0.031 C 
ATOM     65  C   UNL     1     -17.543   3.945   9.541  1.00  0.00     0.029 A 
ATOM     66  C   UNL     1     -16.463   4.633   9.013  1.00  0.00     0.049 A 
ATOM     67  H   UNL     1     -14.677   3.874   8.185  1.00  0.00     0.167 HD
ATOM     68  C   UNL     1     -15.179   6.657   8.374  1.00  0.00     0.074 A 
ATOM     69  C   UNL     1     -15.013   8.091   8.256  1.00  0.00     0.031 C 
ATOM     70  C   UNL     1     -16.280   6.056   8.887  1.00  0.00     0.037 A 
BRANCH  57  71
ATOM     71  C   UNL     1     -16.044  -0.115   8.822  1.00  0.00     0.057 A 
ATOM     72  C   UNL     1     -15.653  -0.966   9.864  1.00  0.00     0.134 A 
ATOM     73  C   UNL     1     -17.134  -0.512   8.038  1.00  0.00     0.134 A 
ATOM     74  F   UNL     1     -14.606  -0.650  10.642  1.00  0.00    -0.206 F 
ATOM     75  C   UNL     1     -16.304  -2.177  10.102  1.00  0.00     0.040 A 
ATOM     76  C   UNL     1     -17.810  -1.710   8.282  1.00  0.00     0.040 A 
ATOM     77  F   UNL     1     -17.563   0.257   7.026  1.00  0.00    -0.206 F 
ATOM     78  C   UNL     1     -17.390  -2.549   9.312  1.00  0.00     0.006 A 
ENDBRANCH  57  71
BRANCH  58  79
ATOM     79  C   UNL     1     -11.190   8.281   6.491  1.00  0.00     0.057 A 
ATOM     80  C   UNL     1     -10.695   9.157   7.464  1.00  0.00     0.134 A 
ATOM     81  C   UNL     1     -10.998   8.629   5.149  1.00  0.00     0.134 A 
ATOM     82  F   UNL     1     -10.865   8.884   8.766  1.00  0.00    -0.206 F 
ATOM     83  C   UNL     1     -10.048  10.344   7.117  1.00  0.00     0.040 A 
ATOM     84  C   UNL     1     -10.334   9.802   4.788  1.00  0.00     0.040 A 
ATOM     85  F   UNL     1     -11.441   7.826   4.171  1.00  0.00    -0.206 F 
ATOM     86  C   UNL     1      -9.861  10.666   5.774  1.00  0.00     0.006 A 
ENDBRANCH  58  79
BRANCH  70  87
ATOM     87  C   UNL     1     -17.379   6.950   9.377  1.00  0.00     0.057 A 
ATOM     88  C   UNL     1     -18.219   7.636   8.491  1.00  0.00     0.134 A 
ATOM     89  C   UNL     1     -17.620   7.101  10.748  1.00  0.00     0.134 A 
ATOM     90  F   UNL     1     -18.030   7.544   7.166  1.00  0.00    -0.206 F 
ATOM     91  C   UNL     1     -19.248   8.458   8.953  1.00  0.00     0.040 A 
ATOM     92  C   UNL     1     -18.661   7.900  11.221  1.00  0.00     0.040 A 
ATOM     93  F   UNL     1     -16.855   6.464  11.648  1.00  0.00    -0.206 F 
ATOM     94  C   UNL     1     -19.475   8.586  10.322  1.00  0.00     0.006 A 
ENDBRANCH  70  87
ENDBRANCH  44  45
ENDBRANCH  36  39
ENDBRANCH  34  35
ENDBRANCH  33  34
ENDBRANCH  32  33
ENDBRANCH  31  32
ENDBRANCH   3  31
TORSDOF 14
