REMARK SMILES Cc1ccccc1[C@@H](Cc1ncnn1C(C)C)C(=O)NCCCCNC(=O)c1ccc(-c2c3nc(c(-c4c(F)cccc4F)c4ccc([nH]4)c(-c4c(F)cccc4F)c4nc(c(-c5c(F)cccc5F)c5ccc2[nH]5)C=C4)C=C3)cc1
REMARK SMILES IDX 22 1 21 2 20 3 18 4 19 5 8 7 7 8 1 9 2 10 3 11 4 12 6 13
REMARK SMILES IDX 5 14 9 15 10 16 11 17 14 18 12 19 13 20 15 21 16 22 17 23
REMARK SMILES IDX 23 24 24 25 25 26 26 27 27 29 28 30 29 31 81 32 30 33 80 34
REMARK SMILES IDX 31 35 32 36 33 37 74 38 34 39 79 40 73 41 75 42 35 43 78 44
REMARK SMILES IDX 72 45 71 46 36 48 62 49 45 50 61 51 46 52 49 53 60 54 76 55
REMARK SMILES IDX 47 56 48 57 59 59 77 60 50 61 37 62 38 63 43 64 39 65 40 66
REMARK SMILES IDX 42 67 44 68 41 69 63 70 64 71 69 72 65 73 66 74 68 75 70 76
REMARK SMILES IDX 67 77 51 78 52 79 57 80 53 81 54 82 56 83 58 84 55 85
REMARK H PARENT 20 6 25 28 75 47 49 58
REMARK Flexibility Score: inf
ROOT
ATOM      1  C   UNL     1      -2.677   2.051   1.851  1.00  0.00     0.023 C 
ENDROOT
BRANCH   1   2
ATOM      2  C   UNL     1      -1.843   3.182   1.244  1.00  0.00     0.116 C 
BRANCH   2   3
ATOM      3  N   UNL     1      -0.460   3.235   1.675  1.00  0.00    -0.356 N 
ATOM      4  C   UNL     1       0.703   2.950   1.028  1.00  0.00     0.228 C 
ATOM      5  O   UNL     1       1.735   3.347   1.589  1.00  0.00    -0.274 OA
ATOM      6  H   UNL     1      -0.340   3.532   2.606  1.00  0.00     0.163 HD
BRANCH   4   7
ATOM      7  C   UNL     1       0.820   2.210  -0.318  1.00  0.00     0.116 C 
BRANCH   7   8
ATOM      8  C   UNL     1       0.326   0.758  -0.273  1.00  0.00    -0.032 A 
ATOM      9  C   UNL     1       2.668  -0.203   0.269  1.00  0.00     0.044 C 
ATOM     10  C   UNL     1       1.176  -0.324   0.079  1.00  0.00    -0.047 A 
ATOM     11  C   UNL     1       0.645  -1.628   0.174  1.00  0.00     0.004 A 
ATOM     12  C   UNL     1      -0.706  -1.878  -0.043  1.00  0.00     0.000 A 
ATOM     13  C   UNL     1      -1.020   0.456  -0.537  1.00  0.00     0.005 A 
ATOM     14  C   UNL     1      -1.538  -0.833  -0.405  1.00  0.00     0.000 A 
ENDBRANCH   7   8
BRANCH   7  15
ATOM     15  C   UNL     1       0.627   3.061  -1.595  1.00  0.00     0.095 C 
BRANCH  15  16
ATOM     16  C   UNL     1      -0.724   3.616  -1.883  1.00  0.00     0.128 A 
ATOM     17  N   UNL     1      -1.722   2.957  -2.441  1.00  0.00    -0.220 NA
ATOM     18  N   UNL     1      -1.136   4.911  -1.664  1.00  0.00    -0.248 N 
ATOM     19  C   UNL     1      -2.749   3.849  -2.446  1.00  0.00     0.246 A 
ATOM     20  N   UNL     1      -2.461   5.038  -1.918  1.00  0.00    -0.159 NA
BRANCH  18  21
ATOM     21  C   UNL     1      -0.354   6.090  -1.316  1.00  0.00     0.103 C 
ATOM     22  C   UNL     1      -0.220   6.997  -2.540  1.00  0.00     0.033 C 
ATOM     23  C   UNL     1      -0.929   6.824  -0.105  1.00  0.00     0.033 C 
ENDBRANCH  18  21
ENDBRANCH  15  16
ENDBRANCH   7  15
ENDBRANCH   4   7
ENDBRANCH   2   3
ENDBRANCH   1   2
BRANCH   1  24
ATOM     24  C   UNL     1      -3.479   2.416   3.097  1.00  0.00     0.023 C 
BRANCH  24  25
ATOM     25  C   UNL     1      -4.525   3.506   2.893  1.00  0.00     0.116 C 
BRANCH  25  26
ATOM     26  N   UNL     1      -5.782   3.111   2.280  1.00  0.00    -0.352 N 
ATOM     27  C   UNL     1      -6.866   3.895   1.886  1.00  0.00     0.251 C 
ATOM     28  H   UNL     1      -5.883   2.145   2.118  1.00  0.00     0.163 HD
ATOM     29  O   UNL     1      -7.879   3.352   1.493  1.00  0.00    -0.269 OA
BRANCH  27  30
ATOM     30  C   UNL     1      -6.746   5.387   1.801  1.00  0.00     0.039 A 
ATOM     31  C   UNL     1      -7.471   6.051   0.799  1.00  0.00     0.014 A 
ATOM     32  C   UNL     1      -5.799   6.098   2.523  1.00  0.00     0.014 A 
ATOM     33  C   UNL     1      -7.046   7.303   0.349  1.00  0.00     0.010 A 
ATOM     34  C   UNL     1      -5.280   7.256   1.990  1.00  0.00     0.010 A 
ATOM     35  C   UNL     1      -5.867   7.830   0.864  1.00  0.00    -0.014 A 
BRANCH  35  36
ATOM     36  C   UNL     1      -5.096   8.894   0.236  1.00  0.00     0.031 A 
ATOM     37  C   UNL     1      -4.956  10.215   0.888  1.00  0.00     0.074 A 
ATOM     38  C   UNL     1      -4.347   8.597  -0.850  1.00  0.00     0.049 A 
ATOM     39  N   UNL     1      -4.619  11.293   0.266  1.00  0.00    -0.248 NA
ATOM     40  C   UNL     1      -5.187  10.429   2.313  1.00  0.00     0.031 C 
ATOM     41  C   UNL     1      -3.266   9.401  -1.414  1.00  0.00     0.029 A 
ATOM     42  N   UNL     1      -4.540   7.569  -1.788  1.00  0.00    -0.354 N 
ATOM     43  C   UNL     1      -4.298  12.239   1.211  1.00  0.00     0.074 A 
ATOM     44  C   UNL     1      -4.728  11.675   2.469  1.00  0.00     0.031 C 
ATOM     45  C   UNL     1      -3.100   9.059  -2.699  1.00  0.00     0.029 A 
ATOM     46  C   UNL     1      -4.157   8.120  -3.031  1.00  0.00     0.049 A 
ATOM     47  H   UNL     1      -4.871   6.658  -1.615  1.00  0.00     0.167 HD
ATOM     48  C   UNL     1      -3.571  13.334   0.845  1.00  0.00     0.037 A 
ATOM     49  C   UNL     1      -5.042   8.281  -4.056  1.00  0.00     0.037 A 
ATOM     50  C   UNL     1      -3.259  13.308  -0.582  1.00  0.00     0.049 A 
ATOM     51  C   UNL     1      -5.146   9.713  -4.520  1.00  0.00     0.074 A 
ATOM     52  C   UNL     1      -2.128  12.917  -1.281  1.00  0.00     0.029 A 
ATOM     53  N   UNL     1      -4.283  13.411  -1.518  1.00  0.00    -0.354 N 
ATOM     54  N   UNL     1      -4.830  10.734  -3.772  1.00  0.00    -0.248 NA
ATOM     55  C   UNL     1      -5.590  10.114  -5.850  1.00  0.00     0.031 C 
ATOM     56  C   UNL     1      -2.483  12.752  -2.640  1.00  0.00     0.029 A 
ATOM     57  C   UNL     1      -3.827  13.056  -2.772  1.00  0.00     0.049 A 
ATOM     58  H   UNL     1      -5.203  13.697  -1.314  1.00  0.00     0.167 HD
ATOM     59  C   UNL     1      -4.993  11.893  -4.482  1.00  0.00     0.074 A 
ATOM     60  C   UNL     1      -5.478  11.454  -5.776  1.00  0.00     0.031 C 
ATOM     61  C   UNL     1      -4.699  13.109  -3.936  1.00  0.00     0.037 A 
BRANCH  48  62
ATOM     62  C   UNL     1      -2.896  14.257   1.834  1.00  0.00     0.057 A 
ATOM     63  C   UNL     1      -1.662  14.871   1.539  1.00  0.00     0.134 A 
ATOM     64  C   UNL     1      -3.400  14.556   3.111  1.00  0.00     0.134 A 
ATOM     65  F   UNL     1      -1.094  14.776   0.330  1.00  0.00    -0.206 F 
ATOM     66  C   UNL     1      -0.937  15.619   2.475  1.00  0.00     0.040 A 
ATOM     67  C   UNL     1      -2.663  15.261   4.075  1.00  0.00     0.040 A 
ATOM     68  F   UNL     1      -4.647  14.218   3.464  1.00  0.00    -0.206 F 
ATOM     69  C   UNL     1      -1.418  15.785   3.763  1.00  0.00     0.006 A 
ENDBRANCH  48  62
BRANCH  49  70
ATOM     70  C   UNL     1      -6.142   7.284  -4.041  1.00  0.00     0.057 A 
ATOM     71  C   UNL     1      -5.823   5.933  -4.266  1.00  0.00     0.134 A 
ATOM     72  C   UNL     1      -7.367   7.553  -3.424  1.00  0.00     0.134 A 
ATOM     73  F   UNL     1      -4.664   5.603  -4.859  1.00  0.00    -0.206 F 
ATOM     74  C   UNL     1      -6.626   4.893  -3.789  1.00  0.00     0.040 A 
ATOM     75  C   UNL     1      -8.185   6.519  -2.953  1.00  0.00     0.040 A 
ATOM     76  F   UNL     1      -7.733   8.815  -3.156  1.00  0.00    -0.206 F 
ATOM     77  C   UNL     1      -7.795   5.188  -3.095  1.00  0.00     0.006 A 
ENDBRANCH  49  70
BRANCH  61  78
ATOM     78  C   UNL     1      -5.093  14.461  -4.479  1.00  0.00     0.057 A 
ATOM     79  C   UNL     1      -6.196  14.683  -5.315  1.00  0.00     0.134 A 
ATOM     80  C   UNL     1      -4.447  15.635  -4.021  1.00  0.00     0.134 A 
ATOM     81  F   UNL     1      -6.966  13.677  -5.746  1.00  0.00    -0.206 F 
ATOM     82  C   UNL     1      -6.601  15.969  -5.700  1.00  0.00     0.040 A 
ATOM     83  C   UNL     1      -4.876  16.922  -4.354  1.00  0.00     0.040 A 
ATOM     84  F   UNL     1      -3.387  15.588  -3.200  1.00  0.00    -0.206 F 
ATOM     85  C   UNL     1      -5.952  17.094  -5.208  1.00  0.00     0.006 A 
ENDBRANCH  61  78
ENDBRANCH  35  36
ENDBRANCH  27  30
ENDBRANCH  25  26
ENDBRANCH  24  25
ENDBRANCH   1  24
TORSDOF 15
