REMARK SMILES CC[C@H](C)CN(CC)c1nc(C(=O)NCCCCNC(=O)c2ccc(-c3c4nc(c(-c5c(F)cccc5F)c5ccc([nH]5)c(-c5c(F)cccc5F)c5nc(c(-c6c(F)cccc6F)c6ccc3[nH]6)C=C5)C=C4)cc2)cc2ccccc12
REMARK SMILES IDX 15 1 14 2 12 3 13 4 11 6 9 7 10 8 82 9 77 10 81 11 76 12
REMARK SMILES IDX 78 13 80 14 79 15 6 16 5 17 3 18 4 19 2 20 1 21 7 22 8 23
REMARK SMILES IDX 16 24 17 25 18 26 19 27 20 28 21 30 22 31 23 32 75 33 24 34
REMARK SMILES IDX 74 35 25 36 26 37 27 38 68 39 28 40 73 41 67 42 69 43 29 44
REMARK SMILES IDX 72 45 66 46 65 47 30 49 56 50 39 51 55 52 40 53 43 54 54 55
REMARK SMILES IDX 70 56 41 57 42 58 53 60 71 61 44 62 31 63 32 64 37 65 33 66
REMARK SMILES IDX 34 67 36 68 38 69 35 70 57 71 58 72 63 73 59 74 60 75 62 76
REMARK SMILES IDX 64 77 61 78 45 79 46 80 51 81 47 82 48 83 50 84 52 85 49 86
REMARK H PARENT 14 5 19 29 69 48 43 59
REMARK Flexibility Score: inf
ROOT
ATOM      1  C   UNL     1      -0.948  -4.867   5.448  1.00  0.00     0.116 C 
ENDROOT
BRANCH   1   2
ATOM      2  N   UNL     1      -1.252  -5.755   4.348  1.00  0.00    -0.351 N 
ATOM      3  C   UNL     1      -0.930  -5.651   3.013  1.00  0.00     0.269 C 
ATOM      4  O   UNL     1      -1.322  -6.560   2.275  1.00  0.00    -0.268 OA
ATOM      5  H   UNL     1      -1.768  -6.557   4.592  1.00  0.00     0.163 HD
BRANCH   3   6
ATOM      6  C   UNL     1      -0.140  -4.511   2.425  1.00  0.00     0.131 A 
ATOM      7  C   UNL     1       1.152  -2.590   2.691  1.00  0.00     0.137 A 
ATOM      8  N   UNL     1       0.430  -3.592   3.243  1.00  0.00    -0.225 NA
ATOM      9  C   UNL     1       1.423  -2.547   1.300  1.00  0.00     0.024 A 
ATOM     10  C   UNL     1       0.730  -3.444   0.465  1.00  0.00    -0.012 A 
ATOM     11  C   UNL     1       2.291  -1.611   0.695  1.00  0.00     0.012 A 
ATOM     12  C   UNL     1      -0.049  -4.445   1.042  1.00  0.00     0.043 A 
ATOM     13  C   UNL     1       0.793  -3.288  -0.930  1.00  0.00     0.009 A 
ATOM     14  C   UNL     1       2.352  -1.466  -0.690  1.00  0.00     0.001 A 
ATOM     15  C   UNL     1       1.575  -2.284  -1.501  1.00  0.00     0.001 A 
BRANCH   7  16
ATOM     16  N   UNL     1       1.463  -1.476   3.489  1.00  0.00    -0.356 N 
BRANCH  16  17
ATOM     17  C   UNL     1       0.421  -0.421   3.584  1.00  0.00     0.121 C 
BRANCH  17  18
ATOM     18  C   UNL     1       0.155   0.360   2.267  1.00  0.00     0.005 C 
ATOM     19  C   UNL     1      -0.972  -0.280   1.445  1.00  0.00     0.009 C 
BRANCH  18  20
ATOM     20  C   UNL     1      -0.142   1.854   2.540  1.00  0.00     0.002 C 
ATOM     21  C   UNL     1      -0.684   2.614   1.331  1.00  0.00     0.004 C 
ENDBRANCH  18  20
ENDBRANCH  17  18
ENDBRANCH  16  17
BRANCH  16  22
ATOM     22  C   UNL     1       2.277  -1.722   4.685  1.00  0.00     0.114 C 
ATOM     23  C   UNL     1       1.550  -2.421   5.824  1.00  0.00     0.027 C 
ENDBRANCH  16  22
ENDBRANCH   7  16
ENDBRANCH   3   6
ENDBRANCH   1   2
BRANCH   1  24
ATOM     24  C   UNL     1      -2.124  -4.653   6.391  1.00  0.00     0.023 C 
BRANCH  24  25
ATOM     25  C   UNL     1      -2.575  -5.879   7.175  1.00  0.00     0.023 C 
BRANCH  25  26
ATOM     26  C   UNL     1      -1.484  -6.577   7.974  1.00  0.00     0.116 C 
BRANCH  26  27
ATOM     27  N   UNL     1      -0.831  -5.707   8.942  1.00  0.00    -0.352 N 
ATOM     28  C   UNL     1      -0.632  -5.894  10.292  1.00  0.00     0.251 C 
ATOM     29  H   UNL     1      -0.481  -4.862   8.579  1.00  0.00     0.163 HD
ATOM     30  O   UNL     1      -0.171  -4.997  10.980  1.00  0.00    -0.269 OA
BRANCH  28  31
ATOM     31  C   UNL     1      -1.012  -7.184  10.911  1.00  0.00     0.039 A 
ATOM     32  C   UNL     1      -1.723  -7.176  12.113  1.00  0.00     0.014 A 
ATOM     33  C   UNL     1      -0.684  -8.394  10.296  1.00  0.00     0.014 A 
ATOM     34  C   UNL     1      -2.159  -8.382  12.664  1.00  0.00     0.010 A 
ATOM     35  C   UNL     1      -1.203  -9.583  10.792  1.00  0.00     0.010 A 
ATOM     36  C   UNL     1      -1.931  -9.594  11.991  1.00  0.00    -0.014 A 
BRANCH  36  37
ATOM     37  C   UNL     1      -2.406 -10.888  12.544  1.00  0.00     0.031 A 
ATOM     38  C   UNL     1      -1.409 -11.954  12.913  1.00  0.00     0.074 A 
ATOM     39  C   UNL     1      -3.727 -11.129  12.661  1.00  0.00     0.049 A 
ATOM     40  N   UNL     1      -1.619 -13.169  13.351  1.00  0.00    -0.248 NA
ATOM     41  C   UNL     1       0.013 -11.620  12.733  1.00  0.00     0.031 C 
ATOM     42  C   UNL     1      -4.796 -10.200  12.290  1.00  0.00     0.029 A 
ATOM     43  N   UNL     1      -4.394 -12.236  13.122  1.00  0.00    -0.354 N 
ATOM     44  C   UNL     1      -0.361 -13.745  13.480  1.00  0.00     0.074 A 
ATOM     45  C   UNL     1       0.601 -12.774  13.010  1.00  0.00     0.031 C 
ATOM     46  C   UNL     1      -5.983 -10.765  12.565  1.00  0.00     0.029 A 
ATOM     47  C   UNL     1      -5.762 -12.106  13.097  1.00  0.00     0.049 A 
ATOM     48  H   UNL     1      -3.936 -13.047  13.441  1.00  0.00     0.167 HD
ATOM     49  C   UNL     1      -0.031 -14.962  13.974  1.00  0.00     0.037 A 
ATOM     50  C   UNL     1      -6.726 -12.972  13.461  1.00  0.00     0.037 A 
ATOM     51  C   UNL     1      -0.987 -15.918  14.467  1.00  0.00     0.049 A 
ATOM     52  C   UNL     1      -6.335 -14.316  14.012  1.00  0.00     0.074 A 
ATOM     53  C   UNL     1      -0.754 -17.158  15.035  1.00  0.00     0.029 A 
ATOM     54  N   UNL     1      -2.362 -15.737  14.450  1.00  0.00    -0.354 N 
ATOM     55  N   UNL     1      -5.138 -14.823  14.191  1.00  0.00    -0.248 NA
ATOM     56  C   UNL     1      -7.430 -15.204  14.427  1.00  0.00     0.031 C 
ATOM     57  C   UNL     1      -1.990 -17.746  15.322  1.00  0.00     0.029 A 
ATOM     58  C   UNL     1      -2.991 -16.849  14.986  1.00  0.00     0.049 A 
ATOM     59  H   UNL     1      -2.823 -14.937  14.109  1.00  0.00     0.167 HD
ATOM     60  C   UNL     1      -5.335 -16.069  14.772  1.00  0.00     0.074 A 
ATOM     61  C   UNL     1      -6.766 -16.235  14.928  1.00  0.00     0.031 C 
ATOM     62  C   UNL     1      -4.416 -16.993  15.146  1.00  0.00     0.037 A 
BRANCH  49  63
ATOM     63  C   UNL     1       1.427 -15.321  14.008  1.00  0.00     0.057 A 
ATOM     64  C   UNL     1       2.329 -14.675  14.867  1.00  0.00     0.134 A 
ATOM     65  C   UNL     1       1.935 -16.335  13.187  1.00  0.00     0.134 A 
ATOM     66  F   UNL     1       1.912 -13.684  15.670  1.00  0.00    -0.206 F 
ATOM     67  C   UNL     1       3.686 -15.002  14.883  1.00  0.00     0.040 A 
ATOM     68  C   UNL     1       3.285 -16.692  13.217  1.00  0.00     0.040 A 
ATOM     69  F   UNL     1       1.129 -16.998  12.345  1.00  0.00    -0.206 F 
ATOM     70  C   UNL     1       4.166 -16.019  14.060  1.00  0.00     0.006 A 
ENDBRANCH  49  63
BRANCH  50  71
ATOM     71  C   UNL     1      -8.157 -12.588  13.351  1.00  0.00     0.057 A 
ATOM     72  C   UNL     1      -8.938 -12.375  14.493  1.00  0.00     0.134 A 
ATOM     73  C   UNL     1      -8.784 -12.445  12.107  1.00  0.00     0.134 A 
ATOM     74  F   UNL     1      -8.399 -12.514  15.714  1.00  0.00    -0.206 F 
ATOM     75  C   UNL     1     -10.295 -12.061  14.406  1.00  0.00     0.040 A 
ATOM     76  C   UNL     1     -10.134 -12.104  12.004  1.00  0.00     0.040 A 
ATOM     77  F   UNL     1      -8.091 -12.626  10.974  1.00  0.00    -0.206 F 
ATOM     78  C   UNL     1     -10.896 -11.921  13.156  1.00  0.00     0.006 A 
ENDBRANCH  50  71
BRANCH  62  79
ATOM     79  C   UNL     1      -4.926 -18.239  15.812  1.00  0.00     0.057 A 
ATOM     80  C   UNL     1      -5.644 -19.218  15.114  1.00  0.00     0.134 A 
ATOM     81  C   UNL     1      -4.677 -18.467  17.172  1.00  0.00     0.134 A 
ATOM     82  F   UNL     1      -5.926 -19.057  13.812  1.00  0.00    -0.206 F 
ATOM     83  C   UNL     1      -6.125 -20.363  15.752  1.00  0.00     0.040 A 
ATOM     84  C   UNL     1      -5.125 -19.623  17.813  1.00  0.00     0.040 A 
ATOM     85  F   UNL     1      -3.985 -17.576  17.898  1.00  0.00    -0.206 F 
ATOM     86  C   UNL     1      -5.861 -20.570  17.105  1.00  0.00     0.006 A 
ENDBRANCH  62  79
ENDBRANCH  36  37
ENDBRANCH  28  31
ENDBRANCH  26  27
ENDBRANCH  25  26
ENDBRANCH  24  25
ENDBRANCH   1  24
TORSDOF 16
