REMARK SMILES O=C(CCC(=O)/[NH+]=C1\S[C@H]2CS(=O)(=O)C[C@@H]2N1c1ccc(Oc2ccccc2)cc1)NCCCCNC(=O)c1ccc(-c2c3nc(c(-c4c(F)cccc4F)c4ccc([nH]4)c(-c4c(F)cccc4F)c4nc(c(-c5c(F)cccc5F)c5ccc2[nH]5)C=C4)C=C3)cc1
REMARK SMILES IDX 32 1 31 2 2 3 1 4 3 6 4 7 5 8 6 9 7 10 8 11 9 13 17 14 10 15
REMARK SMILES IDX 16 16 11 17 15 18 12 19 13 20 14 21 18 22 19 23 30 24 20 25
REMARK SMILES IDX 29 26 21 27 22 28 23 29 24 30 28 31 25 32 27 33 26 34 33 35
REMARK SMILES IDX 34 36 35 37 36 38 37 39 38 41 39 42 40 43 92 44 41 45 91 46
REMARK SMILES IDX 42 47 43 48 44 49 85 50 45 51 90 52 84 53 86 54 46 55 89 56
REMARK SMILES IDX 83 57 82 58 47 60 73 61 56 62 72 63 57 64 60 65 71 66 87 67
REMARK SMILES IDX 58 68 59 69 70 71 88 72 61 73 48 74 49 75 54 76 50 77 51 78
REMARK SMILES IDX 53 79 55 80 52 81 74 82 75 83 80 84 76 85 77 86 79 87 81 88
REMARK SMILES IDX 78 89 62 90 63 91 68 92 64 93 65 94 67 95 69 96 66 97
REMARK H PARENT 31 5 7 12 36 40 86 59 60 70
REMARK Flexibility Score: inf
ROOT
ATOM      1  C   UNL     1       1.977   0.027   2.511  1.00  0.00     0.116 C 
ENDROOT
BRANCH   1   2
ATOM      2  N   UNL     1       3.413   0.174   2.354  1.00  0.00    -0.356 N 
ATOM      3  C   UNL     1       4.134   0.944   1.499  1.00  0.00     0.220 C 
ATOM      4  O   UNL     1       5.362   0.960   1.611  1.00  0.00    -0.275 OA
ATOM      5  H   UNL     1       3.952  -0.375   2.969  1.00  0.00     0.163 HD
BRANCH   3   6
ATOM      6  C   UNL     1       3.444   1.762   0.441  1.00  0.00     0.112 C 
BRANCH   6   7
ATOM      7  C   UNL     1       3.163   1.112  -0.907  1.00  0.00     0.138 C 
BRANCH   7   8
ATOM      8  C   UNL     1       3.087  -0.399  -1.118  1.00  0.00     0.308 C 
ATOM      9  O   UNL     1       2.309  -0.833  -1.967  1.00  0.00    -0.247 OA
ATOM     10  N   UNL     1       3.833  -1.253  -0.358  1.00  0.00    -0.204 N 
ATOM     11  C   UNL     1       5.120  -1.314  -0.428  1.00  0.00     0.319 C 
ATOM     12  H   UNL     1       3.368  -1.849   0.272  1.00  0.00     0.316 HD
ATOM     13  S   UNL     1       6.127  -0.243  -1.445  1.00  0.00    -0.029 SA
ATOM     14  N   UNL     1       5.946  -2.141   0.342  1.00  0.00    -0.217 N 
ATOM     15  C   UNL     1       7.635  -1.002  -0.815  1.00  0.00     0.120 C 
ATOM     16  C   UNL     1       7.247  -1.527   0.575  1.00  0.00     0.212 C 
ATOM     17  C   UNL     1       8.870  -0.175  -0.580  1.00  0.00     0.156 C 
ATOM     18  C   UNL     1       8.449  -2.337   1.005  1.00  0.00     0.188 C 
ATOM     19  S   UNL     1       9.815  -1.284   0.478  1.00  0.00     0.155 S 
ATOM     20  O   UNL     1      10.693  -2.076  -0.364  1.00  0.00    -0.229 OA
ATOM     21  O   UNL     1      10.298  -0.539   1.615  1.00  0.00    -0.229 OA
BRANCH  14  22
ATOM     22  C   UNL     1       5.531  -3.333   0.937  1.00  0.00     0.128 A 
ATOM     23  C   UNL     1       5.851  -3.678   2.257  1.00  0.00     0.056 A 
ATOM     24  C   UNL     1       4.717  -4.227   0.215  1.00  0.00     0.056 A 
ATOM     25  C   UNL     1       5.349  -4.851   2.834  1.00  0.00     0.051 A 
ATOM     26  C   UNL     1       4.205  -5.394   0.788  1.00  0.00     0.051 A 
ATOM     27  C   UNL     1       4.509  -5.697   2.107  1.00  0.00     0.127 A 
BRANCH  27  28
ATOM     28  O   UNL     1       3.903  -6.696   2.821  1.00  0.00    -0.457 OA
BRANCH  28  29
ATOM     29  C   UNL     1       3.475  -7.850   2.202  1.00  0.00     0.127 A 
ATOM     30  C   UNL     1       2.244  -8.348   2.640  1.00  0.00     0.047 A 
ATOM     31  C   UNL     1       4.317  -8.648   1.427  1.00  0.00     0.047 A 
ATOM     32  C   UNL     1       1.875  -9.661   2.355  1.00  0.00     0.004 A 
ATOM     33  C   UNL     1       3.927  -9.953   1.109  1.00  0.00     0.004 A 
ATOM     34  C   UNL     1       2.721 -10.466   1.594  1.00  0.00     0.000 A 
ENDBRANCH  28  29
ENDBRANCH  27  28
ENDBRANCH  14  22
ENDBRANCH   7   8
ENDBRANCH   6   7
ENDBRANCH   3   6
ENDBRANCH   1   2
BRANCH   1  35
ATOM     35  C   UNL     1       1.413  -1.284   1.960  1.00  0.00     0.023 C 
BRANCH  35  36
ATOM     36  C   UNL     1       2.198  -2.543   2.325  1.00  0.00     0.023 C 
BRANCH  36  37
ATOM     37  C   UNL     1       2.320  -2.852   3.810  1.00  0.00     0.116 C 
BRANCH  37  38
ATOM     38  N   UNL     1       1.050  -3.216   4.403  1.00  0.00    -0.352 N 
ATOM     39  C   UNL     1       0.700  -4.302   5.166  1.00  0.00     0.251 C 
ATOM     40  H   UNL     1       0.319  -2.581   4.231  1.00  0.00     0.163 HD
ATOM     41  O   UNL     1      -0.495  -4.494   5.391  1.00  0.00    -0.269 OA
BRANCH  39  42
ATOM     42  C   UNL     1       1.702  -5.256   5.712  1.00  0.00     0.039 A 
ATOM     43  C   UNL     1       1.305  -6.589   5.884  1.00  0.00     0.014 A 
ATOM     44  C   UNL     1       2.984  -4.875   6.121  1.00  0.00     0.014 A 
ATOM     45  C   UNL     1       2.193  -7.537   6.404  1.00  0.00     0.010 A 
ATOM     46  C   UNL     1       3.892  -5.832   6.587  1.00  0.00     0.010 A 
ATOM     47  C   UNL     1       3.503  -7.171   6.740  1.00  0.00    -0.014 A 
BRANCH  47  48
ATOM     48  C   UNL     1       4.457  -8.183   7.269  1.00  0.00     0.031 A 
ATOM     49  C   UNL     1       4.853  -8.168   8.705  1.00  0.00     0.074 A 
ATOM     50  C   UNL     1       4.983  -9.119   6.458  1.00  0.00     0.049 A 
ATOM     51  N   UNL     1       5.602  -9.022   9.351  1.00  0.00    -0.248 NA
ATOM     52  C   UNL     1       4.352  -7.053   9.519  1.00  0.00     0.031 C 
ATOM     53  C   UNL     1       4.678  -9.211   5.046  1.00  0.00     0.029 A 
ATOM     54  N   UNL     1       5.859 -10.153   6.666  1.00  0.00    -0.354 N 
ATOM     55  C   UNL     1       5.643  -8.564  10.655  1.00  0.00     0.074 A 
ATOM     56  C   UNL     1       4.908  -7.317  10.691  1.00  0.00     0.031 C 
ATOM     57  C   UNL     1       5.334 -10.240   4.499  1.00  0.00     0.029 A 
ATOM     58  C   UNL     1       6.124 -10.885   5.530  1.00  0.00     0.049 A 
ATOM     59  H   UNL     1       6.260 -10.354   7.543  1.00  0.00     0.167 HD
ATOM     60  C   UNL     1       6.220  -9.154  11.727  1.00  0.00     0.037 A 
ATOM     61  C   UNL     1       6.897 -11.967   5.327  1.00  0.00     0.037 A 
ATOM     62  C   UNL     1       6.976 -10.379  11.664  1.00  0.00     0.049 A 
ATOM     63  C   UNL     1       7.575 -12.568   6.517  1.00  0.00     0.074 A 
ATOM     64  C   UNL     1       7.576 -11.075  12.698  1.00  0.00     0.029 A 
ATOM     65  N   UNL     1       7.259 -11.078  10.496  1.00  0.00    -0.354 N 
ATOM     66  N   UNL     1       7.527 -12.178   7.767  1.00  0.00    -0.248 NA
ATOM     67  C   UNL     1       8.387 -13.767   6.283  1.00  0.00     0.031 C 
ATOM     68  C   UNL     1       8.272 -12.159  12.149  1.00  0.00     0.029 A 
ATOM     69  C   UNL     1       8.060 -12.175  10.779  1.00  0.00     0.049 A 
ATOM     70  H   UNL     1       6.938 -10.831   9.599  1.00  0.00     0.167 HD
ATOM     71  C   UNL     1       8.280 -13.096   8.479  1.00  0.00     0.074 A 
ATOM     72  C   UNL     1       8.754 -14.076   7.519  1.00  0.00     0.031 C 
ATOM     73  C   UNL     1       8.549 -13.124   9.807  1.00  0.00     0.037 A 
BRANCH  60  74
ATOM     74  C   UNL     1       6.062  -8.443  13.036  1.00  0.00     0.057 A 
ATOM     75  C   UNL     1       4.817  -8.335  13.674  1.00  0.00     0.134 A 
ATOM     76  C   UNL     1       7.154  -7.811  13.639  1.00  0.00     0.134 A 
ATOM     77  F   UNL     1       3.725  -8.897  13.134  1.00  0.00    -0.206 F 
ATOM     78  C   UNL     1       4.657  -7.585  14.839  1.00  0.00     0.040 A 
ATOM     79  C   UNL     1       7.012  -7.083  14.821  1.00  0.00     0.040 A 
ATOM     80  F   UNL     1       8.372  -7.870  13.079  1.00  0.00    -0.206 F 
ATOM     81  C   UNL     1       5.759  -6.957  15.417  1.00  0.00     0.006 A 
ENDBRANCH  60  74
BRANCH  61  82
ATOM     82  C   UNL     1       7.008 -12.574   3.974  1.00  0.00     0.057 A 
ATOM     83  C   UNL     1       6.434 -13.819   3.689  1.00  0.00     0.134 A 
ATOM     84  C   UNL     1       7.670 -11.921   2.926  1.00  0.00     0.134 A 
ATOM     85  F   UNL     1       5.794 -14.502   4.649  1.00  0.00    -0.206 F 
ATOM     86  C   UNL     1       6.531 -14.400   2.422  1.00  0.00     0.040 A 
ATOM     87  C   UNL     1       7.754 -12.479   1.648  1.00  0.00     0.040 A 
ATOM     88  F   UNL     1       8.231 -10.718   3.124  1.00  0.00    -0.206 F 
ATOM     89  C   UNL     1       7.189 -13.727   1.395  1.00  0.00     0.006 A 
ENDBRANCH  61  82
BRANCH  73  90
ATOM     90  C   UNL     1       9.397 -14.264  10.285  1.00  0.00     0.057 A 
ATOM     91  C   UNL     1      10.756 -14.361   9.958  1.00  0.00     0.134 A 
ATOM     92  C   UNL     1       8.844 -15.284  11.069  1.00  0.00     0.134 A 
ATOM     93  F   UNL     1      11.340 -13.428   9.191  1.00  0.00    -0.206 F 
ATOM     94  C   UNL     1      11.527 -15.451  10.364  1.00  0.00     0.040 A 
ATOM     95  C   UNL     1       9.613 -16.361  11.509  1.00  0.00     0.040 A 
ATOM     96  F   UNL     1       7.549 -15.250  11.418  1.00  0.00    -0.206 F 
ATOM     97  C   UNL     1      10.955 -16.452  11.147  1.00  0.00     0.006 A 
ENDBRANCH  73  90
ENDBRANCH  47  48
ENDBRANCH  39  42
ENDBRANCH  37  38
ENDBRANCH  36  37
ENDBRANCH  35  36
ENDBRANCH   1  35
TORSDOF 16
