REMARK SMILES CC(C)(CC(=O)NCCCCNC(=O)c1ccc(-c2c3nc(c(-c4c(F)cccc4F)c4ccc([nH]4)c(-c4c(F)cccc4F)c4nc(c(-c5c(F)cccc5F)c5ccc2[nH]5)C=C4)C=C3)cc1)NC(=O)c1nc(C(C)(C)C)n[nH]1
REMARK SMILES IDX 8 1 7 2 5 3 6 4 4 6 2 7 1 8 3 9 69 10 70 11 71 13 72 14
REMARK SMILES IDX 73 15 80 16 74 17 79 18 75 20 76 21 77 22 78 23 9 24 10 25
REMARK SMILES IDX 11 26 12 27 13 28 14 30 15 31 16 32 68 33 17 34 67 35 18 36
REMARK SMILES IDX 19 37 20 38 61 39 21 40 66 41 60 42 62 43 22 44 65 45 59 46
REMARK SMILES IDX 58 47 23 49 49 50 32 51 48 52 33 53 36 54 47 55 63 56 34 57
REMARK SMILES IDX 35 58 46 60 64 61 37 62 24 63 25 64 30 65 26 66 27 67 29 68
REMARK SMILES IDX 31 69 28 70 50 71 51 72 56 73 52 74 53 75 55 76 57 77 54 78
REMARK SMILES IDX 38 79 39 80 44 81 40 82 41 83 43 84 45 85 42 86
REMARK H PARENT 7 5 69 12 80 19 12 29 62 48 36 59
REMARK Flexibility Score: inf
ROOT
ATOM      1  C   UNL     1      -1.476   0.502   1.414  1.00  0.00     0.116 C 
ENDROOT
BRANCH   1   2
ATOM      2  N   UNL     1      -1.853   1.137   0.170  1.00  0.00    -0.356 N 
ATOM      3  C   UNL     1      -1.388   0.871  -1.082  1.00  0.00     0.222 C 
ATOM      4  O   UNL     1      -1.601   1.689  -1.977  1.00  0.00    -0.275 OA
ATOM      5  H   UNL     1      -2.530   1.849   0.236  1.00  0.00     0.163 HD
BRANCH   3   6
ATOM      6  C   UNL     1      -0.726  -0.458  -1.381  1.00  0.00     0.127 C 
BRANCH   6   7
ATOM      7  C   UNL     1       0.825  -0.551  -1.469  1.00  0.00     0.044 C 
ATOM      8  C   UNL     1       1.477  -0.982  -0.148  1.00  0.00     0.035 C 
ATOM      9  C   UNL     1       1.097  -1.759  -2.416  1.00  0.00     0.035 C 
BRANCH   7  10
ATOM     10  N   UNL     1       1.433   0.630  -2.133  1.00  0.00    -0.344 N 
ATOM     11  C   UNL     1       1.936   1.865  -1.773  1.00  0.00     0.289 C 
ATOM     12  H   UNL     1       1.496   0.494  -3.107  1.00  0.00     0.164 HD
ATOM     13  O   UNL     1       1.996   2.689  -2.690  1.00  0.00    -0.266 OA
BRANCH  11  14
ATOM     14  C   UNL     1       2.471   2.146  -0.460  1.00  0.00     0.214 A 
ATOM     15  N   UNL     1       2.252   3.240   0.260  1.00  0.00    -0.207 NA
ATOM     16  N   UNL     1       3.478   1.452   0.139  1.00  0.00    -0.255 N 
ATOM     17  C   UNL     1       3.118   3.129   1.327  1.00  0.00     0.156 A 
ATOM     18  N   UNL     1       3.865   2.014   1.293  1.00  0.00    -0.158 NA
ATOM     19  H   UNL     1       3.876   0.631  -0.233  1.00  0.00     0.192 HD
BRANCH  17  20
ATOM     20  C   UNL     1       3.297   4.190   2.408  1.00  0.00     0.024 C 
ATOM     21  C   UNL     1       4.475   5.109   2.029  1.00  0.00     0.019 C 
ATOM     22  C   UNL     1       2.060   5.098   2.607  1.00  0.00     0.019 C 
ATOM     23  C   UNL     1       3.609   3.521   3.767  1.00  0.00     0.019 C 
ENDBRANCH  17  20
ENDBRANCH  11  14
ENDBRANCH   7  10
ENDBRANCH   6   7
ENDBRANCH   3   6
ENDBRANCH   1   2
BRANCH   1  24
ATOM     24  C   UNL     1      -0.188   1.129   1.912  1.00  0.00     0.023 C 
BRANCH  24  25
ATOM     25  C   UNL     1      -0.353   2.512   2.496  1.00  0.00     0.023 C 
BRANCH  25  26
ATOM     26  C   UNL     1      -0.898   2.542   3.905  1.00  0.00     0.116 C 
BRANCH  26  27
ATOM     27  N   UNL     1       0.016   1.950   4.872  1.00  0.00    -0.352 N 
ATOM     28  C   UNL     1       0.587   2.474   6.008  1.00  0.00     0.251 C 
ATOM     29  H   UNL     1       0.267   1.017   4.681  1.00  0.00     0.163 HD
ATOM     30  O   UNL     1       1.449   1.834   6.599  1.00  0.00    -0.269 OA
BRANCH  28  31
ATOM     31  C   UNL     1       0.199   3.816   6.502  1.00  0.00     0.039 A 
ATOM     32  C   UNL     1       1.169   4.618   7.110  1.00  0.00     0.014 A 
ATOM     33  C   UNL     1      -1.105   4.292   6.374  1.00  0.00     0.014 A 
ATOM     34  C   UNL     1       0.841   5.912   7.523  1.00  0.00     0.010 A 
ATOM     35  C   UNL     1      -1.392   5.622   6.650  1.00  0.00     0.010 A 
ATOM     36  C   UNL     1      -0.432   6.441   7.255  1.00  0.00    -0.014 A 
BRANCH  36  37
ATOM     37  C   UNL     1      -0.792   7.833   7.625  1.00  0.00     0.031 A 
ATOM     38  C   UNL     1      -1.952   8.095   8.550  1.00  0.00     0.074 A 
ATOM     39  C   UNL     1      -0.121   8.864   7.075  1.00  0.00     0.049 A 
ATOM     40  N   UNL     1      -2.458   9.237   8.943  1.00  0.00    -0.248 NA
ATOM     41  C   UNL     1      -2.666   6.918   9.074  1.00  0.00     0.031 C 
ATOM     42  C   UNL     1       0.974   8.745   6.109  1.00  0.00     0.029 A 
ATOM     43  N   UNL     1      -0.266  10.217   7.246  1.00  0.00    -0.354 N 
ATOM     44  C   UNL     1      -3.554   8.914   9.733  1.00  0.00     0.074 A 
ATOM     45  C   UNL     1      -3.685   7.475   9.707  1.00  0.00     0.031 C 
ATOM     46  C   UNL     1       1.426   9.971   5.804  1.00  0.00     0.029 A 
ATOM     47  C   UNL     1       0.628  10.963   6.516  1.00  0.00     0.049 A 
ATOM     48  H   UNL     1      -0.946  10.616   7.835  1.00  0.00     0.167 HD
ATOM     49  C   UNL     1      -4.362   9.737  10.443  1.00  0.00     0.037 A 
ATOM     50  C   UNL     1       0.783  12.297   6.428  1.00  0.00     0.037 A 
ATOM     51  C   UNL     1      -4.207  11.167  10.490  1.00  0.00     0.049 A 
ATOM     52  C   UNL     1      -0.113  13.191   7.239  1.00  0.00     0.074 A 
ATOM     53  C   UNL     1      -4.922  12.088  11.236  1.00  0.00     0.029 A 
ATOM     54  N   UNL     1      -3.272  11.884   9.757  1.00  0.00    -0.354 N 
ATOM     55  N   UNL     1      -1.094  12.868   8.047  1.00  0.00    -0.248 NA
ATOM     56  C   UNL     1       0.127  14.636   7.132  1.00  0.00     0.031 C 
ATOM     57  C   UNL     1      -4.457  13.367  10.911  1.00  0.00     0.029 A 
ATOM     58  C   UNL     1      -3.411  13.239  10.011  1.00  0.00     0.049 A 
ATOM     59  H   UNL     1      -2.609  11.489   9.147  1.00  0.00     0.167 HD
ATOM     60  C   UNL     1      -1.572  14.065   8.563  1.00  0.00     0.074 A 
ATOM     61  C   UNL     1      -0.757  15.118   7.993  1.00  0.00     0.031 C 
ATOM     62  C   UNL     1      -2.595  14.275   9.430  1.00  0.00     0.037 A 
BRANCH  49  63
ATOM     63  C   UNL     1      -5.481   9.107  11.224  1.00  0.00     0.057 A 
ATOM     64  C   UNL     1      -5.243   8.286  12.336  1.00  0.00     0.134 A 
ATOM     65  C   UNL     1      -6.817   9.337  10.871  1.00  0.00     0.134 A 
ATOM     66  F   UNL     1      -3.987   8.010  12.722  1.00  0.00    -0.206 F 
ATOM     67  C   UNL     1      -6.288   7.689  13.044  1.00  0.00     0.040 A 
ATOM     68  C   UNL     1      -7.872   8.774  11.592  1.00  0.00     0.040 A 
ATOM     69  F   UNL     1      -7.120  10.117   9.823  1.00  0.00    -0.206 F 
ATOM     70  C   UNL     1      -7.608   7.940  12.676  1.00  0.00     0.006 A 
ENDBRANCH  49  63
BRANCH  50  71
ATOM     71  C   UNL     1       1.849  12.863   5.563  1.00  0.00     0.057 A 
ATOM     72  C   UNL     1       2.970  13.495   6.116  1.00  0.00     0.134 A 
ATOM     73  C   UNL     1       1.780  12.781   4.167  1.00  0.00     0.134 A 
ATOM     74  F   UNL     1       3.087  13.620   7.446  1.00  0.00    -0.206 F 
ATOM     75  C   UNL     1       3.973  14.041   5.313  1.00  0.00     0.040 A 
ATOM     76  C   UNL     1       2.789  13.297   3.353  1.00  0.00     0.040 A 
ATOM     77  F   UNL     1       0.737  12.180   3.575  1.00  0.00    -0.206 F 
ATOM     78  C   UNL     1       3.887  13.936   3.926  1.00  0.00     0.006 A 
ENDBRANCH  50  71
BRANCH  62  79
ATOM     79  C   UNL     1      -2.865  15.697   9.833  1.00  0.00     0.057 A 
ATOM     80  C   UNL     1      -3.396  16.634   8.937  1.00  0.00     0.134 A 
ATOM     81  C   UNL     1      -2.606  16.128  11.140  1.00  0.00     0.134 A 
ATOM     82  F   UNL     1      -3.658  16.289   7.667  1.00  0.00    -0.206 F 
ATOM     83  C   UNL     1      -3.624  17.958   9.316  1.00  0.00     0.040 A 
ATOM     84  C   UNL     1      -2.860  17.440  11.540  1.00  0.00     0.040 A 
ATOM     85  F   UNL     1      -2.109  15.279  12.053  1.00  0.00    -0.206 F 
ATOM     86  C   UNL     1      -3.360  18.362  10.624  1.00  0.00     0.006 A 
ENDBRANCH  62  79
ENDBRANCH  36  37
ENDBRANCH  28  31
ENDBRANCH  26  27
ENDBRANCH  25  26
ENDBRANCH  24  25
ENDBRANCH   1  24
TORSDOF 15
