REMARK SMILES CC[C@](C)(NC(=O)c1ccc2ccccc2c1O)C(=O)NCCCCNC(=O)c1ccc(-c2c3nc(c(-c4c(F)cccc4F)c4ccc([nH]4)c(-c4c(F)cccc4F)c4nc(c(-c5c(F)cccc5F)c5ccc2[nH]5)C=C4)C=C3)cc1
REMARK SMILES IDX 23 1 22 2 21 3 19 4 20 5 3 7 4 8 2 9 1 10 5 11 6 12 7 14
REMARK SMILES IDX 8 15 9 16 17 17 10 18 16 19 11 20 15 21 12 22 14 23 13 24
REMARK SMILES IDX 18 25 24 27 25 28 26 29 27 30 28 32 29 33 30 34 82 35 31 36
REMARK SMILES IDX 81 37 32 38 33 39 34 40 75 41 35 42 80 43 74 44 76 45 36 46
REMARK SMILES IDX 79 47 73 48 72 49 37 51 63 52 46 53 62 54 47 55 50 56 61 57
REMARK SMILES IDX 77 58 48 59 49 60 60 62 78 63 51 64 38 65 39 66 44 67 40 68
REMARK SMILES IDX 41 69 43 70 45 71 42 72 64 73 65 74 70 75 66 76 67 77 69 78
REMARK SMILES IDX 71 79 68 80 52 81 53 82 58 83 54 84 55 85 57 86 59 87 56 88
REMARK H PARENT 21 6 5 13 18 26 26 31 76 50 50 61
REMARK Flexibility Score: inf
ROOT
ATOM      1  C   UNL     1       1.896   5.942   2.166  1.00  0.00     0.023 C 
ENDROOT
BRANCH   1   2
ATOM      2  C   UNL     1       1.405   5.317   0.828  1.00  0.00     0.116 C 
BRANCH   2   3
ATOM      3  N   UNL     1       2.068   4.136   0.221  1.00  0.00    -0.354 N 
ATOM      4  C   UNL     1       1.930   2.744   0.300  1.00  0.00     0.245 C 
ATOM      5  O   UNL     1       2.640   2.032  -0.412  1.00  0.00    -0.272 OA
ATOM      6  H   UNL     1       2.789   4.398  -0.395  1.00  0.00     0.163 HD
BRANCH   4   7
ATOM      7  C   UNL     1       0.847   2.154   1.183  1.00  0.00     0.116 C 
ATOM      8  C   UNL     1       0.777   0.634   1.414  1.00  0.00     0.045 C 
BRANCH   7   9
ATOM      9  C   UNL     1      -0.454   2.519   0.357  1.00  0.00     0.035 C 
ATOM     10  C   UNL     1      -0.366   2.072  -1.127  1.00  0.00     0.007 C 
ENDBRANCH   7   9
BRANCH   7  11
ATOM     11  N   UNL     1       1.057   2.807   2.498  1.00  0.00    -0.338 N 
ATOM     12  C   UNL     1       2.130   2.801   3.404  1.00  0.00     0.255 C 
ATOM     13  H   UNL     1       0.293   3.353   2.794  1.00  0.00     0.164 HD
ATOM     14  O   UNL     1       1.798   3.115   4.556  1.00  0.00    -0.269 OA
BRANCH  12  15
ATOM     15  C   UNL     1       3.629   2.517   3.191  1.00  0.00     0.082 A 
ATOM     16  C   UNL     1       4.314   2.060   4.332  1.00  0.00     0.018 A 
ATOM     17  C   UNL     1       4.498   2.897   2.146  1.00  0.00     0.136 A 
ATOM     18  C   UNL     1       5.729   1.990   4.395  1.00  0.00     0.010 A 
ATOM     19  C   UNL     1       5.903   2.704   2.115  1.00  0.00     0.024 A 
ATOM     20  C   UNL     1       6.540   2.308   3.288  1.00  0.00    -0.015 A 
ATOM     21  C   UNL     1       6.674   3.016   0.966  1.00  0.00     0.012 A 
ATOM     22  C   UNL     1       7.954   2.318   3.307  1.00  0.00     0.009 A 
ATOM     23  C   UNL     1       8.061   3.002   0.989  1.00  0.00     0.001 A 
ATOM     24  C   UNL     1       8.703   2.673   2.173  1.00  0.00     0.001 A 
BRANCH  17  25
ATOM     25  O   UNL     1       4.170   3.790   1.170  1.00  0.00    -0.506 OA
ATOM     26  H   UNL     1       3.276   4.038   1.044  1.00  0.00     0.293 HD
ENDBRANCH  17  25
ENDBRANCH  12  15
ENDBRANCH   7  11
ENDBRANCH   4   7
ENDBRANCH   2   3
ENDBRANCH   1   2
BRANCH   1  27
ATOM     27  C   UNL     1       3.360   6.300   2.477  1.00  0.00     0.023 C 
BRANCH  27  28
ATOM     28  C   UNL     1       4.207   6.886   1.357  1.00  0.00     0.116 C 
BRANCH  28  29
ATOM     29  N   UNL     1       3.861   8.273   1.106  1.00  0.00    -0.352 N 
ATOM     30  C   UNL     1       4.659   9.387   1.100  1.00  0.00     0.251 C 
ATOM     31  H   UNL     1       2.910   8.438   0.911  1.00  0.00     0.163 HD
ATOM     32  O   UNL     1       4.120  10.502   1.084  1.00  0.00    -0.269 OA
BRANCH  30  33
ATOM     33  C   UNL     1       6.139   9.302   1.121  1.00  0.00     0.039 A 
ATOM     34  C   UNL     1       6.850  10.256   1.860  1.00  0.00     0.014 A 
ATOM     35  C   UNL     1       6.843   8.359   0.365  1.00  0.00     0.014 A 
ATOM     36  C   UNL     1       8.249  10.248   1.866  1.00  0.00     0.010 A 
ATOM     37  C   UNL     1       8.241   8.316   0.417  1.00  0.00     0.010 A 
ATOM     38  C   UNL     1       8.961   9.266   1.159  1.00  0.00    -0.014 A 
BRANCH  38  39
ATOM     39  C   UNL     1      10.451   9.236   1.191  1.00  0.00     0.031 A 
ATOM     40  C   UNL     1      11.253   9.494  -0.057  1.00  0.00     0.074 A 
ATOM     41  C   UNL     1      11.089   8.951   2.344  1.00  0.00     0.049 A 
ATOM     42  N   UNL     1      12.554   9.492  -0.222  1.00  0.00    -0.248 NA
ATOM     43  C   UNL     1      10.496   9.777  -1.286  1.00  0.00     0.031 C 
ATOM     44  C   UNL     1      10.435   8.654   3.619  1.00  0.00     0.029 A 
ATOM     45  N   UNL     1      12.430   8.864   2.631  1.00  0.00    -0.354 N 
ATOM     46  C   UNL     1      12.769   9.762  -1.568  1.00  0.00     0.074 A 
ATOM     47  C   UNL     1      11.465   9.875  -2.186  1.00  0.00     0.031 C 
ATOM     48  C   UNL     1      11.374   8.442   4.556  1.00  0.00     0.029 A 
ATOM     49  C   UNL     1      12.694   8.547   3.942  1.00  0.00     0.049 A 
ATOM     50  H   UNL     1      13.135   9.014   1.961  1.00  0.00     0.167 HD
ATOM     51  C   UNL     1      13.943   9.919  -2.227  1.00  0.00     0.037 A 
ATOM     52  C   UNL     1      13.866   8.352   4.579  1.00  0.00     0.037 A 
ATOM     53  C   UNL     1      15.242   9.821  -1.611  1.00  0.00     0.049 A 
ATOM     54  C   UNL     1      15.155   8.502   3.816  1.00  0.00     0.074 A 
ATOM     55  C   UNL     1      16.486  10.018  -2.186  1.00  0.00     0.029 A 
ATOM     56  N   UNL     1      15.465   9.489  -0.283  1.00  0.00    -0.354 N 
ATOM     57  N   UNL     1      15.341   8.825   2.559  1.00  0.00    -0.248 NA
ATOM     58  C   UNL     1      16.398   8.266   4.564  1.00  0.00     0.031 C 
ATOM     59  C   UNL     1      17.463   9.749  -1.222  1.00  0.00     0.029 A 
ATOM     60  C   UNL     1      16.828   9.446  -0.029  1.00  0.00     0.049 A 
ATOM     61  H   UNL     1      14.761   9.311   0.381  1.00  0.00     0.167 HD
ATOM     62  C   UNL     1      16.718   8.862   2.375  1.00  0.00     0.074 A 
ATOM     63  C   UNL     1      17.319   8.544   3.652  1.00  0.00     0.031 C 
ATOM     64  C   UNL     1      17.419   9.136   1.248  1.00  0.00     0.037 A 
BRANCH  51  65
ATOM     65  C   UNL     1      13.883  10.209  -3.701  1.00  0.00     0.057 A 
ATOM     66  C   UNL     1      13.421  11.434  -4.199  1.00  0.00     0.134 A 
ATOM     67  C   UNL     1      14.342   9.269  -4.634  1.00  0.00     0.134 A 
ATOM     68  F   UNL     1      12.961  12.378  -3.363  1.00  0.00    -0.206 F 
ATOM     69  C   UNL     1      13.391  11.704  -5.569  1.00  0.00     0.040 A 
ATOM     70  C   UNL     1      14.346   9.538  -6.004  1.00  0.00     0.040 A 
ATOM     71  F   UNL     1      14.809   8.078  -4.229  1.00  0.00    -0.206 F 
ATOM     72  C   UNL     1      13.863  10.757  -6.475  1.00  0.00     0.006 A 
ENDBRANCH  51  65
BRANCH  52  73
ATOM     73  C   UNL     1      13.883   8.004   6.024  1.00  0.00     0.057 A 
ATOM     74  C   UNL     1      14.387   8.896   6.978  1.00  0.00     0.134 A 
ATOM     75  C   UNL     1      13.420   6.765   6.483  1.00  0.00     0.134 A 
ATOM     76  F   UNL     1      14.866  10.090   6.599  1.00  0.00    -0.206 F 
ATOM     77  C   UNL     1      14.454   8.560   8.331  1.00  0.00     0.040 A 
ATOM     78  C   UNL     1      13.452   6.428   7.837  1.00  0.00     0.040 A 
ATOM     79  F   UNL     1      12.920   5.866   5.622  1.00  0.00    -0.206 F 
ATOM     80  C   UNL     1      13.980   7.324   8.765  1.00  0.00     0.006 A 
ENDBRANCH  52  73
BRANCH  64  81
ATOM     81  C   UNL     1      18.918   9.148   1.352  1.00  0.00     0.057 A 
ATOM     82  C   UNL     1      19.661   7.974   1.532  1.00  0.00     0.134 A 
ATOM     83  C   UNL     1      19.630  10.350   1.234  1.00  0.00     0.134 A 
ATOM     84  F   UNL     1      19.042   6.791   1.665  1.00  0.00    -0.206 F 
ATOM     85  C   UNL     1      21.055   7.998   1.617  1.00  0.00     0.040 A 
ATOM     86  C   UNL     1      21.024  10.383   1.286  1.00  0.00     0.040 A 
ATOM     87  F   UNL     1      18.982  11.511   1.051  1.00  0.00    -0.206 F 
ATOM     88  C   UNL     1      21.740   9.205   1.486  1.00  0.00     0.006 A 
ENDBRANCH  64  81
ENDBRANCH  38  39
ENDBRANCH  30  33
ENDBRANCH  28  29
ENDBRANCH  27  28
ENDBRANCH   1  27
TORSDOF 15
