REMARK SMILES Cc1ccccc1[C@H](C(=O)NC[C@H]1CC[C@@H](C(=O)NCCCCNC(=O)c2ccc(-c3c4nc(c(-c5c(F)cccc5F)c5ccc([nH]5)c(-c5c(F)cccc5F)c5nc(c(-c6c(F)cccc6F)c6ccc3[nH]6)C=C5)C=C4)cc2)CC1)[NH+](C)C
REMARK SMILES IDX 20 1 19 2 17 3 18 4 16 6 13 7 14 8 82 9 15 10 81 11 12 12
REMARK SMILES IDX 11 13 9 14 10 15 8 17 7 18 1 19 2 20 3 21 4 22 6 23 5 24
REMARK SMILES IDX 83 25 84 26 85 27 21 29 22 30 23 31 24 32 25 33 26 35 27 36
REMARK SMILES IDX 28 37 80 38 29 39 79 40 30 41 31 42 32 43 73 44 33 45 78 46
REMARK SMILES IDX 72 47 74 48 34 49 77 50 71 51 70 52 35 54 61 55 44 56 60 57
REMARK SMILES IDX 45 58 48 59 59 60 75 61 46 62 47 63 58 65 76 66 49 67 36 68
REMARK SMILES IDX 37 69 42 70 38 71 39 72 41 73 43 74 40 75 62 76 63 77 68 78
REMARK SMILES IDX 64 79 65 80 67 81 69 82 66 83 50 84 51 85 56 86 52 87 53 88
REMARK SMILES IDX 55 89 57 90 54 91
REMARK H PARENT 19 5 11 16 83 28 24 34 74 53 48 64
REMARK Flexibility Score: inf
ROOT
ATOM      1  C   UNL     1       2.967   0.982  -4.295  1.00  0.00     0.116 C 
ENDROOT
BRANCH   1   2
ATOM      2  N   UNL     1       1.912   0.809  -5.298  1.00  0.00    -0.356 N 
ATOM      3  C   UNL     1       1.307   1.937  -5.822  1.00  0.00     0.223 C 
ATOM      4  O   UNL     1       2.021   2.856  -6.232  1.00  0.00    -0.275 OA
ATOM      5  H   UNL     1       1.640  -0.091  -5.592  1.00  0.00     0.163 HD
BRANCH   3   6
ATOM      6  C   UNL     1      -0.238   1.975  -6.021  1.00  0.00     0.078 C 
ATOM      7  C   UNL     1      -2.321   2.576  -3.770  1.00  0.00     0.008 C 
ATOM      8  C   UNL     1      -1.659   3.717  -4.569  1.00  0.00     0.006 C 
ATOM      9  C   UNL     1      -1.632   1.231  -3.975  1.00  0.00     0.006 C 
ATOM     10  C   UNL     1      -0.810   3.397  -5.814  1.00  0.00     0.014 C 
ATOM     11  C   UNL     1      -1.127   0.912  -5.379  1.00  0.00     0.014 C 
BRANCH   7  12
ATOM     12  C   UNL     1      -2.490   3.012  -2.256  1.00  0.00     0.119 C 
BRANCH  12  13
ATOM     13  N   UNL     1      -2.711   1.952  -1.265  1.00  0.00    -0.350 N 
ATOM     14  C   UNL     1      -2.206   1.655  -0.020  1.00  0.00     0.283 C 
ATOM     15  O   UNL     1      -2.901   0.834   0.607  1.00  0.00    -0.268 OA
ATOM     16  H   UNL     1      -3.382   1.296  -1.563  1.00  0.00     0.163 HD
BRANCH  14  17
ATOM     17  C   UNL     1      -0.833   2.151   0.622  1.00  0.00     0.305 C 
BRANCH  17  18
ATOM     18  C   UNL     1       0.039   3.009  -0.282  1.00  0.00     0.022 A 
ATOM     19  C   UNL     1       0.640   0.889  -1.527  1.00  0.00     0.045 C 
ATOM     20  C   UNL     1       0.593   2.395  -1.417  1.00  0.00    -0.041 A 
ATOM     21  C   UNL     1       1.041   3.226  -2.451  1.00  0.00     0.004 A 
ATOM     22  C   UNL     1       1.180   4.597  -2.308  1.00  0.00     0.000 A 
ATOM     23  C   UNL     1       0.193   4.401  -0.131  1.00  0.00     0.011 A 
ATOM     24  C   UNL     1       0.789   5.179  -1.124  1.00  0.00     0.001 A 
ENDBRANCH  17  18
BRANCH  17  25
ATOM     25  N   UNL     1      -0.977   2.551   2.045  1.00  0.00    -0.326 N 
ATOM     26  C   UNL     1       0.279   2.814   2.735  1.00  0.00     0.333 C 
ATOM     27  C   UNL     1      -2.056   3.465   2.333  1.00  0.00     0.333 C 
ATOM     28  H   UNL     1      -1.308   1.696   2.493  1.00  0.00     0.348 HD
ENDBRANCH  17  25
ENDBRANCH  14  17
ENDBRANCH  12  13
ENDBRANCH   7  12
ENDBRANCH   3   6
ENDBRANCH   1   2
BRANCH   1  29
ATOM     29  C   UNL     1       3.390  -0.284  -3.552  1.00  0.00     0.023 C 
BRANCH  29  30
ATOM     30  C   UNL     1       4.441  -0.070  -2.434  1.00  0.00     0.023 C 
BRANCH  30  31
ATOM     31  C   UNL     1       4.303   1.130  -1.482  1.00  0.00     0.116 C 
BRANCH  31  32
ATOM     32  N   UNL     1       3.897   0.838  -0.113  1.00  0.00    -0.352 N 
ATOM     33  C   UNL     1       3.875   1.634   1.020  1.00  0.00     0.251 C 
ATOM     34  H   UNL     1       3.584  -0.085   0.031  1.00  0.00     0.163 HD
ATOM     35  O   UNL     1       3.597   1.086   2.095  1.00  0.00    -0.269 OA
BRANCH  33  36
ATOM     36  C   UNL     1       4.116   3.112   1.025  1.00  0.00     0.039 A 
ATOM     37  C   UNL     1       3.917   3.848   2.220  1.00  0.00     0.014 A 
ATOM     38  C   UNL     1       4.467   3.820  -0.114  1.00  0.00     0.014 A 
ATOM     39  C   UNL     1       3.995   5.254   2.244  1.00  0.00     0.010 A 
ATOM     40  C   UNL     1       4.511   5.195  -0.107  1.00  0.00     0.010 A 
ATOM     41  C   UNL     1       4.269   5.923   1.059  1.00  0.00    -0.014 A 
BRANCH  41  42
ATOM     42  C   UNL     1       4.374   7.364   0.838  1.00  0.00     0.031 A 
ATOM     43  C   UNL     1       5.699   7.992   0.624  1.00  0.00     0.074 A 
ATOM     44  C   UNL     1       3.302   7.919   0.233  1.00  0.00     0.049 A 
ATOM     45  N   UNL     1       5.880   9.258   0.441  1.00  0.00    -0.248 NA
ATOM     46  C   UNL     1       6.936   7.215   0.583  1.00  0.00     0.031 C 
ATOM     47  C   UNL     1       3.293   8.910  -0.838  1.00  0.00     0.029 A 
ATOM     48  N   UNL     1       1.963   7.758   0.557  1.00  0.00    -0.354 N 
ATOM     49  C   UNL     1       7.157   9.412  -0.047  1.00  0.00     0.074 A 
ATOM     50  C   UNL     1       7.801   8.130   0.137  1.00  0.00     0.031 C 
ATOM     51  C   UNL     1       2.060   9.432  -0.933  1.00  0.00     0.029 A 
ATOM     52  C   UNL     1       1.306   8.947   0.211  1.00  0.00     0.049 A 
ATOM     53  H   UNL     1       1.550   6.958   0.956  1.00  0.00     0.167 HD
ATOM     54  C   UNL     1       7.515  10.546  -0.714  1.00  0.00     0.037 A 
ATOM     55  C   UNL     1       0.620   9.727   1.096  1.00  0.00     0.037 A 
ATOM     56  C   UNL     1       6.395  11.463  -0.881  1.00  0.00     0.049 A 
ATOM     57  C   UNL     1       1.122  11.148   1.145  1.00  0.00     0.074 A 
ATOM     58  C   UNL     1       5.531  11.685  -1.941  1.00  0.00     0.029 A 
ATOM     59  N   UNL     1       5.829  12.088   0.223  1.00  0.00    -0.354 N 
ATOM     60  N   UNL     1       2.252  11.530   0.623  1.00  0.00    -0.248 NA
ATOM     61  C   UNL     1       0.462  12.212   1.896  1.00  0.00     0.031 C 
ATOM     62  C   UNL     1       4.423  12.422  -1.464  1.00  0.00     0.029 A 
ATOM     63  C   UNL     1       4.611  12.652  -0.112  1.00  0.00     0.049 A 
ATOM     64  H   UNL     1       6.237  12.125   1.118  1.00  0.00     0.167 HD
ATOM     65  C   UNL     1       2.554  12.781   1.080  1.00  0.00     0.074 A 
ATOM     66  C   UNL     1       1.374  13.195   1.813  1.00  0.00     0.031 C 
ATOM     67  C   UNL     1       3.790  13.321   0.886  1.00  0.00     0.037 A 
BRANCH  54  68
ATOM     68  C   UNL     1       8.817  10.656  -1.467  1.00  0.00     0.057 A 
ATOM     69  C   UNL     1       8.902  11.296  -2.718  1.00  0.00     0.134 A 
ATOM     70  C   UNL     1      10.030  10.127  -0.992  1.00  0.00     0.134 A 
ATOM     71  F   UNL     1       7.850  11.911  -3.272  1.00  0.00    -0.206 F 
ATOM     72  C   UNL     1      10.079  11.326  -3.477  1.00  0.00     0.040 A 
ATOM     73  C   UNL     1      11.203  10.109  -1.760  1.00  0.00     0.040 A 
ATOM     74  F   UNL     1      10.125   9.621   0.247  1.00  0.00    -0.206 F 
ATOM     75  C   UNL     1      11.227  10.704  -3.014  1.00  0.00     0.006 A 
ENDBRANCH  54  68
BRANCH  55  76
ATOM     76  C   UNL     1       0.205   8.991   2.318  1.00  0.00     0.057 A 
ATOM     77  C   UNL     1      -0.771   7.993   2.204  1.00  0.00     0.134 A 
ATOM     78  C   UNL     1       1.075   8.930   3.417  1.00  0.00     0.134 A 
ATOM     79  F   UNL     1      -1.619   7.987   1.165  1.00  0.00    -0.206 F 
ATOM     80  C   UNL     1      -0.782   6.900   3.068  1.00  0.00     0.040 A 
ATOM     81  C   UNL     1       1.080   7.827   4.272  1.00  0.00     0.040 A 
ATOM     82  F   UNL     1       2.031   9.854   3.582  1.00  0.00    -0.206 F 
ATOM     83  C   UNL     1       0.176   6.787   4.072  1.00  0.00     0.006 A 
ENDBRANCH  55  76
BRANCH  67  84
ATOM     84  C   UNL     1       4.303  14.545   1.587  1.00  0.00     0.057 A 
ATOM     85  C   UNL     1       3.933  14.914   2.889  1.00  0.00     0.134 A 
ATOM     86  C   UNL     1       5.313  15.333   0.997  1.00  0.00     0.134 A 
ATOM     87  F   UNL     1       3.079  14.176   3.611  1.00  0.00    -0.206 F 
ATOM     88  C   UNL     1       4.468  16.037   3.529  1.00  0.00     0.040 A 
ATOM     89  C   UNL     1       5.893  16.424   1.648  1.00  0.00     0.040 A 
ATOM     90  F   UNL     1       5.790  15.059  -0.227  1.00  0.00    -0.206 F 
ATOM     91  C   UNL     1       5.456  16.793   2.912  1.00  0.00     0.006 A 
ENDBRANCH  67  84
ENDBRANCH  41  42
ENDBRANCH  33  36
ENDBRANCH  31  32
ENDBRANCH  30  31
ENDBRANCH  29  30
ENDBRANCH   1  29
TORSDOF 16
