REMARK SMILES Cc1cc(C)c(C(=O)NCCCCNC(=O)c2ccc(-c3c4nc(c(-c5c(F)cccc5F)c5ccc([nH]5)c(-c5c(F)cccc5F)c5nc(c(-c6c(F)cccc6F)c6ccc3[nH]6)C=C5)C=C4)cc2)c(NC[C@@H]2C[N@@H+](C)CCO2)n1
REMARK SMILES IDX 11 1 10 2 9 3 7 4 8 5 6 7 1 8 2 9 3 10 81 11 4 12 71 13 5 14
REMARK SMILES IDX 72 15 73 17 74 18 75 19 80 20 76 21 79 22 77 23 78 24 12 26
REMARK SMILES IDX 13 27 14 28 15 29 16 31 17 32 18 33 70 34 19 35 69 36 20 37
REMARK SMILES IDX 21 38 22 39 63 40 23 41 68 42 62 43 64 44 24 45 67 46 61 47
REMARK SMILES IDX 60 48 25 50 51 51 34 52 50 53 35 54 38 55 49 56 65 57 36 58
REMARK SMILES IDX 37 59 48 61 66 62 39 63 26 64 27 65 32 66 28 67 29 68 31 69
REMARK SMILES IDX 33 70 30 71 52 72 53 73 58 74 54 75 55 76 57 77 59 78 56 79
REMARK SMILES IDX 40 80 41 81 46 82 42 83 43 84 45 85 47 86 44 87
REMARK H PARENT 9 6 72 16 76 25 14 30 64 49 38 60
REMARK Flexibility Score: inf
ROOT
ATOM      1  C   UNL     1       4.865   0.146   2.046  1.00  0.00     0.023 C 
ENDROOT
BRANCH   1   2
ATOM      2  C   UNL     1       3.767   0.189   0.986  1.00  0.00     0.116 C 
BRANCH   2   3
ATOM      3  N   UNL     1       3.492  -1.071   0.328  1.00  0.00    -0.352 N 
ATOM      4  C   UNL     1       2.362  -1.518  -0.327  1.00  0.00     0.255 C 
ATOM      5  O   UNL     1       2.438  -2.603  -0.906  1.00  0.00    -0.269 OA
ATOM      6  H   UNL     1       4.235  -1.717   0.351  1.00  0.00     0.163 HD
BRANCH   4   7
ATOM      7  C   UNL     1       1.062  -0.783  -0.309  1.00  0.00     0.085 A 
ATOM      8  C   UNL     1      -2.756   1.051   0.099  1.00  0.00     0.067 C 
ATOM      9  C   UNL     1      -1.415   0.412  -0.099  1.00  0.00     0.040 A 
ATOM     10  C   UNL     1      -0.328   1.181  -0.484  1.00  0.00     0.028 A 
ATOM     11  N   UNL     1      -1.321  -0.918   0.100  1.00  0.00    -0.236 NA
ATOM     12  C   UNL     1       0.924   0.575  -0.653  1.00  0.00    -0.033 A 
ATOM     13  C   UNL     1      -0.114  -1.524  -0.029  1.00  0.00     0.139 A 
ATOM     14  C   UNL     1       2.007   1.419  -1.255  1.00  0.00     0.045 C 
BRANCH  13  15
ATOM     15  N   UNL     1      -0.066  -2.896   0.170  1.00  0.00    -0.367 N 
ATOM     16  H   UNL     1       0.814  -3.329   0.250  1.00  0.00     0.162 HD
BRANCH  15  17
ATOM     17  C   UNL     1      -1.265  -3.726   0.265  1.00  0.00     0.152 C 
BRANCH  17  18
ATOM     18  C   UNL     1      -1.437  -4.593  -1.010  1.00  0.00     0.192 C 
ATOM     19  C   UNL     1      -2.454  -5.744  -0.812  1.00  0.00     0.296 C 
ATOM     20  O   UNL     1      -0.180  -5.130  -1.489  1.00  0.00    -0.365 OA
ATOM     21  N   UNL     1      -1.943  -6.781   0.112  1.00  0.00    -0.333 N 
ATOM     22  C   UNL     1       0.349  -6.132  -0.613  1.00  0.00     0.222 C 
ATOM     23  C   UNL     1      -2.893  -7.881   0.258  1.00  0.00     0.332 C 
ATOM     24  C   UNL     1      -0.648  -7.278  -0.397  1.00  0.00     0.290 C 
ATOM     25  H   UNL     1      -1.817  -6.367   1.036  1.00  0.00     0.348 HD
ENDBRANCH  17  18
ENDBRANCH  15  17
ENDBRANCH  13  15
ENDBRANCH   4   7
ENDBRANCH   2   3
ENDBRANCH   1   2
BRANCH   1  26
ATOM     26  C   UNL     1       6.229  -0.397   1.608  1.00  0.00     0.023 C 
BRANCH  26  27
ATOM     27  C   UNL     1       6.771   0.075   0.260  1.00  0.00     0.116 C 
BRANCH  27  28
ATOM     28  N   UNL     1       7.017   1.508   0.185  1.00  0.00    -0.352 N 
ATOM     29  C   UNL     1       8.187   2.213   0.023  1.00  0.00     0.251 C 
ATOM     30  H   UNL     1       6.210   2.066   0.264  1.00  0.00     0.163 HD
ATOM     31  O   UNL     1       8.163   3.442   0.055  1.00  0.00    -0.269 OA
BRANCH  29  32
ATOM     32  C   UNL     1       9.484   1.516  -0.138  1.00  0.00     0.039 A 
ATOM     33  C   UNL     1      10.581   1.963   0.606  1.00  0.00     0.014 A 
ATOM     34  C   UNL     1       9.633   0.434  -1.007  1.00  0.00     0.014 A 
ATOM     35  C   UNL     1      11.789   1.260   0.562  1.00  0.00     0.010 A 
ATOM     36  C   UNL     1      10.810  -0.315  -0.987  1.00  0.00     0.010 A 
ATOM     37  C   UNL     1      11.896   0.080  -0.191  1.00  0.00    -0.014 A 
BRANCH  37  38
ATOM     38  C   UNL     1      13.118  -0.768  -0.137  1.00  0.00     0.031 A 
ATOM     39  C   UNL     1      13.927  -1.022  -1.379  1.00  0.00     0.074 A 
ATOM     40  C   UNL     1      13.454  -1.381   1.017  1.00  0.00     0.049 A 
ATOM     41  N   UNL     1      14.957  -1.814  -1.549  1.00  0.00    -0.248 NA
ATOM     42  C   UNL     1      13.507  -0.317  -2.600  1.00  0.00     0.031 C 
ATOM     43  C   UNL     1      12.726  -1.265   2.283  1.00  0.00     0.029 A 
ATOM     44  N   UNL     1      14.486  -2.240   1.308  1.00  0.00    -0.354 N 
ATOM     45  C   UNL     1      15.290  -1.719  -2.894  1.00  0.00     0.074 A 
ATOM     46  C   UNL     1      14.327  -0.829  -3.506  1.00  0.00     0.031 C 
ATOM     47  C   UNL     1      13.345  -2.006   3.217  1.00  0.00     0.029 A 
ATOM     48  C   UNL     1      14.487  -2.681   2.610  1.00  0.00     0.049 A 
ATOM     49  H   UNL     1      15.161  -2.514   0.646  1.00  0.00     0.167 HD
ATOM     50  C   UNL     1      16.318  -2.303  -3.556  1.00  0.00     0.037 A 
ATOM     51  C   UNL     1      15.308  -3.541   3.243  1.00  0.00     0.037 A 
ATOM     52  C   UNL     1      17.299  -3.159  -2.943  1.00  0.00     0.049 A 
ATOM     53  C   UNL     1      16.447  -4.167   2.486  1.00  0.00     0.074 A 
ATOM     54  C   UNL     1      18.415  -3.741  -3.519  1.00  0.00     0.029 A 
ATOM     55  N   UNL     1      17.284  -3.552  -1.614  1.00  0.00    -0.354 N 
ATOM     56  N   UNL     1      16.788  -4.013   1.230  1.00  0.00    -0.248 NA
ATOM     57  C   UNL     1      17.318  -5.082   3.237  1.00  0.00     0.031 C 
ATOM     58  C   UNL     1      19.056  -4.517  -2.548  1.00  0.00     0.029 A 
ATOM     59  C   UNL     1      18.363  -4.383  -1.356  1.00  0.00     0.049 A 
ATOM     60  H   UNL     1      16.608  -3.282  -0.952  1.00  0.00     0.167 HD
ATOM     61  C   UNL     1      17.927  -4.786   1.049  1.00  0.00     0.074 A 
ATOM     62  C   UNL     1      18.228  -5.398   2.326  1.00  0.00     0.031 C 
ATOM     63  C   UNL     1      18.659  -4.972  -0.076  1.00  0.00     0.037 A 
BRANCH  50  64
ATOM     64  C   UNL     1      16.443  -2.027  -5.026  1.00  0.00     0.057 A 
ATOM     65  C   UNL     1      16.850  -0.776  -5.509  1.00  0.00     0.134 A 
ATOM     66  C   UNL     1      16.201  -3.035  -5.967  1.00  0.00     0.134 A 
ATOM     67  F   UNL     1      17.087   0.236  -4.660  1.00  0.00    -0.206 F 
ATOM     68  C   UNL     1      16.990  -0.532  -6.876  1.00  0.00     0.040 A 
ATOM     69  C   UNL     1      16.363  -2.811  -7.336  1.00  0.00     0.040 A 
ATOM     70  F   UNL     1      15.816  -4.258  -5.573  1.00  0.00    -0.206 F 
ATOM     71  C   UNL     1      16.754  -1.554  -7.793  1.00  0.00     0.006 A 
ENDBRANCH  50  64
BRANCH  51  72
ATOM     72  C   UNL     1      15.101  -3.852   4.681  1.00  0.00     0.057 A 
ATOM     73  C   UNL     1      16.003  -3.399   5.652  1.00  0.00     0.134 A 
ATOM     74  C   UNL     1      14.019  -4.625   5.116  1.00  0.00     0.134 A 
ATOM     75  F   UNL     1      17.071  -2.672   5.294  1.00  0.00    -0.206 F 
ATOM     76  C   UNL     1      15.850  -3.724   7.001  1.00  0.00     0.040 A 
ATOM     77  C   UNL     1      13.839  -4.936   6.465  1.00  0.00     0.040 A 
ATOM     78  F   UNL     1      13.117  -5.083   4.236  1.00  0.00    -0.206 F 
ATOM     79  C   UNL     1      14.762  -4.493   7.410  1.00  0.00     0.006 A 
ENDBRANCH  51  72
BRANCH  63  80
ATOM     80  C   UNL     1      19.880  -5.837   0.032  1.00  0.00     0.057 A 
ATOM     81  C   UNL     1      19.792  -7.229   0.159  1.00  0.00     0.134 A 
ATOM     82  C   UNL     1      21.160  -5.272  -0.031  1.00  0.00     0.134 A 
ATOM     83  F   UNL     1      18.595  -7.830   0.239  1.00  0.00    -0.206 F 
ATOM     84  C   UNL     1      20.935  -8.026   0.239  1.00  0.00     0.040 A 
ATOM     85  C   UNL     1      22.309  -6.061   0.022  1.00  0.00     0.040 A 
ATOM     86  F   UNL     1      21.313  -3.945  -0.161  1.00  0.00    -0.206 F 
ATOM     87  C   UNL     1      22.198  -7.442   0.163  1.00  0.00     0.006 A 
ENDBRANCH  63  80
ENDBRANCH  37  38
ENDBRANCH  29  32
ENDBRANCH  27  28
ENDBRANCH  26  27
ENDBRANCH   1  26
TORSDOF 14
