REMARK SMILES NS(=O)(=O)c1ccc(-n2nc(C(=O)NCCCCNC(=O)c3ccc(-c4c5nc(c(-c6c(F)cccc6F)c6ccc([nH]6)c(-c6c(F)cccc6F)c6nc(c(-c7c(F)cccc7F)c7ccc4[nH]7)C=C6)C=C5)cc3)cc2-c2cc3ccccc3s2)cc1
REMARK SMILES IDX 16 1 15 2 14 3 12 4 13 5 11 7 9 8 10 9 77 10 76 11 8 12 5 13
REMARK SMILES IDX 6 14 88 15 7 16 87 17 2 18 3 19 4 20 1 21 78 24 79 25 86 26
REMARK SMILES IDX 80 27 85 28 81 29 84 30 82 31 83 32 17 33 18 34 19 35 20 36
REMARK SMILES IDX 21 38 22 39 23 40 75 41 24 42 74 43 25 44 26 45 27 46 68 47
REMARK SMILES IDX 28 48 73 49 67 50 69 51 29 52 72 53 66 54 65 55 30 57 56 58
REMARK SMILES IDX 39 59 55 60 40 61 43 62 54 63 70 64 41 65 42 66 53 68 71 69
REMARK SMILES IDX 44 70 31 71 32 72 37 73 33 74 34 75 36 76 38 77 35 78 57 79
REMARK SMILES IDX 58 80 63 81 59 82 60 83 62 84 64 85 61 86 45 87 46 88 51 89
REMARK SMILES IDX 47 90 48 91 50 92 52 93 49 94
REMARK H PARENT 14 6 1 22 1 23 19 37 69 56 43 67
REMARK Flexibility Score: inf
ROOT
ATOM      1  C   UNL     1       1.518  10.782  -5.920  1.00  0.00     0.023 C 
ENDROOT
BRANCH   1   2
ATOM      2  C   UNL     1       2.760  10.237  -5.197  1.00  0.00     0.116 C 
BRANCH   2   3
ATOM      3  N   UNL     1       2.578  10.157  -3.754  1.00  0.00    -0.351 N 
ATOM      4  C   UNL     1       2.246   9.109  -2.909  1.00  0.00     0.271 C 
ATOM      5  O   UNL     1       2.296   9.351  -1.701  1.00  0.00    -0.267 OA
ATOM      6  H   UNL     1       2.718  11.013  -3.288  1.00  0.00     0.163 HD
BRANCH   4   7
ATOM      7  C   UNL     1       1.918   7.768  -3.438  1.00  0.00     0.151 A 
ATOM      8  N   UNL     1       1.938   5.615  -3.549  1.00  0.00    -0.231 N 
ATOM      9  N   UNL     1       1.968   6.658  -2.672  1.00  0.00    -0.162 NA
ATOM     10  C   UNL     1       1.890   6.069  -4.846  1.00  0.00     0.085 A 
ATOM     11  C   UNL     1       1.532   7.400  -4.738  1.00  0.00     0.066 A 
BRANCH   8  12
ATOM     12  C   UNL     1       1.676   4.304  -3.093  1.00  0.00     0.065 A 
ATOM     13  C   UNL     1       0.953   1.757  -2.254  1.00  0.00     0.082 A 
ATOM     14  C   UNL     1       2.023   1.917  -3.145  1.00  0.00     0.024 A 
ATOM     15  C   UNL     1       0.240   2.861  -1.782  1.00  0.00     0.024 A 
ATOM     16  C   UNL     1       2.373   3.198  -3.588  1.00  0.00     0.030 A 
ATOM     17  C   UNL     1       0.625   4.139  -2.177  1.00  0.00     0.030 A 
BRANCH  13  18
ATOM     18  S   UNL     1       0.459   0.136  -1.747  1.00  0.00     0.238 S 
ATOM     19  O   UNL     1       1.171  -0.848  -2.520  1.00  0.00    -0.207 OA
ATOM     20  O   UNL     1      -0.981   0.113  -1.595  1.00  0.00    -0.207 OA
BRANCH  18  21
ATOM     21  N   UNL     1       1.093   0.053  -0.196  1.00  0.00    -0.225 NA
ATOM     22  H   UNL     1       0.871  -0.854   0.214  1.00  0.00     0.137 HD
ATOM     23  H   UNL     1       0.689   0.793   0.377  1.00  0.00     0.137 HD
ENDBRANCH  18  21
ENDBRANCH  13  18
ENDBRANCH   8  12
BRANCH  10  24
ATOM     24  C   UNL     1       2.262   5.444  -6.086  1.00  0.00     0.054 A 
ATOM     25  C   UNL     1       1.545   5.545  -7.272  1.00  0.00     0.031 A 
ATOM     26  S   UNL     1       3.937   5.579  -6.545  1.00  0.00    -0.134 S 
ATOM     27  C   UNL     1       2.137   6.648  -8.016  1.00  0.00    -0.007 A 
ATOM     28  C   UNL     1       3.465   6.860  -7.619  1.00  0.00     0.035 A 
ATOM     29  C   UNL     1       1.556   7.570  -8.916  1.00  0.00     0.009 A 
ATOM     30  C   UNL     1       4.208   7.975  -8.040  1.00  0.00     0.019 A 
ATOM     31  C   UNL     1       2.268   8.716  -9.291  1.00  0.00     0.001 A 
ATOM     32  C   UNL     1       3.569   8.923  -8.844  1.00  0.00     0.001 A 
ENDBRANCH  10  24
ENDBRANCH   4   7
ENDBRANCH   2   3
ENDBRANCH   1   2
BRANCH   1  33
ATOM     33  C   UNL     1       1.310  12.304  -5.843  1.00  0.00     0.023 C 
BRANCH  33  34
ATOM     34  C   UNL     1       2.347  13.145  -6.581  1.00  0.00     0.116 C 
BRANCH  34  35
ATOM     35  N   UNL     1       2.341  12.972  -8.042  1.00  0.00    -0.352 N 
ATOM     36  C   UNL     1       3.269  13.447  -8.962  1.00  0.00     0.251 C 
ATOM     37  H   UNL     1       1.588  12.458  -8.413  1.00  0.00     0.163 HD
ATOM     38  O   UNL     1       2.986  13.592 -10.144  1.00  0.00    -0.269 OA
BRANCH  36  39
ATOM     39  C   UNL     1       4.629  13.739  -8.480  1.00  0.00     0.039 A 
ATOM     40  C   UNL     1       5.367  14.865  -8.860  1.00  0.00     0.014 A 
ATOM     41  C   UNL     1       5.118  12.856  -7.530  1.00  0.00     0.014 A 
ATOM     42  C   UNL     1       6.566  15.130  -8.194  1.00  0.00     0.010 A 
ATOM     43  C   UNL     1       6.121  13.268  -6.708  1.00  0.00     0.010 A 
ATOM     44  C   UNL     1       6.924  14.328  -7.100  1.00  0.00    -0.014 A 
BRANCH  44  45
ATOM     45  C   UNL     1       8.089  14.585  -6.265  1.00  0.00     0.031 A 
ATOM     46  C   UNL     1       8.131  15.943  -5.668  1.00  0.00     0.074 A 
ATOM     47  C   UNL     1       8.901  13.582  -5.853  1.00  0.00     0.049 A 
ATOM     48  N   UNL     1       8.942  16.906  -5.953  1.00  0.00    -0.248 NA
ATOM     49  C   UNL     1       7.045  16.333  -4.753  1.00  0.00     0.031 C 
ATOM     50  C   UNL     1       8.768  12.135  -6.104  1.00  0.00     0.029 A 
ATOM     51  N   UNL     1       9.975  13.629  -5.020  1.00  0.00    -0.354 N 
ATOM     52  C   UNL     1       8.623  17.939  -5.075  1.00  0.00     0.074 A 
ATOM     53  C   UNL     1       7.330  17.619  -4.535  1.00  0.00     0.031 C 
ATOM     54  C   UNL     1       9.563  11.444  -5.259  1.00  0.00     0.029 A 
ATOM     55  C   UNL     1      10.404  12.389  -4.556  1.00  0.00     0.049 A 
ATOM     56  H   UNL     1      10.413  14.473  -4.766  1.00  0.00     0.167 HD
ATOM     57  C   UNL     1       9.582  18.808  -4.649  1.00  0.00     0.037 A 
ATOM     58  C   UNL     1      11.391  12.152  -3.659  1.00  0.00     0.037 A 
ATOM     59  C   UNL     1      10.762  18.708  -5.476  1.00  0.00     0.049 A 
ATOM     60  C   UNL     1      12.234  13.367  -3.617  1.00  0.00     0.074 A 
ATOM     61  C   UNL     1      11.058  18.914  -6.808  1.00  0.00     0.029 A 
ATOM     62  N   UNL     1      11.792  17.954  -4.972  1.00  0.00    -0.354 N 
ATOM     63  N   UNL     1      12.958  13.781  -4.619  1.00  0.00    -0.248 NA
ATOM     64  C   UNL     1      11.922  14.372  -2.615  1.00  0.00     0.031 C 
ATOM     65  C   UNL     1      12.018  17.910  -7.137  1.00  0.00     0.029 A 
ATOM     66  C   UNL     1      12.310  17.186  -5.979  1.00  0.00     0.049 A 
ATOM     67  H   UNL     1      12.107  17.964  -4.039  1.00  0.00     0.167 HD
ATOM     68  C   UNL     1      12.821  15.161  -4.607  1.00  0.00     0.074 A 
ATOM     69  C   UNL     1      12.274  15.471  -3.288  1.00  0.00     0.031 C 
ATOM     70  C   UNL     1      12.889  15.876  -5.769  1.00  0.00     0.037 A 
BRANCH  57  71
ATOM     71  C   UNL     1       9.654  19.398  -3.253  1.00  0.00     0.057 A 
ATOM     72  C   UNL     1      10.674  20.326  -2.966  1.00  0.00     0.134 A 
ATOM     73  C   UNL     1       8.996  18.874  -2.121  1.00  0.00     0.134 A 
ATOM     74  F   UNL     1      11.377  20.903  -3.953  1.00  0.00    -0.206 F 
ATOM     75  C   UNL     1      11.077  20.624  -1.659  1.00  0.00     0.040 A 
ATOM     76  C   UNL     1       9.357  19.205  -0.811  1.00  0.00     0.040 A 
ATOM     77  F   UNL     1       8.040  17.944  -2.203  1.00  0.00    -0.206 F 
ATOM     78  C   UNL     1      10.426  20.052  -0.575  1.00  0.00     0.006 A 
ENDBRANCH  57  71
BRANCH  58  79
ATOM     79  C   UNL     1      11.475  11.088  -2.635  1.00  0.00     0.057 A 
ATOM     80  C   UNL     1      12.695  10.737  -2.041  1.00  0.00     0.134 A 
ATOM     81  C   UNL     1      10.317  10.596  -2.008  1.00  0.00     0.134 A 
ATOM     82  F   UNL     1      13.851  11.195  -2.544  1.00  0.00    -0.206 F 
ATOM     83  C   UNL     1      12.760   9.960  -0.876  1.00  0.00     0.040 A 
ATOM     84  C   UNL     1      10.367   9.819  -0.845  1.00  0.00     0.040 A 
ATOM     85  F   UNL     1       9.097  10.933  -2.454  1.00  0.00    -0.206 F 
ATOM     86  C   UNL     1      11.592   9.510  -0.267  1.00  0.00     0.006 A 
ENDBRANCH  58  79
BRANCH  70  87
ATOM     87  C   UNL     1      13.421  15.169  -6.989  1.00  0.00     0.057 A 
ATOM     88  C   UNL     1      12.771  14.110  -7.642  1.00  0.00     0.134 A 
ATOM     89  C   UNL     1      14.573  15.670  -7.601  1.00  0.00     0.134 A 
ATOM     90  F   UNL     1      11.614  13.619  -7.186  1.00  0.00    -0.206 F 
ATOM     91  C   UNL     1      13.266  13.554  -8.826  1.00  0.00     0.040 A 
ATOM     92  C   UNL     1      15.062  15.146  -8.800  1.00  0.00     0.040 A 
ATOM     93  F   UNL     1      15.221  16.716  -7.063  1.00  0.00    -0.206 F 
ATOM     94  C   UNL     1      14.413  14.077  -9.412  1.00  0.00     0.006 A 
ENDBRANCH  70  87
ENDBRANCH  44  45
ENDBRANCH  36  39
ENDBRANCH  34  35
ENDBRANCH  33  34
ENDBRANCH   1  33
TORSDOF 15
