REMARK SMILES CC(=O)N1CCC(C(=O)NC[C@@H]2CC[C@@H](C(=O)NCCCCNC(=O)c3ccc(-c4c5nc(c(-c6c(F)cccc6F)c6ccc([nH]6)c(-c6c(F)cccc6F)c6nc(c(-c7c(F)cccc7F)c7ccc4[nH]7)C=C6)C=C5)cc3)O2)CC1
REMARK SMILES IDX 20 1 19 2 18 3 16 4 17 5 15 7 12 8 13 9 80 10 14 11 11 12
REMARK SMILES IDX 10 13 8 14 9 15 7 17 1 18 2 19 3 20 4 21 5 22 82 23 6 24
REMARK SMILES IDX 81 25 21 26 22 27 23 28 24 29 25 31 26 32 27 33 79 34 28 35
REMARK SMILES IDX 78 36 29 37 30 38 31 39 72 40 32 41 77 42 71 43 73 44 33 45
REMARK SMILES IDX 76 46 70 47 69 48 34 50 60 51 43 52 59 53 44 54 47 55 58 56
REMARK SMILES IDX 74 57 45 58 46 59 57 61 75 62 48 63 35 64 36 65 41 66 37 67
REMARK SMILES IDX 38 68 40 69 42 70 39 71 61 72 62 73 67 74 63 75 64 76 66 77
REMARK SMILES IDX 68 78 65 79 49 80 50 81 55 82 51 83 52 84 54 85 56 86 53 87
REMARK H PARENT 18 6 10 16 23 30 73 49 47 60
REMARK Flexibility Score: inf
ROOT
ATOM      1  C   UNL     1      -2.731   7.707   1.274  1.00  0.00     0.023 C 
ENDROOT
BRANCH   1   2
ATOM      2  C   UNL     1      -1.402   8.395   1.595  1.00  0.00     0.116 C 
BRANCH   2   3
ATOM      3  N   UNL     1      -1.224   8.606   3.018  1.00  0.00    -0.354 N 
ATOM      4  C   UNL     1      -0.520   7.847   3.918  1.00  0.00     0.249 C 
ATOM      5  O   UNL     1      -0.501   8.214   5.094  1.00  0.00    -0.272 OA
ATOM      6  H   UNL     1      -1.670   9.401   3.389  1.00  0.00     0.163 HD
BRANCH   4   7
ATOM      7  C   UNL     1       0.223   6.593   3.414  1.00  0.00     0.207 C 
ATOM      8  C   UNL     1       0.825   4.548   4.391  1.00  0.00     0.138 C 
ATOM      9  C   UNL     1       0.034   4.263   3.127  1.00  0.00     0.037 C 
ATOM     10  O   UNL     1       1.075   5.966   4.388  1.00  0.00    -0.363 OA
ATOM     11  C   UNL     1      -0.751   5.523   2.954  1.00  0.00     0.045 C 
BRANCH   8  12
ATOM     12  C   UNL     1       2.147   3.768   4.404  1.00  0.00     0.147 C 
BRANCH  12  13
ATOM     13  N   UNL     1       2.462   3.170   5.696  1.00  0.00    -0.353 N 
ATOM     14  C   UNL     1       2.410   1.881   6.131  1.00  0.00     0.223 C 
ATOM     15  O   UNL     1       2.804   1.646   7.277  1.00  0.00    -0.275 OA
ATOM     16  H   UNL     1       2.768   3.814   6.375  1.00  0.00     0.163 HD
BRANCH  14  17
ATOM     17  C   UNL     1       1.873   0.740   5.267  1.00  0.00     0.082 C 
ATOM     18  C   UNL     1       1.216   0.151   0.307  1.00  0.00     0.114 C 
ATOM     19  C   UNL     1       0.352   0.458   1.504  1.00  0.00     0.219 C 
ATOM     20  O   UNL     1      -0.692   1.095   1.363  1.00  0.00    -0.275 OA
ATOM     21  N   UNL     1       0.774  -0.025   2.732  1.00  0.00    -0.343 N 
ATOM     22  C   UNL     1      -0.133   0.017   3.870  1.00  0.00     0.120 C 
ATOM     23  C   UNL     1       2.113  -0.509   3.047  1.00  0.00     0.120 C 
ATOM     24  C   UNL     1       0.391   0.961   4.937  1.00  0.00     0.035 C 
ATOM     25  C   UNL     1       2.782   0.412   4.068  1.00  0.00     0.035 C 
ENDBRANCH  14  17
ENDBRANCH  12  13
ENDBRANCH   8  12
ENDBRANCH   4   7
ENDBRANCH   2   3
ENDBRANCH   1   2
BRANCH   1  26
ATOM     26  C   UNL     1      -3.974   8.547   1.547  1.00  0.00     0.023 C 
BRANCH  26  27
ATOM     27  C   UNL     1      -4.025   9.872   0.806  1.00  0.00     0.116 C 
BRANCH  27  28
ATOM     28  N   UNL     1      -3.947   9.725  -0.640  1.00  0.00    -0.352 N 
ATOM     29  C   UNL     1      -4.646  10.412  -1.603  1.00  0.00     0.251 C 
ATOM     30  H   UNL     1      -3.314   9.047  -0.970  1.00  0.00     0.163 HD
ATOM     31  O   UNL     1      -4.554  10.106  -2.787  1.00  0.00    -0.269 OA
BRANCH  29  32
ATOM     32  C   UNL     1      -5.545  11.504  -1.183  1.00  0.00     0.039 A 
ATOM     33  C   UNL     1      -6.872  11.495  -1.617  1.00  0.00     0.014 A 
ATOM     34  C   UNL     1      -5.089  12.489  -0.304  1.00  0.00     0.014 A 
ATOM     35  C   UNL     1      -7.767  12.437  -1.108  1.00  0.00     0.010 A 
ATOM     36  C   UNL     1      -5.996  13.377   0.258  1.00  0.00     0.010 A 
ATOM     37  C   UNL     1      -7.343  13.358  -0.137  1.00  0.00    -0.014 A 
BRANCH  37  38
ATOM     38  C   UNL     1      -8.279  14.328   0.481  1.00  0.00     0.031 A 
ATOM     39  C   UNL     1      -8.061  15.800   0.277  1.00  0.00     0.074 A 
ATOM     40  C   UNL     1      -9.256  13.892   1.300  1.00  0.00     0.049 A 
ATOM     41  N   UNL     1      -8.661  16.812   0.846  1.00  0.00    -0.248 NA
ATOM     42  C   UNL     1      -7.000  16.181  -0.670  1.00  0.00     0.031 C 
ATOM     43  C   UNL     1      -9.544  12.490   1.608  1.00  0.00     0.029 A 
ATOM     44  N   UNL     1     -10.175  14.591   2.042  1.00  0.00    -0.354 N 
ATOM     45  C   UNL     1      -8.034  17.947   0.349  1.00  0.00     0.074 A 
ATOM     46  C   UNL     1      -6.979  17.498  -0.533  1.00  0.00     0.031 C 
ATOM     47  C   UNL     1     -10.576  12.432   2.466  1.00  0.00     0.029 A 
ATOM     48  C   UNL     1     -10.994  13.790   2.800  1.00  0.00     0.049 A 
ATOM     49  H   UNL     1     -10.240  15.573   2.032  1.00  0.00     0.167 HD
ATOM     50  C   UNL     1      -8.324  19.247   0.592  1.00  0.00     0.037 A 
ATOM     51  C   UNL     1     -11.962  14.117   3.677  1.00  0.00     0.037 A 
ATOM     52  C   UNL     1      -9.398  19.688   1.440  1.00  0.00     0.049 A 
ATOM     53  C   UNL     1     -12.267  15.568   3.929  1.00  0.00     0.074 A 
ATOM     54  C   UNL     1      -9.813  20.981   1.702  1.00  0.00     0.029 A 
ATOM     55  N   UNL     1     -10.229  18.845   2.161  1.00  0.00    -0.354 N 
ATOM     56  N   UNL     1     -11.702  16.632   3.412  1.00  0.00    -0.248 NA
ATOM     57  C   UNL     1     -13.345  15.864   4.883  1.00  0.00     0.031 C 
ATOM     58  C   UNL     1     -10.876  20.922   2.609  1.00  0.00     0.029 A 
ATOM     59  C   UNL     1     -11.148  19.591   2.879  1.00  0.00     0.049 A 
ATOM     60  H   UNL     1     -10.175  17.862   2.162  1.00  0.00     0.167 HD
ATOM     61  C   UNL     1     -12.374  17.720   3.952  1.00  0.00     0.074 A 
ATOM     62  C   UNL     1     -13.393  17.188   4.834  1.00  0.00     0.031 C 
ATOM     63  C   UNL     1     -12.168  19.041   3.734  1.00  0.00     0.037 A 
BRANCH  50  64
ATOM     64  C   UNL     1      -7.467  20.281  -0.075  1.00  0.00     0.057 A 
ATOM     65  C   UNL     1      -7.536  20.518  -1.454  1.00  0.00     0.134 A 
ATOM     66  C   UNL     1      -6.581  21.065   0.673  1.00  0.00     0.134 A 
ATOM     67  F   UNL     1      -8.355  19.790  -2.229  1.00  0.00    -0.206 F 
ATOM     68  C   UNL     1      -6.735  21.481  -2.070  1.00  0.00     0.040 A 
ATOM     69  C   UNL     1      -5.794  22.049   0.072  1.00  0.00     0.040 A 
ATOM     70  F   UNL     1      -6.469  20.892   1.998  1.00  0.00    -0.206 F 
ATOM     71  C   UNL     1      -5.865  22.254  -1.304  1.00  0.00     0.006 A 
ENDBRANCH  50  64
BRANCH  51  72
ATOM     72  C   UNL     1     -12.727  13.051   4.371  1.00  0.00     0.057 A 
ATOM     73  C   UNL     1     -14.065  12.800   4.046  1.00  0.00     0.134 A 
ATOM     74  C   UNL     1     -12.146  12.263   5.371  1.00  0.00     0.134 A 
ATOM     75  F   UNL     1     -14.681  13.536   3.109  1.00  0.00    -0.206 F 
ATOM     76  C   UNL     1     -14.804  11.815   4.703  1.00  0.00     0.040 A 
ATOM     77  C   UNL     1     -12.867  11.259   6.020  1.00  0.00     0.040 A 
ATOM     78  F   UNL     1     -10.865  12.449   5.722  1.00  0.00    -0.206 F 
ATOM     79  C   UNL     1     -14.203  11.038   5.691  1.00  0.00     0.006 A 
ENDBRANCH  51  72
BRANCH  63  80
ATOM     80  C   UNL     1     -13.089  20.006   4.419  1.00  0.00     0.057 A 
ATOM     81  C   UNL     1     -12.975  20.294   5.784  1.00  0.00     0.134 A 
ATOM     82  C   UNL     1     -14.057  20.703   3.685  1.00  0.00     0.134 A 
ATOM     83  F   UNL     1     -12.075  19.650   6.542  1.00  0.00    -0.206 F 
ATOM     84  C   UNL     1     -13.801  21.236   6.398  1.00  0.00     0.040 A 
ATOM     85  C   UNL     1     -14.873  21.663   4.284  1.00  0.00     0.040 A 
ATOM     86  F   UNL     1     -14.210  20.477   2.372  1.00  0.00    -0.206 F 
ATOM     87  C   UNL     1     -14.747  21.930   5.645  1.00  0.00     0.006 A 
ENDBRANCH  63  80
ENDBRANCH  37  38
ENDBRANCH  29  32
ENDBRANCH  27  28
ENDBRANCH  26  27
ENDBRANCH   1  26
TORSDOF 14
