REMARK SMILES Cc1cc(C)c2c(O[C@@H](C)C(=O)NCCCCNC(=O)c3ccc(-c4c5nc(c(-c6c(F)cccc6F)c6ccc([nH]6)c(-c6c(F)cccc6F)c6nc(c(-c7c(F)cccc7F)c7ccc4[nH]7)C=C6)C=C5)cc3)nsc2n1
REMARK SMILES IDX 15 1 14 2 13 3 11 4 12 5 9 7 10 8 8 9 7 10 1 11 2 12 3 13
REMARK SMILES IDX 78 14 4 15 77 16 5 17 6 18 76 19 75 20 16 21 17 22 18 23
REMARK SMILES IDX 19 24 20 26 21 27 22 28 74 29 23 30 73 31 24 32 25 33 26 34
REMARK SMILES IDX 67 35 27 36 72 37 66 38 68 39 28 40 71 41 65 42 64 43 29 45
REMARK SMILES IDX 55 46 38 47 54 48 39 49 42 50 53 51 69 52 40 53 41 54 52 56
REMARK SMILES IDX 70 57 43 58 30 59 31 60 36 61 32 62 33 63 35 64 37 65 34 66
REMARK SMILES IDX 56 67 57 68 62 69 58 70 59 71 61 72 63 73 60 74 44 75 45 76
REMARK SMILES IDX 50 77 46 78 47 79 49 80 51 81 48 82
REMARK H PARENT 13 6 18 25 68 44 42 55
REMARK Flexibility Score: inf
ROOT
ATOM      1  C   UNL     1      -2.383  -3.531   0.363  1.00  0.00     0.023 C 
ENDROOT
BRANCH   1   2
ATOM      2  C   UNL     1      -1.058  -4.152   0.819  1.00  0.00     0.116 C 
BRANCH   2   3
ATOM      3  N   UNL     1      -1.050  -5.578   1.059  1.00  0.00    -0.353 N 
ATOM      4  C   UNL     1      -0.128  -6.474   0.583  1.00  0.00     0.260 C 
ATOM      5  O   UNL     1       0.310  -7.303   1.389  1.00  0.00    -0.271 OA
ATOM      6  H   UNL     1      -1.776  -5.940   1.616  1.00  0.00     0.163 HD
BRANCH   4   7
ATOM      7  C   UNL     1       0.240  -6.569  -0.932  1.00  0.00     0.260 C 
ATOM      8  C   UNL     1       1.683  -6.964  -1.266  1.00  0.00     0.064 C 
BRANCH   7   9
ATOM      9  O   UNL     1      -0.398  -5.846  -1.935  1.00  0.00    -0.463 OA
BRANCH   9  10
ATOM     10  C   UNL     1      -0.023  -4.637  -2.405  1.00  0.00     0.235 A 
ATOM     11  C   UNL     1       2.153   0.523  -1.427  1.00  0.00     0.067 C 
ATOM     12  C   UNL     1       1.746  -0.906  -1.631  1.00  0.00     0.039 A 
ATOM     13  C   UNL     1       2.276  -1.909  -0.836  1.00  0.00     0.027 A 
ATOM     14  N   UNL     1       0.864  -1.144  -2.601  1.00  0.00    -0.240 NA
ATOM     15  C   UNL     1       1.848  -3.255  -0.961  1.00  0.00    -0.034 A 
ATOM     16  C   UNL     1       0.479  -2.424  -2.728  1.00  0.00     0.147 A 
ATOM     17  C   UNL     1       2.523  -4.208  -0.006  1.00  0.00     0.045 C 
ATOM     18  C   UNL     1       0.855  -3.541  -1.963  1.00  0.00     0.078 A 
ATOM     19  S   UNL     1      -0.634  -2.844  -3.936  1.00  0.00    -0.012 S 
ATOM     20  N   UNL     1      -0.781  -4.405  -3.477  1.00  0.00    -0.153 NA
ENDBRANCH   9  10
ENDBRANCH   7   9
ENDBRANCH   4   7
ENDBRANCH   2   3
ENDBRANCH   1   2
BRANCH   1  21
ATOM     21  C   UNL     1      -2.864  -2.366   1.253  1.00  0.00     0.023 C 
BRANCH  21  22
ATOM     22  C   UNL     1      -1.856  -1.230   1.417  1.00  0.00     0.116 C 
BRANCH  22  23
ATOM     23  N   UNL     1      -1.916  -0.161   0.430  1.00  0.00    -0.352 N 
ATOM     24  C   UNL     1      -1.296   1.076   0.499  1.00  0.00     0.251 C 
ATOM     25  H   UNL     1      -2.457  -0.337  -0.374  1.00  0.00     0.163 HD
ATOM     26  O   UNL     1      -1.624   1.992  -0.255  1.00  0.00    -0.269 OA
BRANCH  24  27
ATOM     27  C   UNL     1      -0.204   1.300   1.476  1.00  0.00     0.039 A 
ATOM     28  C   UNL     1      -0.007   2.541   2.096  1.00  0.00     0.014 A 
ATOM     29  C   UNL     1       0.688   0.258   1.725  1.00  0.00     0.014 A 
ATOM     30  C   UNL     1       1.034   2.690   3.017  1.00  0.00     0.010 A 
ATOM     31  C   UNL     1       1.668   0.373   2.675  1.00  0.00     0.010 A 
ATOM     32  C   UNL     1       1.856   1.594   3.306  1.00  0.00    -0.014 A 
BRANCH  32  33
ATOM     33  C   UNL     1       2.810   1.605   4.406  1.00  0.00     0.031 A 
ATOM     34  C   UNL     1       2.173   1.599   5.756  1.00  0.00     0.074 A 
ATOM     35  C   UNL     1       4.101   1.252   4.234  1.00  0.00     0.049 A 
ATOM     36  N   UNL     1       2.268   2.481   6.694  1.00  0.00    -0.248 NA
ATOM     37  C   UNL     1       1.204   0.524   6.048  1.00  0.00     0.031 C 
ATOM     38  C   UNL     1       4.775   0.825   3.002  1.00  0.00     0.029 A 
ATOM     39  N   UNL     1       5.065   1.081   5.176  1.00  0.00    -0.354 N 
ATOM     40  C   UNL     1       1.512   1.989   7.758  1.00  0.00     0.074 A 
ATOM     41  C   UNL     1       0.735   0.896   7.238  1.00  0.00     0.031 C 
ATOM     42  C   UNL     1       5.962   0.253   3.313  1.00  0.00     0.029 A 
ATOM     43  C   UNL     1       6.196   0.403   4.738  1.00  0.00     0.049 A 
ATOM     44  H   UNL     1       4.969   1.412   6.098  1.00  0.00     0.167 HD
ATOM     45  C   UNL     1       1.743   2.365   9.047  1.00  0.00     0.037 A 
ATOM     46  C   UNL     1       7.215  -0.035   5.519  1.00  0.00     0.037 A 
ATOM     47  C   UNL     1       2.588   3.527   9.111  1.00  0.00     0.049 A 
ATOM     48  C   UNL     1       7.125   0.700   6.808  1.00  0.00     0.074 A 
ATOM     49  C   UNL     1       2.475   4.829   8.664  1.00  0.00     0.029 A 
ATOM     50  N   UNL     1       3.927   3.329   9.343  1.00  0.00    -0.354 N 
ATOM     51  N   UNL     1       7.319   1.984   6.931  1.00  0.00    -0.248 NA
ATOM     52  C   UNL     1       6.366   0.079   7.883  1.00  0.00     0.031 C 
ATOM     53  C   UNL     1       3.775   5.163   8.178  1.00  0.00     0.029 A 
ATOM     54  C   UNL     1       4.617   4.077   8.421  1.00  0.00     0.049 A 
ATOM     55  H   UNL     1       4.320   2.756  10.041  1.00  0.00     0.167 HD
ATOM     56  C   UNL     1       6.370   2.402   7.852  1.00  0.00     0.074 A 
ATOM     57  C   UNL     1       5.868   1.173   8.464  1.00  0.00     0.031 C 
ATOM     58  C   UNL     1       5.873   3.675   7.826  1.00  0.00     0.037 A 
BRANCH  45  59
ATOM     59  C   UNL     1       1.461   1.498  10.246  1.00  0.00     0.057 A 
ATOM     60  C   UNL     1       1.453   2.061  11.533  1.00  0.00     0.134 A 
ATOM     61  C   UNL     1       1.432   0.088  10.209  1.00  0.00     0.134 A 
ATOM     62  F   UNL     1       1.522   3.389  11.702  1.00  0.00    -0.206 F 
ATOM     63  C   UNL     1       1.437   1.277  12.694  1.00  0.00     0.040 A 
ATOM     64  C   UNL     1       1.356  -0.702  11.359  1.00  0.00     0.040 A 
ATOM     65  F   UNL     1       1.573  -0.599   9.068  1.00  0.00    -0.206 F 
ATOM     66  C   UNL     1       1.382  -0.109  12.610  1.00  0.00     0.006 A 
ENDBRANCH  45  59
BRANCH  46  67
ATOM     67  C   UNL     1       8.045  -1.254   5.377  1.00  0.00     0.057 A 
ATOM     68  C   UNL     1       9.226  -1.413   6.119  1.00  0.00     0.134 A 
ATOM     69  C   UNL     1       7.555  -2.411   4.747  1.00  0.00     0.134 A 
ATOM     70  F   UNL     1       9.755  -0.376   6.785  1.00  0.00    -0.206 F 
ATOM     71  C   UNL     1       9.858  -2.656   6.261  1.00  0.00     0.040 A 
ATOM     72  C   UNL     1       8.179  -3.657   4.876  1.00  0.00     0.040 A 
ATOM     73  F   UNL     1       6.402  -2.392   4.062  1.00  0.00    -0.206 F 
ATOM     74  C   UNL     1       9.325  -3.787   5.651  1.00  0.00     0.006 A 
ENDBRANCH  46  67
BRANCH  58  75
ATOM     75  C   UNL     1       6.543   4.673   6.913  1.00  0.00     0.057 A 
ATOM     76  C   UNL     1       6.581   4.562   5.513  1.00  0.00     0.134 A 
ATOM     77  C   UNL     1       7.029   5.866   7.455  1.00  0.00     0.134 A 
ATOM     78  F   UNL     1       6.052   3.507   4.886  1.00  0.00    -0.206 F 
ATOM     79  C   UNL     1       7.111   5.568   4.699  1.00  0.00     0.040 A 
ATOM     80  C   UNL     1       7.530   6.895   6.652  1.00  0.00     0.040 A 
ATOM     81  F   UNL     1       6.978   6.075   8.780  1.00  0.00    -0.206 F 
ATOM     82  C   UNL     1       7.581   6.744   5.269  1.00  0.00     0.006 A 
ENDBRANCH  58  75
ENDBRANCH  32  33
ENDBRANCH  24  27
ENDBRANCH  22  23
ENDBRANCH  21  22
ENDBRANCH   1  21
TORSDOF 13
