REMARK SMILES O=C(COc1ccc(F)cc1)Nc1sccc1C(=O)NCCCCNC(=O)c1ccc(-c2c3nc(c(-c4c(F)cccc4F)c4ccc([nH]4)c(-c4c(F)cccc4F)c4nc(c(-c5c(F)cccc5F)c5ccc2[nH]5)C=C4)C=C3)cc1
REMARK SMILES IDX 21 1 20 2 18 3 19 4 17 6 13 7 14 8 15 9 16 10 12 11 1 12
REMARK SMILES IDX 2 13 3 15 4 16 5 17 6 18 11 19 7 20 10 21 8 22 9 23 22 24
REMARK SMILES IDX 23 25 24 26 25 27 26 28 27 30 28 31 29 32 81 33 30 34 80 35
REMARK SMILES IDX 31 36 32 37 33 38 74 39 34 40 79 41 73 42 75 43 35 44 78 45
REMARK SMILES IDX 72 46 71 47 36 49 62 50 45 51 61 52 46 53 49 54 60 55 76 56
REMARK SMILES IDX 47 57 48 58 59 60 77 61 50 62 37 63 38 64 43 65 39 66 40 67
REMARK SMILES IDX 42 68 44 69 41 70 63 71 64 72 69 73 65 74 66 75 68 76 70 77
REMARK SMILES IDX 67 78 51 79 52 80 57 81 53 82 54 83 56 84 58 85 55 86
REMARK H PARENT 20 5 12 14 25 29 75 48 49 59
REMARK Flexibility Score: inf
ROOT
ATOM      1  C   UNL     1       2.923  -0.512  -2.373  1.00  0.00     0.116 C 
ENDROOT
BRANCH   1   2
ATOM      2  N   UNL     1       1.527  -0.748  -2.667  1.00  0.00    -0.352 N 
ATOM      3  C   UNL     1       0.647  -1.645  -2.099  1.00  0.00     0.254 C 
ATOM      4  O   UNL     1      -0.491  -1.696  -2.567  1.00  0.00    -0.269 OA
ATOM      5  H   UNL     1       1.147  -0.183  -3.378  1.00  0.00     0.163 HD
BRANCH   3   6
ATOM      6  C   UNL     1       1.092  -2.615  -1.096  1.00  0.00     0.074 A 
ATOM      7  C   UNL     1       1.872  -2.430   0.030  1.00  0.00     0.108 A 
ATOM      8  S   UNL     1       2.328  -3.897   0.780  1.00  0.00    -0.126 S 
ATOM      9  C   UNL     1       1.279  -4.800  -0.212  1.00  0.00     0.068 A 
ATOM     10  C   UNL     1       0.687  -4.005  -1.166  1.00  0.00     0.028 A 
BRANCH   7  11
ATOM     11  N   UNL     1       2.391  -1.354   0.708  1.00  0.00    -0.314 N 
ATOM     12  O   UNL     1       0.809   0.253   0.137  1.00  0.00    -0.271 OA
ATOM     13  C   UNL     1       1.860  -0.080   0.674  1.00  0.00     0.262 C 
ATOM     14  H   UNL     1       3.195  -1.502   1.256  1.00  0.00     0.170 HD
BRANCH  13  15
ATOM     15  C   UNL     1       2.800   0.949   1.301  1.00  0.00     0.329 C 
BRANCH  15  16
ATOM     16  O   UNL     1       3.610   0.389   2.336  1.00  0.00    -0.484 OA
BRANCH  16  17
ATOM     17  C   UNL     1       3.062   0.681   3.553  1.00  0.00     0.120 A 
ATOM     18  C   UNL     1       2.095  -0.164   4.095  1.00  0.00     0.049 A 
ATOM     19  C   UNL     1       3.500   1.816   4.234  1.00  0.00     0.049 A 
ATOM     20  C   UNL     1       1.522   0.159   5.322  1.00  0.00     0.043 A 
ATOM     21  C   UNL     1       2.924   2.135   5.462  1.00  0.00     0.043 A 
ATOM     22  C   UNL     1       1.937   1.307   5.991  1.00  0.00     0.123 A 
ATOM     23  F   UNL     1       1.378   1.619   7.166  1.00  0.00    -0.207 F 
ENDBRANCH  16  17
ENDBRANCH  15  16
ENDBRANCH  13  15
ENDBRANCH   7  11
ENDBRANCH   3   6
ENDBRANCH   1   2
BRANCH   1  24
ATOM     24  C   UNL     1       3.690   0.234  -3.460  1.00  0.00     0.023 C 
BRANCH  24  25
ATOM     25  C   UNL     1       3.160   1.620  -3.840  1.00  0.00     0.023 C 
BRANCH  25  26
ATOM     26  C   UNL     1       2.807   2.577  -2.701  1.00  0.00     0.116 C 
BRANCH  26  27
ATOM     27  N   UNL     1       3.926   2.928  -1.836  1.00  0.00    -0.352 N 
ATOM     28  C   UNL     1       4.457   4.156  -1.509  1.00  0.00     0.251 C 
ATOM     29  H   UNL     1       4.377   2.161  -1.417  1.00  0.00     0.163 HD
ATOM     30  O   UNL     1       5.392   4.224  -0.716  1.00  0.00    -0.269 OA
BRANCH  28  31
ATOM     31  C   UNL     1       3.973   5.384  -2.177  1.00  0.00     0.039 A 
ATOM     32  C   UNL     1       4.913   6.191  -2.826  1.00  0.00     0.014 A 
ATOM     33  C   UNL     1       2.615   5.697  -2.245  1.00  0.00     0.014 A 
ATOM     34  C   UNL     1       4.481   7.214  -3.672  1.00  0.00     0.010 A 
ATOM     35  C   UNL     1       2.181   6.673  -3.140  1.00  0.00     0.010 A 
ATOM     36  C   UNL     1       3.109   7.401  -3.901  1.00  0.00    -0.014 A 
BRANCH  36  37
ATOM     37  C   UNL     1       2.629   8.248  -5.023  1.00  0.00     0.031 A 
ATOM     38  C   UNL     1       1.819   9.482  -4.771  1.00  0.00     0.074 A 
ATOM     39  C   UNL     1       2.853   7.838  -6.288  1.00  0.00     0.049 A 
ATOM     40  N   UNL     1       1.230  10.270  -5.635  1.00  0.00    -0.248 NA
ATOM     41  C   UNL     1       1.633   9.875  -3.368  1.00  0.00     0.031 C 
ATOM     42  C   UNL     1       3.603   6.638  -6.669  1.00  0.00     0.029 A 
ATOM     43  N   UNL     1       2.466   8.378  -7.489  1.00  0.00    -0.354 N 
ATOM     44  C   UNL     1       0.600  11.249  -4.882  1.00  0.00     0.074 A 
ATOM     45  C   UNL     1       0.844  10.933  -3.489  1.00  0.00     0.031 C 
ATOM     46  C   UNL     1       3.649   6.552  -8.007  1.00  0.00     0.029 A 
ATOM     47  C   UNL     1       2.889   7.658  -8.580  1.00  0.00     0.049 A 
ATOM     48  H   UNL     1       1.935   9.204  -7.562  1.00  0.00     0.167 HD
ATOM     49  C   UNL     1      -0.103  12.323  -5.313  1.00  0.00     0.037 A 
ATOM     50  C   UNL     1       2.680   7.853  -9.895  1.00  0.00     0.037 A 
ATOM     51  C   UNL     1      -0.340  12.641  -6.697  1.00  0.00     0.049 A 
ATOM     52  C   UNL     1       1.840   9.011 -10.347  1.00  0.00     0.074 A 
ATOM     53  C   UNL     1      -0.997  13.737  -7.229  1.00  0.00     0.029 A 
ATOM     54  N   UNL     1       0.064  11.858  -7.768  1.00  0.00    -0.354 N 
ATOM     55  N   UNL     1       1.276   9.946  -9.624  1.00  0.00    -0.248 NA
ATOM     56  C   UNL     1       1.591   9.130 -11.790  1.00  0.00     0.031 C 
ATOM     57  C   UNL     1      -1.024  13.599  -8.620  1.00  0.00     0.029 A 
ATOM     58  C   UNL     1      -0.354  12.433  -8.957  1.00  0.00     0.049 A 
ATOM     59  H   UNL     1       0.572  11.019  -7.694  1.00  0.00     0.167 HD
ATOM     60  C   UNL     1       0.613  10.771 -10.522  1.00  0.00     0.074 A 
ATOM     61  C   UNL     1       0.851  10.230 -11.845  1.00  0.00     0.031 C 
ATOM     62  C   UNL     1      -0.124  11.879 -10.267  1.00  0.00     0.037 A 
BRANCH  49  63
ATOM     63  C   UNL     1      -0.662  13.240  -4.268  1.00  0.00     0.057 A 
ATOM     64  C   UNL     1      -2.038  13.284  -4.012  1.00  0.00     0.134 A 
ATOM     65  C   UNL     1       0.162  14.103  -3.534  1.00  0.00     0.134 A 
ATOM     66  F   UNL     1      -2.882  12.488  -4.684  1.00  0.00    -0.206 F 
ATOM     67  C   UNL     1      -2.574  14.153  -3.060  1.00  0.00     0.040 A 
ATOM     68  C   UNL     1      -0.359  14.961  -2.565  1.00  0.00     0.040 A 
ATOM     69  F   UNL     1       1.490  14.101  -3.727  1.00  0.00    -0.206 F 
ATOM     70  C   UNL     1      -1.733  14.990  -2.329  1.00  0.00     0.006 A 
ENDBRANCH  49  63
BRANCH  50  71
ATOM     71  C   UNL     1       3.299   6.929 -10.875  1.00  0.00     0.057 A 
ATOM     72  C   UNL     1       2.825   5.625 -11.059  1.00  0.00     0.134 A 
ATOM     73  C   UNL     1       4.420   7.322 -11.613  1.00  0.00     0.134 A 
ATOM     74  F   UNL     1       1.758   5.189 -10.375  1.00  0.00    -0.206 F 
ATOM     75  C   UNL     1       3.460   4.735 -11.928  1.00  0.00     0.040 A 
ATOM     76  C   UNL     1       5.056   6.449 -12.496  1.00  0.00     0.040 A 
ATOM     77  F   UNL     1       4.908   8.565 -11.487  1.00  0.00    -0.206 F 
ATOM     78  C   UNL     1       4.580   5.147 -12.649  1.00  0.00     0.006 A 
ENDBRANCH  50  71
BRANCH  62  79
ATOM     79  C   UNL     1      -0.734  12.587 -11.437  1.00  0.00     0.057 A 
ATOM     80  C   UNL     1      -0.205  13.800 -11.895  1.00  0.00     0.134 A 
ATOM     81  C   UNL     1      -1.895  12.108 -12.055  1.00  0.00     0.134 A 
ATOM     82  F   UNL     1       0.903  14.313 -11.340  1.00  0.00    -0.206 F 
ATOM     83  C   UNL     1      -0.822  14.522 -12.918  1.00  0.00     0.040 A 
ATOM     84  C   UNL     1      -2.511  12.813 -13.089  1.00  0.00     0.040 A 
ATOM     85  F   UNL     1      -2.440  10.945 -11.668  1.00  0.00    -0.206 F 
ATOM     86  C   UNL     1      -1.980  14.029 -13.516  1.00  0.00     0.006 A 
ENDBRANCH  62  79
ENDBRANCH  36  37
ENDBRANCH  28  31
ENDBRANCH  26  27
ENDBRANCH  25  26
ENDBRANCH  24  25
ENDBRANCH   1  24
TORSDOF 15
