REMARK SMILES O=C(NCCCCNC(=O)c1ccc(-n2cc(CSc3nc4ccccc4c(=O)n3-c3ccc(Cl)cc3)nn2)cc1)c1ccc(-c2c3nc(c(-c4c(F)cccc4F)c4ccc([nH]4)c(-c4c(F)cccc4F)c4nc(c(-c5c(F)cccc5F)c5ccc2[nH]5)C=C4)C=C3)cc1
REMARK SMILES IDX 7 1 6 2 5 3 4 4 3 5 1 6 2 7 42 9 43 10 95 11 44 12 94 13
REMARK SMILES IDX 45 14 46 15 47 16 88 17 48 18 93 19 87 20 89 21 49 22 92 23
REMARK SMILES IDX 86 24 85 25 50 27 76 28 59 29 75 30 60 31 63 32 74 33 90 34
REMARK SMILES IDX 61 35 62 36 73 38 91 39 64 40 51 41 52 42 57 43 53 44 54 45
REMARK SMILES IDX 56 46 58 47 55 48 77 49 78 50 83 51 79 52 80 53 82 54 84 55
REMARK SMILES IDX 81 56 65 57 66 58 71 59 67 60 68 61 70 62 72 63 69 64 8 65
REMARK SMILES IDX 9 66 10 68 11 69 12 70 41 71 13 72 40 73 14 74 15 75 16 76
REMARK SMILES IDX 39 77 17 78 38 79 18 80 19 81 20 82 21 83 30 84 22 85 28 86
REMARK SMILES IDX 23 87 27 88 29 89 24 90 26 91 25 92 31 93 32 94 37 95 33 96
REMARK SMILES IDX 36 97 34 98 35 99
REMARK H PARENT 3 8 89 26 63 37 8 67
REMARK Flexibility Score: inf
ROOT
ATOM      1  C   UNL     1       4.879  -3.597   1.872  1.00  0.00     0.116 C 
ENDROOT
BRANCH   1   2
ATOM      2  C   UNL     1       4.481  -2.285   2.543  1.00  0.00     0.023 C 
BRANCH   2   3
ATOM      3  C   UNL     1       4.997  -1.009   1.873  1.00  0.00     0.023 C 
BRANCH   3   4
ATOM      4  C   UNL     1       4.713  -0.888   0.376  1.00  0.00     0.116 C 
BRANCH   4   5
ATOM      5  N   UNL     1       3.317  -0.985   0.003  1.00  0.00    -0.352 N 
ATOM      6  O   UNL     1       1.243  -0.503  -0.590  1.00  0.00    -0.269 OA
ATOM      7  C   UNL     1       2.264  -0.112  -0.018  1.00  0.00     0.251 C 
ATOM      8  H   UNL     1       3.068  -1.885  -0.307  1.00  0.00     0.163 HD
BRANCH   7   9
ATOM      9  C   UNL     1       2.241   1.219   0.648  1.00  0.00     0.039 A 
ATOM     10  C   UNL     1       3.356   1.930   1.092  1.00  0.00     0.014 A 
ATOM     11  C   UNL     1       0.964   1.780   0.844  1.00  0.00     0.014 A 
ATOM     12  C   UNL     1       3.197   3.126   1.788  1.00  0.00     0.010 A 
ATOM     13  C   UNL     1       0.799   2.982   1.524  1.00  0.00     0.010 A 
ATOM     14  C   UNL     1       1.919   3.641   2.021  1.00  0.00    -0.014 A 
BRANCH  14  15
ATOM     15  C   UNL     1       1.808   4.973   2.614  1.00  0.00     0.031 A 
ATOM     16  C   UNL     1       2.314   6.076   1.747  1.00  0.00     0.074 A 
ATOM     17  C   UNL     1       1.147   5.238   3.759  1.00  0.00     0.049 A 
ATOM     18  N   UNL     1       3.249   6.934   2.001  1.00  0.00    -0.248 NA
ATOM     19  C   UNL     1       1.766   6.177   0.384  1.00  0.00     0.031 C 
ATOM     20  C   UNL     1       0.331   4.317   4.551  1.00  0.00     0.029 A 
ATOM     21  N   UNL     1       0.976   6.432   4.401  1.00  0.00    -0.354 N 
ATOM     22  C   UNL     1       3.278   7.801   0.909  1.00  0.00     0.074 A 
ATOM     23  C   UNL     1       2.459   7.203  -0.110  1.00  0.00     0.031 C 
ATOM     24  C   UNL     1      -0.412   5.025   5.431  1.00  0.00     0.029 A 
ATOM     25  C   UNL     1      -0.041   6.429   5.349  1.00  0.00     0.049 A 
ATOM     26  H   UNL     1       1.525   7.226   4.208  1.00  0.00     0.167 HD
ATOM     27  C   UNL     1       3.780   9.062   1.016  1.00  0.00     0.037 A 
ATOM     28  C   UNL     1      -0.581   7.506   5.974  1.00  0.00     0.037 A 
ATOM     29  C   UNL     1       4.658   9.185   2.151  1.00  0.00     0.049 A 
ATOM     30  C   UNL     1       0.363   8.638   5.834  1.00  0.00     0.074 A 
ATOM     31  C   UNL     1       5.817   8.558   2.568  1.00  0.00     0.029 A 
ATOM     32  N   UNL     1       4.200   9.872   3.246  1.00  0.00    -0.354 N 
ATOM     33  N   UNL     1       1.508   8.723   6.448  1.00  0.00    -0.248 NA
ATOM     34  C   UNL     1       0.201   9.523   4.691  1.00  0.00     0.031 C 
ATOM     35  C   UNL     1       5.717   8.502   3.990  1.00  0.00     0.029 A 
ATOM     36  C   UNL     1       4.530   9.138   4.352  1.00  0.00     0.049 A 
ATOM     37  H   UNL     1       3.722  10.732   3.238  1.00  0.00     0.167 HD
ATOM     38  C   UNL     1       2.353   9.316   5.525  1.00  0.00     0.074 A 
ATOM     39  C   UNL     1       1.471   9.892   4.515  1.00  0.00     0.031 C 
ATOM     40  C   UNL     1       3.689   9.037   5.520  1.00  0.00     0.037 A 
BRANCH  27  41
ATOM     41  C   UNL     1       3.160  10.274   0.351  1.00  0.00     0.057 A 
ATOM     42  C   UNL     1       3.792  11.526   0.488  1.00  0.00     0.134 A 
ATOM     43  C   UNL     1       1.833  10.329  -0.122  1.00  0.00     0.134 A 
ATOM     44  F   UNL     1       5.056  11.615   0.930  1.00  0.00    -0.206 F 
ATOM     45  C   UNL     1       3.119  12.736   0.280  1.00  0.00     0.040 A 
ATOM     46  C   UNL     1       1.170  11.532  -0.385  1.00  0.00     0.040 A 
ATOM     47  F   UNL     1       1.069   9.240  -0.262  1.00  0.00    -0.206 F 
ATOM     48  C   UNL     1       1.798  12.742  -0.144  1.00  0.00     0.006 A 
ENDBRANCH  27  41
BRANCH  28  49
ATOM     49  C   UNL     1      -1.963   7.714   6.468  1.00  0.00     0.057 A 
ATOM     50  C   UNL     1      -2.269   8.758   7.354  1.00  0.00     0.134 A 
ATOM     51  C   UNL     1      -3.062   7.076   5.868  1.00  0.00     0.134 A 
ATOM     52  F   UNL     1      -1.292   9.458   7.948  1.00  0.00    -0.206 F 
ATOM     53  C   UNL     1      -3.587   9.163   7.606  1.00  0.00     0.040 A 
ATOM     54  C   UNL     1      -4.383   7.464   6.118  1.00  0.00     0.040 A 
ATOM     55  F   UNL     1      -2.890   6.117   4.948  1.00  0.00    -0.206 F 
ATOM     56  C   UNL     1      -4.649   8.522   6.977  1.00  0.00     0.006 A 
ENDBRANCH  28  49
BRANCH  40  57
ATOM     57  C   UNL     1       4.268   8.339   6.717  1.00  0.00     0.057 A 
ATOM     58  C   UNL     1       3.891   7.057   7.144  1.00  0.00     0.134 A 
ATOM     59  C   UNL     1       5.342   8.940   7.382  1.00  0.00     0.134 A 
ATOM     60  F   UNL     1       2.942   6.360   6.505  1.00  0.00    -0.206 F 
ATOM     61  C   UNL     1       4.523   6.427   8.220  1.00  0.00     0.040 A 
ATOM     62  C   UNL     1       6.006   8.305   8.433  1.00  0.00     0.040 A 
ATOM     63  F   UNL     1       5.793  10.142   6.992  1.00  0.00    -0.206 F 
ATOM     64  C   UNL     1       5.589   7.049   8.864  1.00  0.00     0.006 A 
ENDBRANCH  40  57
ENDBRANCH  14  15
ENDBRANCH   7   9
ENDBRANCH   4   5
ENDBRANCH   3   4
ENDBRANCH   2   3
ENDBRANCH   1   2
BRANCH   1  65
ATOM     65  N   UNL     1       6.316  -3.804   1.848  1.00  0.00    -0.352 N 
ATOM     66  C   UNL     1       7.063  -4.828   2.384  1.00  0.00     0.251 C 
ATOM     67  H   UNL     1       6.832  -3.109   1.378  1.00  0.00     0.163 HD
ATOM     68  O   UNL     1       8.280  -4.780   2.361  1.00  0.00    -0.269 OA
BRANCH  66  69
ATOM     69  C   UNL     1       6.382  -5.984   3.008  1.00  0.00     0.039 A 
ATOM     70  C   UNL     1       6.741  -6.348   4.308  1.00  0.00     0.016 A 
ATOM     71  C   UNL     1       5.433  -6.729   2.303  1.00  0.00     0.016 A 
ATOM     72  C   UNL     1       6.113  -7.432   4.927  1.00  0.00     0.029 A 
ATOM     73  C   UNL     1       4.807  -7.818   2.916  1.00  0.00     0.029 A 
ATOM     74  C   UNL     1       5.152  -8.178   4.229  1.00  0.00     0.066 A 
BRANCH  74  75
ATOM     75  N   UNL     1       4.592  -9.330   4.837  1.00  0.00    -0.220 N 
ATOM     76  C   UNL     1       3.825 -10.306   4.251  1.00  0.00     0.141 A 
ATOM     77  N   UNL     1       4.786  -9.647   6.140  1.00  0.00    -0.062 NA
ATOM     78  C   UNL     1       3.707 -11.295   5.205  1.00  0.00     0.093 A 
ATOM     79  N   UNL     1       4.255 -10.842   6.370  1.00  0.00    -0.134 NA
BRANCH  78  80
ATOM     80  C   UNL     1       2.977 -12.576   5.119  1.00  0.00     0.138 C 
BRANCH  80  81
ATOM     81  S   UNL     1       3.842 -14.140   4.926  1.00  0.00    -0.081 SA
BRANCH  81  82
ATOM     82  C   UNL     1       5.547 -13.903   4.638  1.00  0.00     0.176 A 
ATOM     83  N   UNL     1       6.273 -14.738   5.324  1.00  0.00    -0.223 NA
ATOM     84  N   UNL     1       6.115 -12.992   3.753  1.00  0.00    -0.255 N 
ATOM     85  C   UNL     1       7.665 -14.655   5.230  1.00  0.00     0.079 A 
ATOM     86  C   UNL     1       7.372 -12.508   4.150  1.00  0.00     0.266 A 
ATOM     87  C   UNL     1       8.477 -15.711   5.645  1.00  0.00     0.029 A 
ATOM     88  C   UNL     1       8.265 -13.486   4.788  1.00  0.00     0.066 A 
ATOM     89  O   UNL     1       7.784 -11.358   4.005  1.00  0.00    -0.268 OA
ATOM     90  C   UNL     1       9.869 -15.564   5.671  1.00  0.00     0.002 A 
ATOM     91  C   UNL     1       9.650 -13.302   4.858  1.00  0.00     0.016 A 
ATOM     92  C   UNL     1      10.453 -14.348   5.311  1.00  0.00     0.001 A 
BRANCH  84  93
ATOM     93  C   UNL     1       5.560 -12.505   2.499  1.00  0.00     0.051 A 
ATOM     94  C   UNL     1       6.362 -11.746   1.618  1.00  0.00     0.028 A 
ATOM     95  C   UNL     1       4.267 -12.781   2.035  1.00  0.00     0.028 A 
ATOM     96  C   UNL     1       5.854 -11.139   0.463  1.00  0.00     0.022 A 
ATOM     97  C   UNL     1       3.726 -12.132   0.912  1.00  0.00     0.022 A 
ATOM     98  C   UNL     1       4.515 -11.285   0.149  1.00  0.00     0.041 A 
ATOM     99  Cl  UNL     1       3.837 -10.427  -1.173  1.00  0.00    -0.084 Cl
ENDBRANCH  84  93
ENDBRANCH  81  82
ENDBRANCH  80  81
ENDBRANCH  78  80
ENDBRANCH  74  75
ENDBRANCH  66  69
ENDBRANCH   1  65
TORSDOF 16
