REMARK SMILES CC(=O)Nc1ccc(/C=C2/CCc3oc(C(=O)NCCCCNC(=O)c4ccc(-c5c6nc(c(-c7c(F)cccc7F)c7ccc([nH]7)c(-c7c(F)cccc7F)c7nc(c(-c8c(F)cccc8F)c8ccc5[nH]8)C=C7)C=C6)cc4)c(C)c3C2=O)cc1
REMARK SMILES IDX 20 1 19 2 18 3 16 4 17 5 15 7 9 8 10 9 11 10 83 11 12 12
REMARK SMILES IDX 82 13 84 14 13 15 80 16 14 17 81 18 8 19 5 20 6 21 86 22
REMARK SMILES IDX 7 23 85 24 4 25 1 26 2 27 3 28 21 30 22 31 23 32 24 33 25 35
REMARK SMILES IDX 26 36 27 37 79 38 28 39 78 40 29 41 30 42 31 43 72 44 32 45
REMARK SMILES IDX 77 46 71 47 73 48 33 49 76 50 70 51 69 52 34 54 60 55 43 56
REMARK SMILES IDX 59 57 44 58 47 59 58 60 74 61 45 62 46 63 57 65 75 66 48 67
REMARK SMILES IDX 35 68 36 69 41 70 37 71 38 72 40 73 42 74 39 75 61 76 62 77
REMARK SMILES IDX 67 78 63 79 64 80 66 81 68 82 65 83 49 84 50 85 55 86 51 87
REMARK SMILES IDX 52 88 54 89 56 90 53 91
REMARK H PARENT 18 6 4 29 23 34 73 53 47 64
REMARK Flexibility Score: inf
ROOT
ATOM      1  C   UNL     1       1.818  -0.764 -13.714  1.00  0.00     0.023 C 
ENDROOT
BRANCH   1   2
ATOM      2  C   UNL     1       1.012  -0.225 -12.531  1.00  0.00     0.116 C 
BRANCH   2   3
ATOM      3  N   UNL     1      -0.075  -1.111 -12.141  1.00  0.00    -0.349 N 
ATOM      4  C   UNL     1      -0.258  -1.936 -11.049  1.00  0.00     0.287 C 
ATOM      5  O   UNL     1      -1.338  -2.533 -11.016  1.00  0.00    -0.266 OA
ATOM      6  H   UNL     1      -0.825  -1.124 -12.778  1.00  0.00     0.163 HD
BRANCH   4   7
ATOM      7  C   UNL     1       0.759  -2.092 -10.017  1.00  0.00     0.195 A 
ATOM      8  C   UNL     1       3.942  -1.803  -5.343  1.00  0.00     0.016 C 
ATOM      9  C   UNL     1       3.821  -2.251  -6.609  1.00  0.00     0.001 C 
ATOM     10  C   UNL     1       4.734  -1.755  -7.726  1.00  0.00     0.048 C 
ATOM     11  C   UNL     1       2.744  -3.183  -7.097  1.00  0.00     0.192 C 
ATOM     12  C   UNL     1       3.941  -0.963  -8.784  1.00  0.00     0.081 C 
ATOM     13  C   UNL     1       2.074  -2.645  -8.262  1.00  0.00     0.067 A 
ATOM     14  O   UNL     1       2.508  -4.281  -6.608  1.00  0.00    -0.289 OA
ATOM     15  C   UNL     1       2.656  -1.657  -9.015  1.00  0.00     0.116 A 
ATOM     16  C   UNL     1       0.814  -2.912  -8.882  1.00  0.00     0.012 A 
ATOM     17  O   UNL     1       1.896  -1.330 -10.069  1.00  0.00    -0.455 OA
ATOM     18  C   UNL     1      -0.211  -3.860  -8.364  1.00  0.00     0.049 C 
BRANCH   8  19
ATOM     19  C   UNL     1       3.113  -1.996  -4.132  1.00  0.00    -0.025 A 
ATOM     20  C   UNL     1       1.580  -2.146  -1.749  1.00  0.00     0.041 A 
ATOM     21  C   UNL     1       1.166  -2.803  -2.902  1.00  0.00     0.027 A 
ATOM     22  C   UNL     1       2.785  -1.450  -1.766  1.00  0.00     0.027 A 
ATOM     23  C   UNL     1       1.902  -2.690  -4.085  1.00  0.00     0.010 A 
ATOM     24  C   UNL     1       3.547  -1.387  -2.942  1.00  0.00     0.010 A 
BRANCH  20  25
ATOM     25  N   UNL     1       0.760  -2.262  -0.620  1.00  0.00    -0.326 N 
ATOM     26  C   UNL     1       0.932   0.066   0.221  1.00  0.00     0.114 C 
ATOM     27  C   UNL     1       0.509  -1.370   0.382  1.00  0.00     0.221 C 
ATOM     28  O   UNL     1      -0.138  -1.734   1.366  1.00  0.00    -0.275 OA
ATOM     29  H   UNL     1       0.291  -3.123  -0.535  1.00  0.00     0.169 HD
ENDBRANCH  20  25
ENDBRANCH   8  19
ENDBRANCH   4   7
ENDBRANCH   2   3
ENDBRANCH   1   2
BRANCH   1  30
ATOM     30  C   UNL     1       1.103  -0.715 -15.073  1.00  0.00     0.023 C 
BRANCH  30  31
ATOM     31  C   UNL     1       0.671   0.678 -15.528  1.00  0.00     0.116 C 
BRANCH  31  32
ATOM     32  N   UNL     1       1.794   1.593 -15.711  1.00  0.00    -0.352 N 
ATOM     33  C   UNL     1       1.756   2.937 -16.020  1.00  0.00     0.251 C 
ATOM     34  H   UNL     1       2.691   1.202 -15.601  1.00  0.00     0.163 HD
ATOM     35  O   UNL     1       2.726   3.487 -16.529  1.00  0.00    -0.269 OA
BRANCH  33  36
ATOM     36  C   UNL     1       0.533   3.714 -15.739  1.00  0.00     0.039 A 
ATOM     37  C   UNL     1       0.062   4.649 -16.665  1.00  0.00     0.014 A 
ATOM     38  C   UNL     1      -0.145   3.502 -14.539  1.00  0.00     0.014 A 
ATOM     39  C   UNL     1      -1.147   5.294 -16.418  1.00  0.00     0.010 A 
ATOM     40  C   UNL     1      -1.388   4.067 -14.339  1.00  0.00     0.010 A 
ATOM     41  C   UNL     1      -1.890   4.974 -15.268  1.00  0.00    -0.014 A 
BRANCH  41  42
ATOM     42  C   UNL     1      -3.278   5.432 -15.152  1.00  0.00     0.031 A 
ATOM     43  C   UNL     1      -4.123   5.043 -16.316  1.00  0.00     0.074 A 
ATOM     44  C   UNL     1      -3.827   5.948 -14.029  1.00  0.00     0.049 A 
ATOM     45  N   UNL     1      -4.662   5.822 -17.193  1.00  0.00    -0.248 NA
ATOM     46  C   UNL     1      -4.266   3.611 -16.632  1.00  0.00     0.031 C 
ATOM     47  C   UNL     1      -3.190   6.072 -12.713  1.00  0.00     0.029 A 
ATOM     48  N   UNL     1      -5.104   6.377 -13.787  1.00  0.00    -0.354 N 
ATOM     49  C   UNL     1      -5.415   4.994 -18.026  1.00  0.00     0.074 A 
ATOM     50  C   UNL     1      -4.968   3.654 -17.767  1.00  0.00     0.031 C 
ATOM     51  C   UNL     1      -4.129   6.324 -11.775  1.00  0.00     0.029 A 
ATOM     52  C   UNL     1      -5.402   6.550 -12.436  1.00  0.00     0.049 A 
ATOM     53  H   UNL     1      -5.756   6.550 -14.505  1.00  0.00     0.167 HD
ATOM     54  C   UNL     1      -6.548   5.469 -18.614  1.00  0.00     0.037 A 
ATOM     55  C   UNL     1      -6.598   6.867 -11.882  1.00  0.00     0.037 A 
ATOM     56  C   UNL     1      -6.593   6.907 -18.518  1.00  0.00     0.049 A 
ATOM     57  C   UNL     1      -7.434   7.485 -12.931  1.00  0.00     0.074 A 
ATOM     58  C   UNL     1      -5.991   7.982 -19.130  1.00  0.00     0.029 A 
ATOM     59  N   UNL     1      -7.139   7.353 -17.346  1.00  0.00    -0.354 N 
ATOM     60  N   UNL     1      -7.199   8.663 -13.434  1.00  0.00    -0.248 NA
ATOM     61  C   UNL     1      -8.386   6.664 -13.672  1.00  0.00     0.031 C 
ATOM     62  C   UNL     1      -6.077   9.066 -18.205  1.00  0.00     0.029 A 
ATOM     63  C   UNL     1      -6.763   8.637 -17.073  1.00  0.00     0.049 A 
ATOM     64  H   UNL     1      -7.729   6.815 -16.771  1.00  0.00     0.167 HD
ATOM     65  C   UNL     1      -7.599   8.549 -14.747  1.00  0.00     0.074 A 
ATOM     66  C   UNL     1      -8.491   7.397 -14.783  1.00  0.00     0.031 C 
ATOM     67  C   UNL     1      -6.899   9.169 -15.737  1.00  0.00     0.037 A 
BRANCH  54  68
ATOM     68  C   UNL     1      -7.842   4.685 -18.793  1.00  0.00     0.057 A 
ATOM     69  C   UNL     1      -8.948   5.340 -19.377  1.00  0.00     0.134 A 
ATOM     70  C   UNL     1      -8.155   3.475 -18.143  1.00  0.00     0.134 A 
ATOM     71  F   UNL     1      -8.796   6.499 -20.036  1.00  0.00    -0.206 F 
ATOM     72  C   UNL     1     -10.264   4.879 -19.236  1.00  0.00     0.040 A 
ATOM     73  C   UNL     1      -9.462   2.983 -18.036  1.00  0.00     0.040 A 
ATOM     74  F   UNL     1      -7.244   2.744 -17.495  1.00  0.00    -0.206 F 
ATOM     75  C   UNL     1     -10.527   3.703 -18.551  1.00  0.00     0.006 A 
ENDBRANCH  54  68
BRANCH  55  76
ATOM     76  C   UNL     1      -7.146   6.597 -10.535  1.00  0.00     0.057 A 
ATOM     77  C   UNL     1      -8.205   7.355 -10.011  1.00  0.00     0.134 A 
ATOM     78  C   UNL     1      -6.839   5.409  -9.852  1.00  0.00     0.134 A 
ATOM     79  F   UNL     1      -8.589   8.494 -10.606  1.00  0.00    -0.206 F 
ATOM     80  C   UNL     1      -8.948   6.933  -8.902  1.00  0.00     0.040 A 
ATOM     81  C   UNL     1      -7.571   4.978  -8.739  1.00  0.00     0.040 A 
ATOM     82  F   UNL     1      -5.880   4.586 -10.300  1.00  0.00    -0.206 F 
ATOM     83  C   UNL     1      -8.643   5.731  -8.272  1.00  0.00     0.006 A 
ENDBRANCH  55  76
BRANCH  67  84
ATOM     84  C   UNL     1      -6.092  10.370 -15.361  1.00  0.00     0.057 A 
ATOM     85  C   UNL     1      -4.961  10.348 -14.535  1.00  0.00     0.134 A 
ATOM     86  C   UNL     1      -6.449  11.600 -15.925  1.00  0.00     0.134 A 
ATOM     87  F   UNL     1      -4.506   9.204 -14.007  1.00  0.00    -0.206 F 
ATOM     88  C   UNL     1      -4.239  11.512 -14.255  1.00  0.00     0.040 A 
ATOM     89  C   UNL     1      -5.717  12.761 -15.682  1.00  0.00     0.040 A 
ATOM     90  F   UNL     1      -7.503  11.683 -16.753  1.00  0.00    -0.206 F 
ATOM     91  C   UNL     1      -4.613  12.722 -14.835  1.00  0.00     0.006 A 
ENDBRANCH  67  84
ENDBRANCH  41  42
ENDBRANCH  33  36
ENDBRANCH  31  32
ENDBRANCH  30  31
ENDBRANCH   1  30
TORSDOF 13
