REMARK SMILES NS(=O)(=O)c1ccc(-n2nc(NC(=O)NCCCC(=O)NCCCCNC(=O)c3ccc(-c4c5nc(c(-c6c(F)cccc6F)c6ccc([nH]6)c(-c6c(F)cccc6F)c6nc(c(-c7c(F)cccc7F)c7ccc4[nH]7)C=C6)C=C5)cc3)cc2-c2ccccc2)cc1
REMARK SMILES IDX 19 1 20 2 21 3 18 5 17 6 16 7 15 8 12 9 13 10 14 12 11 14
REMARK SMILES IDX 9 15 10 16 84 17 83 18 8 19 5 20 6 21 92 22 7 23 91 24 2 25
REMARK SMILES IDX 3 26 4 27 1 28 85 31 86 32 90 33 87 34 89 35 88 36 22 37
REMARK SMILES IDX 23 38 24 39 25 40 26 41 27 42 28 44 29 45 30 46 82 47 31 48
REMARK SMILES IDX 81 49 32 50 33 51 34 52 75 53 35 54 80 55 74 56 76 57 36 58
REMARK SMILES IDX 79 59 73 60 72 61 37 63 63 64 46 65 62 66 47 67 50 68 61 69
REMARK SMILES IDX 77 70 48 71 49 72 60 74 78 75 51 76 38 77 39 78 44 79 40 80
REMARK SMILES IDX 41 81 43 82 45 83 42 84 64 85 65 86 70 87 66 88 67 89 69 90
REMARK SMILES IDX 71 91 68 92 52 93 53 94 58 95 54 96 55 97 57 98 59 99 56 100
REMARK H PARENT 21 4 12 11 15 13 1 29 1 30 26 43 76 62 50 73
REMARK Flexibility Score: inf
ROOT
ATOM      1  C   UNL     1      -1.636   1.276   7.588  1.00  0.00     0.220 C 
ATOM      2  O   UNL     1      -1.904   1.829   6.519  1.00  0.00    -0.275 OA
ATOM      3  N   UNL     1      -0.589   1.766   8.311  1.00  0.00    -0.356 N 
ATOM      4  H   UNL     1      -0.221   2.615   7.974  1.00  0.00     0.163 HD
ENDROOT
BRANCH   1   5
ATOM      5  C   UNL     1      -2.479   0.115   8.092  1.00  0.00     0.102 C 
BRANCH   5   6
ATOM      6  C   UNL     1      -2.160  -1.235   7.447  1.00  0.00     0.031 C 
BRANCH   6   7
ATOM      7  C   UNL     1      -0.837  -1.845   7.880  1.00  0.00     0.118 C 
BRANCH   7   8
ATOM      8  N   UNL     1      -0.703  -2.133   9.296  1.00  0.00    -0.338 N 
ATOM      9  N   UNL     1       1.337  -3.375   9.429  1.00  0.00    -0.291 N 
ATOM     10  C   UNL     1       0.252  -2.795   9.987  1.00  0.00     0.320 C 
ATOM     11  H   UNL     1       1.768  -4.053   9.999  1.00  0.00     0.173 HD
ATOM     12  O   UNL     1       0.054  -2.962  11.195  1.00  0.00    -0.248 OA
ATOM     13  H   UNL     1      -1.438  -1.786   9.851  1.00  0.00     0.165 HD
BRANCH   9  14
ATOM     14  C   UNL     1       1.950  -3.193   8.214  1.00  0.00     0.157 A 
ATOM     15  N   UNL     1       2.292  -2.415   6.276  1.00  0.00    -0.231 N 
ATOM     16  N   UNL     1       1.917  -2.064   7.515  1.00  0.00    -0.149 NA
ATOM     17  C   UNL     1       3.018  -3.595   6.304  1.00  0.00     0.076 A 
ATOM     18  C   UNL     1       2.778  -4.132   7.559  1.00  0.00     0.078 A 
BRANCH  15  19
ATOM     19  C   UNL     1       1.850  -1.646   5.164  1.00  0.00     0.065 A 
ATOM     20  C   UNL     1       0.969  -0.128   2.997  1.00  0.00     0.082 A 
ATOM     21  C   UNL     1       1.013  -1.521   2.894  1.00  0.00     0.024 A 
ATOM     22  C   UNL     1       1.332   0.511   4.185  1.00  0.00     0.024 A 
ATOM     23  C   UNL     1       1.461  -2.280   3.976  1.00  0.00     0.030 A 
ATOM     24  C   UNL     1       1.755  -0.252   5.275  1.00  0.00     0.030 A 
BRANCH  20  25
ATOM     25  S   UNL     1       0.532   0.851   1.593  1.00  0.00     0.238 S 
ATOM     26  O   UNL     1       1.200   2.124   1.676  1.00  0.00    -0.207 OA
ATOM     27  O   UNL     1      -0.890   0.717   1.356  1.00  0.00    -0.207 OA
BRANCH  25  28
ATOM     28  N   UNL     1       1.289   0.050   0.320  1.00  0.00    -0.225 NA
ATOM     29  H   UNL     1       1.098   0.542  -0.553  1.00  0.00     0.137 HD
ATOM     30  H   UNL     1       0.933  -0.904   0.258  1.00  0.00     0.137 HD
ENDBRANCH  25  28
ENDBRANCH  20  25
ENDBRANCH  15  19
BRANCH  17  31
ATOM     31  C   UNL     1       3.836  -4.047   5.189  1.00  0.00     0.000 A 
ATOM     32  C   UNL     1       4.761  -3.159   4.616  1.00  0.00     0.010 A 
ATOM     33  C   UNL     1       3.647  -5.308   4.621  1.00  0.00     0.010 A 
ATOM     34  C   UNL     1       5.450  -3.508   3.458  1.00  0.00     0.001 A 
ATOM     35  C   UNL     1       4.342  -5.655   3.461  1.00  0.00     0.001 A 
ATOM     36  C   UNL     1       5.233  -4.753   2.877  1.00  0.00     0.000 A 
ENDBRANCH  17  31
ENDBRANCH   9  14
ENDBRANCH   7   8
ENDBRANCH   6   7
ENDBRANCH   5   6
ENDBRANCH   1   5
BRANCH   3  37
ATOM     37  C   UNL     1       0.077   1.246   9.496  1.00  0.00     0.116 C 
BRANCH  37  38
ATOM     38  C   UNL     1       1.459   0.684   9.156  1.00  0.00     0.023 C 
BRANCH  38  39
ATOM     39  C   UNL     1       2.589   1.678   8.880  1.00  0.00     0.023 C 
BRANCH  39  40
ATOM     40  C   UNL     1       3.115   2.385  10.115  1.00  0.00     0.116 C 
BRANCH  40  41
ATOM     41  N   UNL     1       3.719   1.469  11.083  1.00  0.00    -0.352 N 
ATOM     42  C   UNL     1       4.030   1.731  12.402  1.00  0.00     0.251 C 
ATOM     43  H   UNL     1       3.928   0.564  10.756  1.00  0.00     0.163 HD
ATOM     44  O   UNL     1       4.880   1.087  13.004  1.00  0.00    -0.269 OA
BRANCH  42  45
ATOM     45  C   UNL     1       3.295   2.812  13.075  1.00  0.00     0.039 A 
ATOM     46  C   UNL     1       3.960   3.788  13.819  1.00  0.00     0.014 A 
ATOM     47  C   UNL     1       1.918   2.876  12.862  1.00  0.00     0.014 A 
ATOM     48  C   UNL     1       3.237   4.891  14.261  1.00  0.00     0.010 A 
ATOM     49  C   UNL     1       1.239   4.027  13.178  1.00  0.00     0.010 A 
ATOM     50  C   UNL     1       1.882   5.023  13.906  1.00  0.00    -0.014 A 
BRANCH  50  51
ATOM     51  C   UNL     1       1.178   6.280  14.143  1.00  0.00     0.031 A 
ATOM     52  C   UNL     1       1.877   7.474  13.589  1.00  0.00     0.074 A 
ATOM     53  C   UNL     1      -0.081   6.353  14.630  1.00  0.00     0.049 A 
ATOM     54  N   UNL     1       2.471   8.407  14.254  1.00  0.00    -0.248 NA
ATOM     55  C   UNL     1       2.088   7.561  12.133  1.00  0.00     0.031 C 
ATOM     56  C   UNL     1      -1.004   5.250  14.921  1.00  0.00     0.029 A 
ATOM     57  N   UNL     1      -0.848   7.451  14.883  1.00  0.00    -0.354 N 
ATOM     58  C   UNL     1       2.925   9.324  13.309  1.00  0.00     0.074 A 
ATOM     59  C   UNL     1       2.844   8.657  12.037  1.00  0.00     0.031 C 
ATOM     60  C   UNL     1      -2.257   5.732  15.080  1.00  0.00     0.029 A 
ATOM     61  C   UNL     1      -2.200   7.182  15.079  1.00  0.00     0.049 A 
ATOM     62  H   UNL     1      -0.475   8.362  14.925  1.00  0.00     0.167 HD
ATOM     63  C   UNL     1       3.064  10.639  13.636  1.00  0.00     0.037 A 
ATOM     64  C   UNL     1      -3.203   8.086  15.219  1.00  0.00     0.037 A 
ATOM     65  C   UNL     1       3.031  10.811  15.069  1.00  0.00     0.049 A 
ATOM     66  C   UNL     1      -2.579   9.374  15.600  1.00  0.00     0.074 A 
ATOM     67  C   UNL     1       3.786  10.360  16.133  1.00  0.00     0.029 A 
ATOM     68  N   UNL     1       1.845  11.249  15.604  1.00  0.00    -0.354 N 
ATOM     69  N   UNL     1      -2.008   9.592  16.750  1.00  0.00    -0.248 NA
ATOM     70  C   UNL     1      -2.202  10.285  14.532  1.00  0.00     0.031 C 
ATOM     71  C   UNL     1       2.847  10.129  17.182  1.00  0.00     0.029 A 
ATOM     72  C   UNL     1       1.586  10.524  16.734  1.00  0.00     0.049 A 
ATOM     73  H   UNL     1       1.278  11.965  15.236  1.00  0.00     0.167 HD
ATOM     74  C   UNL     1      -0.880  10.335  16.441  1.00  0.00     0.074 A 
ATOM     75  C   UNL     1      -1.114  10.827  15.084  1.00  0.00     0.031 C 
ATOM     76  C   UNL     1       0.250  10.226  17.199  1.00  0.00     0.037 A 
BRANCH  63  77
ATOM     77  C   UNL     1       2.774  11.800  12.705  1.00  0.00     0.057 A 
ATOM     78  C   UNL     1       2.991  13.111  13.176  1.00  0.00     0.134 A 
ATOM     79  C   UNL     1       2.001  11.713  11.530  1.00  0.00     0.134 A 
ATOM     80  F   UNL     1       3.712  13.335  14.285  1.00  0.00    -0.206 F 
ATOM     81  C   UNL     1       2.393  14.232  12.588  1.00  0.00     0.040 A 
ATOM     82  C   UNL     1       1.442  12.833  10.906  1.00  0.00     0.040 A 
ATOM     83  F   UNL     1       1.656  10.547  10.975  1.00  0.00    -0.206 F 
ATOM     84  C   UNL     1       1.603  14.094  11.455  1.00  0.00     0.006 A 
ENDBRANCH  63  77
BRANCH  64  85
ATOM     85  C   UNL     1      -4.624   8.009  14.808  1.00  0.00     0.057 A 
ATOM     86  C   UNL     1      -5.567   8.932  15.287  1.00  0.00     0.134 A 
ATOM     87  C   UNL     1      -5.028   7.232  13.709  1.00  0.00     0.134 A 
ATOM     88  F   UNL     1      -5.266   9.745  16.311  1.00  0.00    -0.206 F 
ATOM     89  C   UNL     1      -6.821   9.104  14.684  1.00  0.00     0.040 A 
ATOM     90  C   UNL     1      -6.279   7.391  13.100  1.00  0.00     0.040 A 
ATOM     91  F   UNL     1      -4.187   6.363  13.131  1.00  0.00    -0.206 F 
ATOM     92  C   UNL     1      -7.173   8.342  13.575  1.00  0.00     0.006 A 
ENDBRANCH  64  85
BRANCH  76  93
ATOM     93  C   UNL     1       0.135   9.557  18.541  1.00  0.00     0.057 A 
ATOM     94  C   UNL     1      -0.229   8.217  18.742  1.00  0.00     0.134 A 
ATOM     95  C   UNL     1       0.543  10.277  19.670  1.00  0.00     0.134 A 
ATOM     96  F   UNL     1      -0.546   7.418  17.715  1.00  0.00    -0.206 F 
ATOM     97  C   UNL     1      -0.228   7.637  20.016  1.00  0.00     0.040 A 
ATOM     98  C   UNL     1       0.584   9.700  20.940  1.00  0.00     0.040 A 
ATOM     99  F   UNL     1       0.953  11.550  19.548  1.00  0.00    -0.206 F 
ATOM    100  C   UNL     1       0.187   8.378  21.119  1.00  0.00     0.006 A 
ENDBRANCH  76  93
ENDBRANCH  50  51
ENDBRANCH  42  45
ENDBRANCH  40  41
ENDBRANCH  39  40
ENDBRANCH  38  39
ENDBRANCH  37  38
ENDBRANCH   3  37
TORSDOF 19
