REMARK SMILES CC(C)(C)OC(=O)N[C@H](Cc1ccc(N=[N+]=[N-])cc1)C(=O)NCCCCNC(=O)c1ccc(-c2c3nc(c(-c4c(F)cccc4F)c4ccc([nH]4)c(-c4c(F)cccc4F)c4nc(c(-c5c(F)cccc5F)c5ccc2[nH]5)C=C4)C=C3)cc1
REMARK SMILES IDX 24 1 23 2 22 3 20 4 21 5 9 7 8 8 6 9 7 10 5 12 2 13 1 14
REMARK SMILES IDX 3 15 4 16 10 17 11 18 12 19 19 20 13 21 18 22 14 23 15 24
REMARK SMILES IDX 16 25 17 26 25 27 26 28 27 29 28 30 29 32 30 33 31 34 83 35
REMARK SMILES IDX 32 36 82 37 33 38 34 39 35 40 76 41 36 42 81 43 75 44 77 45
REMARK SMILES IDX 37 46 80 47 74 48 73 49 38 51 64 52 47 53 63 54 48 55 51 56
REMARK SMILES IDX 62 57 78 58 49 59 50 60 61 62 79 63 52 64 39 65 40 66 45 67
REMARK SMILES IDX 41 68 42 69 44 70 46 71 43 72 65 73 66 74 71 75 67 76 68 77
REMARK SMILES IDX 70 78 72 79 69 80 53 81 54 82 59 83 55 84 56 85 58 86 60 87
REMARK SMILES IDX 57 88
REMARK H PARENT 22 6 8 11 27 31 77 50 51 61
REMARK Flexibility Score: inf
ROOT
ATOM      1  C   UNL     1      -0.062  -4.435   7.019  1.00  0.00     0.023 C 
ENDROOT
BRANCH   1   2
ATOM      2  C   UNL     1       1.261  -4.674   6.294  1.00  0.00     0.116 C 
BRANCH   2   3
ATOM      3  N   UNL     1       1.021  -5.015   4.910  1.00  0.00    -0.354 N 
ATOM      4  C   UNL     1       1.225  -4.293   3.772  1.00  0.00     0.243 C 
ATOM      5  O   UNL     1       0.675  -4.711   2.747  1.00  0.00    -0.273 OA
ATOM      6  H   UNL     1       0.649  -5.915   4.765  1.00  0.00     0.163 HD
BRANCH   4   7
ATOM      7  C   UNL     1       2.024  -2.969   3.749  1.00  0.00     0.179 C 
BRANCH   7   8
ATOM      8  N   UNL     1       3.335  -3.135   4.369  1.00  0.00    -0.309 N 
ATOM      9  C   UNL     1       4.486  -3.555   3.782  1.00  0.00     0.408 C 
ATOM     10  O   UNL     1       5.508  -3.650   4.448  1.00  0.00    -0.225 OA
ATOM     11  H   UNL     1       3.392  -2.917   5.327  1.00  0.00     0.167 HD
BRANCH   9  12
ATOM     12  O   UNL     1       4.359  -3.825   2.464  1.00  0.00    -0.444 OA
BRANCH  12  13
ATOM     13  C   UNL     1       5.519  -4.240   1.695  1.00  0.00     0.106 C 
ATOM     14  C   UNL     1       4.993  -4.497   0.275  1.00  0.00     0.056 C 
ATOM     15  C   UNL     1       6.119  -5.548   2.228  1.00  0.00     0.056 C 
ATOM     16  C   UNL     1       6.561  -3.117   1.632  1.00  0.00     0.056 C 
ENDBRANCH  12  13
ENDBRANCH   9  12
ENDBRANCH   7   8
BRANCH   7  17
ATOM     17  C   UNL     1       1.212  -1.730   4.231  1.00  0.00     0.070 C 
BRANCH  17  18
ATOM     18  C   UNL     1       1.361  -1.276   5.672  1.00  0.00    -0.045 A 
ATOM     19  C   UNL     1       0.275  -1.309   6.550  1.00  0.00     0.004 A 
ATOM     20  C   UNL     1       2.591  -0.831   6.171  1.00  0.00     0.004 A 
ATOM     21  C   UNL     1       0.459  -1.077   7.920  1.00  0.00     0.010 A 
ATOM     22  C   UNL     1       2.775  -0.608   7.543  1.00  0.00     0.010 A 
ATOM     23  C   UNL     1       1.717  -0.768   8.445  1.00  0.00     0.038 A 
BRANCH  23  24
ATOM     24  N   UNL     1       1.811  -0.667   9.845  1.00  0.00    -0.061 NA
ATOM     25  N   UNL     1       2.904  -0.300  10.306  1.00  0.00     0.005 N 
ATOM     26  N   UNL     1       3.905   0.041  10.740  1.00  0.00    -0.003 NA
ENDBRANCH  23  24
ENDBRANCH  17  18
ENDBRANCH   7  17
ENDBRANCH   4   7
ENDBRANCH   2   3
ENDBRANCH   1   2
BRANCH   1  27
ATOM     27  C   UNL     1      -0.767  -5.691   7.500  1.00  0.00     0.023 C 
BRANCH  27  28
ATOM     28  C   UNL     1       0.042  -6.508   8.493  1.00  0.00     0.116 C 
BRANCH  28  29
ATOM     29  N   UNL     1       0.465  -5.755   9.670  1.00  0.00    -0.352 N 
ATOM     30  C   UNL     1       0.361  -6.102  10.998  1.00  0.00     0.251 C 
ATOM     31  H   UNL     1       0.881  -4.881   9.490  1.00  0.00     0.163 HD
ATOM     32  O   UNL     1       0.663  -5.311  11.883  1.00  0.00    -0.269 OA
BRANCH  30  33
ATOM     33  C   UNL     1      -0.167  -7.437  11.336  1.00  0.00     0.039 A 
ATOM     34  C   UNL     1      -1.199  -7.546  12.269  1.00  0.00     0.014 A 
ATOM     35  C   UNL     1       0.288  -8.559  10.642  1.00  0.00     0.014 A 
ATOM     36  C   UNL     1      -1.838  -8.774  12.435  1.00  0.00     0.010 A 
ATOM     37  C   UNL     1      -0.432  -9.741  10.715  1.00  0.00     0.010 A 
ATOM     38  C   UNL     1      -1.497  -9.866  11.619  1.00  0.00    -0.014 A 
BRANCH  38  39
ATOM     39  C   UNL     1      -2.225 -11.156  11.701  1.00  0.00     0.031 A 
ATOM     40  C   UNL     1      -1.474 -12.414  12.042  1.00  0.00     0.074 A 
ATOM     41  C   UNL     1      -3.537 -11.209  11.398  1.00  0.00     0.049 A 
ATOM     42  N   UNL     1      -1.905 -13.649  12.087  1.00  0.00    -0.248 NA
ATOM     43  C   UNL     1      -0.037 -12.271  12.334  1.00  0.00     0.031 C 
ATOM     44  C   UNL     1      -4.364 -10.068  10.994  1.00  0.00     0.029 A 
ATOM     45  N   UNL     1      -4.407 -12.270  11.376  1.00  0.00    -0.354 N 
ATOM     46  C   UNL     1      -0.793 -14.422  12.394  1.00  0.00     0.074 A 
ATOM     47  C   UNL     1       0.344 -13.533  12.446  1.00  0.00     0.031 C 
ATOM     48  C   UNL     1      -5.626 -10.484  10.804  1.00  0.00     0.029 A 
ATOM     49  C   UNL     1      -5.690 -11.925  11.024  1.00  0.00     0.049 A 
ATOM     50  H   UNL     1      -4.138 -13.191  11.593  1.00  0.00     0.167 HD
ATOM     51  C   UNL     1      -0.729 -15.750  12.646  1.00  0.00     0.037 A 
ATOM     52  C   UNL     1      -6.792 -12.688  10.890  1.00  0.00     0.037 A 
ATOM     53  C   UNL     1      -1.869 -16.627  12.618  1.00  0.00     0.049 A 
ATOM     54  C   UNL     1      -6.692 -14.165  11.159  1.00  0.00     0.074 A 
ATOM     55  C   UNL     1      -1.925 -17.976  12.914  1.00  0.00     0.029 A 
ATOM     56  N   UNL     1      -3.154 -16.237  12.269  1.00  0.00    -0.354 N 
ATOM     57  N   UNL     1      -5.650 -14.872  11.523  1.00  0.00    -0.248 NA
ATOM     58  C   UNL     1      -7.925 -14.950  11.003  1.00  0.00     0.031 C 
ATOM     59  C   UNL     1      -3.232 -18.417  12.688  1.00  0.00     0.029 A 
ATOM     60  C   UNL     1      -4.005 -17.328  12.315  1.00  0.00     0.049 A 
ATOM     61  H   UNL     1      -3.421 -15.322  12.025  1.00  0.00     0.167 HD
ATOM     62  C   UNL     1      -6.106 -16.176  11.671  1.00  0.00     0.074 A 
ATOM     63  C   UNL     1      -7.523 -16.157  11.373  1.00  0.00     0.031 C 
ATOM     64  C   UNL     1      -5.416 -17.288  12.023  1.00  0.00     0.037 A 
BRANCH  51  65
ATOM     65  C   UNL     1       0.618 -16.327  12.979  1.00  0.00     0.057 A 
ATOM     66  C   UNL     1       1.290 -16.006  14.167  1.00  0.00     0.134 A 
ATOM     67  C   UNL     1       1.244 -17.228  12.109  1.00  0.00     0.134 A 
ATOM     68  F   UNL     1       0.754 -15.137  15.038  1.00  0.00    -0.206 F 
ATOM     69  C   UNL     1       2.548 -16.532  14.461  1.00  0.00     0.040 A 
ATOM     70  C   UNL     1       2.487 -17.788  12.409  1.00  0.00     0.040 A 
ATOM     71  F   UNL     1       0.658 -17.584  10.956  1.00  0.00    -0.206 F 
ATOM     72  C   UNL     1       3.147 -17.433  13.584  1.00  0.00     0.006 A 
ENDBRANCH  51  65
BRANCH  52  73
ATOM     73  C   UNL     1      -8.088 -12.071  10.505  1.00  0.00     0.057 A 
ATOM     74  C   UNL     1      -9.158 -12.015  11.406  1.00  0.00     0.134 A 
ATOM     75  C   UNL     1      -8.297 -11.538   9.227  1.00  0.00     0.134 A 
ATOM     76  F   UNL     1      -9.027 -12.523  12.641  1.00  0.00    -0.206 F 
ATOM     77  C   UNL     1     -10.395 -11.477  11.045  1.00  0.00     0.040 A 
ATOM     78  C   UNL     1      -9.519 -10.970   8.861  1.00  0.00     0.040 A 
ATOM     79  F   UNL     1      -7.312 -11.551   8.318  1.00  0.00    -0.206 F 
ATOM     80  C   UNL     1     -10.576 -10.948   9.769  1.00  0.00     0.006 A 
ENDBRANCH  52  73
BRANCH  64  81
ATOM     81  C   UNL     1      -6.190 -18.569  12.146  1.00  0.00     0.057 A 
ATOM     82  C   UNL     1      -6.707 -19.236  11.028  1.00  0.00     0.134 A 
ATOM     83  C   UNL     1      -6.381 -19.165  13.400  1.00  0.00     0.134 A 
ATOM     84  F   UNL     1      -6.569 -18.714   9.800  1.00  0.00    -0.206 F 
ATOM     85  C   UNL     1      -7.410 -20.435  11.156  1.00  0.00     0.040 A 
ATOM     86  C   UNL     1      -7.053 -20.380  13.537  1.00  0.00     0.040 A 
ATOM     87  F   UNL     1      -5.901 -18.585  14.511  1.00  0.00    -0.206 F 
ATOM     88  C   UNL     1      -7.577 -21.014  12.413  1.00  0.00     0.006 A 
ENDBRANCH  64  81
ENDBRANCH  38  39
ENDBRANCH  30  33
ENDBRANCH  28  29
ENDBRANCH  27  28
ENDBRANCH   1  27
TORSDOF 17
