REMARK SMILES COC(=O)c1ccc(-c2ccc(C(=O)NCCCCNC(=O)c3ccc(-c4c5nc(c(-c6c(F)cccc6F)c6ccc([nH]6)c(-c6c(F)cccc6F)c6nc(c(-c7c(F)cccc7F)c7ccc4[nH]7)C=C6)C=C5)cc3)cc2O)cc1F
REMARK SMILES IDX 17 1 16 2 15 3 13 4 14 5 12 7 9 8 10 9 78 10 11 11 77 12
REMARK SMILES IDX 8 13 5 14 6 15 81 16 7 17 80 18 82 19 3 20 4 21 2 22 1 23
REMARK SMILES IDX 79 24 18 26 19 27 20 28 21 29 22 31 23 32 24 33 76 34 25 35
REMARK SMILES IDX 75 36 26 37 27 38 28 39 69 40 29 41 74 42 68 43 70 44 30 45
REMARK SMILES IDX 73 46 67 47 66 48 31 50 57 51 40 52 56 53 41 54 44 55 55 56
REMARK SMILES IDX 71 57 42 58 43 59 54 61 72 62 45 63 32 64 33 65 38 66 34 67
REMARK SMILES IDX 35 68 37 69 39 70 36 71 58 72 59 73 64 74 60 75 61 76 63 77
REMARK SMILES IDX 65 78 62 79 46 80 47 81 52 82 48 83 49 84 51 85 53 86 50 87
REMARK H PARENT 15 6 79 25 20 30 70 49 44 60
REMARK Flexibility Score: inf
ROOT
ATOM      1  C   UNL     1      -4.991   9.779  -6.802  1.00  0.00     0.023 C 
ENDROOT
BRANCH   1   2
ATOM      2  C   UNL     1      -5.266   8.394  -7.393  1.00  0.00     0.116 C 
BRANCH   2   3
ATOM      3  N   UNL     1      -4.359   8.129  -8.491  1.00  0.00    -0.352 N 
ATOM      4  C   UNL     1      -3.163   7.463  -8.573  1.00  0.00     0.251 C 
ATOM      5  O   UNL     1      -2.619   7.429  -9.678  1.00  0.00    -0.269 OA
ATOM      6  H   UNL     1      -4.662   8.501  -9.350  1.00  0.00     0.163 HD
BRANCH   4   7
ATOM      7  C   UNL     1      -2.526   6.743  -7.431  1.00  0.00     0.043 A 
ATOM      8  C   UNL     1      -1.304   5.171  -5.411  1.00  0.00     0.024 A 
ATOM      9  C   UNL     1      -1.004   4.955  -6.761  1.00  0.00     0.013 A 
ATOM     10  C   UNL     1      -2.189   6.211  -5.094  1.00  0.00     0.124 A 
ATOM     11  C   UNL     1      -1.617   5.723  -7.757  1.00  0.00     0.015 A 
ATOM     12  C   UNL     1      -2.756   7.018  -6.083  1.00  0.00     0.060 A 
BRANCH   8  13
ATOM     13  C   UNL     1      -0.716   4.325  -4.368  1.00  0.00    -0.012 A 
ATOM     14  C   UNL     1       0.353   2.790  -2.266  1.00  0.00     0.095 A 
ATOM     15  C   UNL     1       1.146   3.747  -2.911  1.00  0.00     0.019 A 
ATOM     16  C   UNL     1      -0.966   2.605  -2.672  1.00  0.00     0.138 A 
ATOM     17  C   UNL     1       0.615   4.503  -3.961  1.00  0.00     0.010 A 
ATOM     18  C   UNL     1      -1.497   3.359  -3.716  1.00  0.00     0.049 A 
ATOM     19  F   UNL     1      -1.776   1.736  -2.050  1.00  0.00    -0.206 F 
BRANCH  14  20
ATOM     20  C   UNL     1       0.935   2.043  -1.136  1.00  0.00     0.340 C 
ATOM     21  O   UNL     1       1.797   2.503  -0.406  1.00  0.00    -0.246 OA
BRANCH  20  22
ATOM     22  O   UNL     1       0.432   0.786  -1.091  1.00  0.00    -0.465 OA
ATOM     23  C   UNL     1       0.948  -0.009  -0.024  1.00  0.00     0.282 C 
ENDBRANCH  20  22
ENDBRANCH  14  20
ENDBRANCH   8  13
BRANCH  10  24
ATOM     24  O   UNL     1      -2.505   6.436  -3.779  1.00  0.00    -0.507 OA
ATOM     25  H   UNL     1      -2.129   5.900  -3.109  1.00  0.00     0.293 HD
ENDBRANCH  10  24
ENDBRANCH   4   7
ENDBRANCH   2   3
ENDBRANCH   1   2
BRANCH   1  26
ATOM     26  C   UNL     1      -5.586  10.927  -7.624  1.00  0.00     0.023 C 
BRANCH  26  27
ATOM     27  C   UNL     1      -7.106  10.902  -7.749  1.00  0.00     0.116 C 
BRANCH  27  28
ATOM     28  N   UNL     1      -7.788  10.904  -6.461  1.00  0.00    -0.352 N 
ATOM     29  C   UNL     1      -8.957  11.540  -6.120  1.00  0.00     0.251 C 
ATOM     30  H   UNL     1      -7.356  10.384  -5.746  1.00  0.00     0.163 HD
ATOM     31  O   UNL     1      -9.357  11.543  -4.962  1.00  0.00    -0.269 OA
BRANCH  29  32
ATOM     32  C   UNL     1      -9.698  12.260  -7.171  1.00  0.00     0.039 A 
ATOM     33  C   UNL     1      -9.982  13.614  -6.990  1.00  0.00     0.014 A 
ATOM     34  C   UNL     1     -10.016  11.615  -8.369  1.00  0.00     0.014 A 
ATOM     35  C   UNL     1     -10.503  14.351  -8.054  1.00  0.00     0.010 A 
ATOM     36  C   UNL     1     -10.470  12.364  -9.447  1.00  0.00     0.010 A 
ATOM     37  C   UNL     1     -10.695  13.743  -9.306  1.00  0.00    -0.014 A 
BRANCH  37  38
ATOM     38  C   UNL     1     -11.075  14.536 -10.500  1.00  0.00     0.031 A 
ATOM     39  C   UNL     1     -12.378  14.276 -11.195  1.00  0.00     0.074 A 
ATOM     40  C   UNL     1     -10.198  15.425 -11.008  1.00  0.00     0.049 A 
ATOM     41  N   UNL     1     -12.829  14.781 -12.314  1.00  0.00    -0.248 NA
ATOM     42  C   UNL     1     -13.286  13.305 -10.562  1.00  0.00     0.031 C 
ATOM     43  C   UNL     1      -8.886  15.739 -10.438  1.00  0.00     0.029 A 
ATOM     44  N   UNL     1     -10.271  16.217 -12.127  1.00  0.00    -0.354 N 
ATOM     45  C   UNL     1     -14.066  14.187 -12.522  1.00  0.00     0.074 A 
ATOM     46  C   UNL     1     -14.275  13.247 -11.443  1.00  0.00     0.031 C 
ATOM     47  C   UNL     1      -8.288  16.669 -11.197  1.00  0.00     0.029 A 
ATOM     48  C   UNL     1      -9.147  16.981 -12.336  1.00  0.00     0.049 A 
ATOM     49  H   UNL     1     -11.053  16.236 -12.724  1.00  0.00     0.167 HD
ATOM     50  C   UNL     1     -14.954  14.424 -13.515  1.00  0.00     0.037 A 
ATOM     51  C   UNL     1      -8.834  17.823 -13.340  1.00  0.00     0.037 A 
ATOM     52  C   UNL     1     -14.746  15.374 -14.575  1.00  0.00     0.049 A 
ATOM     53  C   UNL     1      -9.816  18.030 -14.458  1.00  0.00     0.074 A 
ATOM     54  C   UNL     1     -15.615  15.726 -15.592  1.00  0.00     0.029 A 
ATOM     55  N   UNL     1     -13.591  16.118 -14.757  1.00  0.00    -0.354 N 
ATOM     56  N   UNL     1     -11.008  17.506 -14.612  1.00  0.00    -0.248 NA
ATOM     57  C   UNL     1      -9.414  18.935 -15.544  1.00  0.00     0.031 C 
ATOM     58  C   UNL     1     -14.964  16.639 -16.424  1.00  0.00     0.029 A 
ATOM     59  C   UNL     1     -13.711  16.901 -15.892  1.00  0.00     0.049 A 
ATOM     60  H   UNL     1     -12.803  16.094 -14.167  1.00  0.00     0.167 HD
ATOM     61  C   UNL     1     -11.505  18.031 -15.797  1.00  0.00     0.074 A 
ATOM     62  C   UNL     1     -10.491  18.923 -16.319  1.00  0.00     0.031 C 
ATOM     63  C   UNL     1     -12.696  17.791 -16.397  1.00  0.00     0.037 A 
BRANCH  50  64
ATOM     64  C   UNL     1     -16.242  13.655 -13.504  1.00  0.00     0.057 A 
ATOM     65  C   UNL     1     -16.521  12.711 -14.501  1.00  0.00     0.134 A 
ATOM     66  C   UNL     1     -17.243  13.911 -12.558  1.00  0.00     0.134 A 
ATOM     67  F   UNL     1     -15.608  12.424 -15.442  1.00  0.00    -0.206 F 
ATOM     68  C   UNL     1     -17.754  12.063 -14.568  1.00  0.00     0.040 A 
ATOM     69  C   UNL     1     -18.471  13.249 -12.598  1.00  0.00     0.040 A 
ATOM     70  F   UNL     1     -17.036  14.796 -11.572  1.00  0.00    -0.206 F 
ATOM     71  C   UNL     1     -18.733  12.330 -13.613  1.00  0.00     0.006 A 
ENDBRANCH  50  64
BRANCH  51  72
ATOM     72  C   UNL     1      -7.532  18.539 -13.319  1.00  0.00     0.057 A 
ATOM     73  C   UNL     1      -6.318  17.862 -13.490  1.00  0.00     0.134 A 
ATOM     74  C   UNL     1      -7.474  19.918 -13.091  1.00  0.00     0.134 A 
ATOM     75  F   UNL     1      -6.304  16.538 -13.704  1.00  0.00    -0.206 F 
ATOM     76  C   UNL     1      -5.093  18.527 -13.413  1.00  0.00     0.040 A 
ATOM     77  C   UNL     1      -6.257  20.600 -13.037  1.00  0.00     0.040 A 
ATOM     78  F   UNL     1      -8.604  20.625 -12.938  1.00  0.00    -0.206 F 
ATOM     79  C   UNL     1      -5.061  19.902 -13.188  1.00  0.00     0.006 A 
ENDBRANCH  51  72
BRANCH  63  80
ATOM     80  C   UNL     1     -12.995  18.505 -17.682  1.00  0.00     0.057 A 
ATOM     81  C   UNL     1     -13.978  19.502 -17.732  1.00  0.00     0.134 A 
ATOM     82  C   UNL     1     -12.403  18.116 -18.889  1.00  0.00     0.134 A 
ATOM     83  F   UNL     1     -14.591  19.910 -16.610  1.00  0.00    -0.206 F 
ATOM     84  C   UNL     1     -14.385  20.064 -18.942  1.00  0.00     0.040 A 
ATOM     85  C   UNL     1     -12.784  18.689 -20.103  1.00  0.00     0.040 A 
ATOM     86  F   UNL     1     -11.448  17.174 -18.906  1.00  0.00    -0.206 F 
ATOM     87  C   UNL     1     -13.789  19.655 -20.133  1.00  0.00     0.006 A 
ENDBRANCH  63  80
ENDBRANCH  37  38
ENDBRANCH  29  32
ENDBRANCH  27  28
ENDBRANCH  26  27
ENDBRANCH   1  26
TORSDOF 15
