REMARK SMILES O=C(NCCCCNC(=O)[C@@H]1CN(c2ncccn2)CCN1C(=O)C1CCOCC1)c1ccc(-c2c3nc(c(-c4c(F)cccc4F)c4ccc([nH]4)c(-c4c(F)cccc4F)c4nc(c(-c5c(F)cccc5F)c5ccc2[nH]5)C=C4)C=C3)cc1
REMARK SMILES IDX 5 1 4 2 3 3 1 4 2 5 31 7 32 8 84 9 33 10 83 11 34 12 35 13
REMARK SMILES IDX 36 14 77 15 37 16 82 17 76 18 78 19 38 20 81 21 75 22 74 23
REMARK SMILES IDX 39 25 65 26 48 27 64 28 49 29 52 30 63 31 79 32 50 33 51 34
REMARK SMILES IDX 62 36 80 37 53 38 40 39 41 40 46 41 42 42 43 43 45 44 47 45
REMARK SMILES IDX 44 46 66 47 67 48 72 49 68 50 69 51 71 52 73 53 70 54 54 55
REMARK SMILES IDX 55 56 60 57 56 58 57 59 59 60 61 61 58 62 6 63 7 64 8 65
REMARK SMILES IDX 9 66 10 68 11 69 12 70 22 71 13 72 21 73 20 74 23 75 24 76
REMARK SMILES IDX 25 77 26 78 30 79 27 80 29 81 28 82 14 83 15 84 19 85 16 86
REMARK SMILES IDX 18 87 17 88
REMARK H PARENT 3 6 78 24 52 35 8 67
REMARK Flexibility Score: inf
ROOT
ATOM      1  C   UNL     1       4.559  -1.796  -1.931  1.00  0.00     0.023 C 
ENDROOT
BRANCH   1   2
ATOM      2  C   UNL     1       4.376  -0.507  -1.143  1.00  0.00     0.116 C 
BRANCH   2   3
ATOM      3  N   UNL     1       2.973  -0.141  -1.010  1.00  0.00    -0.352 N 
ATOM      4  O   UNL     1       1.021   0.146   0.094  1.00  0.00    -0.269 OA
ATOM      5  C   UNL     1       2.242   0.040   0.139  1.00  0.00     0.251 C 
ATOM      6  H   UNL     1       2.485  -0.006  -1.853  1.00  0.00     0.163 HD
BRANCH   5   7
ATOM      7  C   UNL     1       2.948   0.089   1.434  1.00  0.00     0.039 A 
ATOM      8  C   UNL     1       4.098   0.870   1.570  1.00  0.00     0.014 A 
ATOM      9  C   UNL     1       2.469  -0.665   2.507  1.00  0.00     0.014 A 
ATOM     10  C   UNL     1       4.847   0.789   2.735  1.00  0.00     0.010 A 
ATOM     11  C   UNL     1       3.175  -0.670   3.712  1.00  0.00     0.010 A 
ATOM     12  C   UNL     1       4.382   0.039   3.827  1.00  0.00    -0.014 A 
BRANCH  12  13
ATOM     13  C   UNL     1       5.134   0.085   5.104  1.00  0.00     0.031 A 
ATOM     14  C   UNL     1       5.784  -1.141   5.676  1.00  0.00     0.074 A 
ATOM     15  C   UNL     1       5.239   1.270   5.736  1.00  0.00     0.049 A 
ATOM     16  N   UNL     1       6.477  -1.263   6.780  1.00  0.00    -0.248 NA
ATOM     17  C   UNL     1       5.632  -2.394   4.921  1.00  0.00     0.031 C 
ATOM     18  C   UNL     1       4.635   2.524   5.277  1.00  0.00     0.029 A 
ATOM     19  N   UNL     1       5.896   1.620   6.886  1.00  0.00    -0.354 N 
ATOM     20  C   UNL     1       6.827  -2.604   6.864  1.00  0.00     0.074 A 
ATOM     21  C   UNL     1       6.250  -3.262   5.711  1.00  0.00     0.031 C 
ATOM     22  C   UNL     1       4.985   3.512   6.111  1.00  0.00     0.029 A 
ATOM     23  C   UNL     1       5.777   2.952   7.198  1.00  0.00     0.049 A 
ATOM     24  H   UNL     1       6.404   0.980   7.435  1.00  0.00     0.167 HD
ATOM     25  C   UNL     1       7.566  -3.224   7.816  1.00  0.00     0.037 A 
ATOM     26  C   UNL     1       6.234   3.645   8.256  1.00  0.00     0.037 A 
ATOM     27  C   UNL     1       8.146  -2.555   8.954  1.00  0.00     0.049 A 
ATOM     28  C   UNL     1       7.029   2.928   9.305  1.00  0.00     0.074 A 
ATOM     29  C   UNL     1       8.947  -3.087   9.951  1.00  0.00     0.029 A 
ATOM     30  N   UNL     1       7.983  -1.209   9.251  1.00  0.00    -0.354 N 
ATOM     31  N   UNL     1       7.383   1.667   9.352  1.00  0.00    -0.248 NA
ATOM     32  C   UNL     1       7.485   3.728  10.448  1.00  0.00     0.031 C 
ATOM     33  C   UNL     1       9.225  -2.076  10.877  1.00  0.00     0.029 A 
ATOM     34  C   UNL     1       8.644  -0.900  10.429  1.00  0.00     0.049 A 
ATOM     35  H   UNL     1       7.473  -0.568   8.705  1.00  0.00     0.167 HD
ATOM     36  C   UNL     1       8.117   1.523  10.521  1.00  0.00     0.074 A 
ATOM     37  C   UNL     1       8.175   2.832  11.140  1.00  0.00     0.031 C 
ATOM     38  C   UNL     1       8.689   0.407  11.035  1.00  0.00     0.037 A 
BRANCH  25  39
ATOM     39  C   UNL     1       7.774  -4.705   7.686  1.00  0.00     0.057 A 
ATOM     40  C   UNL     1       8.611  -5.256   6.706  1.00  0.00     0.134 A 
ATOM     41  C   UNL     1       7.172  -5.591   8.590  1.00  0.00     0.134 A 
ATOM     42  F   UNL     1       9.212  -4.466   5.804  1.00  0.00    -0.206 F 
ATOM     43  C   UNL     1       8.825  -6.633   6.618  1.00  0.00     0.040 A 
ATOM     44  C   UNL     1       7.398  -6.967   8.527  1.00  0.00     0.040 A 
ATOM     45  F   UNL     1       6.365  -5.132   9.558  1.00  0.00    -0.206 F 
ATOM     46  C   UNL     1       8.224  -7.493   7.536  1.00  0.00     0.006 A 
ENDBRANCH  25  39
BRANCH  26  47
ATOM     47  C   UNL     1       5.934   5.094   8.369  1.00  0.00     0.057 A 
ATOM     48  C   UNL     1       6.941   6.055   8.234  1.00  0.00     0.134 A 
ATOM     49  C   UNL     1       4.629   5.550   8.593  1.00  0.00     0.134 A 
ATOM     50  F   UNL     1       8.212   5.679   8.031  1.00  0.00    -0.206 F 
ATOM     51  C   UNL     1       6.663   7.420   8.330  1.00  0.00     0.040 A 
ATOM     52  C   UNL     1       4.333   6.911   8.662  1.00  0.00     0.040 A 
ATOM     53  F   UNL     1       3.619   4.677   8.719  1.00  0.00    -0.206 F 
ATOM     54  C   UNL     1       5.354   7.850   8.537  1.00  0.00     0.006 A 
ENDBRANCH  26  47
BRANCH  38  55
ATOM     55  C   UNL     1       9.449   0.564  12.319  1.00  0.00     0.057 A 
ATOM     56  C   UNL     1       8.799   0.784  13.540  1.00  0.00     0.134 A 
ATOM     57  C   UNL     1      10.846   0.472  12.335  1.00  0.00     0.134 A 
ATOM     58  F   UNL     1       7.464   0.898  13.590  1.00  0.00    -0.206 F 
ATOM     59  C   UNL     1       9.515   0.931  14.729  1.00  0.00     0.040 A 
ATOM     60  C   UNL     1      11.571   0.590  13.522  1.00  0.00     0.040 A 
ATOM     61  F   UNL     1      11.529   0.257  11.201  1.00  0.00    -0.206 F 
ATOM     62  C   UNL     1      10.905   0.828  14.723  1.00  0.00     0.006 A 
ENDBRANCH  38  55
ENDBRANCH  12  13
ENDBRANCH   5   7
ENDBRANCH   2   3
ENDBRANCH   1   2
BRANCH   1  63
ATOM     63  C   UNL     1       4.085  -1.716  -3.382  1.00  0.00     0.023 C 
BRANCH  63  64
ATOM     64  C   UNL     1       4.733  -0.591  -4.187  1.00  0.00     0.116 C 
BRANCH  64  65
ATOM     65  N   UNL     1       6.169  -0.791  -4.274  1.00  0.00    -0.354 N 
ATOM     66  C   UNL     1       6.958  -0.995  -5.366  1.00  0.00     0.244 C 
ATOM     67  H   UNL     1       6.644  -0.778  -3.412  1.00  0.00     0.163 HD
ATOM     68  O   UNL     1       8.057  -1.519  -5.183  1.00  0.00    -0.273 OA
BRANCH  66  69
ATOM     69  C   UNL     1       6.456  -0.579  -6.755  1.00  0.00     0.193 C 
ATOM     70  C   UNL     1       6.676  -1.892  -7.557  1.00  0.00     0.155 C 
ATOM     71  N   UNL     1       6.973   0.583  -7.571  1.00  0.00    -0.327 N 
ATOM     72  N   UNL     1       6.046  -1.791  -8.860  1.00  0.00    -0.336 N 
ATOM     73  C   UNL     1       6.346   0.617  -8.923  1.00  0.00     0.142 C 
ATOM     74  C   UNL     1       6.473  -0.703  -9.714  1.00  0.00     0.141 C 
BRANCH  71  75
ATOM     75  C   UNL     1       7.535   1.786  -7.167  1.00  0.00     0.226 C 
ATOM     76  O   UNL     1       7.471   2.780  -7.909  1.00  0.00    -0.275 OA
BRANCH  75  77
ATOM     77  C   UNL     1       8.286   1.994  -5.853  1.00  0.00     0.083 C 
ATOM     78  C   UNL     1       9.442   1.021  -5.629  1.00  0.00     0.042 C 
ATOM     79  C   UNL     1       7.328   2.255  -4.695  1.00  0.00     0.042 C 
ATOM     80  C   UNL     1       9.780   0.770  -4.162  1.00  0.00     0.161 C 
ATOM     81  C   UNL     1       7.969   2.027  -3.341  1.00  0.00     0.161 C 
ATOM     82  O   UNL     1       8.631   0.771  -3.316  1.00  0.00    -0.381 OA
ENDBRANCH  75  77
ENDBRANCH  71  75
BRANCH  72  83
ATOM     83  C   UNL     1       5.214  -2.784  -9.274  1.00  0.00     0.225 A 
ATOM     84  N   UNL     1       5.311  -3.239 -10.530  1.00  0.00    -0.221 NA
ATOM     85  N   UNL     1       4.335  -3.266  -8.377  1.00  0.00    -0.221 NA
ATOM     86  C   UNL     1       4.517  -4.274 -10.867  1.00  0.00     0.117 A 
ATOM     87  C   UNL     1       3.522  -4.258  -8.778  1.00  0.00     0.117 A 
ATOM     88  C   UNL     1       3.584  -4.824 -10.024  1.00  0.00     0.040 A 
ENDBRANCH  72  83
ENDBRANCH  66  69
ENDBRANCH  64  65
ENDBRANCH  63  64
ENDBRANCH   1  63
TORSDOF 14
