REMARK SMILES O=C(NC1(C(=O)NCCCCNC(=O)c2ccc(-c3c4nc(c(-c5c(F)cccc5F)c5ccc([nH]5)c(-c5c(F)cccc5F)c5nc(c(-c6c(F)cccc6F)c6ccc3[nH]6)C=C5)C=C4)cc2)CC[NH2+]CC1)OCC1c2ccccc2-c2ccccc21
REMARK SMILES IDX 8 1 7 2 5 3 6 4 4 6 69 7 73 8 70 9 72 10 71 11 3 14 1 15
REMARK SMILES IDX 2 16 74 18 75 19 76 20 77 21 88 22 78 23 82 24 83 25 87 26
REMARK SMILES IDX 79 27 81 28 84 29 86 30 80 31 85 32 9 33 10 34 11 35 12 36
REMARK SMILES IDX 13 37 14 39 15 40 16 41 68 42 17 43 67 44 18 45 19 46 20 47
REMARK SMILES IDX 61 48 21 49 66 50 60 51 62 52 22 53 65 54 59 55 58 56 23 58
REMARK SMILES IDX 49 59 32 60 48 61 33 62 36 63 47 64 63 65 34 66 35 67 46 69
REMARK SMILES IDX 64 70 37 71 24 72 25 73 30 74 26 75 27 76 29 77 31 78 28 79
REMARK SMILES IDX 50 80 51 81 56 82 52 83 53 84 55 85 57 86 54 87 38 88 39 89
REMARK SMILES IDX 44 90 40 91 41 92 43 93 45 94 42 95
REMARK H PARENT 7 5 71 12 71 13 3 17 12 38 62 57 36 68
REMARK Flexibility Score: inf
ROOT
ATOM      1  C   UNL     1       7.738   0.070  -1.879  1.00  0.00     0.116 C 
ENDROOT
BRANCH   1   2
ATOM      2  N   UNL     1       6.661   0.805  -1.246  1.00  0.00    -0.354 N 
ATOM      3  C   UNL     1       5.307   0.716  -1.329  1.00  0.00     0.246 C 
ATOM      4  O   UNL     1       4.688   1.676  -0.848  1.00  0.00    -0.272 OA
ATOM      5  H   UNL     1       6.973   1.511  -0.634  1.00  0.00     0.163 HD
BRANCH   3   6
ATOM      6  C   UNL     1       4.546  -0.397  -2.125  1.00  0.00     0.132 C 
ATOM      7  C   UNL     1       4.628   0.108  -3.585  1.00  0.00     0.100 C 
ATOM      8  C   UNL     1       5.067  -1.842  -1.952  1.00  0.00     0.100 C 
ATOM      9  C   UNL     1       4.288  -0.940  -4.627  1.00  0.00     0.263 C 
ATOM     10  C   UNL     1       4.669  -2.748  -3.114  1.00  0.00     0.263 C 
ATOM     11  N   UNL     1       5.055  -2.158  -4.393  1.00  0.00    -0.346 N 
ATOM     12  H   UNL     1       6.050  -1.933  -4.375  1.00  0.00     0.346 HD
ATOM     13  H   UNL     1       4.866  -2.824  -5.142  1.00  0.00     0.346 HD
BRANCH   6  14
ATOM     14  N   UNL     1       3.125  -0.355  -1.677  1.00  0.00    -0.307 N 
ATOM     15  O   UNL     1       1.516  -0.435  -0.075  1.00  0.00    -0.225 OA
ATOM     16  C   UNL     1       2.700  -0.495  -0.385  1.00  0.00     0.408 C 
ATOM     17  H   UNL     1       2.437  -0.216  -2.367  1.00  0.00     0.168 HD
BRANCH  16  18
ATOM     18  O   UNL     1       3.725  -0.667   0.477  1.00  0.00    -0.449 OA
BRANCH  18  19
ATOM     19  C   UNL     1       3.445  -0.451   1.863  1.00  0.00     0.248 C 
BRANCH  19  20
ATOM     20  C   UNL     1       4.697   0.059   2.590  1.00  0.00     0.088 C 
ATOM     21  C   UNL     1       6.023  -0.627   2.260  1.00  0.00    -0.029 A 
ATOM     22  C   UNL     1       5.054   1.527   2.365  1.00  0.00    -0.029 A 
ATOM     23  C   UNL     1       6.304  -1.964   2.025  1.00  0.00     0.005 A 
ATOM     24  C   UNL     1       7.047   0.342   2.202  1.00  0.00    -0.014 A 
ATOM     25  C   UNL     1       6.447   1.659   2.170  1.00  0.00    -0.014 A 
ATOM     26  C   UNL     1       4.215   2.627   2.278  1.00  0.00     0.005 A 
ATOM     27  C   UNL     1       7.635  -2.334   1.810  1.00  0.00     0.000 A 
ATOM     28  C   UNL     1       8.372  -0.036   2.096  1.00  0.00     0.009 A 
ATOM     29  C   UNL     1       6.999   2.880   1.807  1.00  0.00     0.009 A 
ATOM     30  C   UNL     1       4.769   3.852   1.899  1.00  0.00     0.000 A 
ATOM     31  C   UNL     1       8.666  -1.386   1.892  1.00  0.00     0.001 A 
ATOM     32  C   UNL     1       6.145   3.975   1.649  1.00  0.00     0.001 A 
ENDBRANCH  19  20
ENDBRANCH  18  19
ENDBRANCH  16  18
ENDBRANCH   6  14
ENDBRANCH   3   6
ENDBRANCH   1   2
BRANCH   1  33
ATOM     33  C   UNL     1       8.810   1.000  -2.457  1.00  0.00     0.023 C 
BRANCH  33  34
ATOM     34  C   UNL     1       9.579   1.862  -1.448  1.00  0.00     0.023 C 
BRANCH  34  35
ATOM     35  C   UNL     1      10.458   1.101  -0.461  1.00  0.00     0.116 C 
BRANCH  35  36
ATOM     36  N   UNL     1      11.608   0.457  -1.056  1.00  0.00    -0.352 N 
ATOM     37  C   UNL     1      12.877   0.293  -0.557  1.00  0.00     0.251 C 
ATOM     38  H   UNL     1      11.460   0.081  -1.954  1.00  0.00     0.163 HD
ATOM     39  O   UNL     1      13.712  -0.309  -1.229  1.00  0.00    -0.269 OA
BRANCH  37  40
ATOM     40  C   UNL     1      13.283   0.862   0.754  1.00  0.00     0.039 A 
ATOM     41  C   UNL     1      14.515   1.520   0.815  1.00  0.00     0.014 A 
ATOM     42  C   UNL     1      12.529   0.709   1.921  1.00  0.00     0.014 A 
ATOM     43  C   UNL     1      14.977   2.043   2.027  1.00  0.00     0.010 A 
ATOM     44  C   UNL     1      12.966   1.283   3.125  1.00  0.00     0.010 A 
ATOM     45  C   UNL     1      14.203   1.943   3.195  1.00  0.00    -0.014 A 
BRANCH  45  46
ATOM     46  C   UNL     1      14.724   2.511   4.472  1.00  0.00     0.031 A 
ATOM     47  C   UNL     1      15.118   1.613   5.615  1.00  0.00     0.074 A 
ATOM     48  C   UNL     1      14.884   3.844   4.596  1.00  0.00     0.049 A 
ATOM     49  N   UNL     1      15.703   1.922   6.747  1.00  0.00    -0.248 NA
ATOM     50  C   UNL     1      14.805   0.183   5.478  1.00  0.00     0.031 C 
ATOM     51  C   UNL     1      14.510   4.836   3.587  1.00  0.00     0.029 A 
ATOM     52  N   UNL     1      15.421   4.594   5.614  1.00  0.00    -0.354 N 
ATOM     53  C   UNL     1      15.826   0.731   7.452  1.00  0.00     0.074 A 
ATOM     54  C   UNL     1      15.206  -0.298   6.645  1.00  0.00     0.031 C 
ATOM     55  C   UNL     1      14.870   6.056   4.015  1.00  0.00     0.029 A 
ATOM     56  C   UNL     1      15.478   5.940   5.338  1.00  0.00     0.049 A 
ATOM     57  H   UNL     1      15.736   4.205   6.462  1.00  0.00     0.167 HD
ATOM     58  C   UNL     1      16.421   0.506   8.650  1.00  0.00     0.037 A 
ATOM     59  C   UNL     1      15.976   6.964   6.058  1.00  0.00     0.037 A 
ATOM     60  C   UNL     1      17.050   1.524   9.452  1.00  0.00     0.049 A 
ATOM     61  C   UNL     1      16.621   6.690   7.390  1.00  0.00     0.074 A 
ATOM     62  C   UNL     1      17.731   1.381  10.650  1.00  0.00     0.029 A 
ATOM     63  N   UNL     1      17.065   2.877   9.147  1.00  0.00    -0.354 N 
ATOM     64  N   UNL     1      16.812   5.545   7.999  1.00  0.00    -0.248 NA
ATOM     65  C   UNL     1      17.131   7.854   8.129  1.00  0.00     0.031 C 
ATOM     66  C   UNL     1      18.108   2.652  11.096  1.00  0.00     0.029 A 
ATOM     67  C   UNL     1      17.717   3.582  10.147  1.00  0.00     0.049 A 
ATOM     68  H   UNL     1      16.671   3.277   8.338  1.00  0.00     0.167 HD
ATOM     69  C   UNL     1      17.496   5.846   9.171  1.00  0.00     0.074 A 
ATOM     70  C   UNL     1      17.698   7.280   9.181  1.00  0.00     0.031 C 
ATOM     71  C   UNL     1      17.922   5.008  10.149  1.00  0.00     0.037 A 
BRANCH  58  72
ATOM     72  C   UNL     1      16.413  -0.903   9.174  1.00  0.00     0.057 A 
ATOM     73  C   UNL     1      17.170  -1.921   8.578  1.00  0.00     0.134 A 
ATOM     74  C   UNL     1      15.668  -1.239  10.312  1.00  0.00     0.134 A 
ATOM     75  F   UNL     1      17.902  -1.671   7.481  1.00  0.00    -0.206 F 
ATOM     76  C   UNL     1      17.159  -3.227   9.073  1.00  0.00     0.040 A 
ATOM     77  C   UNL     1      15.673  -2.534  10.834  1.00  0.00     0.040 A 
ATOM     78  F   UNL     1      14.930  -0.312  10.941  1.00  0.00    -0.206 F 
ATOM     79  C   UNL     1      16.413  -3.535  10.209  1.00  0.00     0.006 A 
ENDBRANCH  58  72
BRANCH  59  80
ATOM     80  C   UNL     1      15.926   8.349   5.521  1.00  0.00     0.057 A 
ATOM     81  C   UNL     1      17.094   9.022   5.144  1.00  0.00     0.134 A 
ATOM     82  C   UNL     1      14.715   9.040   5.394  1.00  0.00     0.134 A 
ATOM     83  F   UNL     1      18.288   8.421   5.262  1.00  0.00    -0.206 F 
ATOM     84  C   UNL     1      17.064  10.339   4.682  1.00  0.00     0.040 A 
ATOM     85  C   UNL     1      14.667  10.348   4.908  1.00  0.00     0.040 A 
ATOM     86  F   UNL     1      13.560   8.451   5.734  1.00  0.00    -0.206 F 
ATOM     87  C   UNL     1      15.846  11.004   4.559  1.00  0.00     0.006 A 
ENDBRANCH  59  80
BRANCH  71  88
ATOM     88  C   UNL     1      18.689   5.614  11.290  1.00  0.00     0.057 A 
ATOM     89  C   UNL     1      18.080   6.441  12.244  1.00  0.00     0.134 A 
ATOM     90  C   UNL     1      20.056   5.347  11.449  1.00  0.00     0.134 A 
ATOM     91  F   UNL     1      16.778   6.747  12.146  1.00  0.00    -0.206 F 
ATOM     92  C   UNL     1      18.809   7.007  13.292  1.00  0.00     0.040 A 
ATOM     93  C   UNL     1      20.788   5.881  12.511  1.00  0.00     0.040 A 
ATOM     94  F   UNL     1      20.701   4.555  10.580  1.00  0.00    -0.206 F 
ATOM     95  C   UNL     1      20.166   6.722  13.431  1.00  0.00     0.006 A 
ENDBRANCH  71  88
ENDBRANCH  45  46
ENDBRANCH  37  40
ENDBRANCH  35  36
ENDBRANCH  34  35
ENDBRANCH  33  34
ENDBRANCH   1  33
TORSDOF 15
