REMARK SMILES Cc1cccc(-c2ncc(C[NH+]3CCC4(CC3)NC(=O)C[C@H]4C(=O)NCCCCNC(=O)c3ccc(-c4c5nc(c(-c6c(F)cccc6F)c6ccc([nH]6)c(-c6c(F)cccc6F)c6nc(c(-c7c(F)cccc7F)c7ccc4[nH]7)C=C6)C=C5)cc3)cn2)c1
REMARK SMILES IDX 27 1 26 2 25 3 23 4 24 5 22 7 12 8 13 9 17 10 14 12 16 13
REMARK SMILES IDX 15 14 18 15 19 16 21 18 20 19 11 20 10 21 7 22 8 23 88 24
REMARK SMILES IDX 9 25 87 26 6 27 1 28 2 29 3 30 89 31 4 32 5 33 28 34 29 35
REMARK SMILES IDX 30 36 31 37 32 39 33 40 34 41 86 42 35 43 85 44 36 45 37 46
REMARK SMILES IDX 38 47 79 48 39 49 84 50 78 51 80 52 40 53 83 54 77 55 76 56
REMARK SMILES IDX 41 58 67 59 50 60 66 61 51 62 54 63 65 64 81 65 52 66 53 67
REMARK SMILES IDX 64 69 82 70 55 71 42 72 43 73 48 74 44 75 45 76 47 77 49 78
REMARK SMILES IDX 46 79 68 80 69 81 74 82 70 83 71 84 73 85 75 86 72 87 56 88
REMARK SMILES IDX 57 89 62 90 58 91 59 92 61 93 63 94 60 95
REMARK H PARENT 25 6 12 11 18 17 30 38 80 57 54 68
REMARK Flexibility Score: inf
ROOT
ATOM      1  C   UNL     1      -0.419   2.941  -2.723  1.00  0.00     0.023 C 
ENDROOT
BRANCH   1   2
ATOM      2  C   UNL     1       0.906   3.717  -2.864  1.00  0.00     0.116 C 
BRANCH   2   3
ATOM      3  N   UNL     1       0.812   5.137  -3.205  1.00  0.00    -0.356 N 
ATOM      4  C   UNL     1       0.835   6.313  -2.520  1.00  0.00     0.226 C 
ATOM      5  O   UNL     1       0.846   7.337  -3.216  1.00  0.00    -0.275 OA
ATOM      6  H   UNL     1       0.705   5.277  -4.174  1.00  0.00     0.163 HD
BRANCH   4   7
ATOM      7  C   UNL     1       0.779   6.478  -0.994  1.00  0.00     0.114 C 
ATOM      8  N   UNL     1      -3.199   6.973   0.252  1.00  0.00    -0.331 N 
ATOM      9  C   UNL     1      -2.121   7.401   1.129  1.00  0.00     0.264 C 
ATOM     10  C   UNL     1      -2.723   6.800  -1.106  1.00  0.00     0.264 C 
ATOM     11  H   UNL     1      -3.845   7.762   0.248  1.00  0.00     0.348 HD
ATOM     12  C   UNL     1      -0.814   6.600   1.067  1.00  0.00     0.091 C 
ATOM     13  C   UNL     1      -1.664   5.720  -1.206  1.00  0.00     0.091 C 
ATOM     14  C   UNL     1      -0.452   5.883  -0.273  1.00  0.00     0.063 C 
ATOM     15  N   UNL     1       0.100   4.599   0.143  1.00  0.00    -0.349 N 
ATOM     16  C   UNL     1       1.474   4.596   0.283  1.00  0.00     0.221 C 
ATOM     17  H   UNL     1      -0.458   3.805   0.309  1.00  0.00     0.164 HD
ATOM     18  C   UNL     1       2.008   5.870  -0.314  1.00  0.00     0.116 C 
ATOM     19  O   UNL     1       2.122   3.714   0.794  1.00  0.00    -0.275 OA
BRANCH   8  20
ATOM     20  C   UNL     1      -4.192   6.004   0.747  1.00  0.00     0.302 C 
BRANCH  20  21
ATOM     21  C   UNL     1      -3.793   4.557   0.798  1.00  0.00     0.043 A 
ATOM     22  C   UNL     1      -2.669   2.078   0.667  1.00  0.00     0.159 A 
ATOM     23  N   UNL     1      -2.376   2.859   1.727  1.00  0.00    -0.236 NA
ATOM     24  N   UNL     1      -3.553   2.409  -0.294  1.00  0.00    -0.236 NA
ATOM     25  C   UNL     1      -2.984   4.058   1.791  1.00  0.00     0.124 A 
ATOM     26  C   UNL     1      -4.099   3.645  -0.200  1.00  0.00     0.124 A 
BRANCH  22  27
ATOM     27  C   UNL     1      -1.837   0.879   0.479  1.00  0.00     0.019 A 
ATOM     28  C   UNL     1       1.826  -0.098   0.979  1.00  0.00     0.044 C 
ATOM     29  C   UNL     1       0.369  -0.209   0.631  1.00  0.00    -0.050 A 
ATOM     30  C   UNL     1      -0.193  -1.404   0.183  1.00  0.00     0.003 A 
ATOM     31  C   UNL     1      -0.461   0.909   0.791  1.00  0.00     0.015 A 
ATOM     32  C   UNL     1      -1.550  -1.461  -0.141  1.00  0.00     0.001 A 
ATOM     33  C   UNL     1      -2.361  -0.327  -0.009  1.00  0.00     0.012 A 
ENDBRANCH  22  27
ENDBRANCH  20  21
ENDBRANCH   8  20
ENDBRANCH   4   7
ENDBRANCH   2   3
ENDBRANCH   1   2
BRANCH   1  34
ATOM     34  C   UNL     1      -1.401   3.038  -3.894  1.00  0.00     0.023 C 
BRANCH  34  35
ATOM     35  C   UNL     1      -0.998   2.180  -5.083  1.00  0.00     0.116 C 
BRANCH  35  36
ATOM     36  N   UNL     1      -1.415   0.779  -5.013  1.00  0.00    -0.352 N 
ATOM     37  C   UNL     1      -0.990  -0.296  -5.780  1.00  0.00     0.251 C 
ATOM     38  H   UNL     1      -2.091   0.572  -4.328  1.00  0.00     0.163 HD
ATOM     39  O   UNL     1      -1.471  -1.413  -5.619  1.00  0.00    -0.269 OA
BRANCH  37  40
ATOM     40  C   UNL     1       0.161  -0.112  -6.698  1.00  0.00     0.039 A 
ATOM     41  C   UNL     1       1.241  -0.992  -6.568  1.00  0.00     0.014 A 
ATOM     42  C   UNL     1       0.298   1.073  -7.413  1.00  0.00     0.014 A 
ATOM     43  C   UNL     1       2.519  -0.540  -6.877  1.00  0.00     0.010 A 
ATOM     44  C   UNL     1       1.570   1.570  -7.598  1.00  0.00     0.010 A 
ATOM     45  C   UNL     1       2.680   0.791  -7.252  1.00  0.00    -0.014 A 
BRANCH  45  46
ATOM     46  C   UNL     1       3.960   1.486  -7.206  1.00  0.00     0.031 A 
ATOM     47  C   UNL     1       4.646   1.840  -8.461  1.00  0.00     0.074 A 
ATOM     48  C   UNL     1       4.463   1.883  -6.016  1.00  0.00     0.049 A 
ATOM     49  N   UNL     1       5.906   2.094  -8.559  1.00  0.00    -0.248 NA
ATOM     50  C   UNL     1       3.950   1.887  -9.739  1.00  0.00     0.031 C 
ATOM     51  C   UNL     1       5.564   2.814  -5.777  1.00  0.00     0.029 A 
ATOM     52  N   UNL     1       4.202   1.329  -4.756  1.00  0.00    -0.354 N 
ATOM     53  C   UNL     1       6.137   2.598  -9.820  1.00  0.00     0.074 A 
ATOM     54  C   UNL     1       4.901   2.381 -10.534  1.00  0.00     0.031 C 
ATOM     55  C   UNL     1       6.082   2.569  -4.563  1.00  0.00     0.029 A 
ATOM     56  C   UNL     1       5.425   1.380  -4.051  1.00  0.00     0.049 A 
ATOM     57  H   UNL     1       3.343   0.976  -4.430  1.00  0.00     0.167 HD
ATOM     58  C   UNL     1       7.306   3.260 -10.062  1.00  0.00     0.037 A 
ATOM     59  C   UNL     1       6.061   0.241  -3.647  1.00  0.00     0.037 A 
ATOM     60  C   UNL     1       8.191   3.191  -8.899  1.00  0.00     0.049 A 
ATOM     61  C   UNL     1       7.456   0.097  -4.208  1.00  0.00     0.074 A 
ATOM     62  C   UNL     1       8.441   4.070  -7.857  1.00  0.00     0.029 A 
ATOM     63  N   UNL     1       8.727   1.966  -8.517  1.00  0.00    -0.354 N 
ATOM     64  N   UNL     1       7.883   0.746  -5.256  1.00  0.00    -0.248 NA
ATOM     65  C   UNL     1       8.470  -0.801  -3.660  1.00  0.00     0.031 C 
ATOM     66  C   UNL     1       9.076   3.349  -6.815  1.00  0.00     0.029 A 
ATOM     67  C   UNL     1       9.236   2.040  -7.235  1.00  0.00     0.049 A 
ATOM     68  H   UNL     1       8.742   1.160  -9.081  1.00  0.00     0.167 HD
ATOM     69  C   UNL     1       9.170   0.370  -5.537  1.00  0.00     0.074 A 
ATOM     70  C   UNL     1       9.500  -0.588  -4.499  1.00  0.00     0.031 C 
ATOM     71  C   UNL     1       9.846   0.875  -6.611  1.00  0.00     0.037 A 
BRANCH  58  72
ATOM     72  C   UNL     1       7.522   4.217 -11.218  1.00  0.00     0.057 A 
ATOM     73  C   UNL     1       8.442   5.281 -11.107  1.00  0.00     0.134 A 
ATOM     74  C   UNL     1       6.819   4.201 -12.435  1.00  0.00     0.134 A 
ATOM     75  F   UNL     1       9.285   5.381 -10.071  1.00  0.00    -0.206 F 
ATOM     76  C   UNL     1       8.551   6.304 -12.060  1.00  0.00     0.040 A 
ATOM     77  C   UNL     1       6.877   5.244 -13.372  1.00  0.00     0.040 A 
ATOM     78  F   UNL     1       6.093   3.145 -12.816  1.00  0.00    -0.206 F 
ATOM     79  C   UNL     1       7.736   6.312 -13.179  1.00  0.00     0.006 A 
ENDBRANCH  58  72
BRANCH  59  80
ATOM     80  C   UNL     1       5.119  -0.878  -3.368  1.00  0.00     0.057 A 
ATOM     81  C   UNL     1       4.130  -0.681  -2.385  1.00  0.00     0.134 A 
ATOM     82  C   UNL     1       4.909  -1.917  -4.278  1.00  0.00     0.134 A 
ATOM     83  F   UNL     1       4.271   0.295  -1.474  1.00  0.00    -0.206 F 
ATOM     84  C   UNL     1       2.922  -1.378  -2.408  1.00  0.00     0.040 A 
ATOM     85  C   UNL     1       3.715  -2.651  -4.280  1.00  0.00     0.040 A 
ATOM     86  F   UNL     1       5.794  -2.158  -5.256  1.00  0.00    -0.206 F 
ATOM     87  C   UNL     1       2.699  -2.349  -3.375  1.00  0.00     0.006 A 
ENDBRANCH  59  80
BRANCH  71  88
ATOM     88  C   UNL     1      11.165   0.382  -7.152  1.00  0.00     0.057 A 
ATOM     89  C   UNL     1      11.605  -0.946  -7.067  1.00  0.00     0.134 A 
ATOM     90  C   UNL     1      11.970   1.232  -7.945  1.00  0.00     0.134 A 
ATOM     91  F   UNL     1      10.892  -1.882  -6.427  1.00  0.00    -0.206 F 
ATOM     92  C   UNL     1      12.777  -1.389  -7.696  1.00  0.00     0.040 A 
ATOM     93  C   UNL     1      13.110   0.788  -8.620  1.00  0.00     0.040 A 
ATOM     94  F   UNL     1      11.667   2.526  -8.122  1.00  0.00    -0.206 F 
ATOM     95  C   UNL     1      13.525  -0.527  -8.489  1.00  0.00     0.006 A 
ENDBRANCH  71  88
ENDBRANCH  45  46
ENDBRANCH  37  40
ENDBRANCH  35  36
ENDBRANCH  34  35
ENDBRANCH   1  34
TORSDOF 14
