REMARK SMILES Cc1c(CC(=O)NCCCCNC(=O)c2ccc(-c3c4nc(c(-c5c(F)cccc5F)c5ccc([nH]5)c(-c5c(F)cccc5F)c5nc(c(-c6c(F)cccc6F)c6ccc3[nH]6)C=C5)C=C4)cc2)cc(-c2ccccc2)cc1-c1ccccc1
REMARK SMILES IDX 9 1 8 2 7 3 5 4 6 5 4 7 3 8 1 9 2 10 78 11 69 12 77 13 70 14
REMARK SMILES IDX 79 15 80 16 84 17 81 18 83 19 82 20 71 21 72 22 76 23 73 24
REMARK SMILES IDX 75 25 74 26 10 27 11 28 12 29 13 30 14 32 15 33 16 34 68 35
REMARK SMILES IDX 17 36 67 37 18 38 19 39 20 40 61 41 21 42 66 43 60 44 62 45
REMARK SMILES IDX 22 46 65 47 59 48 58 49 23 51 49 52 32 53 48 54 33 55 36 56
REMARK SMILES IDX 47 57 63 58 34 59 35 60 46 62 64 63 37 64 24 65 25 66 30 67
REMARK SMILES IDX 26 68 27 69 29 70 31 71 28 72 50 73 51 74 56 75 52 76 53 77
REMARK SMILES IDX 55 78 57 79 54 80 38 81 39 82 44 83 40 84 41 85 43 86 45 87
REMARK SMILES IDX 42 88
REMARK H PARENT 7 6 12 31 62 50 36 61
REMARK Flexibility Score: inf
ROOT
ATOM      1  C   UNL     1       0.460  -0.443   3.228  1.00  0.00     0.023 C 
ENDROOT
BRANCH   1   2
ATOM      2  C   UNL     1       1.454  -1.557   2.868  1.00  0.00     0.116 C 
BRANCH   2   3
ATOM      3  N   UNL     1       0.814  -2.796   2.465  1.00  0.00    -0.356 N 
ATOM      4  C   UNL     1       0.575  -3.289   1.213  1.00  0.00     0.224 C 
ATOM      5  O   UNL     1       0.024  -4.389   1.123  1.00  0.00    -0.275 OA
ATOM      6  H   UNL     1       0.505  -3.367   3.205  1.00  0.00     0.163 HD
BRANCH   4   7
ATOM      7  C   UNL     1       1.014  -2.526  -0.033  1.00  0.00     0.135 C 
BRANCH   7   8
ATOM      8  C   UNL     1       0.340  -1.175  -0.191  1.00  0.00    -0.035 A 
ATOM      9  C   UNL     1       2.555   0.065  -0.411  1.00  0.00     0.045 C 
ATOM     10  C   UNL     1       1.048   0.051  -0.279  1.00  0.00    -0.040 A 
ATOM     11  C   UNL     1       0.315   1.269  -0.286  1.00  0.00    -0.015 A 
ATOM     12  C   UNL     1      -1.071  -1.168  -0.197  1.00  0.00     0.013 A 
ATOM     13  C   UNL     1      -1.096   1.224  -0.254  1.00  0.00     0.017 A 
ATOM     14  C   UNL     1      -1.807   0.019  -0.223  1.00  0.00    -0.017 A 
BRANCH  11  15
ATOM     15  C   UNL     1       0.963   2.595  -0.268  1.00  0.00    -0.018 A 
ATOM     16  C   UNL     1       0.823   3.439   0.849  1.00  0.00     0.009 A 
ATOM     17  C   UNL     1       1.734   3.050  -1.349  1.00  0.00     0.009 A 
ATOM     18  C   UNL     1       1.445   4.689   0.890  1.00  0.00     0.001 A 
ATOM     19  C   UNL     1       2.369   4.294  -1.302  1.00  0.00     0.001 A 
ATOM     20  C   UNL     1       2.223   5.112  -0.184  1.00  0.00     0.000 A 
ENDBRANCH  11  15
BRANCH  14  21
ATOM     21  C   UNL     1      -3.278  -0.005  -0.204  1.00  0.00    -0.018 A 
ATOM     22  C   UNL     1      -3.981  -0.682   0.807  1.00  0.00     0.009 A 
ATOM     23  C   UNL     1      -4.019   0.631  -1.212  1.00  0.00     0.009 A 
ATOM     24  C   UNL     1      -5.378  -0.728   0.805  1.00  0.00     0.001 A 
ATOM     25  C   UNL     1      -5.415   0.584  -1.217  1.00  0.00     0.001 A 
ATOM     26  C   UNL     1      -6.094  -0.097  -0.209  1.00  0.00     0.000 A 
ENDBRANCH  14  21
ENDBRANCH   7   8
ENDBRANCH   4   7
ENDBRANCH   2   3
ENDBRANCH   1   2
BRANCH   1  27
ATOM     27  C   UNL     1      -0.400  -0.705   4.465  1.00  0.00     0.023 C 
BRANCH  27  28
ATOM     28  C   UNL     1       0.389  -0.731   5.765  1.00  0.00     0.116 C 
BRANCH  28  29
ATOM     29  N   UNL     1       0.671   0.571   6.349  1.00  0.00    -0.352 N 
ATOM     30  C   UNL     1       1.508   0.914   7.402  1.00  0.00     0.251 C 
ATOM     31  H   UNL     1       0.195   1.326   5.933  1.00  0.00     0.163 HD
ATOM     32  O   UNL     1       1.513   2.066   7.810  1.00  0.00    -0.269 OA
BRANCH  30  33
ATOM     33  C   UNL     1       2.506  -0.061   7.931  1.00  0.00     0.039 A 
ATOM     34  C   UNL     1       3.763   0.435   8.310  1.00  0.00     0.014 A 
ATOM     35  C   UNL     1       2.317  -1.434   7.842  1.00  0.00     0.014 A 
ATOM     36  C   UNL     1       4.868  -0.415   8.309  1.00  0.00     0.010 A 
ATOM     37  C   UNL     1       3.419  -2.252   7.707  1.00  0.00     0.010 A 
ATOM     38  C   UNL     1       4.701  -1.727   7.875  1.00  0.00    -0.014 A 
BRANCH  38  39
ATOM     39  C   UNL     1       5.799  -2.571   7.424  1.00  0.00     0.031 A 
ATOM     40  C   UNL     1       6.223  -3.751   8.202  1.00  0.00     0.074 A 
ATOM     41  C   UNL     1       6.366  -2.327   6.221  1.00  0.00     0.049 A 
ATOM     42  N   UNL     1       7.423  -4.228   8.179  1.00  0.00    -0.248 NA
ATOM     43  C   UNL     1       5.329  -4.480   9.095  1.00  0.00     0.031 C 
ATOM     44  C   UNL     1       7.243  -3.213   5.462  1.00  0.00     0.029 A 
ATOM     45  N   UNL     1       6.390  -1.122   5.510  1.00  0.00    -0.354 N 
ATOM     46  C   UNL     1       7.394  -5.449   8.810  1.00  0.00     0.074 A 
ATOM     47  C   UNL     1       6.087  -5.531   9.422  1.00  0.00     0.031 C 
ATOM     48  C   UNL     1       7.916  -2.489   4.554  1.00  0.00     0.029 A 
ATOM     49  C   UNL     1       7.606  -1.091   4.799  1.00  0.00     0.049 A 
ATOM     50  H   UNL     1       5.691  -0.428   5.508  1.00  0.00     0.167 HD
ATOM     51  C   UNL     1       8.416  -6.332   8.631  1.00  0.00     0.037 A 
ATOM     52  C   UNL     1       8.535  -0.116   5.016  1.00  0.00     0.037 A 
ATOM     53  C   UNL     1       9.416  -5.811   7.707  1.00  0.00     0.049 A 
ATOM     54  C   UNL     1       9.867  -0.640   5.495  1.00  0.00     0.074 A 
ATOM     55  C   UNL     1       9.587  -5.989   6.344  1.00  0.00     0.029 A 
ATOM     56  N   UNL     1      10.215  -4.734   8.069  1.00  0.00    -0.354 N 
ATOM     57  N   UNL     1      10.030  -1.813   6.039  1.00  0.00    -0.248 NA
ATOM     58  C   UNL     1      11.112   0.122   5.430  1.00  0.00     0.031 C 
ATOM     59  C   UNL     1      10.476  -4.995   5.877  1.00  0.00     0.029 A 
ATOM     60  C   UNL     1      10.855  -4.220   6.958  1.00  0.00     0.049 A 
ATOM     61  H   UNL     1      10.312  -4.388   8.986  1.00  0.00     0.167 HD
ATOM     62  C   UNL     1      11.338  -1.964   6.421  1.00  0.00     0.074 A 
ATOM     63  C   UNL     1      11.980  -0.734   6.000  1.00  0.00     0.031 C 
ATOM     64  C   UNL     1      11.766  -3.091   7.063  1.00  0.00     0.037 A 
BRANCH  51  65
ATOM     65  C   UNL     1       8.321  -7.782   9.035  1.00  0.00     0.057 A 
ATOM     66  C   UNL     1       8.889  -8.802   8.247  1.00  0.00     0.134 A 
ATOM     67  C   UNL     1       7.643  -8.236  10.179  1.00  0.00     0.134 A 
ATOM     68  F   UNL     1       9.656  -8.531   7.184  1.00  0.00    -0.206 F 
ATOM     69  C   UNL     1       8.690 -10.163   8.505  1.00  0.00     0.040 A 
ATOM     70  C   UNL     1       7.395  -9.594  10.425  1.00  0.00     0.040 A 
ATOM     71  F   UNL     1       7.217  -7.379  11.119  1.00  0.00    -0.206 F 
ATOM     72  C   UNL     1       7.906 -10.565   9.575  1.00  0.00     0.006 A 
ENDBRANCH  51  65
BRANCH  52  73
ATOM     73  C   UNL     1       7.941   1.181   5.428  1.00  0.00     0.057 A 
ATOM     74  C   UNL     1       7.177   1.898   4.492  1.00  0.00     0.134 A 
ATOM     75  C   UNL     1       7.774   1.511   6.777  1.00  0.00     0.134 A 
ATOM     76  F   UNL     1       7.290   1.626   3.182  1.00  0.00    -0.206 F 
ATOM     77  C   UNL     1       6.207   2.822   4.885  1.00  0.00     0.040 A 
ATOM     78  C   UNL     1       6.809   2.440   7.182  1.00  0.00     0.040 A 
ATOM     79  F   UNL     1       8.451   0.853   7.729  1.00  0.00    -0.206 F 
ATOM     80  C   UNL     1       5.996   3.068   6.239  1.00  0.00     0.006 A 
ENDBRANCH  52  73
BRANCH  64  81
ATOM     81  C   UNL     1      13.097  -3.292   7.749  1.00  0.00     0.057 A 
ATOM     82  C   UNL     1      13.876  -2.258   8.285  1.00  0.00     0.134 A 
ATOM     83  C   UNL     1      13.568  -4.597   8.028  1.00  0.00     0.134 A 
ATOM     84  F   UNL     1      13.501  -0.975   8.195  1.00  0.00    -0.206 F 
ATOM     85  C   UNL     1      15.060  -2.498   8.998  1.00  0.00     0.040 A 
ATOM     86  C   UNL     1      14.716  -4.850   8.784  1.00  0.00     0.040 A 
ATOM     87  F   UNL     1      12.919  -5.691   7.600  1.00  0.00    -0.206 F 
ATOM     88  C   UNL     1      15.476  -3.797   9.262  1.00  0.00     0.006 A 
ENDBRANCH  64  81
ENDBRANCH  38  39
ENDBRANCH  30  33
ENDBRANCH  28  29
ENDBRANCH  27  28
ENDBRANCH   1  27
TORSDOF 14
