REMARK SMILES C#CC[N@H+](CC(=O)NCCCCNC(=O)c1ccc(-c2c3nc(c(-c4c(F)cccc4F)c4ccc([nH]4)c(-c4c(F)cccc4F)c4nc(c(-c5c(F)cccc5F)c5ccc2[nH]5)C=C4)C=C3)cc1)[C@H](C)C(=O)NCCC
REMARK SMILES IDX 9 1 8 2 6 3 7 4 5 6 4 7 3 9 2 10 1 11 70 12 71 13 72 14
REMARK SMILES IDX 73 15 74 16 75 18 76 19 77 20 10 21 11 22 12 23 13 24 14 25
REMARK SMILES IDX 15 27 16 28 17 29 69 30 18 31 68 32 19 33 20 34 21 35 62 36
REMARK SMILES IDX 22 37 67 38 61 39 63 40 23 41 66 42 60 43 59 44 24 46 50 47
REMARK SMILES IDX 33 48 49 49 34 50 37 51 48 52 64 53 35 54 36 55 47 57 65 58
REMARK SMILES IDX 38 59 25 60 26 61 31 62 27 63 28 64 30 65 32 66 29 67 51 68
REMARK SMILES IDX 52 69 57 70 53 71 54 72 56 73 58 74 55 75 39 76 40 77 45 78
REMARK SMILES IDX 41 79 42 80 44 81 46 82 43 83
REMARK H PARENT 8 5 4 8 74 17 13 26 63 45 37 56
REMARK Flexibility Score: inf
ROOT
ATOM      1  C   UNL     1      -3.513  -1.760  -2.947  1.00  0.00     0.116 C 
ENDROOT
BRANCH   1   2
ATOM      2  N   UNL     1      -4.140  -2.999  -2.519  1.00  0.00    -0.351 N 
ATOM      3  C   UNL     1      -4.248  -3.548  -1.262  1.00  0.00     0.275 C 
ATOM      4  O   UNL     1      -4.775  -4.656  -1.162  1.00  0.00    -0.269 OA
ATOM      5  H   UNL     1      -4.551  -3.528  -3.240  1.00  0.00     0.163 HD
BRANCH   3   6
ATOM      6  C   UNL     1      -3.740  -2.765  -0.037  1.00  0.00     0.364 C 
BRANCH   6   7
ATOM      7  N   UNL     1      -2.305  -2.969   0.338  1.00  0.00    -0.307 N 
ATOM      8  H   UNL     1      -2.195  -3.849   0.841  1.00  0.00     0.350 HD
BRANCH   7   9
ATOM      9  C   UNL     1      -1.468  -3.197  -0.826  1.00  0.00     0.355 C 
BRANCH   9  10
ATOM     10  C   UNL     1      -0.051  -3.557  -0.714  1.00  0.00    -0.047 C 
ATOM     11  C   UNL     1       1.128  -3.717  -0.857  1.00  0.00     0.010 C 
ENDBRANCH   9  10
ENDBRANCH   7   9
BRANCH   7  12
ATOM     12  C   UNL     1      -1.853  -1.972   1.364  1.00  0.00     0.272 C 
ATOM     13  C   UNL     1      -2.668  -0.689   1.612  1.00  0.00     0.086 C 
BRANCH  12  14
ATOM     14  C   UNL     1      -0.346  -1.628   1.388  1.00  0.00     0.278 C 
ATOM     15  O   UNL     1       0.394  -2.118   2.249  1.00  0.00    -0.268 OA
ATOM     16  N   UNL     1       0.233  -0.742   0.521  1.00  0.00    -0.351 N 
ATOM     17  H   UNL     1       1.140  -0.463   0.783  1.00  0.00     0.163 HD
BRANCH  16  18
ATOM     18  C   UNL     1      -0.237  -0.135  -0.713  1.00  0.00     0.116 C 
BRANCH  18  19
ATOM     19  C   UNL     1       0.316   1.270  -0.924  1.00  0.00     0.018 C 
ATOM     20  C   UNL     1       1.786   1.257  -1.323  1.00  0.00     0.006 C 
ENDBRANCH  18  19
ENDBRANCH  16  18
ENDBRANCH  12  14
ENDBRANCH   7  12
ENDBRANCH   6   7
ENDBRANCH   3   6
ENDBRANCH   1   2
BRANCH   1  21
ATOM     21  C   UNL     1      -2.208  -2.008  -3.718  1.00  0.00     0.023 C 
BRANCH  21  22
ATOM     22  C   UNL     1      -2.376  -2.529  -5.127  1.00  0.00     0.023 C 
BRANCH  22  23
ATOM     23  C   UNL     1      -3.048  -1.540  -6.045  1.00  0.00     0.116 C 
BRANCH  23  24
ATOM     24  N   UNL     1      -2.289  -0.301  -6.191  1.00  0.00    -0.352 N 
ATOM     25  C   UNL     1      -1.908   0.318  -7.359  1.00  0.00     0.251 C 
ATOM     26  H   UNL     1      -2.020   0.144  -5.355  1.00  0.00     0.163 HD
ATOM     27  O   UNL     1      -1.138   1.270  -7.356  1.00  0.00    -0.269 OA
BRANCH  25  28
ATOM     28  C   UNL     1      -2.434  -0.236  -8.618  1.00  0.00     0.039 A 
ATOM     29  C   UNL     1      -1.548  -0.622  -9.623  1.00  0.00     0.014 A 
ATOM     30  C   UNL     1      -3.797  -0.528  -8.704  1.00  0.00     0.014 A 
ATOM     31  C   UNL     1      -2.025  -1.385 -10.688  1.00  0.00     0.010 A 
ATOM     32  C   UNL     1      -4.237  -1.395  -9.687  1.00  0.00     0.010 A 
ATOM     33  C   UNL     1      -3.361  -1.819 -10.699  1.00  0.00    -0.014 A 
BRANCH  33  34
ATOM     34  C   UNL     1      -3.909  -2.681 -11.773  1.00  0.00     0.031 A 
ATOM     35  C   UNL     1      -5.070  -2.171 -12.581  1.00  0.00     0.074 A 
ATOM     36  C   UNL     1      -3.447  -3.933 -11.952  1.00  0.00     0.049 A 
ATOM     37  N   UNL     1      -5.826  -2.806 -13.438  1.00  0.00    -0.248 NA
ATOM     38  C   UNL     1      -5.460  -0.767 -12.361  1.00  0.00     0.031 C 
ATOM     39  C   UNL     1      -2.344  -4.550 -11.213  1.00  0.00     0.029 A 
ATOM     40  N   UNL     1      -3.869  -4.923 -12.804  1.00  0.00    -0.354 N 
ATOM     41  C   UNL     1      -6.788  -1.887 -13.836  1.00  0.00     0.074 A 
ATOM     42  C   UNL     1      -6.569  -0.679 -13.075  1.00  0.00     0.031 C 
ATOM     43  C   UNL     1      -2.164  -5.805 -11.658  1.00  0.00     0.029 A 
ATOM     44  C   UNL     1      -3.174  -6.101 -12.669  1.00  0.00     0.049 A 
ATOM     45  H   UNL     1      -4.601  -4.801 -13.451  1.00  0.00     0.167 HD
ATOM     46  C   UNL     1      -7.751  -2.028 -14.775  1.00  0.00     0.037 A 
ATOM     47  C   UNL     1      -3.351  -7.291 -13.277  1.00  0.00     0.037 A 
ATOM     48  C   UNL     1      -7.948  -3.227 -15.541  1.00  0.00     0.049 A 
ATOM     49  C   UNL     1      -4.464  -7.441 -14.282  1.00  0.00     0.074 A 
ATOM     50  C   UNL     1      -8.868  -3.463 -16.546  1.00  0.00     0.029 A 
ATOM     51  N   UNL     1      -7.214  -4.393 -15.383  1.00  0.00    -0.354 N 
ATOM     52  N   UNL     1      -5.338  -6.551 -14.687  1.00  0.00    -0.248 NA
ATOM     53  C   UNL     1      -4.617  -8.759 -14.915  1.00  0.00     0.031 C 
ATOM     54  C   UNL     1      -8.734  -4.792 -16.951  1.00  0.00     0.029 A 
ATOM     55  C   UNL     1      -7.678  -5.360 -16.256  1.00  0.00     0.049 A 
ATOM     56  H   UNL     1      -6.473  -4.514 -14.746  1.00  0.00     0.167 HD
ATOM     57  C   UNL     1      -6.109  -7.185 -15.654  1.00  0.00     0.074 A 
ATOM     58  C   UNL     1      -5.602  -8.535 -15.773  1.00  0.00     0.031 C 
ATOM     59  C   UNL     1      -7.138  -6.690 -16.383  1.00  0.00     0.037 A 
BRANCH  46  60
ATOM     60  C   UNL     1      -8.660  -0.859 -15.017  1.00  0.00     0.057 A 
ATOM     61  C   UNL     1      -8.196   0.339 -15.579  1.00  0.00     0.134 A 
ATOM     62  C   UNL     1     -10.023  -0.939 -14.704  1.00  0.00     0.134 A 
ATOM     63  F   UNL     1      -6.899   0.488 -15.888  1.00  0.00    -0.206 F 
ATOM     64  C   UNL     1      -9.047   1.424 -15.791  1.00  0.00     0.040 A 
ATOM     65  C   UNL     1     -10.891   0.127 -14.946  1.00  0.00     0.040 A 
ATOM     66  F   UNL     1     -10.535  -2.056 -14.166  1.00  0.00    -0.206 F 
ATOM     67  C   UNL     1     -10.401   1.316 -15.482  1.00  0.00     0.006 A 
ENDBRANCH  46  60
BRANCH  47  68
ATOM     68  C   UNL     1      -2.456  -8.436 -12.963  1.00  0.00     0.057 A 
ATOM     69  C   UNL     1      -1.581  -8.953 -13.927  1.00  0.00     0.134 A 
ATOM     70  C   UNL     1      -2.468  -9.059 -11.709  1.00  0.00     0.134 A 
ATOM     71  F   UNL     1      -1.533  -8.412 -15.153  1.00  0.00    -0.206 F 
ATOM     72  C   UNL     1      -0.776 -10.063 -13.667  1.00  0.00     0.040 A 
ATOM     73  C   UNL     1      -1.645 -10.150 -11.425  1.00  0.00     0.040 A 
ATOM     74  F   UNL     1      -3.274  -8.608 -10.736  1.00  0.00    -0.206 F 
ATOM     75  C   UNL     1      -0.804 -10.663 -12.410  1.00  0.00     0.006 A 
ENDBRANCH  47  68
BRANCH  59  76
ATOM     76  C   UNL     1      -7.745  -7.575 -17.433  1.00  0.00     0.057 A 
ATOM     77  C   UNL     1      -8.558  -8.668 -17.113  1.00  0.00     0.134 A 
ATOM     78  C   UNL     1      -7.588  -7.259 -18.790  1.00  0.00     0.134 A 
ATOM     79  F   UNL     1      -8.742  -9.029 -15.834  1.00  0.00    -0.206 F 
ATOM     80  C   UNL     1      -9.187  -9.421 -18.106  1.00  0.00     0.040 A 
ATOM     81  C   UNL     1      -8.237  -7.984 -19.789  1.00  0.00     0.040 A 
ATOM     82  F   UNL     1      -6.831  -6.216 -19.164  1.00  0.00    -0.206 F 
ATOM     83  C   UNL     1      -9.038  -9.071 -19.448  1.00  0.00     0.006 A 
ENDBRANCH  59  76
ENDBRANCH  33  34
ENDBRANCH  25  28
ENDBRANCH  23  24
ENDBRANCH  22  23
ENDBRANCH  21  22
ENDBRANCH   1  21
TORSDOF 18
