REMARK SMILES [NH3+][C@]1(C(=O)NCCCCNC(=O)c2ccc(-c3c4nc(c(-c5c(F)cccc5F)c5ccc([nH]5)c(-c5c(F)cccc5F)c5nc(c(-c6c(F)cccc6F)c6ccc3[nH]6)C=C5)C=C4)cc2)CC[C@@H](Sc2ccc(Cl)c(Cl)c2)C1
REMARK SMILES IDX 7 1 6 2 5 3 3 4 4 5 2 7 67 8 79 9 68 10 69 11 1 12 70 16
REMARK SMILES IDX 71 17 72 18 78 19 73 20 76 21 74 22 77 23 75 24 8 25 9 26
REMARK SMILES IDX 10 27 11 28 12 30 13 31 14 32 66 33 15 34 65 35 16 36 17 37
REMARK SMILES IDX 18 38 59 39 19 40 64 41 58 42 60 43 20 44 63 45 57 46 56 47
REMARK SMILES IDX 21 49 47 50 30 51 46 52 31 53 34 54 45 55 61 56 32 57 33 58
REMARK SMILES IDX 44 60 62 61 35 62 22 63 23 64 28 65 24 66 25 67 27 68 29 69
REMARK SMILES IDX 26 70 48 71 49 72 54 73 50 74 51 75 53 76 55 77 52 78 36 79
REMARK SMILES IDX 37 80 42 81 38 82 39 83 41 84 43 85 40 86
REMARK H PARENT 5 6 1 13 1 14 1 15 10 29 60 48 34 59
REMARK Flexibility Score: inf
ROOT
ATOM      1  C   UNL     1       4.490   1.278   0.788  1.00  0.00     0.023 C 
ENDROOT
BRANCH   1   2
ATOM      2  C   UNL     1       3.020   1.598   1.060  1.00  0.00     0.116 C 
BRANCH   2   3
ATOM      3  N   UNL     1       2.111   1.003   0.098  1.00  0.00    -0.351 N 
ATOM      4  C   UNL     1       1.002   0.233   0.164  1.00  0.00     0.281 C 
ATOM      5  O   UNL     1       0.478   0.004  -0.941  1.00  0.00    -0.268 OA
ATOM      6  H   UNL     1       2.364   1.211  -0.831  1.00  0.00     0.163 HD
BRANCH   4   7
ATOM      7  C   UNL     1       0.312  -0.378   1.440  1.00  0.00     0.175 C 
ATOM      8  C   UNL     1       0.356  -1.928   1.345  1.00  0.00     0.080 C 
ATOM      9  C   UNL     1       0.761  -0.056   2.868  1.00  0.00     0.094 C 
ATOM     10  C   UNL     1       0.791  -2.462   2.707  1.00  0.00     0.022 C 
ATOM     11  C   UNL     1       1.464  -1.304   3.420  1.00  0.00     0.058 C 
BRANCH   7  12
ATOM     12  N   UNL     1      -1.119   0.034   1.339  1.00  0.00    -0.345 N 
ATOM     13  H   UNL     1      -1.635  -0.330   2.140  1.00  0.00     0.345 HD
ATOM     14  H   UNL     1      -1.521  -0.340   0.479  1.00  0.00     0.345 HD
ATOM     15  H   UNL     1      -1.181   1.052   1.329  1.00  0.00     0.345 HD
ENDBRANCH   7  12
BRANCH  11  16
ATOM     16  S   UNL     1       3.302  -1.232   3.522  1.00  0.00    -0.122 SA
BRANCH  16  17
ATOM     17  C   UNL     1       4.004  -2.242   2.228  1.00  0.00     0.009 A 
ATOM     18  C   UNL     1       5.085  -3.072   2.543  1.00  0.00     0.017 A 
ATOM     19  C   UNL     1       3.702  -2.058   0.883  1.00  0.00     0.037 A 
ATOM     20  C   UNL     1       5.843  -3.682   1.532  1.00  0.00     0.023 A 
ATOM     21  C   UNL     1       4.462  -2.641  -0.138  1.00  0.00     0.060 A 
ATOM     22  C   UNL     1       5.543  -3.455   0.188  1.00  0.00     0.059 A 
ATOM     23  Cl  UNL     1       4.059  -2.223  -1.766  1.00  0.00    -0.083 Cl
ATOM     24  Cl  UNL     1       6.568  -4.153  -1.011  1.00  0.00    -0.083 Cl
ENDBRANCH  16  17
ENDBRANCH  11  16
ENDBRANCH   4   7
ENDBRANCH   2   3
ENDBRANCH   1   2
BRANCH   1  25
ATOM     25  C   UNL     1       5.069   1.866  -0.489  1.00  0.00     0.023 C 
BRANCH  25  26
ATOM     26  C   UNL     1       5.116   3.382  -0.490  1.00  0.00     0.116 C 
BRANCH  26  27
ATOM     27  N   UNL     1       5.896   3.916   0.623  1.00  0.00    -0.352 N 
ATOM     28  C   UNL     1       7.048   4.665   0.609  1.00  0.00     0.251 C 
ATOM     29  H   UNL     1       5.544   3.708   1.519  1.00  0.00     0.163 HD
ATOM     30  O   UNL     1       7.680   4.856   1.633  1.00  0.00    -0.269 OA
BRANCH  28  31
ATOM     31  C   UNL     1       7.517   5.223  -0.675  1.00  0.00     0.039 A 
ATOM     32  C   UNL     1       8.870   5.139  -1.011  1.00  0.00     0.014 A 
ATOM     33  C   UNL     1       6.601   5.795  -1.560  1.00  0.00     0.014 A 
ATOM     34  C   UNL     1       9.288   5.564  -2.273  1.00  0.00     0.010 A 
ATOM     35  C   UNL     1       6.996   6.101  -2.851  1.00  0.00     0.010 A 
ATOM     36  C   UNL     1       8.347   6.009  -3.215  1.00  0.00    -0.014 A 
BRANCH  36  37
ATOM     37  C   UNL     1       8.742   6.428  -4.582  1.00  0.00     0.031 A 
ATOM     38  C   UNL     1       8.445   7.831  -5.037  1.00  0.00     0.074 A 
ATOM     39  C   UNL     1       9.273   5.530  -5.433  1.00  0.00     0.049 A 
ATOM     40  N   UNL     1       8.588   8.365  -6.222  1.00  0.00    -0.248 NA
ATOM     41  C   UNL     1       7.861   8.743  -4.038  1.00  0.00     0.031 C 
ATOM     42  C   UNL     1       9.539   4.122  -5.129  1.00  0.00     0.029 A 
ATOM     43  N   UNL     1       9.671   5.667  -6.738  1.00  0.00    -0.354 N 
ATOM     44  C   UNL     1       8.077   9.653  -6.118  1.00  0.00     0.074 A 
ATOM     45  C   UNL     1       7.562   9.800  -4.776  1.00  0.00     0.031 C 
ATOM     46  C   UNL     1      10.085   3.534  -6.206  1.00  0.00     0.029 A 
ATOM     47  C   UNL     1      10.171   4.511  -7.287  1.00  0.00     0.049 A 
ATOM     48  H   UNL     1       9.605   6.514  -7.235  1.00  0.00     0.167 HD
ATOM     49  C   UNL     1       8.067  10.636  -7.047  1.00  0.00     0.037 A 
ATOM     50  C   UNL     1      10.643   4.270  -8.524  1.00  0.00     0.037 A 
ATOM     51  C   UNL     1       8.642  10.502  -8.358  1.00  0.00     0.049 A 
ATOM     52  C   UNL     1      10.668   5.394  -9.523  1.00  0.00     0.074 A 
ATOM     53  C   UNL     1       8.772  11.461  -9.345  1.00  0.00     0.029 A 
ATOM     54  N   UNL     1       9.192   9.330  -8.857  1.00  0.00    -0.354 N 
ATOM     55  N   UNL     1      10.255   6.631  -9.386  1.00  0.00    -0.248 NA
ATOM     56  C   UNL     1      11.232   5.091 -10.846  1.00  0.00     0.031 C 
ATOM     57  C   UNL     1       9.371  10.860 -10.457  1.00  0.00     0.029 A 
ATOM     58  C   UNL     1       9.651   9.539 -10.145  1.00  0.00     0.049 A 
ATOM     59  H   UNL     1       9.248   8.478  -8.367  1.00  0.00     0.167 HD
ATOM     60  C   UNL     1      10.534   7.261 -10.592  1.00  0.00     0.074 A 
ATOM     61  C   UNL     1      11.165   6.273 -11.443  1.00  0.00     0.031 C 
ATOM     62  C   UNL     1      10.289   8.541 -10.965  1.00  0.00     0.037 A 
BRANCH  49  63
ATOM     63  C   UNL     1       7.433  11.943  -6.668  1.00  0.00     0.057 A 
ATOM     64  C   UNL     1       8.009  12.799  -5.720  1.00  0.00     0.134 A 
ATOM     65  C   UNL     1       6.241  12.360  -7.272  1.00  0.00     0.134 A 
ATOM     66  F   UNL     1       9.143  12.453  -5.091  1.00  0.00    -0.206 F 
ATOM     67  C   UNL     1       7.407  14.007  -5.363  1.00  0.00     0.040 A 
ATOM     68  C   UNL     1       5.644  13.579  -6.946  1.00  0.00     0.040 A 
ATOM     69  F   UNL     1       5.636  11.591  -8.191  1.00  0.00    -0.206 F 
ATOM     70  C   UNL     1       6.223  14.402  -5.982  1.00  0.00     0.006 A 
ENDBRANCH  49  63
BRANCH  50  71
ATOM     71  C   UNL     1      11.164   2.925  -8.877  1.00  0.00     0.057 A 
ATOM     72  C   UNL     1      12.533   2.715  -9.083  1.00  0.00     0.134 A 
ATOM     73  C   UNL     1      10.314   1.824  -9.028  1.00  0.00     0.134 A 
ATOM     74  F   UNL     1      13.396   3.735  -8.969  1.00  0.00    -0.206 F 
ATOM     75  C   UNL     1      13.036   1.465  -9.448  1.00  0.00     0.040 A 
ATOM     76  C   UNL     1      10.806   0.562  -9.369  1.00  0.00     0.040 A 
ATOM     77  F   UNL     1       8.994   1.956  -8.835  1.00  0.00    -0.206 F 
ATOM     78  C   UNL     1      12.170   0.383  -9.588  1.00  0.00     0.006 A 
ENDBRANCH  50  71
BRANCH  62  79
ATOM     79  C   UNL     1      10.739   8.952 -12.334  1.00  0.00     0.057 A 
ATOM     80  C   UNL     1      10.070   8.527 -13.489  1.00  0.00     0.134 A 
ATOM     81  C   UNL     1      11.824   9.823 -12.494  1.00  0.00     0.134 A 
ATOM     82  F   UNL     1       9.031   7.684 -13.401  1.00  0.00    -0.206 F 
ATOM     83  C   UNL     1      10.480   8.938 -14.758  1.00  0.00     0.040 A 
ATOM     84  C   UNL     1      12.226  10.261 -13.755  1.00  0.00     0.040 A 
ATOM     85  F   UNL     1      12.499  10.274 -11.426  1.00  0.00    -0.206 F 
ATOM     86  C   UNL     1      11.556   9.813 -14.893  1.00  0.00     0.006 A 
ENDBRANCH  62  79
ENDBRANCH  36  37
ENDBRANCH  28  31
ENDBRANCH  26  27
ENDBRANCH  25  26
ENDBRANCH   1  25
TORSDOF 14
