REMARK SMILES Cc1cc(C)cc(C(=O)N2CC[C@H](C(=O)NCCCCNC(=O)c3ccc(-c4c5nc(c(-c6c(F)cccc6F)c6ccc([nH]6)c(-c6c(F)cccc6F)c6nc(c(-c7c(F)cccc7F)c7ccc4[nH]7)C=C6)C=C5)cc3)[C@@H]2C)c1
REMARK SMILES IDX 18 1 17 2 16 3 14 4 15 5 13 7 10 8 11 9 78 10 12 11 79 12
REMARK SMILES IDX 8 13 9 14 7 15 1 16 2 17 3 18 80 19 4 20 5 21 6 22 19 23
REMARK SMILES IDX 20 24 21 25 22 26 23 28 24 29 25 30 77 31 26 32 76 33 27 34
REMARK SMILES IDX 28 35 29 36 70 37 30 38 75 39 69 40 71 41 31 42 74 43 68 44
REMARK SMILES IDX 67 45 32 47 58 48 41 49 57 50 42 51 45 52 56 53 72 54 43 55
REMARK SMILES IDX 44 56 55 58 73 59 46 60 33 61 34 62 39 63 35 64 36 65 38 66
REMARK SMILES IDX 40 67 37 68 59 69 60 70 65 71 61 72 62 73 64 74 66 75 63 76
REMARK SMILES IDX 47 77 48 78 53 79 49 80 50 81 52 82 54 83 51 84
REMARK H PARENT 16 6 21 27 71 46 45 57
REMARK Flexibility Score: inf
ROOT
ATOM      1  C   UNL     1       5.665  -4.574   3.810  1.00  0.00     0.023 C 
ENDROOT
BRANCH   1   2
ATOM      2  C   UNL     1       5.748  -4.947   2.333  1.00  0.00     0.116 C 
BRANCH   2   3
ATOM      3  N   UNL     1       4.827  -6.013   1.983  1.00  0.00    -0.356 N 
ATOM      4  C   UNL     1       3.804  -6.039   1.086  1.00  0.00     0.225 C 
ATOM      5  O   UNL     1       3.205  -7.103   0.931  1.00  0.00    -0.275 OA
ATOM      6  H   UNL     1       4.966  -6.854   2.475  1.00  0.00     0.163 HD
BRANCH   4   7
ATOM      7  C   UNL     1       3.427  -4.780   0.325  1.00  0.00     0.102 C 
ATOM      8  N   UNL     1       1.227  -3.986  -0.122  1.00  0.00    -0.335 N 
ATOM      9  C   UNL     1       1.453  -5.100  -1.015  1.00  0.00     0.121 C 
ATOM     10  C   UNL     1       2.253  -3.969   0.932  1.00  0.00     0.094 C 
ATOM     11  C   UNL     1       2.963  -5.140  -1.099  1.00  0.00     0.037 C 
ATOM     12  C   UNL     1       1.677  -4.512   2.242  1.00  0.00     0.032 C 
BRANCH   8  13
ATOM     13  C   UNL     1       0.080  -3.230  -0.269  1.00  0.00     0.254 C 
ATOM     14  O   UNL     1      -0.945  -3.714  -0.753  1.00  0.00    -0.269 OA
BRANCH  13  15
ATOM     15  C   UNL     1       0.098  -1.763   0.002  1.00  0.00     0.040 A 
ATOM     16  C   UNL     1       2.498   1.201  -0.040  1.00  0.00     0.044 C 
ATOM     17  C   UNL     1       1.235   0.394   0.027  1.00  0.00    -0.050 A 
ATOM     18  C   UNL     1      -0.003   1.038   0.129  1.00  0.00     0.006 A 
ATOM     19  C   UNL     1       1.272  -1.004  -0.076  1.00  0.00     0.017 A 
ATOM     20  C   UNL     1      -1.195   0.303   0.149  1.00  0.00    -0.050 A 
ATOM     21  C   UNL     1      -2.514   1.017   0.135  1.00  0.00     0.044 C 
ATOM     22  C   UNL     1      -1.133  -1.097   0.109  1.00  0.00     0.017 A 
ENDBRANCH  13  15
ENDBRANCH   8  13
ENDBRANCH   4   7
ENDBRANCH   2   3
ENDBRANCH   1   2
BRANCH   1  23
ATOM     23  C   UNL     1       5.963  -5.714   4.786  1.00  0.00     0.023 C 
BRANCH  23  24
ATOM     24  C   UNL     1       7.299  -6.420   4.582  1.00  0.00     0.116 C 
BRANCH  24  25
ATOM     25  N   UNL     1       8.440  -5.532   4.737  1.00  0.00    -0.352 N 
ATOM     26  C   UNL     1       9.563  -5.681   5.514  1.00  0.00     0.251 C 
ATOM     27  H   UNL     1       8.402  -4.703   4.208  1.00  0.00     0.163 HD
ATOM     28  O   UNL     1      10.360  -4.751   5.622  1.00  0.00    -0.269 OA
BRANCH  26  29
ATOM     29  C   UNL     1       9.801  -6.943   6.247  1.00  0.00     0.039 A 
ATOM     30  C   UNL     1      10.215  -6.879   7.581  1.00  0.00     0.014 A 
ATOM     31  C   UNL     1       9.614  -8.184   5.632  1.00  0.00     0.014 A 
ATOM     32  C   UNL     1      10.367  -8.056   8.317  1.00  0.00     0.010 A 
ATOM     33  C   UNL     1       9.692  -9.351   6.388  1.00  0.00     0.010 A 
ATOM     34  C   UNL     1      10.066  -9.301   7.740  1.00  0.00    -0.014 A 
BRANCH  34  35
ATOM     35  C   UNL     1      10.126 -10.555   8.537  1.00  0.00     0.031 A 
ATOM     36  C   UNL     1      11.095 -11.645   8.168  1.00  0.00     0.074 A 
ATOM     37  C   UNL     1       9.266 -10.738   9.560  1.00  0.00     0.049 A 
ATOM     38  N   UNL     1      11.243 -12.833   8.697  1.00  0.00    -0.248 NA
ATOM     39  C   UNL     1      12.002 -11.373   7.041  1.00  0.00     0.031 C 
ATOM     40  C   UNL     1       8.249  -9.778   9.994  1.00  0.00     0.029 A 
ATOM     41  N   UNL     1       9.102 -11.800  10.414  1.00  0.00    -0.354 N 
ATOM     42  C   UNL     1      12.251 -13.450   7.966  1.00  0.00     0.074 A 
ATOM     43  C   UNL     1      12.640 -12.528   6.921  1.00  0.00     0.031 C 
ATOM     44  C   UNL     1       7.583 -10.286  11.044  1.00  0.00     0.029 A 
ATOM     45  C   UNL     1       8.093 -11.622  11.330  1.00  0.00     0.049 A 
ATOM     46  H   UNL     1       9.655 -12.614  10.373  1.00  0.00     0.167 HD
ATOM     47  C   UNL     1      12.820 -14.664   8.163  1.00  0.00     0.037 A 
ATOM     48  C   UNL     1       7.623 -12.448  12.285  1.00  0.00     0.037 A 
ATOM     49  C   UNL     1      12.445 -15.574   9.213  1.00  0.00     0.049 A 
ATOM     50  C   UNL     1       8.254 -13.803  12.462  1.00  0.00     0.074 A 
ATOM     51  C   UNL     1      12.994 -16.808   9.520  1.00  0.00     0.029 A 
ATOM     52  N   UNL     1      11.427 -15.352  10.127  1.00  0.00    -0.354 N 
ATOM     53  N   UNL     1       9.250 -14.344  11.804  1.00  0.00    -0.248 NA
ATOM     54  C   UNL     1       7.699 -14.659  13.520  1.00  0.00     0.031 C 
ATOM     55  C   UNL     1      12.276 -17.353  10.588  1.00  0.00     0.029 A 
ATOM     56  C   UNL     1      11.318 -16.435  10.984  1.00  0.00     0.049 A 
ATOM     57  H   UNL     1      10.865 -14.544  10.162  1.00  0.00     0.167 HD
ATOM     58  C   UNL     1       9.463 -15.586  12.389  1.00  0.00     0.074 A 
ATOM     59  C   UNL     1       8.503 -15.711  13.466  1.00  0.00     0.031 C 
ATOM     60  C   UNL     1      10.369 -16.539  12.063  1.00  0.00     0.037 A 
BRANCH  47  61
ATOM     61  C   UNL     1      13.920 -15.078   7.229  1.00  0.00     0.057 A 
ATOM     62  C   UNL     1      15.182 -14.470   7.262  1.00  0.00     0.134 A 
ATOM     63  C   UNL     1      13.738 -16.136   6.329  1.00  0.00     0.134 A 
ATOM     64  F   UNL     1      15.421 -13.443   8.093  1.00  0.00    -0.206 F 
ATOM     65  C   UNL     1      16.216 -14.885   6.422  1.00  0.00     0.040 A 
ATOM     66  C   UNL     1      14.772 -16.579   5.504  1.00  0.00     0.040 A 
ATOM     67  F   UNL     1      12.557 -16.768   6.251  1.00  0.00    -0.206 F 
ATOM     68  C   UNL     1      16.015 -15.950   5.546  1.00  0.00     0.006 A 
ENDBRANCH  47  61
BRANCH  48  69
ATOM     69  C   UNL     1       6.495 -12.026  13.157  1.00  0.00     0.057 A 
ATOM     70  C   UNL     1       6.680 -11.812  14.528  1.00  0.00     0.134 A 
ATOM     71  C   UNL     1       5.199 -11.869  12.651  1.00  0.00     0.134 A 
ATOM     72  F   UNL     1       7.894 -11.965  15.077  1.00  0.00    -0.206 F 
ATOM     73  C   UNL     1       5.614 -11.490  15.370  1.00  0.00     0.040 A 
ATOM     74  C   UNL     1       4.129 -11.517  13.476  1.00  0.00     0.040 A 
ATOM     75  F   UNL     1       4.953 -12.051  11.345  1.00  0.00    -0.206 F 
ATOM     76  C   UNL     1       4.333 -11.340  14.843  1.00  0.00     0.006 A 
ENDBRANCH  48  69
BRANCH  60  77
ATOM     77  C   UNL     1      10.402 -17.779  12.910  1.00  0.00     0.057 A 
ATOM     78  C   UNL     1       9.382 -18.738  12.864  1.00  0.00     0.134 A 
ATOM     79  C   UNL     1      11.489 -18.033  13.757  1.00  0.00     0.134 A 
ATOM     80  F   UNL     1       8.307 -18.550  12.084  1.00  0.00    -0.206 F 
ATOM     81  C   UNL     1       9.430 -19.891  13.649  1.00  0.00     0.040 A 
ATOM     82  C   UNL     1      11.563 -19.197  14.523  1.00  0.00     0.040 A 
ATOM     83  F   UNL     1      12.505 -17.161  13.842  1.00  0.00    -0.206 F 
ATOM     84  C   UNL     1      10.527 -20.126  14.476  1.00  0.00     0.006 A 
ENDBRANCH  60  77
ENDBRANCH  34  35
ENDBRANCH  26  29
ENDBRANCH  24  25
ENDBRANCH  23  24
ENDBRANCH   1  23
TORSDOF 13
