REMARK SMILES CCN(CC)C(=O)C[C@](C)(C(=O)NCCCCNC(=O)c1ccc(-c2c3nc(c(-c4c(F)cccc4F)c4ccc([nH]4)c(-c4c(F)cccc4F)c4nc(c(-c5c(F)cccc5F)c5ccc2[nH]5)C=C4)C=C3)cc1)c1ccccc1
REMARK SMILES IDX 15 1 14 2 13 3 11 4 12 5 9 7 10 8 8 9 6 10 3 11 7 12 2 13
REMARK SMILES IDX 1 14 4 15 5 16 75 17 76 18 80 19 77 20 79 21 78 22 16 23
REMARK SMILES IDX 17 24 18 25 19 26 20 28 21 29 22 30 74 31 23 32 73 33 24 34
REMARK SMILES IDX 25 35 26 36 67 37 27 38 72 39 66 40 68 41 28 42 71 43 65 44
REMARK SMILES IDX 64 45 29 47 55 48 38 49 54 50 39 51 42 52 53 53 69 54 40 55
REMARK SMILES IDX 41 56 52 58 70 59 43 60 30 61 31 62 36 63 32 64 33 65 35 66
REMARK SMILES IDX 37 67 34 68 56 69 57 70 62 71 58 72 59 73 61 74 63 75 60 76
REMARK SMILES IDX 44 77 45 78 50 79 46 80 47 81 49 82 51 83 48 84
REMARK H PARENT 13 6 18 27 68 46 42 57
REMARK Flexibility Score: inf
ROOT
ATOM      1  C   UNL     1       2.591  -1.027  -7.334  1.00  0.00     0.023 C 
ENDROOT
BRANCH   1   2
ATOM      2  C   UNL     1       1.936  -2.029  -6.386  1.00  0.00     0.116 C 
BRANCH   2   3
ATOM      3  N   UNL     1       2.889  -3.028  -5.917  1.00  0.00    -0.355 N 
ATOM      4  C   UNL     1       3.368  -3.343  -4.671  1.00  0.00     0.230 C 
ATOM      5  O   UNL     1       4.275  -4.178  -4.679  1.00  0.00    -0.274 OA
ATOM      6  H   UNL     1       3.262  -3.587  -6.636  1.00  0.00     0.163 HD
BRANCH   4   7
ATOM      7  C   UNL     1       2.800  -2.678  -3.374  1.00  0.00     0.080 C 
ATOM      8  C   UNL     1       3.270  -1.193  -3.480  1.00  0.00     0.027 C 
BRANCH   7   9
ATOM      9  C   UNL     1       1.242  -2.794  -3.410  1.00  0.00     0.121 C 
BRANCH   9  10
ATOM     10  C   UNL     1       0.518  -3.555  -2.309  1.00  0.00     0.223 C 
ATOM     11  N   UNL     1       0.516  -4.945  -2.323  1.00  0.00    -0.343 N 
ATOM     12  O   UNL     1      -0.111  -2.906  -1.467  1.00  0.00    -0.275 OA
BRANCH  11  13
ATOM     13  C   UNL     1      -0.227  -5.637  -1.267  1.00  0.00     0.116 C 
ATOM     14  C   UNL     1       0.385  -5.460   0.117  1.00  0.00     0.027 C 
ENDBRANCH  11  13
BRANCH  11  15
ATOM     15  C   UNL     1       1.096  -5.782  -3.375  1.00  0.00     0.116 C 
ATOM     16  C   UNL     1       0.111  -6.074  -4.495  1.00  0.00     0.027 C 
ENDBRANCH  11  15
ENDBRANCH   9  10
ENDBRANCH   7   9
BRANCH   7  17
ATOM     17  C   UNL     1       3.346  -3.212  -2.017  1.00  0.00    -0.032 A 
ATOM     18  C   UNL     1       3.929  -4.480  -1.850  1.00  0.00     0.005 A 
ATOM     19  C   UNL     1       3.189  -2.434  -0.848  1.00  0.00     0.005 A 
ATOM     20  C   UNL     1       4.351  -4.935  -0.595  1.00  0.00     0.000 A 
ATOM     21  C   UNL     1       3.617  -2.882   0.405  1.00  0.00     0.000 A 
ATOM     22  C   UNL     1       4.199  -4.135   0.532  1.00  0.00     0.000 A 
ENDBRANCH   7  17
ENDBRANCH   4   7
ENDBRANCH   2   3
ENDBRANCH   1   2
BRANCH   1  23
ATOM     23  C   UNL     1       3.022  -1.611  -8.680  1.00  0.00     0.023 C 
BRANCH  23  24
ATOM     24  C   UNL     1       1.899  -2.238  -9.500  1.00  0.00     0.116 C 
BRANCH  24  25
ATOM     25  N   UNL     1       0.848  -1.290  -9.842  1.00  0.00    -0.352 N 
ATOM     26  C   UNL     1       0.339  -0.962 -11.078  1.00  0.00     0.251 C 
ATOM     27  H   UNL     1       0.444  -0.816  -9.080  1.00  0.00     0.163 HD
ATOM     28  O   UNL     1      -0.451  -0.036 -11.200  1.00  0.00    -0.269 OA
BRANCH  26  29
ATOM     29  C   UNL     1       0.787  -1.716 -12.267  1.00  0.00     0.039 A 
ATOM     30  C   UNL     1       1.262  -1.010 -13.374  1.00  0.00     0.014 A 
ATOM     31  C   UNL     1       0.788  -3.113 -12.262  1.00  0.00     0.014 A 
ATOM     32  C   UNL     1       1.835  -1.707 -14.440  1.00  0.00     0.010 A 
ATOM     33  C   UNL     1       1.417  -3.802 -13.294  1.00  0.00     0.010 A 
ATOM     34  C   UNL     1       1.968  -3.104 -14.380  1.00  0.00    -0.014 A 
BRANCH  34  35
ATOM     35  C   UNL     1       2.732  -3.853 -15.408  1.00  0.00     0.031 A 
ATOM     36  C   UNL     1       2.047  -4.867 -16.277  1.00  0.00     0.074 A 
ATOM     37  C   UNL     1       4.069  -3.692 -15.482  1.00  0.00     0.049 A 
ATOM     38  N   UNL     1       2.568  -5.702 -17.138  1.00  0.00    -0.248 NA
ATOM     39  C   UNL     1       0.586  -4.972 -16.141  1.00  0.00     0.031 C 
ATOM     40  C   UNL     1       4.859  -2.774 -14.658  1.00  0.00     0.029 A 
ATOM     41  N   UNL     1       5.003  -4.313 -16.273  1.00  0.00    -0.354 N 
ATOM     42  C   UNL     1       1.504  -6.443 -17.635  1.00  0.00     0.074 A 
ATOM     43  C   UNL     1       0.313  -5.986 -16.951  1.00  0.00     0.031 C 
ATOM     44  C   UNL     1       6.154  -2.886 -14.992  1.00  0.00     0.029 A 
ATOM     45  C   UNL     1       6.292  -3.911 -16.021  1.00  0.00     0.049 A 
ATOM     46  H   UNL     1       4.771  -4.983 -16.956  1.00  0.00     0.167 HD
ATOM     47  C   UNL     1       1.518  -7.405 -18.588  1.00  0.00     0.037 A 
ATOM     48  C   UNL     1       7.458  -4.335 -16.544  1.00  0.00     0.037 A 
ATOM     49  C   UNL     1       2.700  -7.839 -19.285  1.00  0.00     0.049 A 
ATOM     50  C   UNL     1       7.448  -5.419 -17.584  1.00  0.00     0.074 A 
ATOM     51  C   UNL     1       2.802  -8.745 -20.326  1.00  0.00     0.029 A 
ATOM     52  N   UNL     1       3.986  -7.403 -19.007  1.00  0.00    -0.354 N 
ATOM     53  N   UNL     1       6.426  -6.058 -18.099  1.00  0.00    -0.248 NA
ATOM     54  C   UNL     1       8.752  -5.844 -18.113  1.00  0.00     0.031 C 
ATOM     55  C   UNL     1       4.155  -8.891 -20.648  1.00  0.00     0.029 A 
ATOM     56  C   UNL     1       4.892  -8.046 -19.834  1.00  0.00     0.049 A 
ATOM     57  H   UNL     1       4.221  -6.734 -18.323  1.00  0.00     0.167 HD
ATOM     58  C   UNL     1       6.960  -6.949 -19.020  1.00  0.00     0.074 A 
ATOM     59  C   UNL     1       8.395  -6.756 -19.006  1.00  0.00     0.031 C 
ATOM     60  C   UNL     1       6.318  -7.848 -19.804  1.00  0.00     0.037 A 
BRANCH  47  61
ATOM     61  C   UNL     1       0.212  -8.053 -18.937  1.00  0.00     0.057 A 
ATOM     62  C   UNL     1      -0.776  -7.376 -19.662  1.00  0.00     0.134 A 
ATOM     63  C   UNL     1      -0.041  -9.385 -18.585  1.00  0.00     0.134 A 
ATOM     64  F   UNL     1      -0.599  -6.095 -20.020  1.00  0.00    -0.206 F 
ATOM     65  C   UNL     1      -1.980  -7.993 -20.006  1.00  0.00     0.040 A 
ATOM     66  C   UNL     1      -1.231 -10.020 -18.943  1.00  0.00     0.040 A 
ATOM     67  F   UNL     1       0.867 -10.092 -17.895  1.00  0.00    -0.206 F 
ATOM     68  C   UNL     1      -2.207  -9.322 -19.652  1.00  0.00     0.006 A 
ENDBRANCH  47  61
BRANCH  48  69
ATOM     69  C   UNL     1       8.737  -3.735 -16.089  1.00  0.00     0.057 A 
ATOM     70  C   UNL     1       9.475  -2.892 -16.927  1.00  0.00     0.134 A 
ATOM     71  C   UNL     1       9.252  -3.991 -14.813  1.00  0.00     0.134 A 
ATOM     72  F   UNL     1       9.040  -2.626 -18.168  1.00  0.00    -0.206 F 
ATOM     73  C   UNL     1      10.687  -2.335 -16.519  1.00  0.00     0.040 A 
ATOM     74  C   UNL     1      10.453  -3.423 -14.383  1.00  0.00     0.040 A 
ATOM     75  F   UNL     1       8.589  -4.787 -13.962  1.00  0.00    -0.206 F 
ATOM     76  C   UNL     1      11.177  -2.597 -15.241  1.00  0.00     0.006 A 
ENDBRANCH  48  69
BRANCH  60  77
ATOM     77  C   UNL     1       7.162  -8.686 -20.717  1.00  0.00     0.057 A 
ATOM     78  C   UNL     1       7.938  -9.745 -20.232  1.00  0.00     0.134 A 
ATOM     79  C   UNL     1       7.163  -8.461 -22.099  1.00  0.00     0.134 A 
ATOM     80  F   UNL     1       7.991 -10.002 -18.916  1.00  0.00    -0.206 F 
ATOM     81  C   UNL     1       8.697 -10.544 -21.088  1.00  0.00     0.040 A 
ATOM     82  C   UNL     1       7.900  -9.267 -22.968  1.00  0.00     0.040 A 
ATOM     83  F   UNL     1       6.435  -7.465 -22.628  1.00  0.00    -0.206 F 
ATOM     84  C   UNL     1       8.672 -10.310 -22.462  1.00  0.00     0.006 A 
ENDBRANCH  60  77
ENDBRANCH  34  35
ENDBRANCH  26  29
ENDBRANCH  24  25
ENDBRANCH  23  24
ENDBRANCH   1  23
TORSDOF 16
