REMARK SMILES C=CC[C@@]1(C(=O)NCCCCNC(=O)c2ccc(-c3c4nc(c(-c5c(F)cccc5F)c5ccc([nH]5)c(-c5c(F)cccc5F)c5nc(c(-c6c(F)cccc6F)c6ccc3[nH]6)C=C5)C=C4)cc2)CCCN(C(=O)c2ccc3c(c2)OCO3)C1
REMARK SMILES IDX 9 1 8 2 7 3 5 4 6 5 4 7 69 8 84 9 70 10 72 11 71 12 3 13
REMARK SMILES IDX 2 14 1 15 73 16 74 17 75 18 76 19 80 20 77 21 79 22 78 23
REMARK SMILES IDX 81 24 83 25 82 26 10 27 11 28 12 29 13 30 14 32 15 33 16 34
REMARK SMILES IDX 68 35 17 36 67 37 18 38 19 39 20 40 61 41 21 42 66 43 60 44
REMARK SMILES IDX 62 45 22 46 65 47 59 48 58 49 23 51 49 52 32 53 48 54 33 55
REMARK SMILES IDX 36 56 47 57 63 58 34 59 35 60 46 62 64 63 37 64 24 65 25 66
REMARK SMILES IDX 30 67 26 68 27 69 29 70 31 71 28 72 50 73 51 74 56 75 52 76
REMARK SMILES IDX 53 77 55 78 57 79 54 80 38 81 39 82 44 83 40 84 41 85 43 86
REMARK SMILES IDX 45 87 42 88
REMARK H PARENT 7 6 12 31 62 50 36 61
REMARK Flexibility Score: inf
ROOT
ATOM      1  C   UNL     1      -3.098  -4.712  -2.294  1.00  0.00     0.023 C 
ENDROOT
BRANCH   1   2
ATOM      2  C   UNL     1      -1.962  -4.492  -1.301  1.00  0.00     0.116 C 
BRANCH   2   3
ATOM      3  N   UNL     1      -1.326  -3.166  -1.336  1.00  0.00    -0.356 N 
ATOM      4  C   UNL     1      -0.619  -2.544  -0.305  1.00  0.00     0.228 C 
ATOM      5  O   UNL     1       0.519  -2.158  -0.599  1.00  0.00    -0.274 OA
ATOM      6  H   UNL     1      -1.409  -2.662  -2.177  1.00  0.00     0.163 HD
BRANCH   4   7
ATOM      7  C   UNL     1      -1.319  -2.094   1.042  1.00  0.00     0.070 C 
ATOM      8  C   UNL     1      -0.452  -2.014   2.376  1.00  0.00     0.021 C 
ATOM      9  C   UNL     1      -2.486  -3.017   1.363  1.00  0.00     0.137 C 
ATOM     10  C   UNL     1      -0.715  -2.982   3.587  1.00  0.00     0.023 C 
ATOM     11  N   UNL     1      -2.013  -4.254   2.057  1.00  0.00    -0.338 N 
ATOM     12  C   UNL     1      -1.860  -3.987   3.458  1.00  0.00     0.120 C 
BRANCH   7  13
ATOM     13  C   UNL     1      -1.765  -0.625   0.678  1.00  0.00     0.045 C 
BRANCH  13  14
ATOM     14  C   UNL     1      -0.642   0.405   0.750  1.00  0.00    -0.034 C 
ATOM     15  C   UNL     1       0.102   0.837  -0.277  1.00  0.00     0.004 C 
ENDBRANCH  13  14
ENDBRANCH   7  13
BRANCH  11  16
ATOM     16  C   UNL     1      -0.949  -5.051   1.563  1.00  0.00     0.254 C 
ATOM     17  O   UNL     1      -0.054  -4.665   0.821  1.00  0.00    -0.269 OA
BRANCH  16  18
ATOM     18  C   UNL     1      -0.786  -6.434   2.015  1.00  0.00     0.043 A 
ATOM     19  C   UNL     1       0.534  -6.881   2.276  1.00  0.00     0.018 A 
ATOM     20  C   UNL     1      -1.875  -7.295   2.072  1.00  0.00     0.064 A 
ATOM     21  C   UNL     1       0.772  -8.198   2.653  1.00  0.00     0.051 A 
ATOM     22  C   UNL     1      -1.605  -8.584   2.463  1.00  0.00     0.166 A 
ATOM     23  C   UNL     1      -0.327  -9.019   2.755  1.00  0.00     0.165 A 
ATOM     24  O   UNL     1      -2.532  -9.564   2.629  1.00  0.00    -0.454 OA
ATOM     25  O   UNL     1      -0.304 -10.319   3.152  1.00  0.00    -0.454 OA
ATOM     26  C   UNL     1      -1.718 -10.595   3.220  1.00  0.00     0.468 C 
ENDBRANCH  16  18
ENDBRANCH  11  16
ENDBRANCH   4   7
ENDBRANCH   2   3
ENDBRANCH   1   2
BRANCH   1  27
ATOM     27  C   UNL     1      -2.729  -5.546  -3.516  1.00  0.00     0.023 C 
BRANCH  27  28
ATOM     28  C   UNL     1      -1.990  -6.857  -3.254  1.00  0.00     0.116 C 
BRANCH  28  29
ATOM     29  N   UNL     1      -2.632  -7.772  -2.319  1.00  0.00    -0.352 N 
ATOM     30  C   UNL     1      -2.578  -9.157  -2.333  1.00  0.00     0.251 C 
ATOM     31  H   UNL     1      -3.162  -7.361  -1.598  1.00  0.00     0.163 HD
ATOM     32  O   UNL     1      -3.163  -9.831  -1.508  1.00  0.00    -0.269 OA
BRANCH  30  33
ATOM     33  C   UNL     1      -1.838  -9.797  -3.443  1.00  0.00     0.039 A 
ATOM     34  C   UNL     1      -2.546 -10.597  -4.342  1.00  0.00     0.014 A 
ATOM     35  C   UNL     1      -0.509  -9.445  -3.687  1.00  0.00     0.014 A 
ATOM     36  C   UNL     1      -1.953 -10.944  -5.557  1.00  0.00     0.010 A 
ATOM     37  C   UNL     1       0.046  -9.721  -4.930  1.00  0.00     0.010 A 
ATOM     38  C   UNL     1      -0.680 -10.450  -5.887  1.00  0.00    -0.014 A 
BRANCH  38  39
ATOM     39  C   UNL     1      -0.104 -10.644  -7.242  1.00  0.00     0.031 A 
ATOM     40  C   UNL     1       1.171 -11.417  -7.410  1.00  0.00     0.074 A 
ATOM     41  C   UNL     1      -0.680 -10.051  -8.307  1.00  0.00     0.049 A 
ATOM     42  N   UNL     1       1.878 -11.622  -8.491  1.00  0.00    -0.248 NA
ATOM     43  C   UNL     1       1.746 -12.011  -6.192  1.00  0.00     0.031 C 
ATOM     44  C   UNL     1      -1.889  -9.223  -8.269  1.00  0.00     0.029 A 
ATOM     45  N   UNL     1      -0.319 -10.045  -9.631  1.00  0.00    -0.354 N 
ATOM     46  C   UNL     1       2.987 -12.350  -8.082  1.00  0.00     0.074 A 
ATOM     47  C   UNL     1       2.889 -12.502  -6.647  1.00  0.00     0.031 C 
ATOM     48  C   UNL     1      -2.185  -8.817  -9.515  1.00  0.00     0.029 A 
ATOM     49  C   UNL     1      -1.170  -9.323 -10.434  1.00  0.00     0.049 A 
ATOM     50  H   UNL     1       0.476 -10.513  -9.975  1.00  0.00     0.167 HD
ATOM     51  C   UNL     1       3.984 -12.870  -8.836  1.00  0.00     0.037 A 
ATOM     52  C   UNL     1      -1.135  -9.094 -11.760  1.00  0.00     0.037 A 
ATOM     53  C   UNL     1       4.066 -12.742 -10.266  1.00  0.00     0.049 A 
ATOM     54  C   UNL     1      -0.019  -9.684 -12.577  1.00  0.00     0.074 A 
ATOM     55  C   UNL     1       5.003 -13.284 -11.128  1.00  0.00     0.029 A 
ATOM     56  N   UNL     1       3.173 -12.022 -11.044  1.00  0.00    -0.354 N 
ATOM     57  N   UNL     1       0.987 -10.428 -12.186  1.00  0.00    -0.248 NA
ATOM     58  C   UNL     1      -0.035  -9.403 -14.020  1.00  0.00     0.031 C 
ATOM     59  C   UNL     1       4.694 -12.864 -12.427  1.00  0.00     0.029 A 
ATOM     60  C   UNL     1       3.544 -12.092 -12.377  1.00  0.00     0.049 A 
ATOM     61  H   UNL     1       2.390 -11.533 -10.701  1.00  0.00     0.167 HD
ATOM     62  C   UNL     1       1.708 -10.727 -13.335  1.00  0.00     0.074 A 
ATOM     63  C   UNL     1       1.018 -10.092 -14.439  1.00  0.00     0.031 C 
ATOM     64  C   UNL     1       2.839 -11.462 -13.463  1.00  0.00     0.037 A 
BRANCH  51  65
ATOM     65  C   UNL     1       5.056 -13.632  -8.117  1.00  0.00     0.057 A 
ATOM     66  C   UNL     1       4.807 -14.885  -7.541  1.00  0.00     0.134 A 
ATOM     67  C   UNL     1       6.350 -13.112  -7.998  1.00  0.00     0.134 A 
ATOM     68  F   UNL     1       3.583 -15.431  -7.605  1.00  0.00    -0.206 F 
ATOM     69  C   UNL     1       5.797 -15.578  -6.843  1.00  0.00     0.040 A 
ATOM     70  C   UNL     1       7.356 -13.808  -7.326  1.00  0.00     0.040 A 
ATOM     71  F   UNL     1       6.657 -11.919  -8.530  1.00  0.00    -0.206 F 
ATOM     72  C   UNL     1       7.078 -15.041  -6.739  1.00  0.00     0.006 A 
ENDBRANCH  51  65
BRANCH  52  73
ATOM     73  C   UNL     1      -2.208  -8.300 -12.410  1.00  0.00     0.057 A 
ATOM     74  C   UNL     1      -3.157  -8.917 -13.233  1.00  0.00     0.134 A 
ATOM     75  C   UNL     1      -2.308  -6.915 -12.235  1.00  0.00     0.134 A 
ATOM     76  F   UNL     1      -3.100 -10.239 -13.454  1.00  0.00    -0.206 F 
ATOM     77  C   UNL     1      -4.159  -8.185 -13.872  1.00  0.00     0.040 A 
ATOM     78  C   UNL     1      -3.317  -6.173 -12.851  1.00  0.00     0.040 A 
ATOM     79  F   UNL     1      -1.433  -6.266 -11.454  1.00  0.00    -0.206 F 
ATOM     80  C   UNL     1      -4.243  -6.808 -13.678  1.00  0.00     0.006 A 
ENDBRANCH  52  73
BRANCH  64  81
ATOM     81  C   UNL     1       3.382 -11.647 -14.848  1.00  0.00     0.057 A 
ATOM     82  C   UNL     1       4.046 -10.616 -15.523  1.00  0.00     0.134 A 
ATOM     83  C   UNL     1       3.280 -12.887 -15.492  1.00  0.00     0.134 A 
ATOM     84  F   UNL     1       4.163  -9.402 -14.965  1.00  0.00    -0.206 F 
ATOM     85  C   UNL     1       4.576 -10.807 -16.800  1.00  0.00     0.040 A 
ATOM     86  C   UNL     1       3.826 -13.096 -16.758  1.00  0.00     0.040 A 
ATOM     87  F   UNL     1       2.662 -13.916 -14.894  1.00  0.00    -0.206 F 
ATOM     88  C   UNL     1       4.474 -12.053 -17.418  1.00  0.00     0.006 A 
ENDBRANCH  64  81
ENDBRANCH  38  39
ENDBRANCH  30  33
ENDBRANCH  28  29
ENDBRANCH  27  28
ENDBRANCH   1  27
TORSDOF 15
