REMARK SMILES CC[C@@H](C(=O)NCCCCNC(=O)c1ccc(-c2c3nc(c(-c4c(F)cccc4F)c4ccc([nH]4)c(-c4c(F)cccc4F)c4nc(c(-c5c(F)cccc5F)c5ccc2[nH]5)C=C4)C=C3)cc1)c1cc(Br)ccc1F
REMARK SMILES IDX 9 1 8 2 7 3 6 4 4 5 5 6 3 8 2 9 1 10 68 11 69 12 74 13 70 14
REMARK SMILES IDX 73 15 75 16 71 17 72 18 10 19 11 20 12 21 13 23 14 24 15 25
REMARK SMILES IDX 67 26 16 27 66 28 17 29 18 30 19 31 60 32 20 33 65 34 59 35
REMARK SMILES IDX 61 36 21 37 64 38 58 39 57 40 22 42 48 43 31 44 47 45 32 46
REMARK SMILES IDX 35 47 46 48 62 49 33 50 34 51 45 53 63 54 36 55 23 56 24 57
REMARK SMILES IDX 29 58 25 59 26 60 28 61 30 62 27 63 49 64 50 65 55 66 51 67
REMARK SMILES IDX 52 68 54 69 56 70 53 71 37 72 38 73 43 74 39 75 40 76 42 77
REMARK SMILES IDX 44 78 41 79
REMARK H PARENT 6 7 11 22 61 41 35 52
REMARK Flexibility Score: inf
ROOT
ATOM      1  C   UNL     1       0.670  -2.390   2.858  1.00  0.00     0.023 C 
ENDROOT
BRANCH   1   2
ATOM      2  C   UNL     1       1.155  -1.382   1.823  1.00  0.00     0.023 C 
BRANCH   2   3
ATOM      3  C   UNL     1       1.740  -1.992   0.544  1.00  0.00     0.116 C 
BRANCH   3   4
ATOM      4  N   UNL     1       0.662  -2.453  -0.306  1.00  0.00    -0.356 N 
ATOM      5  C   UNL     1       0.033  -1.806  -1.334  1.00  0.00     0.227 C 
ATOM      6  O   UNL     1      -1.127  -2.149  -1.581  1.00  0.00    -0.274 OA
ATOM      7  H   UNL     1       0.335  -3.362  -0.117  1.00  0.00     0.163 HD
BRANCH   5   8
ATOM      8  C   UNL     1       0.779  -0.749  -2.183  1.00  0.00     0.111 C 
BRANCH   8   9
ATOM      9  C   UNL     1       0.437   0.696  -1.738  1.00  0.00     0.015 C 
ATOM     10  C   UNL     1       0.685   1.106  -0.303  1.00  0.00     0.005 C 
ENDBRANCH   8   9
BRANCH   8  11
ATOM     11  C   UNL     1       0.441  -0.947  -3.683  1.00  0.00     0.001 A 
ATOM     12  C   UNL     1       0.072   0.120  -4.529  1.00  0.00     0.023 A 
ATOM     13  C   UNL     1       0.448  -2.231  -4.251  1.00  0.00     0.127 A 
ATOM     14  C   UNL     1      -0.350  -0.106  -5.842  1.00  0.00     0.018 A 
ATOM     15  C   UNL     1       0.013  -2.460  -5.559  1.00  0.00     0.041 A 
ATOM     16  F   UNL     1       0.866  -3.283  -3.532  1.00  0.00    -0.207 F 
ATOM     17  Br  UNL     1      -0.878   1.362  -6.912  1.00  0.00    -0.051 Br
ATOM     18  C   UNL     1      -0.403  -1.395  -6.356  1.00  0.00     0.019 A 
ENDBRANCH   8  11
ENDBRANCH   5   8
ENDBRANCH   3   4
ENDBRANCH   2   3
ENDBRANCH   1   2
BRANCH   1  19
ATOM     19  C   UNL     1       1.778  -3.182   3.524  1.00  0.00     0.116 C 
BRANCH  19  20
ATOM     20  N   UNL     1       2.730  -2.342   4.237  1.00  0.00    -0.352 N 
ATOM     21  C   UNL     1       3.278  -2.526   5.481  1.00  0.00     0.251 C 
ATOM     22  H   UNL     1       3.020  -1.530   3.761  1.00  0.00     0.163 HD
ATOM     23  O   UNL     1       3.977  -1.651   5.986  1.00  0.00    -0.269 OA
BRANCH  21  24
ATOM     24  C   UNL     1       2.996  -3.772   6.222  1.00  0.00     0.039 A 
ATOM     25  C   UNL     1       2.694  -3.698   7.583  1.00  0.00     0.014 A 
ATOM     26  C   UNL     1       3.004  -5.006   5.567  1.00  0.00     0.014 A 
ATOM     27  C   UNL     1       2.356  -4.862   8.275  1.00  0.00     0.010 A 
ATOM     28  C   UNL     1       2.560  -6.141   6.228  1.00  0.00     0.010 A 
ATOM     29  C   UNL     1       2.263  -6.088   7.597  1.00  0.00    -0.014 A 
BRANCH  29  30
ATOM     30  C   UNL     1       1.929  -7.341   8.313  1.00  0.00     0.031 A 
ATOM     31  C   UNL     1       2.937  -8.459   8.360  1.00  0.00     0.074 A 
ATOM     32  C   UNL     1       0.715  -7.495   8.873  1.00  0.00     0.049 A 
ATOM     33  N   UNL     1       2.830  -9.650   8.891  1.00  0.00    -0.248 NA
ATOM     34  C   UNL     1       4.224  -8.221   7.685  1.00  0.00     0.031 C 
ATOM     35  C   UNL     1      -0.369  -6.510   8.838  1.00  0.00     0.029 A 
ATOM     36  N   UNL     1       0.188  -8.542   9.584  1.00  0.00    -0.354 N 
ATOM     37  C   UNL     1       4.020 -10.302   8.595  1.00  0.00     0.074 A 
ATOM     38  C   UNL     1       4.804  -9.406   7.776  1.00  0.00     0.031 C 
ATOM     39  C   UNL     1      -1.417  -6.986   9.529  1.00  0.00     0.029 A 
ATOM     40  C   UNL     1      -1.091  -8.317  10.031  1.00  0.00     0.049 A 
ATOM     41  H   UNL     1       0.680  -9.377   9.757  1.00  0.00     0.167 HD
ATOM     42  C   UNL     1       4.442 -11.523   8.999  1.00  0.00     0.037 A 
ATOM     43  C   UNL     1      -1.901  -9.096  10.771  1.00  0.00     0.037 A 
ATOM     44  C   UNL     1       3.678 -12.392   9.852  1.00  0.00     0.049 A 
ATOM     45  C   UNL     1      -1.398 -10.435  11.237  1.00  0.00     0.074 A 
ATOM     46  C   UNL     1       4.034 -13.621  10.375  1.00  0.00     0.029 A 
ATOM     47  N   UNL     1       2.400 -12.113  10.315  1.00  0.00    -0.354 N 
ATOM     48  N   UNL     1      -0.241 -11.011  11.009  1.00  0.00    -0.248 NA
ATOM     49  C   UNL     1      -2.308 -11.226  12.075  1.00  0.00     0.031 C 
ATOM     50  C   UNL     1       2.957 -14.102  11.128  1.00  0.00     0.029 A 
ATOM     51  C   UNL     1       1.948 -13.152  11.109  1.00  0.00     0.049 A 
ATOM     52  H   UNL     1       1.890 -11.296  10.109  1.00  0.00     0.167 HD
ATOM     53  C   UNL     1      -0.275 -12.216  11.697  1.00  0.00     0.074 A 
ATOM     54  C   UNL     1      -1.558 -12.279  12.366  1.00  0.00     0.031 C 
ATOM     55  C   UNL     1       0.668 -13.188  11.769  1.00  0.00     0.037 A 
BRANCH  42  56
ATOM     56  C   UNL     1       5.797 -11.972   8.534  1.00  0.00     0.057 A 
ATOM     57  C   UNL     1       6.974 -11.366   8.994  1.00  0.00     0.134 A 
ATOM     58  C   UNL     1       5.929 -13.024   7.620  1.00  0.00     0.134 A 
ATOM     59  F   UNL     1       6.918 -10.339   9.857  1.00  0.00    -0.206 F 
ATOM     60  C   UNL     1       8.231 -11.767   8.537  1.00  0.00     0.040 A 
ATOM     61  C   UNL     1       7.182 -13.455   7.179  1.00  0.00     0.040 A 
ATOM     62  F   UNL     1       4.844 -13.651   7.141  1.00  0.00    -0.206 F 
ATOM     63  C   UNL     1       8.337 -12.819   7.631  1.00  0.00     0.006 A 
ENDBRANCH  42  56
BRANCH  43  64
ATOM     64  C   UNL     1      -3.251  -8.616  11.159  1.00  0.00     0.057 A 
ATOM     65  C   UNL     1      -3.539  -8.275  12.486  1.00  0.00     0.134 A 
ATOM     66  C   UNL     1      -4.285  -8.499  10.224  1.00  0.00     0.134 A 
ATOM     67  F   UNL     1      -2.593  -8.382  13.431  1.00  0.00    -0.206 F 
ATOM     68  C   UNL     1      -4.814  -7.861  12.876  1.00  0.00     0.040 A 
ATOM     69  C   UNL     1      -5.559  -8.062  10.595  1.00  0.00     0.040 A 
ATOM     70  F   UNL     1      -4.071  -8.800   8.935  1.00  0.00    -0.206 F 
ATOM     71  C   UNL     1      -5.828  -7.750  11.926  1.00  0.00     0.006 A 
ENDBRANCH  43  64
BRANCH  55  72
ATOM     72  C   UNL     1       0.354 -14.379  12.625  1.00  0.00     0.057 A 
ATOM     73  C   UNL     1      -0.596 -15.334  12.243  1.00  0.00     0.134 A 
ATOM     74  C   UNL     1       1.026 -14.581  13.837  1.00  0.00     0.134 A 
ATOM     75  F   UNL     1      -1.282 -15.191  11.099  1.00  0.00    -0.206 F 
ATOM     76  C   UNL     1      -0.890 -16.433  13.052  1.00  0.00     0.040 A 
ATOM     77  C   UNL     1       0.761 -15.690  14.641  1.00  0.00     0.040 A 
ATOM     78  F   UNL     1       1.956 -13.709  14.255  1.00  0.00    -0.206 F 
ATOM     79  C   UNL     1      -0.206 -16.615  14.253  1.00  0.00     0.006 A 
ENDBRANCH  55  72
ENDBRANCH  29  30
ENDBRANCH  21  24
ENDBRANCH  19  20
ENDBRANCH   1  19
TORSDOF 13
