REMARK SMILES O=C(CCn1cc(/C=C\C(=O)c2ccc(F)cc2)c(-c2cccc(Cl)c2)n1)NCCCCNC(=O)c1ccc(-c2c3nc(c(-c4c(F)cccc4F)c4ccc([nH]4)c(-c4c(F)cccc4F)c4nc(c(-c5c(F)cccc5F)c5ccc2[nH]5)C=C4)C=C3)cc1
REMARK SMILES IDX 29 1 28 2 1 3 2 4 3 6 4 7 5 8 6 9 27 10 7 11 19 12 8 13 9 14
REMARK SMILES IDX 10 15 11 16 12 17 13 18 18 19 14 20 17 21 15 22 16 23 20 24
REMARK SMILES IDX 21 25 26 26 22 27 24 28 23 29 25 30 30 31 31 32 32 33 33 34
REMARK SMILES IDX 34 35 35 37 36 38 37 39 89 40 38 41 88 42 39 43 40 44 41 45
REMARK SMILES IDX 82 46 42 47 87 48 81 49 83 50 43 51 86 52 80 53 79 54 44 56
REMARK SMILES IDX 70 57 53 58 69 59 54 60 57 61 68 62 84 63 55 64 56 65 67 67
REMARK SMILES IDX 85 68 58 69 45 70 46 71 51 72 47 73 48 74 50 75 52 76 49 77
REMARK SMILES IDX 71 78 72 79 77 80 73 81 74 82 76 83 78 84 75 85 59 86 60 87
REMARK SMILES IDX 65 88 61 89 62 90 64 91 66 92 63 93
REMARK H PARENT 28 5 33 36 83 55 57 66
REMARK Flexibility Score: inf
ROOT
ATOM      1  C   UNL     1       1.721   1.085   2.273  1.00  0.00     0.116 C 
ENDROOT
BRANCH   1   2
ATOM      2  N   UNL     1       2.245   0.256   1.199  1.00  0.00    -0.356 N 
ATOM      3  O   UNL     1       0.364   0.312  -0.128  1.00  0.00    -0.275 OA
ATOM      4  C   UNL     1       1.541   0.003   0.035  1.00  0.00     0.221 C 
ATOM      5  H   UNL     1       3.139  -0.143   1.305  1.00  0.00     0.163 HD
BRANCH   4   6
ATOM      6  C   UNL     1       2.336  -0.629  -1.097  1.00  0.00     0.123 C 
BRANCH   6   7
ATOM      7  C   UNL     1       3.224   0.419  -1.764  1.00  0.00     0.154 C 
BRANCH   7   8
ATOM      8  N   UNL     1       4.239   0.895  -0.846  1.00  0.00    -0.271 N 
ATOM      9  C   UNL     1       4.680   2.163  -0.618  1.00  0.00     0.117 A 
ATOM     10  N   UNL     1       4.775  -0.011  -0.017  1.00  0.00    -0.172 NA
ATOM     11  C   UNL     1       5.749   2.023   0.246  1.00  0.00     0.021 A 
ATOM     12  C   UNL     1       5.811   0.620   0.517  1.00  0.00     0.100 A 
BRANCH  11  13
ATOM     13  C   UNL     1       6.625   3.089   0.617  1.00  0.00     0.016 C 
ATOM     14  C   UNL     1       7.806   3.102   1.276  1.00  0.00     0.053 C 
BRANCH  14  15
ATOM     15  C   UNL     1       8.730   2.110   2.005  1.00  0.00     0.185 C 
ATOM     16  O   UNL     1       9.658   2.474   2.710  1.00  0.00    -0.289 OA
BRANCH  15  17
ATOM     17  C   UNL     1       8.525   0.631   1.768  1.00  0.00     0.022 A 
ATOM     18  C   UNL     1       8.399   0.661  -0.046  1.00  0.00     0.015 A 
ATOM     19  C   UNL     1       7.768  -0.988   2.721  1.00  0.00     0.015 A 
ATOM     20  C   UNL     1       7.531  -0.636  -0.850  1.00  0.00     0.040 A 
ATOM     21  C   UNL     1       6.921  -2.236   1.748  1.00  0.00     0.040 A 
ATOM     22  C   UNL     1       6.822  -1.997   0.024  1.00  0.00     0.123 A 
ATOM     23  F   UNL     1       6.100  -2.875  -0.689  1.00  0.00    -0.207 F 
ENDBRANCH  15  17
ENDBRANCH  14  15
ENDBRANCH  11  13
BRANCH  12  24
ATOM     24  C   UNL     1       6.844  -0.093   1.350  1.00  0.00     0.004 A 
ATOM     25  C   UNL     1       8.577  -1.098   1.051  1.00  0.00     0.010 A 
ATOM     26  C   UNL     1       6.684   0.775   2.939  1.00  0.00     0.031 A 
ATOM     27  C   UNL     1       9.856  -0.998   2.312  1.00  0.00     0.002 A 
ATOM     28  C   UNL     1       8.016   0.752   4.075  1.00  0.00     0.041 A 
ATOM     29  C   UNL     1       9.529  -0.082   3.761  1.00  0.00     0.020 A 
ATOM     30  Cl  UNL     1       7.825   1.562   5.588  1.00  0.00    -0.084 Cl
ENDBRANCH  12  24
ENDBRANCH   7   8
ENDBRANCH   6   7
ENDBRANCH   4   6
ENDBRANCH   1   2
BRANCH   1  31
ATOM     31  C   UNL     1       1.995   0.549   3.687  1.00  0.00     0.023 C 
BRANCH  31  32
ATOM     32  C   UNL     1       3.420   0.692   4.234  1.00  0.00     0.023 C 
BRANCH  32  33
ATOM     33  C   UNL     1       3.954   2.115   4.414  1.00  0.00     0.116 C 
BRANCH  33  34
ATOM     34  N   UNL     1       3.489   2.935   5.521  1.00  0.00    -0.352 N 
ATOM     35  C   UNL     1       4.216   3.984   6.109  1.00  0.00     0.251 C 
ATOM     36  H   UNL     1       2.596   2.740   5.887  1.00  0.00     0.163 HD
ATOM     37  O   UNL     1       4.010   4.317   7.270  1.00  0.00    -0.269 OA
BRANCH  35  38
ATOM     38  C   UNL     1       5.198   4.755   5.290  1.00  0.00     0.039 A 
ATOM     39  C   UNL     1       6.291   5.492   5.783  1.00  0.00     0.014 A 
ATOM     40  C   UNL     1       4.937   4.847   3.941  1.00  0.00     0.014 A 
ATOM     41  C   UNL     1       7.024   6.326   4.896  1.00  0.00     0.010 A 
ATOM     42  C   UNL     1       5.954   5.226   3.120  1.00  0.00     0.010 A 
ATOM     43  C   UNL     1       6.742   6.281   3.522  1.00  0.00    -0.014 A 
BRANCH  43  44
ATOM     44  C   UNL     1       7.535   6.845   2.406  1.00  0.00     0.031 A 
ATOM     45  C   UNL     1       9.003   6.484   2.519  1.00  0.00     0.074 A 
ATOM     46  C   UNL     1       6.920   7.337   1.268  1.00  0.00     0.049 A 
ATOM     47  N   UNL     1      10.026   7.194   2.213  1.00  0.00    -0.248 NA
ATOM     48  C   UNL     1       9.426   5.179   3.060  1.00  0.00     0.031 C 
ATOM     49  C   UNL     1       5.477   7.554   1.005  1.00  0.00     0.029 A 
ATOM     50  N   UNL     1       7.449   7.756   0.053  1.00  0.00    -0.354 N 
ATOM     51  C   UNL     1      11.156   6.371   2.288  1.00  0.00     0.074 A 
ATOM     52  C   UNL     1      10.724   5.102   2.755  1.00  0.00     0.031 C 
ATOM     53  C   UNL     1       5.244   7.859  -0.302  1.00  0.00     0.029 A 
ATOM     54  C   UNL     1       6.507   7.987  -1.002  1.00  0.00     0.049 A 
ATOM     55  H   UNL     1       8.416   7.888  -0.076  1.00  0.00     0.167 HD
ATOM     56  C   UNL     1      12.346   6.813   1.817  1.00  0.00     0.037 A 
ATOM     57  C   UNL     1       6.766   8.351  -2.309  1.00  0.00     0.037 A 
ATOM     58  C   UNL     1      12.346   8.250   1.864  1.00  0.00     0.049 A 
ATOM     59  C   UNL     1       8.145   8.897  -2.318  1.00  0.00     0.074 A 
ATOM     60  C   UNL     1      12.167   9.129   2.919  1.00  0.00     0.029 A 
ATOM     61  N   UNL     1      11.880   8.877   0.737  1.00  0.00    -0.354 N 
ATOM     62  N   UNL     1       8.460   9.994  -1.690  1.00  0.00    -0.248 NA
ATOM     63  C   UNL     1       9.202   7.913  -2.504  1.00  0.00     0.031 C 
ATOM     64  C   UNL     1      11.137  10.007   2.474  1.00  0.00     0.029 A 
ATOM     65  C   UNL     1      10.906   9.769   1.119  1.00  0.00     0.049 A 
ATOM     66  H   UNL     1      12.189   8.716  -0.184  1.00  0.00     0.167 HD
ATOM     67  C   UNL     1       9.583   9.637  -0.970  1.00  0.00     0.074 A 
ATOM     68  C   UNL     1       9.982   8.322  -1.499  1.00  0.00     0.031 C 
ATOM     69  C   UNL     1       9.885  10.237   0.217  1.00  0.00     0.037 A 
BRANCH  56  70
ATOM     70  C   UNL     1      13.292   6.009   0.975  1.00  0.00     0.057 A 
ATOM     71  C   UNL     1      12.904   4.893   0.205  1.00  0.00     0.134 A 
ATOM     72  C   UNL     1      14.547   6.556   0.659  1.00  0.00     0.134 A 
ATOM     73  F   UNL     1      11.693   4.332   0.338  1.00  0.00    -0.206 F 
ATOM     74  C   UNL     1      13.708   4.371  -0.818  1.00  0.00     0.040 A 
ATOM     75  C   UNL     1      15.339   6.067  -0.386  1.00  0.00     0.040 A 
ATOM     76  F   UNL     1      15.004   7.638   1.307  1.00  0.00    -0.206 F 
ATOM     77  C   UNL     1      14.920   4.972  -1.132  1.00  0.00     0.006 A 
ENDBRANCH  56  70
BRANCH  57  78
ATOM     78  C   UNL     1       6.142   7.977  -3.634  1.00  0.00     0.057 A 
ATOM     79  C   UNL     1       5.374   6.812  -3.746  1.00  0.00     0.134 A 
ATOM     80  C   UNL     1       6.579   8.518  -4.873  1.00  0.00     0.134 A 
ATOM     81  F   UNL     1       4.909   6.199  -2.650  1.00  0.00    -0.206 F 
ATOM     82  C   UNL     1       5.138   6.170  -4.975  1.00  0.00     0.040 A 
ATOM     83  C   UNL     1       6.338   7.889  -6.115  1.00  0.00     0.040 A 
ATOM     84  F   UNL     1       7.326   9.633  -4.913  1.00  0.00    -0.206 F 
ATOM     85  C   UNL     1       5.642   6.689  -6.162  1.00  0.00     0.006 A 
ENDBRANCH  57  78
BRANCH  69  86
ATOM     86  C   UNL     1       9.049  11.399   0.694  1.00  0.00     0.057 A 
ATOM     87  C   UNL     1       9.730  12.576   1.013  1.00  0.00     0.134 A 
ATOM     88  C   UNL     1       7.683  11.362   1.028  1.00  0.00     0.134 A 
ATOM     89  F   UNL     1      11.050  12.666   0.793  1.00  0.00    -0.206 F 
ATOM     90  C   UNL     1       9.100  13.658   1.626  1.00  0.00     0.040 A 
ATOM     91  C   UNL     1       7.027  12.456   1.610  1.00  0.00     0.040 A 
ATOM     92  F   UNL     1       6.953  10.255   0.870  1.00  0.00    -0.206 F 
ATOM     93  C   UNL     1       7.741  13.609   1.913  1.00  0.00     0.006 A 
ENDBRANCH  69  86
ENDBRANCH  43  44
ENDBRANCH  35  38
ENDBRANCH  33  34
ENDBRANCH  32  33
ENDBRANCH  31  32
ENDBRANCH   1  31
TORSDOF 17
