REMARK SMILES Cc1cccc(C(=O)NCCCCNC(=O)c2ccc(-c3c4nc(c(-c5c(F)cccc5F)c5ccc([nH]5)c(-c5c(F)cccc5F)c5nc(c(-c6c(F)cccc6F)c6ccc3[nH]6)C=C5)C=C4)cc2)c1OC[C@@H]1C[C@H]2CC[C@@H]1C2
REMARK SMILES IDX 11 1 10 2 9 3 7 4 8 5 6 7 1 8 2 9 3 10 71 11 4 12 5 13 72 14
REMARK SMILES IDX 73 15 74 16 75 17 79 18 76 19 78 20 80 21 77 22 12 23 13 24
REMARK SMILES IDX 14 25 15 26 16 28 17 29 18 30 70 31 19 32 69 33 20 34 21 35
REMARK SMILES IDX 22 36 63 37 23 38 68 39 62 40 64 41 24 42 67 43 61 44 60 45
REMARK SMILES IDX 25 47 51 48 34 49 50 50 35 51 38 52 49 53 65 54 36 55 37 56
REMARK SMILES IDX 48 58 66 59 39 60 26 61 27 62 32 63 28 64 29 65 31 66 33 67
REMARK SMILES IDX 30 68 52 69 53 70 58 71 54 72 55 73 57 74 59 75 56 76 40 77
REMARK SMILES IDX 41 78 46 79 42 80 43 81 45 82 47 83 44 84
REMARK H PARENT 9 6 14 27 64 46 38 57
REMARK Flexibility Score: inf
ROOT
ATOM      1  C   UNL     1       0.915   4.482  -1.238  1.00  0.00     0.023 C 
ENDROOT
BRANCH   1   2
ATOM      2  C   UNL     1       0.279   4.152   0.122  1.00  0.00     0.116 C 
BRANCH   2   3
ATOM      3  N   UNL     1      -1.049   3.613  -0.031  1.00  0.00    -0.352 N 
ATOM      4  C   UNL     1      -1.566   2.351  -0.094  1.00  0.00     0.255 C 
ATOM      5  O   UNL     1      -2.799   2.327  -0.227  1.00  0.00    -0.269 OA
ATOM      6  H   UNL     1      -1.738   4.312  -0.108  1.00  0.00     0.163 HD
BRANCH   4   7
ATOM      7  C   UNL     1      -0.847   1.031  -0.009  1.00  0.00     0.082 A 
ATOM      8  C   UNL     1       1.904  -1.167  -1.516  1.00  0.00     0.048 C 
ATOM      9  C   UNL     1       0.768  -0.681  -0.654  1.00  0.00    -0.008 A 
ATOM     10  C   UNL     1      -0.120  -1.682  -0.217  1.00  0.00     0.007 A 
ATOM     11  C   UNL     1       0.456   0.683  -0.440  1.00  0.00     0.134 A 
ATOM     12  C   UNL     1      -1.342  -1.351   0.339  1.00  0.00     0.001 A 
ATOM     13  C   UNL     1      -1.710  -0.013   0.407  1.00  0.00     0.018 A 
BRANCH  11  14
ATOM     14  O   UNL     1       1.339   1.661  -0.776  1.00  0.00    -0.492 OA
BRANCH  14  15
ATOM     15  C   UNL     1       2.672   1.691  -0.217  1.00  0.00     0.233 C 
BRANCH  15  16
ATOM     16  C   UNL     1       2.885   1.220   1.239  1.00  0.00     0.030 C 
ATOM     17  C   UNL     1       3.798   2.191   2.047  1.00  0.00     0.011 C 
ATOM     18  C   UNL     1       3.726  -0.086   1.305  1.00  0.00    -0.004 C 
ATOM     19  C   UNL     1       4.978   1.306   2.493  1.00  0.00    -0.010 C 
ATOM     20  C   UNL     1       3.638  -0.670   2.724  1.00  0.00     0.004 C 
ATOM     21  C   UNL     1       5.170   0.421   1.270  1.00  0.00     0.007 C 
ATOM     22  C   UNL     1       4.490   0.302   3.548  1.00  0.00     0.004 C 
ENDBRANCH  15  16
ENDBRANCH  14  15
ENDBRANCH  11  14
ENDBRANCH   4   7
ENDBRANCH   2   3
ENDBRANCH   1   2
BRANCH   1  23
ATOM     23  C   UNL     1       0.311   5.683  -1.966  1.00  0.00     0.023 C 
BRANCH  23  24
ATOM     24  C   UNL     1       0.693   7.014  -1.341  1.00  0.00     0.116 C 
BRANCH  24  25
ATOM     25  N   UNL     1       2.016   7.505  -1.705  1.00  0.00    -0.352 N 
ATOM     26  C   UNL     1       2.769   8.530  -1.151  1.00  0.00     0.251 C 
ATOM     27  H   UNL     1       2.441   7.038  -2.461  1.00  0.00     0.163 HD
ATOM     28  O   UNL     1       3.836   8.840  -1.657  1.00  0.00    -0.269 OA
BRANCH  26  29
ATOM     29  C   UNL     1       2.363   9.134   0.148  1.00  0.00     0.039 A 
ATOM     30  C   UNL     1       3.371   9.357   1.095  1.00  0.00     0.014 A 
ATOM     31  C   UNL     1       1.028   9.223   0.527  1.00  0.00     0.014 A 
ATOM     32  C   UNL     1       3.047   9.347   2.448  1.00  0.00     0.010 A 
ATOM     33  C   UNL     1       0.715   9.086   1.864  1.00  0.00     0.010 A 
ATOM     34  C   UNL     1       1.738   9.057   2.815  1.00  0.00    -0.014 A 
BRANCH  34  35
ATOM     35  C   UNL     1       1.371   8.552   4.132  1.00  0.00     0.031 A 
ATOM     36  C   UNL     1       0.578   9.386   5.055  1.00  0.00     0.074 A 
ATOM     37  C   UNL     1       1.683   7.273   4.451  1.00  0.00     0.049 A 
ATOM     38  N   UNL     1       0.432   9.127   6.309  1.00  0.00    -0.248 NA
ATOM     39  C   UNL     1      -0.052  10.644   4.656  1.00  0.00     0.031 C 
ATOM     40  C   UNL     1       1.145   6.470   5.546  1.00  0.00     0.029 A 
ATOM     41  N   UNL     1       2.744   6.502   3.945  1.00  0.00    -0.354 N 
ATOM     42  C   UNL     1      -0.509   9.993   6.809  1.00  0.00     0.074 A 
ATOM     43  C   UNL     1      -0.679  10.990   5.785  1.00  0.00     0.031 C 
ATOM     44  C   UNL     1       2.009   5.481   5.825  1.00  0.00     0.029 A 
ATOM     45  C   UNL     1       3.199   5.717   5.027  1.00  0.00     0.049 A 
ATOM     46  H   UNL     1       3.097   6.508   3.026  1.00  0.00     0.167 HD
ATOM     47  C   UNL     1      -1.119   9.682   7.985  1.00  0.00     0.037 A 
ATOM     48  C   UNL     1       4.453   5.872   5.543  1.00  0.00     0.037 A 
ATOM     49  C   UNL     1      -0.378   8.634   8.687  1.00  0.00     0.049 A 
ATOM     50  C   UNL     1       4.481   6.263   7.000  1.00  0.00     0.074 A 
ATOM     51  C   UNL     1      -0.592   7.283   8.890  1.00  0.00     0.029 A 
ATOM     52  N   UNL     1       0.935   8.890   9.078  1.00  0.00    -0.354 N 
ATOM     53  N   UNL     1       3.462   6.767   7.639  1.00  0.00    -0.248 NA
ATOM     54  C   UNL     1       5.668   6.146   7.843  1.00  0.00     0.031 C 
ATOM     55  C   UNL     1       0.643   6.708   9.299  1.00  0.00     0.029 A 
ATOM     56  C   UNL     1       1.588   7.717   9.396  1.00  0.00     0.049 A 
ATOM     57  H   UNL     1       1.341   9.786   9.120  1.00  0.00     0.167 HD
ATOM     58  C   UNL     1       3.840   7.093   8.915  1.00  0.00     0.074 A 
ATOM     59  C   UNL     1       5.219   6.651   9.005  1.00  0.00     0.031 C 
ATOM     60  C   UNL     1       2.996   7.731   9.778  1.00  0.00     0.037 A 
BRANCH  47  61
ATOM     61  C   UNL     1      -2.475  10.189   8.432  1.00  0.00     0.057 A 
ATOM     62  C   UNL     1      -2.995   9.806   9.686  1.00  0.00     0.134 A 
ATOM     63  C   UNL     1      -3.378  10.929   7.640  1.00  0.00     0.134 A 
ATOM     64  F   UNL     1      -2.270   9.082  10.550  1.00  0.00    -0.206 F 
ATOM     65  C   UNL     1      -4.296  10.125  10.106  1.00  0.00     0.040 A 
ATOM     66  C   UNL     1      -4.662  11.296   8.069  1.00  0.00     0.040 A 
ATOM     67  F   UNL     1      -3.107  11.289   6.382  1.00  0.00    -0.206 F 
ATOM     68  C   UNL     1      -5.133  10.882   9.301  1.00  0.00     0.006 A 
ENDBRANCH  47  61
BRANCH  48  69
ATOM     69  C   UNL     1       5.466   6.270   4.534  1.00  0.00     0.057 A 
ATOM     70  C   UNL     1       5.822   5.337   3.549  1.00  0.00     0.134 A 
ATOM     71  C   UNL     1       5.779   7.608   4.284  1.00  0.00     0.134 A 
ATOM     72  F   UNL     1       5.564   4.036   3.744  1.00  0.00    -0.206 F 
ATOM     73  C   UNL     1       6.345   5.724   2.313  1.00  0.00     0.040 A 
ATOM     74  C   UNL     1       6.318   8.009   3.055  1.00  0.00     0.040 A 
ATOM     75  F   UNL     1       5.455   8.561   5.169  1.00  0.00    -0.206 F 
ATOM     76  C   UNL     1       6.560   7.072   2.050  1.00  0.00     0.006 A 
ENDBRANCH  48  69
BRANCH  60  77
ATOM     77  C   UNL     1       3.405   8.379  11.080  1.00  0.00     0.057 A 
ATOM     78  C   UNL     1       4.682   8.906  11.335  1.00  0.00     0.134 A 
ATOM     79  C   UNL     1       2.447   8.629  12.087  1.00  0.00     0.134 A 
ATOM     80  F   UNL     1       5.660   8.855  10.421  1.00  0.00    -0.206 F 
ATOM     81  C   UNL     1       5.000   9.571  12.528  1.00  0.00     0.040 A 
ATOM     82  C   UNL     1       2.738   9.339  13.256  1.00  0.00     0.040 A 
ATOM     83  F   UNL     1       1.177   8.214  11.966  1.00  0.00    -0.206 F 
ATOM     84  C   UNL     1       4.024   9.799  13.489  1.00  0.00     0.006 A 
ENDBRANCH  60  77
ENDBRANCH  34  35
ENDBRANCH  26  29
ENDBRANCH  24  25
ENDBRANCH  23  24
ENDBRANCH   1  23
TORSDOF 14
