REMARK SMILES O=C(NCCCCNC(=O)c1ccc(F)cc1-c1ccc(F)c(Cl)c1)c1ccc(-c2c3nc(c(-c4c(F)cccc4F)c4ccc([nH]4)c(-c4c(F)cccc4F)c4nc(c(-c5c(F)cccc5F)c5ccc2[nH]5)C=C4)C=C3)cc1
REMARK SMILES IDX 5 1 4 2 3 3 1 4 2 5 26 7 27 8 79 9 28 10 78 11 29 12 30 13
REMARK SMILES IDX 31 14 72 15 32 16 77 17 71 18 73 19 33 20 76 21 70 22 69 23
REMARK SMILES IDX 34 25 60 26 43 27 59 28 44 29 47 30 58 31 74 32 45 33 46 34
REMARK SMILES IDX 57 36 75 37 48 38 35 39 36 40 41 41 37 42 38 43 40 44 42 45
REMARK SMILES IDX 39 46 61 47 62 48 67 49 63 50 64 51 66 52 68 53 65 54 49 55
REMARK SMILES IDX 50 56 55 57 51 58 52 59 54 60 56 61 53 62 6 63 7 64 8 65
REMARK SMILES IDX 9 66 10 68 11 69 12 70 17 71 13 72 16 73 14 74 15 75 18 76
REMARK SMILES IDX 19 77 25 78 20 79 23 80 21 81 24 82 22 83
REMARK H PARENT 3 6 73 24 47 35 8 67
REMARK Flexibility Score: inf
ROOT
ATOM      1  C   UNL     1       4.951  -2.651  -0.717  1.00  0.00     0.023 C 
ENDROOT
BRANCH   1   2
ATOM      2  C   UNL     1       4.627  -1.169  -0.852  1.00  0.00     0.116 C 
BRANCH   2   3
ATOM      3  N   UNL     1       3.200  -0.884  -0.896  1.00  0.00    -0.352 N 
ATOM      4  O   UNL     1       1.227  -0.010  -0.236  1.00  0.00    -0.269 OA
ATOM      5  C   UNL     1       2.446  -0.044  -0.107  1.00  0.00     0.251 C 
ATOM      6  H   UNL     1       2.699  -1.363  -1.594  1.00  0.00     0.163 HD
BRANCH   5   7
ATOM      7  C   UNL     1       3.102   0.785   0.928  1.00  0.00     0.039 A 
ATOM      8  C   UNL     1       4.277   1.482   0.646  1.00  0.00     0.014 A 
ATOM      9  C   UNL     1       2.549   0.837   2.212  1.00  0.00     0.014 A 
ATOM     10  C   UNL     1       4.998   2.061   1.684  1.00  0.00     0.010 A 
ATOM     11  C   UNL     1       3.228   1.506   3.235  1.00  0.00     0.010 A 
ATOM     12  C   UNL     1       4.485   2.077   2.992  1.00  0.00    -0.014 A 
BRANCH  12  13
ATOM     13  C   UNL     1       5.288   2.707   4.073  1.00  0.00     0.031 A 
ATOM     14  C   UNL     1       5.828   1.894   5.219  1.00  0.00     0.074 A 
ATOM     15  C   UNL     1       5.592   4.016   3.977  1.00  0.00     0.049 A 
ATOM     16  N   UNL     1       6.602   2.276   6.205  1.00  0.00    -0.248 NA
ATOM     17  C   UNL     1       5.451   0.473   5.273  1.00  0.00     0.031 C 
ATOM     18  C   UNL     1       5.123   4.910   2.917  1.00  0.00     0.029 A 
ATOM     19  N   UNL     1       6.393   4.812   4.755  1.00  0.00    -0.354 N 
ATOM     20  C   UNL     1       6.789   1.153   7.002  1.00  0.00     0.074 A 
ATOM     21  C   UNL     1       6.026   0.080   6.401  1.00  0.00     0.031 C 
ATOM     22  C   UNL     1       5.700   6.111   3.069  1.00  0.00     0.029 A 
ATOM     23  C   UNL     1       6.530   6.089   4.269  1.00  0.00     0.049 A 
ATOM     24  H   UNL     1       6.827   4.498   5.580  1.00  0.00     0.167 HD
ATOM     25  C   UNL     1       7.537   1.026   8.124  1.00  0.00     0.037 A 
ATOM     26  C   UNL     1       7.244   7.131   4.733  1.00  0.00     0.037 A 
ATOM     27  C   UNL     1       8.314   2.089   8.709  1.00  0.00     0.049 A 
ATOM     28  C   UNL     1       8.062   6.965   5.978  1.00  0.00     0.074 A 
ATOM     29  C   UNL     1       9.114   2.050   9.838  1.00  0.00     0.029 A 
ATOM     30  N   UNL     1       8.394   3.380   8.208  1.00  0.00    -0.354 N 
ATOM     31  N   UNL     1       8.228   5.896   6.717  1.00  0.00    -0.248 NA
ATOM     32  C   UNL     1       8.787   8.150   6.457  1.00  0.00     0.031 C 
ATOM     33  C   UNL     1       9.651   3.326  10.040  1.00  0.00     0.029 A 
ATOM     34  C   UNL     1       9.220   4.148   9.012  1.00  0.00     0.049 A 
ATOM     35  H   UNL     1       7.932   3.702   7.401  1.00  0.00     0.167 HD
ATOM     36  C   UNL     1       9.081   6.274   7.744  1.00  0.00     0.074 A 
ATOM     37  C   UNL     1       9.415   7.667   7.521  1.00  0.00     0.031 C 
ATOM     38  C   UNL     1       9.541   5.533   8.781  1.00  0.00     0.037 A 
BRANCH  25  39
ATOM     39  C   UNL     1       7.551  -0.311   8.806  1.00  0.00     0.057 A 
ATOM     40  C   UNL     1       6.910  -0.492  10.038  1.00  0.00     0.134 A 
ATOM     41  C   UNL     1       8.250  -1.402   8.275  1.00  0.00     0.134 A 
ATOM     42  F   UNL     1       6.229   0.515  10.606  1.00  0.00    -0.206 F 
ATOM     43  C   UNL     1       6.971  -1.707  10.723  1.00  0.00     0.040 A 
ATOM     44  C   UNL     1       8.300  -2.630   8.940  1.00  0.00     0.040 A 
ATOM     45  F   UNL     1       8.876  -1.299   7.093  1.00  0.00    -0.206 F 
ATOM     46  C   UNL     1       7.666  -2.782  10.171  1.00  0.00     0.006 A 
ENDBRANCH  25  39
BRANCH  26  47
ATOM     47  C   UNL     1       7.221   8.413   3.989  1.00  0.00     0.057 A 
ATOM     48  C   UNL     1       6.072   9.213   3.952  1.00  0.00     0.134 A 
ATOM     49  C   UNL     1       8.330   8.839   3.252  1.00  0.00     0.134 A 
ATOM     50  F   UNL     1       4.973   8.850   4.630  1.00  0.00    -0.206 F 
ATOM     51  C   UNL     1       6.017  10.377   3.186  1.00  0.00     0.040 A 
ATOM     52  C   UNL     1       8.298  10.014   2.500  1.00  0.00     0.040 A 
ATOM     53  F   UNL     1       9.463   8.121   3.261  1.00  0.00    -0.206 F 
ATOM     54  C   UNL     1       7.135  10.781   2.458  1.00  0.00     0.006 A 
ENDBRANCH  26  47
BRANCH  38  55
ATOM     55  C   UNL     1      10.466   6.207   9.749  1.00  0.00     0.057 A 
ATOM     56  C   UNL     1      11.830   5.891   9.772  1.00  0.00     0.134 A 
ATOM     57  C   UNL     1       9.996   7.128  10.693  1.00  0.00     0.134 A 
ATOM     58  F   UNL     1      12.340   5.011   8.898  1.00  0.00    -0.206 F 
ATOM     59  C   UNL     1      12.694   6.463  10.706  1.00  0.00     0.040 A 
ATOM     60  C   UNL     1      10.855   7.723  11.619  1.00  0.00     0.040 A 
ATOM     61  F   UNL     1       8.702   7.480  10.714  1.00  0.00    -0.206 F 
ATOM     62  C   UNL     1      12.207   7.385  11.631  1.00  0.00     0.006 A 
ENDBRANCH  38  55
ENDBRANCH  12  13
ENDBRANCH   5   7
ENDBRANCH   2   3
ENDBRANCH   1   2
BRANCH   1  63
ATOM     63  C   UNL     1       4.464  -3.539  -1.857  1.00  0.00     0.023 C 
BRANCH  63  64
ATOM     64  C   UNL     1       4.835  -3.071  -3.260  1.00  0.00     0.116 C 
BRANCH  64  65
ATOM     65  N   UNL     1       6.271  -2.970  -3.473  1.00  0.00    -0.352 N 
ATOM     66  C   UNL     1       7.043  -3.551  -4.453  1.00  0.00     0.251 C 
ATOM     67  H   UNL     1       6.758  -2.408  -2.828  1.00  0.00     0.163 HD
ATOM     68  O   UNL     1       8.250  -3.345  -4.505  1.00  0.00    -0.269 OA
BRANCH  66  69
ATOM     69  C   UNL     1       6.386  -4.432  -5.443  1.00  0.00     0.047 A 
ATOM     70  C   UNL     1       5.429  -3.846  -6.293  1.00  0.00     0.017 A 
ATOM     71  C   UNL     1       6.698  -5.806  -5.529  1.00  0.00    -0.003 A 
ATOM     72  C   UNL     1       4.697  -4.639  -7.170  1.00  0.00     0.040 A 
ATOM     73  C   UNL     1       5.934  -6.583  -6.421  1.00  0.00     0.048 A 
ATOM     74  C   UNL     1       4.944  -6.004  -7.212  1.00  0.00     0.123 A 
ATOM     75  F   UNL     1       4.225  -6.777  -8.034  1.00  0.00    -0.207 F 
BRANCH  71  76
ATOM     76  C   UNL     1       7.788  -6.451  -4.772  1.00  0.00    -0.016 A 
ATOM     77  C   UNL     1       7.809  -6.486  -3.368  1.00  0.00     0.012 A 
ATOM     78  C   UNL     1       8.850  -7.063  -5.469  1.00  0.00     0.032 A 
ATOM     79  C   UNL     1       8.861  -7.103  -2.682  1.00  0.00     0.041 A 
ATOM     80  C   UNL     1       9.896  -7.684  -4.784  1.00  0.00     0.077 A 
ATOM     81  C   UNL     1       9.897  -7.700  -3.394  1.00  0.00     0.141 A 
ATOM     82  Cl  UNL     1      11.165  -8.430  -5.676  1.00  0.00    -0.081 Cl
ATOM     83  F   UNL     1      10.890  -8.293  -2.715  1.00  0.00    -0.205 F 
ENDBRANCH  71  76
ENDBRANCH  66  69
ENDBRANCH  64  65
ENDBRANCH  63  64
ENDBRANCH   1  63
TORSDOF 12
