REMARK SMILES CCOC(=O)c1sc(NC(=O)CCC(=O)NCCCCNC(=O)c2ccc(-c3c4nc(c(-c5c(F)cccc5F)c5ccc([nH]5)c(-c5c(F)cccc5F)c5nc(c(-c6c(F)cccc6F)c6ccc3[nH]6)C=C5)C=C4)cc2)c(C#N)c1C
REMARK SMILES IDX 14 1 15 2 16 3 13 5 12 6 10 7 9 8 11 10 8 11 6 12 7 13 81 14
REMARK SMILES IDX 78 15 82 16 4 17 5 18 3 19 2 20 1 21 79 22 80 23 17 24 18 25
REMARK SMILES IDX 19 26 20 27 21 28 22 29 23 31 24 32 25 33 77 34 26 35 76 36
REMARK SMILES IDX 27 37 28 38 29 39 70 40 30 41 75 42 69 43 71 44 31 45 74 46
REMARK SMILES IDX 68 47 67 48 32 50 58 51 41 52 57 53 42 54 45 55 56 56 72 57
REMARK SMILES IDX 43 58 44 59 55 61 73 62 46 63 33 64 34 65 39 66 35 67 36 68
REMARK SMILES IDX 38 69 40 70 37 71 59 72 60 73 65 74 61 75 62 76 64 77 66 78
REMARK SMILES IDX 63 79 47 80 48 81 53 82 49 83 50 84 52 85 54 86 51 87
REMARK H PARENT 16 4 9 9 21 30 71 49 45 60
REMARK Flexibility Score: inf
ROOT
ATOM      1  C   UNL     1       5.972  -0.393  -5.206  1.00  0.00     0.220 C 
ATOM      2  O   UNL     1       5.417   0.416  -4.462  1.00  0.00    -0.275 OA
ATOM      3  N   UNL     1       5.794  -0.242  -6.545  1.00  0.00    -0.356 N 
ATOM      4  H   UNL     1       5.038   0.336  -6.802  1.00  0.00     0.163 HD
ENDROOT
BRANCH   1   5
ATOM      5  C   UNL     1       6.818  -1.516  -4.656  1.00  0.00     0.110 C 
BRANCH   5   6
ATOM      6  C   UNL     1       6.177  -2.897  -4.529  1.00  0.00     0.110 C 
BRANCH   6   7
ATOM      7  C   UNL     1       5.287  -3.407  -5.648  1.00  0.00     0.225 C 
ATOM      8  N   UNL     1       4.021  -2.968  -5.926  1.00  0.00    -0.317 N 
ATOM      9  H   UNL     1       3.626  -3.358  -6.739  1.00  0.00     0.170 HD
ATOM     10  O   UNL     1       5.752  -4.267  -6.411  1.00  0.00    -0.275 OA
BRANCH   8  11
ATOM     11  C   UNL     1       3.201  -2.073  -5.267  1.00  0.00     0.114 A 
ATOM     12  C   UNL     1       2.342  -0.497  -3.601  1.00  0.00     0.118 A 
ATOM     13  S   UNL     1       3.334  -1.875  -3.589  1.00  0.00    -0.109 S 
ATOM     14  C   UNL     1       1.765  -0.275  -4.840  1.00  0.00    -0.006 A 
ATOM     15  C   UNL     1       2.144  -1.320  -5.758  1.00  0.00     0.091 A 
ATOM     16  C   UNL     1       0.907   0.899  -5.204  1.00  0.00     0.048 C 
BRANCH  12  17
ATOM     17  C   UNL     1       2.176   0.218  -2.365  1.00  0.00     0.348 C 
ATOM     18  O   UNL     1       3.062   0.598  -1.612  1.00  0.00    -0.245 OA
BRANCH  17  19
ATOM     19  O   UNL     1       0.840   0.329  -2.129  1.00  0.00    -0.462 OA
BRANCH  19  20
ATOM     20  C   UNL     1       0.475   0.906  -0.874  1.00  0.00     0.230 C 
ATOM     21  C   UNL     1       0.768  -0.047   0.270  1.00  0.00     0.049 C 
ENDBRANCH  19  20
ENDBRANCH  17  19
ENDBRANCH  12  17
BRANCH  15  22
ATOM     22  C   UNL     1       1.583  -1.419  -7.069  1.00  0.00     0.103 C 
ATOM     23  N   UNL     1       1.116  -1.441  -8.139  1.00  0.00    -0.192 NA
ENDBRANCH  15  22
ENDBRANCH   8  11
ENDBRANCH   6   7
ENDBRANCH   5   6
ENDBRANCH   1   5
BRANCH   3  24
ATOM     24  C   UNL     1       6.545  -0.799  -7.656  1.00  0.00     0.116 C 
BRANCH  24  25
ATOM     25  C   UNL     1       5.749  -1.713  -8.597  1.00  0.00     0.023 C 
BRANCH  25  26
ATOM     26  C   UNL     1       4.321  -1.280  -8.922  1.00  0.00     0.023 C 
BRANCH  26  27
ATOM     27  C   UNL     1       4.234  -0.142  -9.907  1.00  0.00     0.116 C 
BRANCH  27  28
ATOM     28  N   UNL     1       4.693  -0.521 -11.248  1.00  0.00    -0.352 N 
ATOM     29  C   UNL     1       4.704   0.254 -12.399  1.00  0.00     0.251 C 
ATOM     30  H   UNL     1       5.036  -1.438 -11.343  1.00  0.00     0.163 HD
ATOM     31  O   UNL     1       4.760  -0.246 -13.514  1.00  0.00    -0.269 OA
BRANCH  29  32
ATOM     32  C   UNL     1       4.704   1.715 -12.239  1.00  0.00     0.039 A 
ATOM     33  C   UNL     1       4.017   2.617 -13.058  1.00  0.00     0.014 A 
ATOM     34  C   UNL     1       5.401   2.174 -11.145  1.00  0.00     0.014 A 
ATOM     35  C   UNL     1       4.057   3.973 -12.716  1.00  0.00     0.010 A 
ATOM     36  C   UNL     1       4.909   3.305 -10.603  1.00  0.00     0.010 A 
ATOM     37  C   UNL     1       4.573   4.311 -11.466  1.00  0.00    -0.014 A 
BRANCH  37  38
ATOM     38  C   UNL     1       4.611   5.626 -10.859  1.00  0.00     0.031 A 
ATOM     39  C   UNL     1       3.255   6.178 -10.658  1.00  0.00     0.074 A 
ATOM     40  C   UNL     1       5.746   6.098 -10.284  1.00  0.00     0.049 A 
ATOM     41  N   UNL     1       2.642   7.018 -11.423  1.00  0.00    -0.248 NA
ATOM     42  C   UNL     1       2.368   5.520  -9.679  1.00  0.00     0.031 C 
ATOM     43  C   UNL     1       7.057   5.442 -10.136  1.00  0.00     0.029 A 
ATOM     44  N   UNL     1       5.945   7.279  -9.629  1.00  0.00    -0.354 N 
ATOM     45  C   UNL     1       1.409   7.222 -10.814  1.00  0.00     0.074 A 
ATOM     46  C   UNL     1       1.192   6.067  -9.994  1.00  0.00     0.031 C 
ATOM     47  C   UNL     1       7.827   6.128  -9.258  1.00  0.00     0.029 A 
ATOM     48  C   UNL     1       7.143   7.353  -8.902  1.00  0.00     0.049 A 
ATOM     49  H   UNL     1       5.300   8.021  -9.665  1.00  0.00     0.167 HD
ATOM     50  C   UNL     1       0.891   8.481 -10.735  1.00  0.00     0.037 A 
ATOM     51  C   UNL     1       7.492   8.365  -8.060  1.00  0.00     0.037 A 
ATOM     52  C   UNL     1       1.622   9.365 -11.621  1.00  0.00     0.049 A 
ATOM     53  C   UNL     1       6.627   9.526  -8.416  1.00  0.00     0.074 A 
ATOM     54  C   UNL     1       1.881   9.396 -12.977  1.00  0.00     0.029 A 
ATOM     55  N   UNL     1       2.579  10.161 -11.035  1.00  0.00    -0.354 N 
ATOM     56  N   UNL     1       6.699  10.143  -9.565  1.00  0.00    -0.248 NA
ATOM     57  C   UNL     1       5.345   9.614  -7.733  1.00  0.00     0.031 C 
ATOM     58  C   UNL     1       3.241   9.818 -13.084  1.00  0.00     0.029 A 
ATOM     59  C   UNL     1       3.709  10.134 -11.807  1.00  0.00     0.049 A 
ATOM     60  H   UNL     1       2.469  10.667 -10.198  1.00  0.00     0.167 HD
ATOM     61  C   UNL     1       5.377  10.307  -9.958  1.00  0.00     0.074 A 
ATOM     62  C   UNL     1       4.585   9.995  -8.765  1.00  0.00     0.031 C 
ATOM     63  C   UNL     1       5.037  10.357 -11.281  1.00  0.00     0.037 A 
BRANCH  50  64
ATOM     64  C   UNL     1       0.112   9.029  -9.550  1.00  0.00     0.057 A 
ATOM     65  C   UNL     1      -0.297  10.377  -9.605  1.00  0.00     0.134 A 
ATOM     66  C   UNL     1       0.012   8.440  -8.273  1.00  0.00     0.134 A 
ATOM     67  F   UNL     1      -0.297  11.051 -10.765  1.00  0.00    -0.206 F 
ATOM     68  C   UNL     1      -0.626  11.114  -8.462  1.00  0.00     0.040 A 
ATOM     69  C   UNL     1      -0.354   9.158  -7.130  1.00  0.00     0.040 A 
ATOM     70  F   UNL     1       0.328   7.167  -8.020  1.00  0.00    -0.206 F 
ATOM     71  C   UNL     1      -0.631  10.510  -7.214  1.00  0.00     0.006 A 
ENDBRANCH  50  64
BRANCH  51  72
ATOM     72  C   UNL     1       8.228   8.308  -6.771  1.00  0.00     0.057 A 
ATOM     73  C   UNL     1       8.732   9.468  -6.158  1.00  0.00     0.134 A 
ATOM     74  C   UNL     1       8.187   7.160  -5.961  1.00  0.00     0.134 A 
ATOM     75  F   UNL     1       8.770  10.629  -6.828  1.00  0.00    -0.206 F 
ATOM     76  C   UNL     1       9.148   9.489  -4.817  1.00  0.00     0.040 A 
ATOM     77  C   UNL     1       8.597   7.167  -4.622  1.00  0.00     0.040 A 
ATOM     78  F   UNL     1       7.658   6.016  -6.417  1.00  0.00    -0.206 F 
ATOM     79  C   UNL     1       9.068   8.338  -4.040  1.00  0.00     0.006 A 
ENDBRANCH  51  72
BRANCH  63  80
ATOM     80  C   UNL     1       6.144  10.469 -12.296  1.00  0.00     0.057 A 
ATOM     81  C   UNL     1       7.089   9.466 -12.566  1.00  0.00     0.134 A 
ATOM     82  C   UNL     1       6.133  11.569 -13.159  1.00  0.00     0.134 A 
ATOM     83  F   UNL     1       7.123   8.335 -11.852  1.00  0.00    -0.206 F 
ATOM     84  C   UNL     1       7.993   9.567 -13.630  1.00  0.00     0.040 A 
ATOM     85  C   UNL     1       7.008  11.669 -14.241  1.00  0.00     0.040 A 
ATOM     86  F   UNL     1       5.222  12.541 -12.995  1.00  0.00    -0.206 F 
ATOM     87  C   UNL     1       7.947  10.670 -14.478  1.00  0.00     0.006 A 
ENDBRANCH  63  80
ENDBRANCH  37  38
ENDBRANCH  29  32
ENDBRANCH  27  28
ENDBRANCH  26  27
ENDBRANCH  25  26
ENDBRANCH  24  25
ENDBRANCH   3  24
TORSDOF 18
