REMARK SMILES N#Cc1cnc2cc(C(=O)NCCCCNC(=O)c3ccc(-c4c5nc(c(-c6c(F)cccc6F)c6ccc([nH]6)c(-c6c(F)cccc6F)c6nc(c(-c7c(F)cccc7F)c7ccc4[nH]7)C=C6)C=C5)cc3)[nH]c2c1
REMARK SMILES IDX 14 1 13 2 12 3 11 4 9 5 10 6 8 8 3 9 4 10 75 11 5 12 74 13
REMARK SMILES IDX 6 14 73 15 7 16 2 18 1 19 15 20 16 21 17 22 18 24 19 25
REMARK SMILES IDX 20 26 72 27 21 28 71 29 22 30 23 31 24 32 65 33 25 34 70 35
REMARK SMILES IDX 64 36 66 37 26 38 69 39 63 40 62 41 27 43 53 44 36 45 52 46
REMARK SMILES IDX 37 47 40 48 51 49 67 50 38 51 39 52 50 54 68 55 41 56 28 57
REMARK SMILES IDX 29 58 34 59 30 60 31 61 33 62 35 63 32 64 54 65 55 66 60 67
REMARK SMILES IDX 56 68 57 69 59 70 61 71 58 72 42 73 43 74 48 75 44 76 45 77
REMARK SMILES IDX 47 78 49 79 46 80
REMARK H PARENT 11 7 73 17 16 23 66 42 40 53
REMARK Flexibility Score: inf
ROOT
ATOM      1  C   UNL     1      12.231   0.062  -3.327  1.00  0.00     0.023 C 
ENDROOT
BRANCH   1   2
ATOM      2  C   UNL     1      10.989  -0.362  -2.532  1.00  0.00     0.023 C 
BRANCH   2   3
ATOM      3  C   UNL     1      10.856   0.236  -1.129  1.00  0.00     0.116 C 
BRANCH   3   4
ATOM      4  N   UNL     1      10.416   1.619  -1.117  1.00  0.00    -0.351 N 
ATOM      5  C   UNL     1       9.237   2.217  -0.747  1.00  0.00     0.267 C 
ATOM      6  O   UNL     1       9.198   3.447  -0.826  1.00  0.00    -0.268 OA
ATOM      7  H   UNL     1      11.097   2.253  -1.438  1.00  0.00     0.163 HD
BRANCH   5   8
ATOM      8  C   UNL     1       8.061   1.471  -0.350  1.00  0.00     0.107 A 
ATOM      9  C   UNL     1       3.702   0.134  -0.020  1.00  0.00     0.072 A 
ATOM     10  C   UNL     1       4.391  -1.067   0.104  1.00  0.00     0.131 A 
ATOM     11  C   UNL     1       4.418   1.333  -0.115  1.00  0.00     0.049 A 
ATOM     12  N   UNL     1       5.733  -1.195   0.169  1.00  0.00    -0.253 NA
ATOM     13  C   UNL     1       5.809   1.205  -0.115  1.00  0.00     0.066 A 
ATOM     14  C   UNL     1       6.414  -0.034   0.040  1.00  0.00     0.089 A 
ATOM     15  N   UNL     1       6.829   2.114  -0.262  1.00  0.00    -0.349 N 
ATOM     16  C   UNL     1       7.808   0.158   0.009  1.00  0.00     0.062 A 
ATOM     17  H   UNL     1       6.706   3.090  -0.299  1.00  0.00     0.167 HD
BRANCH   9  18
ATOM     18  C   UNL     1       2.271   0.121  -0.063  1.00  0.00     0.101 C 
ATOM     19  N   UNL     1       1.117   0.095  -0.099  1.00  0.00    -0.192 NA
ENDBRANCH   9  18
ENDBRANCH   5   8
ENDBRANCH   3   4
ENDBRANCH   2   3
ENDBRANCH   1   2
BRANCH   1  20
ATOM     20  C   UNL     1      13.560  -0.172  -2.619  1.00  0.00     0.116 C 
BRANCH  20  21
ATOM     21  N   UNL     1      13.849  -1.575  -2.332  1.00  0.00    -0.352 N 
ATOM     22  C   UNL     1      15.024  -2.097  -1.814  1.00  0.00     0.251 C 
ATOM     23  H   UNL     1      13.132  -2.220  -2.530  1.00  0.00     0.163 HD
ATOM     24  O   UNL     1      15.324  -3.271  -1.996  1.00  0.00    -0.269 OA
BRANCH  22  25
ATOM     25  C   UNL     1      15.902  -1.219  -1.010  1.00  0.00     0.039 A 
ATOM     26  C   UNL     1      17.294  -1.309  -1.068  1.00  0.00     0.014 A 
ATOM     27  C   UNL     1      15.294  -0.279  -0.178  1.00  0.00     0.014 A 
ATOM     28  C   UNL     1      18.054  -0.410  -0.316  1.00  0.00     0.010 A 
ATOM     29  C   UNL     1      16.034   0.717   0.410  1.00  0.00     0.010 A 
ATOM     30  C   UNL     1      17.415   0.616   0.412  1.00  0.00    -0.014 A 
BRANCH  30  31
ATOM     31  C   UNL     1      18.172   1.741   0.967  1.00  0.00     0.031 A 
ATOM     32  C   UNL     1      18.996   2.375  -0.095  1.00  0.00     0.074 A 
ATOM     33  C   UNL     1      18.000   2.255   2.213  1.00  0.00     0.049 A 
ATOM     34  N   UNL     1      20.270   2.244  -0.248  1.00  0.00    -0.248 NA
ATOM     35  C   UNL     1      18.333   2.995  -1.260  1.00  0.00     0.031 C 
ATOM     36  C   UNL     1      17.014   1.844   3.222  1.00  0.00     0.029 A 
ATOM     37  N   UNL     1      18.619   3.317   2.833  1.00  0.00    -0.354 N 
ATOM     38  C   UNL     1      20.597   3.051  -1.333  1.00  0.00     0.074 A 
ATOM     39  C   UNL     1      19.375   3.261  -2.055  1.00  0.00     0.031 C 
ATOM     40  C   UNL     1      16.932   2.773   4.204  1.00  0.00     0.029 A 
ATOM     41  C   UNL     1      17.965   3.769   3.998  1.00  0.00     0.049 A 
ATOM     42  H   UNL     1      19.447   3.725   2.493  1.00  0.00     0.167 HD
ATOM     43  C   UNL     1      21.742   3.786  -1.279  1.00  0.00     0.037 A 
ATOM     44  C   UNL     1      18.276   4.872   4.738  1.00  0.00     0.037 A 
ATOM     45  C   UNL     1      22.584   3.290  -0.218  1.00  0.00     0.049 A 
ATOM     46  C   UNL     1      19.690   5.182   4.446  1.00  0.00     0.074 A 
ATOM     47  C   UNL     1      23.333   2.160   0.029  1.00  0.00     0.029 A 
ATOM     48  N   UNL     1      22.265   3.844   0.992  1.00  0.00    -0.354 N 
ATOM     49  N   UNL     1      20.679   4.415   4.808  1.00  0.00    -0.248 NA
ATOM     50  C   UNL     1      19.976   6.139   3.387  1.00  0.00     0.031 C 
ATOM     51  C   UNL     1      23.350   2.001   1.447  1.00  0.00     0.029 A 
ATOM     52  C   UNL     1      22.703   3.086   2.034  1.00  0.00     0.049 A 
ATOM     53  H   UNL     1      21.777   4.693   1.097  1.00  0.00     0.167 HD
ATOM     54  C   UNL     1      21.546   4.470   3.735  1.00  0.00     0.074 A 
ATOM     55  C   UNL     1      21.144   5.649   2.968  1.00  0.00     0.031 C 
ATOM     56  C   UNL     1      22.267   3.369   3.380  1.00  0.00     0.037 A 
BRANCH  43  57
ATOM     57  C   UNL     1      21.846   5.242  -1.706  1.00  0.00     0.057 A 
ATOM     58  C   UNL     1      23.096   5.885  -1.613  1.00  0.00     0.134 A 
ATOM     59  C   UNL     1      20.750   6.111  -1.886  1.00  0.00     0.134 A 
ATOM     60  F   UNL     1      24.218   5.180  -1.394  1.00  0.00    -0.206 F 
ATOM     61  C   UNL     1      23.235   7.279  -1.653  1.00  0.00     0.040 A 
ATOM     62  C   UNL     1      20.882   7.500  -1.974  1.00  0.00     0.040 A 
ATOM     63  F   UNL     1      19.482   5.689  -1.880  1.00  0.00    -0.206 F 
ATOM     64  C   UNL     1      22.125   8.093  -1.835  1.00  0.00     0.006 A 
ENDBRANCH  43  57
BRANCH  44  65
ATOM     65  C   UNL     1      17.417   5.877   5.432  1.00  0.00     0.057 A 
ATOM     66  C   UNL     1      17.975   6.870   6.264  1.00  0.00     0.134 A 
ATOM     67  C   UNL     1      16.097   6.110   5.020  1.00  0.00     0.134 A 
ATOM     68  F   UNL     1      19.240   6.765   6.699  1.00  0.00    -0.206 F 
ATOM     69  C   UNL     1      17.287   8.046   6.608  1.00  0.00     0.040 A 
ATOM     70  C   UNL     1      15.399   7.280   5.355  1.00  0.00     0.040 A 
ATOM     71  F   UNL     1      15.476   5.256   4.194  1.00  0.00    -0.206 F 
ATOM     72  C   UNL     1      16.000   8.265   6.132  1.00  0.00     0.006 A 
ENDBRANCH  44  65
BRANCH  56  73
ATOM     73  C   UNL     1      22.532   2.314   4.404  1.00  0.00     0.057 A 
ATOM     74  C   UNL     1      21.585   1.410   4.899  1.00  0.00     0.134 A 
ATOM     75  C   UNL     1      23.873   2.094   4.741  1.00  0.00     0.134 A 
ATOM     76  F   UNL     1      20.287   1.517   4.581  1.00  0.00    -0.206 F 
ATOM     77  C   UNL     1      21.971   0.318   5.686  1.00  0.00     0.040 A 
ATOM     78  C   UNL     1      24.273   0.993   5.492  1.00  0.00     0.040 A 
ATOM     79  F   UNL     1      24.828   2.913   4.269  1.00  0.00    -0.206 F 
ATOM     80  C   UNL     1      23.320   0.098   5.966  1.00  0.00     0.006 A 
ENDBRANCH  56  73
ENDBRANCH  30  31
ENDBRANCH  22  25
ENDBRANCH  20  21
ENDBRANCH   1  20
TORSDOF 12
