REMARK SMILES C[C@@H]1c2ccccc2-c2ccc(C(=O)NCCCCNC(=O)c3ccc(-c4c5nc(c(-c6c(F)cccc6F)c6ccc([nH]6)c(-c6c(F)cccc6F)c6nc(c(-c7c(F)cccc7F)c7ccc4[nH]7)C=C6)C=C5)cc3)cc21
REMARK SMILES IDX 18 1 17 2 16 3 15 4 13 5 14 6 12 8 1 9 2 10 3 11 78 12 4 13
REMARK SMILES IDX 8 14 9 15 77 16 5 17 7 18 10 19 6 20 11 21 19 22 20 23 21 24
REMARK SMILES IDX 22 26 23 27 24 28 76 29 25 30 75 31 26 32 27 33 28 34 69 35
REMARK SMILES IDX 29 36 74 37 68 38 70 39 30 40 73 41 67 42 66 43 31 45 57 46
REMARK SMILES IDX 40 47 56 48 41 49 44 50 55 51 71 52 42 53 43 54 54 56 72 57
REMARK SMILES IDX 45 58 32 59 33 60 38 61 34 62 35 63 37 64 39 65 36 66 58 67
REMARK SMILES IDX 59 68 64 69 60 70 61 71 63 72 65 73 62 74 46 75 47 76 52 77
REMARK SMILES IDX 48 78 49 79 51 80 53 81 50 82
REMARK H PARENT 15 7 20 25 70 44 44 55
REMARK Flexibility Score: inf
ROOT
ATOM      1  C   UNL     1      -5.930  -3.848   2.024  1.00  0.00     0.023 C 
ENDROOT
BRANCH   1   2
ATOM      2  C   UNL     1      -4.659  -3.261   1.404  1.00  0.00     0.023 C 
BRANCH   2   3
ATOM      3  C   UNL     1      -4.865  -2.628   0.025  1.00  0.00     0.116 C 
BRANCH   3   4
ATOM      4  N   UNL     1      -5.368  -1.276   0.149  1.00  0.00    -0.352 N 
ATOM      5  C   UNL     1      -4.746  -0.055   0.221  1.00  0.00     0.251 C 
ATOM      6  O   UNL     1      -5.478   0.933   0.300  1.00  0.00    -0.269 OA
ATOM      7  H   UNL     1      -6.351  -1.222   0.191  1.00  0.00     0.163 HD
BRANCH   5   8
ATOM      8  C   UNL     1      -3.263   0.144   0.175  1.00  0.00     0.040 A 
ATOM      9  C   UNL     1       0.262  -2.241   1.775  1.00  0.00     0.018 C 
ATOM     10  C   UNL     1       0.228  -1.482   0.456  1.00  0.00     0.047 C 
ATOM     11  C   UNL     1       1.396  -0.528   0.265  1.00  0.00    -0.033 A 
ATOM     12  C   UNL     1      -0.962  -0.540   0.325  1.00  0.00    -0.032 A 
ATOM     13  C   UNL     1       2.753  -0.808   0.302  1.00  0.00     0.005 A 
ATOM     14  C   UNL     1       0.921   0.774  -0.011  1.00  0.00    -0.014 A 
ATOM     15  C   UNL     1      -0.526   0.759   0.005  1.00  0.00    -0.014 A 
ATOM     16  C   UNL     1      -2.312  -0.844   0.447  1.00  0.00     0.018 A 
ATOM     17  C   UNL     1       3.646   0.240   0.078  1.00  0.00     0.000 A 
ATOM     18  C   UNL     1       1.809   1.814  -0.230  1.00  0.00     0.009 A 
ATOM     19  C   UNL     1      -1.447   1.763  -0.226  1.00  0.00     0.010 A 
ATOM     20  C   UNL     1       3.179   1.540  -0.183  1.00  0.00     0.001 A 
ATOM     21  C   UNL     1      -2.811   1.447  -0.150  1.00  0.00     0.014 A 
ENDBRANCH   5   8
ENDBRANCH   3   4
ENDBRANCH   2   3
ENDBRANCH   1   2
BRANCH   1  22
ATOM     22  C   UNL     1      -6.532  -5.020   1.257  1.00  0.00     0.116 C 
BRANCH  22  23
ATOM     23  N   UNL     1      -5.614  -6.135   1.087  1.00  0.00    -0.352 N 
ATOM     24  C   UNL     1      -5.914  -7.468   0.922  1.00  0.00     0.251 C 
ATOM     25  H   UNL     1      -4.657  -5.907   1.091  1.00  0.00     0.163 HD
ATOM     26  O   UNL     1      -5.028  -8.306   0.882  1.00  0.00    -0.269 OA
BRANCH  24  27
ATOM     27  C   UNL     1      -7.332  -7.875   0.845  1.00  0.00     0.039 A 
ATOM     28  C   UNL     1      -7.784  -8.887   1.695  1.00  0.00     0.014 A 
ATOM     29  C   UNL     1      -8.215  -7.231  -0.025  1.00  0.00     0.014 A 
ATOM     30  C   UNL     1      -9.142  -9.205   1.724  1.00  0.00     0.010 A 
ATOM     31  C   UNL     1      -9.576  -7.504   0.051  1.00  0.00     0.010 A 
ATOM     32  C   UNL     1     -10.053  -8.489   0.929  1.00  0.00    -0.014 A 
BRANCH  32  33
ATOM     33  C   UNL     1     -11.510  -8.750   1.009  1.00  0.00     0.031 A 
ATOM     34  C   UNL     1     -12.242  -9.306  -0.178  1.00  0.00     0.074 A 
ATOM     35  C   UNL     1     -12.184  -8.416   2.127  1.00  0.00     0.049 A 
ATOM     36  N   UNL     1     -13.523  -9.527  -0.329  1.00  0.00    -0.248 NA
ATOM     37  C   UNL     1     -11.431  -9.629  -1.362  1.00  0.00     0.031 C 
ATOM     38  C   UNL     1     -11.593  -7.817   3.326  1.00  0.00     0.029 A 
ATOM     39  N   UNL     1     -13.518  -8.520   2.430  1.00  0.00    -0.354 N 
ATOM     40  C   UNL     1     -13.672 -10.001  -1.626  1.00  0.00     0.074 A 
ATOM     41  C   UNL     1     -12.360  -9.988  -2.236  1.00  0.00     0.031 C 
ATOM     42  C   UNL     1     -12.558  -7.623   4.240  1.00  0.00     0.029 A 
ATOM     43  C   UNL     1     -13.836  -8.053   3.682  1.00  0.00     0.049 A 
ATOM     44  H   UNL     1     -14.184  -8.893   1.808  1.00  0.00     0.167 HD
ATOM     45  C   UNL     1     -14.797 -10.430  -2.245  1.00  0.00     0.037 A 
ATOM     46  C   UNL     1     -15.026  -7.976   4.306  1.00  0.00     0.037 A 
ATOM     47  C   UNL     1     -16.096 -10.468  -1.628  1.00  0.00     0.049 A 
ATOM     48  C   UNL     1     -16.258  -8.472   3.603  1.00  0.00     0.074 A 
ATOM     49  C   UNL     1     -17.288 -10.937  -2.152  1.00  0.00     0.029 A 
ATOM     50  N   UNL     1     -16.372 -10.019  -0.345  1.00  0.00    -0.354 N 
ATOM     51  N   UNL     1     -16.375  -8.976   2.399  1.00  0.00    -0.248 NA
ATOM     52  C   UNL     1     -17.523  -8.395   4.348  1.00  0.00     0.031 C 
ATOM     53  C   UNL     1     -18.292 -10.744  -1.197  1.00  0.00     0.029 A 
ATOM     54  C   UNL     1     -17.718 -10.189  -0.065  1.00  0.00     0.049 A 
ATOM     55  H   UNL     1     -15.710  -9.636   0.275  1.00  0.00     0.167 HD
ATOM     56  C   UNL     1     -17.717  -9.299   2.250  1.00  0.00     0.074 A 
ATOM     57  C   UNL     1     -18.372  -8.946   3.493  1.00  0.00     0.031 C 
ATOM     58  C   UNL     1     -18.350  -9.839   1.181  1.00  0.00     0.037 A 
BRANCH  45  59
ATOM     59  C   UNL     1     -14.664 -10.905  -3.661  1.00  0.00     0.057 A 
ATOM     60  C   UNL     1     -14.028 -12.113  -3.975  1.00  0.00     0.134 A 
ATOM     61  C   UNL     1     -15.199 -10.162  -4.720  1.00  0.00     0.134 A 
ATOM     62  F   UNL     1     -13.482 -12.865  -3.007  1.00  0.00    -0.206 F 
ATOM     63  C   UNL     1     -13.906 -12.553  -5.294  1.00  0.00     0.040 A 
ATOM     64  C   UNL     1     -15.105 -10.603  -6.041  1.00  0.00     0.040 A 
ATOM     65  F   UNL     1     -15.825  -8.998  -4.489  1.00  0.00    -0.206 F 
ATOM     66  C   UNL     1     -14.451 -11.799  -6.331  1.00  0.00     0.006 A 
ENDBRANCH  45  59
BRANCH  46  67
ATOM     67  C   UNL     1     -15.107  -7.431   5.684  1.00  0.00     0.057 A 
ATOM     68  C   UNL     1     -15.361  -8.268   6.776  1.00  0.00     0.134 A 
ATOM     69  C   UNL     1     -14.939  -6.066   5.941  1.00  0.00     0.134 A 
ATOM     70  F   UNL     1     -15.548  -9.583   6.588  1.00  0.00    -0.206 F 
ATOM     71  C   UNL     1     -15.463  -7.766   8.074  1.00  0.00     0.040 A 
ATOM     72  C   UNL     1     -15.016  -5.553   7.237  1.00  0.00     0.040 A 
ATOM     73  F   UNL     1     -14.685  -5.213   4.938  1.00  0.00    -0.206 F 
ATOM     74  C   UNL     1     -15.286  -6.404   8.307  1.00  0.00     0.006 A 
ENDBRANCH  46  67
BRANCH  58  75
ATOM     75  C   UNL     1     -19.818 -10.108   1.319  1.00  0.00     0.057 A 
ATOM     76  C   UNL     1     -20.763  -9.075   1.293  1.00  0.00     0.134 A 
ATOM     77  C   UNL     1     -20.294 -11.420   1.441  1.00  0.00     0.134 A 
ATOM     78  F   UNL     1     -20.369  -7.796   1.193  1.00  0.00    -0.206 F 
ATOM     79  C   UNL     1     -22.130  -9.336   1.402  1.00  0.00     0.040 A 
ATOM     80  C   UNL     1     -21.659 -11.695   1.527  1.00  0.00     0.040 A 
ATOM     81  F   UNL     1     -19.440 -12.454   1.465  1.00  0.00    -0.206 F 
ATOM     82  C   UNL     1     -22.581 -10.650   1.512  1.00  0.00     0.006 A 
ENDBRANCH  58  75
ENDBRANCH  32  33
ENDBRANCH  24  27
ENDBRANCH  22  23
ENDBRANCH   1  22
TORSDOF 11
