REMARK SMILES C[NH2+]C[C@H](C)C(=O)N1CCc2cc(C(=O)NCCCCNC(=O)c3ccc(-c4c5nc(c(-c6c(F)cccc6F)c6ccc([nH]6)c(-c6c(F)cccc6F)c6nc(c(-c7c(F)cccc7F)c7ccc4[nH]7)C=C6)C=C5)cc3)ccc21
REMARK SMILES IDX 17 1 16 2 14 3 15 4 13 6 8 7 9 8 80 9 10 10 11 11 79 12
REMARK SMILES IDX 12 13 78 14 6 15 7 16 4 17 5 18 3 19 2 20 1 21 18 24 19 25
REMARK SMILES IDX 20 26 21 27 22 28 23 30 24 31 25 32 77 33 26 34 76 35 27 36
REMARK SMILES IDX 28 37 29 38 70 39 30 40 75 41 69 42 71 43 31 44 74 45 68 46
REMARK SMILES IDX 67 47 32 49 58 50 41 51 57 52 42 53 45 54 56 55 72 56 43 57
REMARK SMILES IDX 44 58 55 60 73 61 46 62 33 63 34 64 39 65 35 66 36 67 38 68
REMARK SMILES IDX 40 69 37 70 59 71 60 72 65 73 61 74 62 75 64 76 66 77 63 78
REMARK SMILES IDX 47 79 48 80 53 81 49 82 50 83 52 84 54 85 51 86
REMARK H PARENT 16 5 2 22 2 23 21 29 71 48 45 59
REMARK Flexibility Score: inf
ROOT
ATOM      1  C   UNL     1      -0.844   2.509   6.454  1.00  0.00     0.116 C 
ENDROOT
BRANCH   1   2
ATOM      2  N   UNL     1      -2.101   2.291   7.142  1.00  0.00    -0.352 N 
ATOM      3  C   UNL     1      -3.245   1.631   6.760  1.00  0.00     0.251 C 
ATOM      4  O   UNL     1      -4.155   1.532   7.582  1.00  0.00    -0.269 OA
ATOM      5  H   UNL     1      -2.144   2.685   8.043  1.00  0.00     0.163 HD
BRANCH   3   6
ATOM      6  C   UNL     1      -3.403   0.994   5.420  1.00  0.00     0.040 A 
ATOM      7  N   UNL     1      -3.904  -1.190   1.901  1.00  0.00    -0.311 N 
ATOM      8  C   UNL     1      -5.127  -1.948   2.198  1.00  0.00     0.130 C 
ATOM      9  C   UNL     1      -3.642  -0.354   2.986  1.00  0.00     0.047 A 
ATOM     10  C   UNL     1      -5.412  -1.778   3.699  1.00  0.00     0.059 C 
ATOM     11  C   UNL     1      -4.428  -0.716   4.077  1.00  0.00    -0.022 A 
ATOM     12  C   UNL     1      -2.871   0.781   3.042  1.00  0.00     0.027 A 
ATOM     13  C   UNL     1      -4.294  -0.083   5.308  1.00  0.00     0.019 A 
ATOM     14  C   UNL     1      -2.769   1.459   4.258  1.00  0.00     0.016 A 
BRANCH   7  15
ATOM     15  C   UNL     1      -3.315  -1.245   0.661  1.00  0.00     0.235 C 
ATOM     16  O   UNL     1      -4.014  -1.342  -0.355  1.00  0.00    -0.274 OA
BRANCH  15  17
ATOM     17  C   UNL     1      -1.792  -1.450   0.534  1.00  0.00     0.131 C 
ATOM     18  C   UNL     1      -0.911  -0.219   0.697  1.00  0.00     0.024 C 
BRANCH  17  19
ATOM     19  C   UNL     1      -1.256  -2.613   1.394  1.00  0.00     0.273 C 
BRANCH  19  20
ATOM     20  N   UNL     1      -1.981  -3.887   1.354  1.00  0.00    -0.348 N 
ATOM     21  C   UNL     1      -2.152  -4.423   0.010  1.00  0.00     0.330 C 
ATOM     22  H   UNL     1      -1.464  -4.569   1.909  1.00  0.00     0.346 HD
ATOM     23  H   UNL     1      -2.914  -3.710   1.724  1.00  0.00     0.346 HD
ENDBRANCH  19  20
ENDBRANCH  17  19
ENDBRANCH  15  17
ENDBRANCH   7  15
ENDBRANCH   3   6
ENDBRANCH   1   2
BRANCH   1  24
ATOM     24  C   UNL     1      -0.823   3.878   5.767  1.00  0.00     0.023 C 
BRANCH  24  25
ATOM     25  C   UNL     1      -0.514   5.053   6.693  1.00  0.00     0.023 C 
BRANCH  25  26
ATOM     26  C   UNL     1       0.865   5.014   7.331  1.00  0.00     0.116 C 
BRANCH  26  27
ATOM     27  N   UNL     1       1.948   4.964   6.362  1.00  0.00    -0.352 N 
ATOM     28  C   UNL     1       3.214   5.491   6.467  1.00  0.00     0.251 C 
ATOM     29  H   UNL     1       1.750   4.492   5.522  1.00  0.00     0.163 HD
ATOM     30  O   UNL     1       3.981   5.452   5.515  1.00  0.00    -0.269 OA
BRANCH  28  31
ATOM     31  C   UNL     1       3.623   6.144   7.728  1.00  0.00     0.039 A 
ATOM     32  C   UNL     1       4.264   7.382   7.662  1.00  0.00     0.014 A 
ATOM     33  C   UNL     1       3.357   5.552   8.966  1.00  0.00     0.014 A 
ATOM     34  C   UNL     1       4.593   8.050   8.842  1.00  0.00     0.010 A 
ATOM     35  C   UNL     1       3.607   6.256  10.138  1.00  0.00     0.010 A 
ATOM     36  C   UNL     1       4.242   7.505  10.088  1.00  0.00    -0.014 A 
BRANCH  36  37
ATOM     37  C   UNL     1       4.562   8.222  11.346  1.00  0.00     0.031 A 
ATOM     38  C   UNL     1       5.537   7.629  12.325  1.00  0.00     0.074 A 
ATOM     39  C   UNL     1       3.950   9.389  11.621  1.00  0.00     0.049 A 
ATOM     40  N   UNL     1       5.954   8.108  13.470  1.00  0.00    -0.248 NA
ATOM     41  C   UNL     1       6.099   6.311  11.987  1.00  0.00     0.031 C 
ATOM     42  C   UNL     1       2.940  10.035  10.781  1.00  0.00     0.029 A 
ATOM     43  N   UNL     1       4.092  10.242  12.685  1.00  0.00    -0.354 N 
ATOM     44  C   UNL     1       6.817   7.151  13.987  1.00  0.00     0.074 A 
ATOM     45  C   UNL     1       6.812   6.035  13.067  1.00  0.00     0.031 C 
ATOM     46  C   UNL     1       2.584  11.203  11.342  1.00  0.00     0.029 A 
ATOM     47  C   UNL     1       3.320  11.374  12.590  1.00  0.00     0.049 A 
ATOM     48  H   UNL     1       4.691  10.060  13.445  1.00  0.00     0.167 HD
ATOM     49  C   UNL     1       7.572   7.208  15.110  1.00  0.00     0.037 A 
ATOM     50  C   UNL     1       3.229  12.436  13.412  1.00  0.00     0.037 A 
ATOM     51  C   UNL     1       7.590   8.328  16.013  1.00  0.00     0.049 A 
ATOM     52  C   UNL     1       4.089  12.483  14.645  1.00  0.00     0.074 A 
ATOM     53  C   UNL     1       8.349   8.504  17.156  1.00  0.00     0.029 A 
ATOM     54  N   UNL     1       6.811   9.466  15.871  1.00  0.00    -0.354 N 
ATOM     55  N   UNL     1       4.955  11.603  15.086  1.00  0.00    -0.248 NA
ATOM     56  C   UNL     1       3.970  13.683  15.484  1.00  0.00     0.031 C 
ATOM     57  C   UNL     1       8.004   9.735  17.725  1.00  0.00     0.029 A 
ATOM     58  C   UNL     1       7.064  10.346  16.910  1.00  0.00     0.049 A 
ATOM     59  H   UNL     1       6.172   9.626  15.139  1.00  0.00     0.167 HD
ATOM     60  C   UNL     1       5.509  12.156  16.233  1.00  0.00     0.074 A 
ATOM     61  C   UNL     1       4.890  13.454  16.410  1.00  0.00     0.031 C 
ATOM     62  C   UNL     1       6.446  11.638  17.064  1.00  0.00     0.037 A 
BRANCH  49  63
ATOM     63  C   UNL     1       8.445   6.024  15.410  1.00  0.00     0.057 A 
ATOM     64  C   UNL     1       9.567   5.719  14.627  1.00  0.00     0.134 A 
ATOM     65  C   UNL     1       8.172   5.186  16.498  1.00  0.00     0.134 A 
ATOM     66  F   UNL     1       9.877   6.471  13.560  1.00  0.00    -0.206 F 
ATOM     67  C   UNL     1      10.366   4.605  14.895  1.00  0.00     0.040 A 
ATOM     68  C   UNL     1       8.980   4.087  16.794  1.00  0.00     0.040 A 
ATOM     69  F   UNL     1       7.116   5.422  17.292  1.00  0.00    -0.206 F 
ATOM     70  C   UNL     1      10.075   3.789  15.986  1.00  0.00     0.006 A 
ENDBRANCH  49  63
BRANCH  50  71
ATOM     71  C   UNL     1       2.332  13.568  13.070  1.00  0.00     0.057 A 
ATOM     72  C   UNL     1       2.855  14.805  12.675  1.00  0.00     0.134 A 
ATOM     73  C   UNL     1       0.940  13.447  13.139  1.00  0.00     0.134 A 
ATOM     74  F   UNL     1       4.182  14.986  12.605  1.00  0.00    -0.206 F 
ATOM     75  C   UNL     1       2.027  15.890  12.385  1.00  0.00     0.040 A 
ATOM     76  C   UNL     1       0.099  14.517  12.828  1.00  0.00     0.040 A 
ATOM     77  F   UNL     1       0.378  12.285  13.501  1.00  0.00    -0.206 F 
ATOM     78  C   UNL     1       0.643  15.746  12.458  1.00  0.00     0.006 A 
ENDBRANCH  50  71
BRANCH  62  79
ATOM     79  C   UNL     1       6.891  12.500  18.210  1.00  0.00     0.057 A 
ATOM     80  C   UNL     1       6.062  12.761  19.309  1.00  0.00     0.134 A 
ATOM     81  C   UNL     1       8.172  13.065  18.217  1.00  0.00     0.134 A 
ATOM     82  F   UNL     1       4.818  12.260  19.357  1.00  0.00    -0.206 F 
ATOM     83  C   UNL     1       6.480  13.583  20.357  1.00  0.00     0.040 A 
ATOM     84  C   UNL     1       8.611  13.864  19.273  1.00  0.00     0.040 A 
ATOM     85  F   UNL     1       9.020  12.846  17.200  1.00  0.00    -0.206 F 
ATOM     86  C   UNL     1       7.760  14.133  20.342  1.00  0.00     0.006 A 
ENDBRANCH  62  79
ENDBRANCH  36  37
ENDBRANCH  28  31
ENDBRANCH  26  27
ENDBRANCH  25  26
ENDBRANCH  24  25
ENDBRANCH   1  24
TORSDOF 15
