REMARK SMILES Cc1ccc(OCC(=O)N[C@H](C)C(=O)NCCCCNC(=O)c2ccc(-c3c4nc(c(-c5c(F)cccc5F)c5ccc([nH]5)c(-c5c(F)cccc5F)c5nc(c(-c6c(F)cccc6F)c6ccc3[nH]6)C=C5)C=C4)cc2)c(Br)c1
REMARK SMILES IDX 16 1 15 2 13 3 14 4 11 6 12 7 10 8 8 9 9 10 7 12 6 13 5 14
REMARK SMILES IDX 1 15 2 16 3 17 79 18 4 19 77 20 78 21 17 22 18 23 19 24
REMARK SMILES IDX 20 25 21 26 22 28 23 29 24 30 76 31 25 32 75 33 26 34 27 35
REMARK SMILES IDX 28 36 69 37 29 38 74 39 68 40 70 41 30 42 73 43 67 44 66 45
REMARK SMILES IDX 31 47 57 48 40 49 56 50 41 51 44 52 55 53 71 54 42 55 43 56
REMARK SMILES IDX 54 58 72 59 45 60 32 61 33 62 38 63 34 64 35 65 37 66 39 67
REMARK SMILES IDX 36 68 58 69 59 70 64 71 60 72 61 73 63 74 65 75 62 76 46 77
REMARK SMILES IDX 47 78 52 79 48 80 49 81 51 82 53 83 50 84
REMARK H PARENT 15 5 10 11 20 27 70 46 44 57
REMARK Flexibility Score: inf
ROOT
ATOM      1  C   UNL     1      -0.560   5.213  -5.130  1.00  0.00     0.116 C 
ENDROOT
BRANCH   1   2
ATOM      2  N   UNL     1       0.538   5.772  -4.368  1.00  0.00    -0.354 N 
ATOM      3  C   UNL     1       1.366   5.204  -3.447  1.00  0.00     0.242 C 
ATOM      4  O   UNL     1       2.270   5.914  -2.992  1.00  0.00    -0.273 OA
ATOM      5  H   UNL     1       0.716   6.724  -4.545  1.00  0.00     0.163 HD
BRANCH   3   6
ATOM      6  C   UNL     1       1.118   3.810  -2.837  1.00  0.00     0.168 C 
ATOM      7  C   UNL     1      -0.040   3.876  -1.841  1.00  0.00     0.041 C 
BRANCH   6   8
ATOM      8  N   UNL     1       0.918   2.704  -3.767  1.00  0.00    -0.342 N 
ATOM      9  C   UNL     1       1.889   1.937  -4.346  1.00  0.00     0.258 C 
ATOM     10  O   UNL     1       1.591   0.774  -4.632  1.00  0.00    -0.271 OA
ATOM     11  H   UNL     1      -0.013   2.488  -4.001  1.00  0.00     0.164 HD
BRANCH   9  12
ATOM     12  C   UNL     1       3.298   2.514  -4.653  1.00  0.00     0.329 C 
BRANCH  12  13
ATOM     13  O   UNL     1       3.673   3.018  -5.936  1.00  0.00    -0.483 OA
BRANCH  13  14
ATOM     14  C   UNL     1       2.698   2.923  -6.886  1.00  0.00     0.134 A 
ATOM     15  C   UNL     1      -0.789   2.668  -9.392  1.00  0.00     0.044 C 
ATOM     16  C   UNL     1       0.476   2.729  -8.588  1.00  0.00    -0.050 A 
ATOM     17  C   UNL     1       1.141   1.578  -8.170  1.00  0.00     0.007 A 
ATOM     18  C   UNL     1       1.009   3.970  -8.233  1.00  0.00     0.023 A 
ATOM     19  C   UNL     1       2.258   1.677  -7.335  1.00  0.00     0.048 A 
ATOM     20  C   UNL     1       2.137   4.077  -7.417  1.00  0.00     0.060 A 
ATOM     21  Br  UNL     1       2.844   5.793  -7.025  1.00  0.00    -0.047 Br
ENDBRANCH  13  14
ENDBRANCH  12  13
ENDBRANCH   9  12
ENDBRANCH   6   8
ENDBRANCH   3   6
ENDBRANCH   1   2
BRANCH   1  22
ATOM     22  C   UNL     1      -1.633   6.242  -5.505  1.00  0.00     0.023 C 
BRANCH  22  23
ATOM     23  C   UNL     1      -1.218   7.487  -6.311  1.00  0.00     0.023 C 
BRANCH  23  24
ATOM     24  C   UNL     1      -0.803   7.325  -7.777  1.00  0.00     0.116 C 
BRANCH  24  25
ATOM     25  N   UNL     1      -1.696   6.522  -8.595  1.00  0.00    -0.352 N 
ATOM     26  C   UNL     1      -1.709   6.382  -9.966  1.00  0.00     0.251 C 
ATOM     27  H   UNL     1      -2.382   6.013  -8.105  1.00  0.00     0.163 HD
ATOM     28  O   UNL     1      -2.576   5.698 -10.504  1.00  0.00    -0.269 OA
BRANCH  26  29
ATOM     29  C   UNL     1      -0.717   7.095 -10.804  1.00  0.00     0.039 A 
ATOM     30  C   UNL     1      -1.183   7.943 -11.813  1.00  0.00     0.014 A 
ATOM     31  C   UNL     1       0.657   6.944 -10.611  1.00  0.00     0.014 A 
ATOM     32  C   UNL     1      -0.277   8.713 -12.548  1.00  0.00     0.010 A 
ATOM     33  C   UNL     1       1.561   7.732 -11.318  1.00  0.00     0.010 A 
ATOM     34  C   UNL     1       1.098   8.650 -12.265  1.00  0.00    -0.014 A 
BRANCH  34  35
ATOM     35  C   UNL     1       2.047   9.629 -12.844  1.00  0.00     0.031 A 
ATOM     36  C   UNL     1       3.096   9.213 -13.830  1.00  0.00     0.074 A 
ATOM     37  C   UNL     1       2.002  10.897 -12.389  1.00  0.00     0.049 A 
ATOM     38  N   UNL     1       4.014   9.945 -14.410  1.00  0.00    -0.248 NA
ATOM     39  C   UNL     1       3.133   7.791 -14.203  1.00  0.00     0.031 C 
ATOM     40  C   UNL     1       1.070  11.395 -11.374  1.00  0.00     0.029 A 
ATOM     41  N   UNL     1       2.758  11.994 -12.711  1.00  0.00    -0.354 N 
ATOM     42  C   UNL     1       4.727   9.080 -15.228  1.00  0.00     0.074 A 
ATOM     43  C   UNL     1       4.170   7.758 -15.030  1.00  0.00     0.031 C 
ATOM     44  C   UNL     1       1.291  12.704 -11.178  1.00  0.00     0.029 A 
ATOM     45  C   UNL     1       2.395  13.130 -12.029  1.00  0.00     0.049 A 
ATOM     46  H   UNL     1       3.492  11.970 -13.367  1.00  0.00     0.167 HD
ATOM     47  C   UNL     1       5.738   9.369 -16.082  1.00  0.00     0.037 A 
ATOM     48  C   UNL     1       2.895  14.377 -12.089  1.00  0.00     0.037 A 
ATOM     49  C   UNL     1       6.298  10.684 -16.262  1.00  0.00     0.049 A 
ATOM     50  C   UNL     1       4.022  14.666 -13.039  1.00  0.00     0.074 A 
ATOM     51  C   UNL     1       7.320  11.081 -17.107  1.00  0.00     0.029 A 
ATOM     52  N   UNL     1       5.881  11.817 -15.579  1.00  0.00    -0.354 N 
ATOM     53  N   UNL     1       4.638  13.852 -13.860  1.00  0.00    -0.248 NA
ATOM     54  C   UNL     1       4.516  16.049 -13.078  1.00  0.00     0.031 C 
ATOM     55  C   UNL     1       7.536  12.451 -16.919  1.00  0.00     0.029 A 
ATOM     56  C   UNL     1       6.626  12.913 -15.982  1.00  0.00     0.049 A 
ATOM     57  H   UNL     1       5.161  11.840 -14.908  1.00  0.00     0.167 HD
ATOM     58  C   UNL     1       5.565  14.628 -14.539  1.00  0.00     0.074 A 
ATOM     59  C   UNL     1       5.427  15.980 -14.039  1.00  0.00     0.031 C 
ATOM     60  C   UNL     1       6.452  14.255 -15.492  1.00  0.00     0.037 A 
BRANCH  47  61
ATOM     61  C   UNL     1       6.290   8.244 -16.905  1.00  0.00     0.057 A 
ATOM     62  C   UNL     1       5.565   7.705 -17.977  1.00  0.00     0.134 A 
ATOM     63  C   UNL     1       7.568   7.726 -16.664  1.00  0.00     0.134 A 
ATOM     64  F   UNL     1       4.331   8.153 -18.255  1.00  0.00    -0.206 F 
ATOM     65  C   UNL     1       6.084   6.680 -18.768  1.00  0.00     0.040 A 
ATOM     66  C   UNL     1       8.106   6.714 -17.462  1.00  0.00     0.040 A 
ATOM     67  F   UNL     1       8.319   8.203 -15.660  1.00  0.00    -0.206 F 
ATOM     68  C   UNL     1       7.361   6.185 -18.515  1.00  0.00     0.006 A 
ENDBRANCH  47  61
BRANCH  48  69
ATOM     69  C   UNL     1       2.305  15.458 -11.261  1.00  0.00     0.057 A 
ATOM     70  C   UNL     1       1.554  16.482 -11.848  1.00  0.00     0.134 A 
ATOM     71  C   UNL     1       2.487  15.502  -9.874  1.00  0.00     0.134 A 
ATOM     72  F   UNL     1       1.356  16.499 -13.174  1.00  0.00    -0.206 F 
ATOM     73  C   UNL     1       1.026  17.528 -11.089  1.00  0.00     0.040 A 
ATOM     74  C   UNL     1       1.945  16.529  -9.100  1.00  0.00     0.040 A 
ATOM     75  F   UNL     1       3.186  14.541  -9.252  1.00  0.00    -0.206 F 
ATOM     76  C   UNL     1       1.220  17.551  -9.710  1.00  0.00     0.006 A 
ENDBRANCH  48  69
BRANCH  60  77
ATOM     77  C   UNL     1       7.302  15.333 -16.093  1.00  0.00     0.057 A 
ATOM     78  C   UNL     1       8.386  15.889 -15.403  1.00  0.00     0.134 A 
ATOM     79  C   UNL     1       7.054  15.789 -17.393  1.00  0.00     0.134 A 
ATOM     80  F   UNL     1       8.663  15.504 -14.148  1.00  0.00    -0.206 F 
ATOM     81  C   UNL     1       9.185  16.876 -15.981  1.00  0.00     0.040 A 
ATOM     82  C   UNL     1       7.859  16.760 -17.989  1.00  0.00     0.040 A 
ATOM     83  F   UNL     1       6.032  15.292 -18.106  1.00  0.00    -0.206 F 
ATOM     84  C   UNL     1       8.926  17.308 -17.281  1.00  0.00     0.006 A 
ENDBRANCH  60  77
ENDBRANCH  34  35
ENDBRANCH  26  29
ENDBRANCH  24  25
ENDBRANCH  23  24
ENDBRANCH  22  23
ENDBRANCH   1  22
TORSDOF 15
