REMARK SMILES CC(C)[C@H](NC(=O)[C@H](C)NC(=O)CNC(=O)OCc1ccccc1)C(=O)NCCCCNC(=O)c1ccc(-c2c3nc(c(-c4c(F)cccc4F)c4ccc([nH]4)c(-c4c(F)cccc4F)c4nc(c(-c5c(F)cccc5F)c5ccc2[nH]5)C=C4)C=C3)cc1
REMARK SMILES IDX 25 1 26 2 27 3 4 5 2 6 1 7 3 8 5 9 6 10 7 12 8 13 9 14 10 15
REMARK SMILES IDX 11 16 12 18 13 19 14 20 15 21 16 23 17 24 18 25 19 26 20 27
REMARK SMILES IDX 24 28 21 29 23 30 22 31 28 32 29 33 30 34 31 35 32 36 33 37
REMARK SMILES IDX 34 39 35 40 36 41 88 42 37 43 87 44 38 45 39 46 40 47 81 48
REMARK SMILES IDX 41 49 86 50 80 51 82 52 42 53 85 54 79 55 78 56 43 58 69 59
REMARK SMILES IDX 52 60 68 61 53 62 56 63 67 64 83 65 54 66 55 67 66 69 84 70
REMARK SMILES IDX 57 71 44 72 45 73 50 74 46 75 47 76 49 77 51 78 48 79 70 80
REMARK SMILES IDX 71 81 76 82 72 83 73 84 75 85 77 86 74 87 58 88 59 89 64 90
REMARK SMILES IDX 60 91 61 92 63 93 65 94 62 95
REMARK H PARENT 27 4 5 11 10 17 14 22 32 38 82 57 56 68
REMARK Flexibility Score: inf
ROOT
ATOM      1  C   UNL     1      -0.643  -2.006   2.284  1.00  0.00     0.242 C 
ATOM      2  O   UNL     1      -0.106  -3.087   2.541  1.00  0.00    -0.273 OA
ATOM      3  N   UNL     1      -0.062  -1.228   1.329  1.00  0.00    -0.354 N 
ATOM      4  H   UNL     1       0.830  -1.523   1.035  1.00  0.00     0.163 HD
ENDROOT
BRANCH   1   5
ATOM      5  C   UNL     1      -1.975  -1.598   2.950  1.00  0.00     0.173 C 
BRANCH   5   6
ATOM      6  C   UNL     1      -3.229  -1.926   2.066  1.00  0.00     0.015 C 
ATOM      7  C   UNL     1      -4.171  -0.753   1.778  1.00  0.00     0.010 C 
ATOM      8  C   UNL     1      -2.920  -2.670   0.757  1.00  0.00     0.010 C 
ENDBRANCH   5   6
BRANCH   5   9
ATOM      9  N   UNL     1      -1.921  -0.217   3.488  1.00  0.00    -0.342 N 
ATOM     10  C   UNL     1      -1.153   0.353   4.473  1.00  0.00     0.242 C 
ATOM     11  H   UNL     1      -2.554   0.405   3.061  1.00  0.00     0.164 HD
ATOM     12  O   UNL     1      -1.306   1.563   4.666  1.00  0.00    -0.273 OA
BRANCH  10  13
ATOM     13  C   UNL     1       0.021  -0.407   5.144  1.00  0.00     0.168 C 
ATOM     14  C   UNL     1       1.178  -0.359   4.160  1.00  0.00     0.041 C 
BRANCH  13  15
ATOM     15  N   UNL     1      -0.474  -1.718   5.552  1.00  0.00    -0.343 N 
ATOM     16  C   UNL     1       0.005  -2.815   6.175  1.00  0.00     0.240 C 
ATOM     17  H   UNL     1      -1.419  -1.835   5.303  1.00  0.00     0.164 HD
ATOM     18  O   UNL     1      -0.855  -3.644   6.500  1.00  0.00    -0.273 OA
BRANCH  16  19
ATOM     19  C   UNL     1       1.437  -2.994   6.664  1.00  0.00     0.219 C 
BRANCH  19  20
ATOM     20  N   UNL     1       2.493  -2.733   5.718  1.00  0.00    -0.312 N 
ATOM     21  C   UNL     1       3.305  -1.646   5.724  1.00  0.00     0.407 C 
ATOM     22  H   UNL     1       2.637  -3.399   5.008  1.00  0.00     0.167 HD
ATOM     23  O   UNL     1       4.177  -1.485   4.880  1.00  0.00    -0.225 OA
BRANCH  21  24
ATOM     24  O   UNL     1       2.987  -0.777   6.712  1.00  0.00    -0.445 OA
BRANCH  24  25
ATOM     25  C   UNL     1       3.747   0.434   6.750  1.00  0.00     0.270 C 
BRANCH  25  26
ATOM     26  C   UNL     1       5.000   0.294   7.574  1.00  0.00    -0.011 A 
ATOM     27  C   UNL     1       5.557  -0.956   7.882  1.00  0.00     0.007 A 
ATOM     28  C   UNL     1       5.672   1.451   7.991  1.00  0.00     0.007 A 
ATOM     29  C   UNL     1       6.761  -1.052   8.573  1.00  0.00     0.000 A 
ATOM     30  C   UNL     1       6.873   1.354   8.692  1.00  0.00     0.000 A 
ATOM     31  C   UNL     1       7.420   0.103   8.976  1.00  0.00     0.000 A 
ENDBRANCH  25  26
ENDBRANCH  24  25
ENDBRANCH  21  24
ENDBRANCH  19  20
ENDBRANCH  16  19
ENDBRANCH  13  15
ENDBRANCH  10  13
ENDBRANCH   5   9
ENDBRANCH   1   5
BRANCH   3  32
ATOM     32  C   UNL     1      -0.559  -0.031   0.682  1.00  0.00     0.116 C 
BRANCH  32  33
ATOM     33  C   UNL     1       0.276   1.221   0.943  1.00  0.00     0.023 C 
BRANCH  33  34
ATOM     34  C   UNL     1       1.774   1.060   0.681  1.00  0.00     0.023 C 
BRANCH  34  35
ATOM     35  C   UNL     1       2.102   0.427  -0.660  1.00  0.00     0.116 C 
BRANCH  35  36
ATOM     36  N   UNL     1       1.462   1.128  -1.761  1.00  0.00    -0.352 N 
ATOM     37  C   UNL     1       2.025   1.606  -2.912  1.00  0.00     0.251 C 
ATOM     38  H   UNL     1       0.494   1.278  -1.665  1.00  0.00     0.163 HD
ATOM     39  O   UNL     1       1.395   2.358  -3.647  1.00  0.00    -0.269 OA
BRANCH  37  40
ATOM     40  C   UNL     1       3.404   1.213  -3.242  1.00  0.00     0.039 A 
ATOM     41  C   UNL     1       4.297   2.191  -3.675  1.00  0.00     0.014 A 
ATOM     42  C   UNL     1       3.812  -0.118  -3.098  1.00  0.00     0.014 A 
ATOM     43  C   UNL     1       5.616   1.836  -3.941  1.00  0.00     0.010 A 
ATOM     44  C   UNL     1       5.148  -0.448  -3.264  1.00  0.00     0.010 A 
ATOM     45  C   UNL     1       6.055   0.519  -3.719  1.00  0.00    -0.014 A 
BRANCH  45  46
ATOM     46  C   UNL     1       7.452   0.128  -4.010  1.00  0.00     0.031 A 
ATOM     47  C   UNL     1       7.733  -0.897  -5.075  1.00  0.00     0.074 A 
ATOM     48  C   UNL     1       8.456   0.670  -3.296  1.00  0.00     0.049 A 
ATOM     49  N   UNL     1       8.882  -1.380  -5.473  1.00  0.00    -0.248 NA
ATOM     50  C   UNL     1       6.569  -1.479  -5.765  1.00  0.00     0.031 C 
ATOM     51  C   UNL     1       8.295   1.626  -2.198  1.00  0.00     0.029 A 
ATOM     52  N   UNL     1       9.812   0.495  -3.389  1.00  0.00    -0.354 N 
ATOM     53  C   UNL     1       8.576  -2.328  -6.441  1.00  0.00     0.074 A 
ATOM     54  C   UNL     1       7.136  -2.402  -6.527  1.00  0.00     0.031 C 
ATOM     55  C   UNL     1       9.508   1.978  -1.741  1.00  0.00     0.029 A 
ATOM     56  C   UNL     1      10.526   1.247  -2.487  1.00  0.00     0.049 A 
ATOM     57  H   UNL     1      10.234  -0.112  -4.039  1.00  0.00     0.167 HD
ATOM     58  C   UNL     1       9.422  -3.052  -7.211  1.00  0.00     0.037 A 
ATOM     59  C   UNL     1      11.854   1.332  -2.289  1.00  0.00     0.037 A 
ATOM     60  C   UNL     1      10.854  -2.949  -7.138  1.00  0.00     0.049 A 
ATOM     61  C   UNL     1      12.772   0.530  -3.170  1.00  0.00     0.074 A 
ATOM     62  C   UNL     1      11.804  -3.585  -7.916  1.00  0.00     0.029 A 
ATOM     63  N   UNL     1      11.543  -2.157  -6.231  1.00  0.00    -0.354 N 
ATOM     64  N   UNL     1      12.472  -0.302  -4.139  1.00  0.00    -0.248 NA
ATOM     65  C   UNL     1      14.213   0.690  -2.941  1.00  0.00     0.031 C 
ATOM     66  C   UNL     1      13.069  -3.221  -7.444  1.00  0.00     0.029 A 
ATOM     67  C   UNL     1      12.907  -2.307  -6.414  1.00  0.00     0.049 A 
ATOM     68  H   UNL     1      11.124  -1.575  -5.556  1.00  0.00     0.167 HD
ATOM     69  C   UNL     1      13.685  -0.738  -4.655  1.00  0.00     0.074 A 
ATOM     70  C   UNL     1      14.723  -0.062  -3.904  1.00  0.00     0.031 C 
ATOM     71  C   UNL     1      13.923  -1.618  -5.660  1.00  0.00     0.037 A 
BRANCH  58  72
ATOM     72  C   UNL     1       8.820  -4.013  -8.195  1.00  0.00     0.057 A 
ATOM     73  C   UNL     1       8.113  -3.576  -9.324  1.00  0.00     0.134 A 
ATOM     74  C   UNL     1       8.980  -5.394  -8.032  1.00  0.00     0.134 A 
ATOM     75  F   UNL     1       7.907  -2.266  -9.534  1.00  0.00    -0.206 F 
ATOM     76  C   UNL     1       7.569  -4.477 -10.241  1.00  0.00     0.040 A 
ATOM     77  C   UNL     1       8.468  -6.304  -8.957  1.00  0.00     0.040 A 
ATOM     78  F   UNL     1       9.647  -5.883  -6.975  1.00  0.00    -0.206 F 
ATOM     79  C   UNL     1       7.754  -5.846 -10.063  1.00  0.00     0.006 A 
ENDBRANCH  58  72
BRANCH  59  80
ATOM     80  C   UNL     1      12.396   2.222  -1.231  1.00  0.00     0.057 A 
ATOM     81  C   UNL     1      13.137   3.366  -1.552  1.00  0.00     0.134 A 
ATOM     82  C   UNL     1      12.204   1.941   0.127  1.00  0.00     0.134 A 
ATOM     83  F   UNL     1      13.368   3.683  -2.834  1.00  0.00    -0.206 F 
ATOM     84  C   UNL     1      13.694   4.179  -0.563  1.00  0.00     0.040 A 
ATOM     85  C   UNL     1      12.728   2.762   1.126  1.00  0.00     0.040 A 
ATOM     86  F   UNL     1      11.493   0.867   0.502  1.00  0.00    -0.206 F 
ATOM     87  C   UNL     1      13.486   3.879   0.782  1.00  0.00     0.006 A 
ENDBRANCH  59  80
BRANCH  71  88
ATOM     88  C   UNL     1      15.357  -1.859  -6.032  1.00  0.00     0.057 A 
ATOM     89  C   UNL     1      16.241  -2.546  -5.189  1.00  0.00     0.134 A 
ATOM     90  C   UNL     1      15.854  -1.413  -7.264  1.00  0.00     0.134 A 
ATOM     91  F   UNL     1      15.831  -2.991  -3.991  1.00  0.00    -0.206 F 
ATOM     92  C   UNL     1      17.576  -2.746  -5.541  1.00  0.00     0.040 A 
ATOM     93  C   UNL     1      17.178  -1.638  -7.642  1.00  0.00     0.040 A 
ATOM     94  F   UNL     1      15.058  -0.761  -8.125  1.00  0.00    -0.206 F 
ATOM     95  C   UNL     1      18.046  -2.296  -6.774  1.00  0.00     0.006 A 
ENDBRANCH  71  88
ENDBRANCH  45  46
ENDBRANCH  37  40
ENDBRANCH  35  36
ENDBRANCH  34  35
ENDBRANCH  33  34
ENDBRANCH  32  33
ENDBRANCH   3  32
TORSDOF 20
