REMARK SMILES Cc1ccc(-c2cc(Cl)cc3c2O[C@@H](C(F)(F)F)C(C(=O)NCCCCNC(=O)c2ccc(-c4c5nc(c(-c6c(F)cccc6F)c6ccc([nH]6)c(-c6c(F)cccc6F)c6nc(c(-c7c(F)cccc7F)c7ccc4[nH]7)C=C6)C=C5)cc2)=C3)cc1
REMARK SMILES IDX 25 1 24 2 23 3 22 4 20 5 21 6 19 8 6 9 7 10 12 11 8 12 11 13
REMARK SMILES IDX 13 14 9 15 10 16 84 17 14 18 5 19 1 20 2 21 3 22 86 23 4 24
REMARK SMILES IDX 85 25 15 26 16 27 17 28 18 29 26 30 27 31 28 32 29 34 30 35
REMARK SMILES IDX 31 36 83 37 32 38 82 39 33 40 34 41 35 42 76 43 36 44 81 45
REMARK SMILES IDX 75 46 77 47 37 48 80 49 74 50 73 51 38 53 64 54 47 55 63 56
REMARK SMILES IDX 48 57 51 58 62 59 78 60 49 61 50 62 61 64 79 65 52 66 39 67
REMARK SMILES IDX 40 68 45 69 41 70 42 71 44 72 46 73 43 74 65 75 66 76 71 77
REMARK SMILES IDX 67 78 68 79 70 80 72 81 69 82 53 83 54 84 59 85 55 86 56 87
REMARK SMILES IDX 58 88 60 89 57 90
REMARK H PARENT 22 7 27 33 77 52 51 63
REMARK Flexibility Score: inf
ROOT
ATOM      1  C   UNL     1      -2.159  -4.880   4.914  1.00  0.00     0.023 C 
ENDROOT
BRANCH   1   2
ATOM      2  C   UNL     1      -3.575  -4.295   4.857  1.00  0.00     0.023 C 
BRANCH   2   3
ATOM      3  C   UNL     1      -3.809  -2.886   5.431  1.00  0.00     0.116 C 
BRANCH   3   4
ATOM      4  N   UNL     1      -3.347  -1.773   4.614  1.00  0.00    -0.352 N 
ATOM      5  C   UNL     1      -3.944  -0.603   4.219  1.00  0.00     0.251 C 
ATOM      6  O   UNL     1      -3.199   0.376   4.111  1.00  0.00    -0.270 OA
ATOM      7  H   UNL     1      -2.427  -1.881   4.281  1.00  0.00     0.163 HD
BRANCH   5   8
ATOM      8  C   UNL     1      -5.412  -0.481   3.788  1.00  0.00     0.067 C 
ATOM      9  C   UNL     1      -3.880  -1.230   0.182  1.00  0.00     0.026 A 
ATOM     10  C   UNL     1      -4.370  -0.591  -0.974  1.00  0.00     0.033 A 
ATOM     11  C   UNL     1      -4.674  -1.067   1.315  1.00  0.00     0.135 A 
ATOM     12  C   UNL     1      -5.312   0.439  -0.863  1.00  0.00     0.042 A 
ATOM     13  C   UNL     1      -5.331   0.171   1.520  1.00  0.00     0.019 A 
ATOM     14  O   UNL     1      -4.963  -2.156   2.171  1.00  0.00    -0.475 OA
ATOM     15  Cl  UNL     1      -5.840   1.256  -2.281  1.00  0.00    -0.084 Cl
ATOM     16  C   UNL     1      -5.714   0.895   0.396  1.00  0.00     0.032 A 
ATOM     17  C   UNL     1      -5.627   0.568   2.945  1.00  0.00     0.025 C 
ATOM     18  C   UNL     1      -5.987  -1.717   3.123  1.00  0.00     0.314 C 
BRANCH   9  19
ATOM     19  C   UNL     1      -2.395  -1.111   0.332  1.00  0.00    -0.015 A 
ATOM     20  C   UNL     1       1.881  -0.361   0.156  1.00  0.00     0.044 C 
ATOM     21  C   UNL     1       0.408  -0.627   0.275  1.00  0.00    -0.051 A 
ATOM     22  C   UNL     1      -0.110  -1.929   0.176  1.00  0.00     0.004 A 
ATOM     23  C   UNL     1      -0.476   0.428   0.472  1.00  0.00     0.004 A 
ATOM     24  C   UNL     1      -1.498  -2.171   0.200  1.00  0.00     0.009 A 
ATOM     25  C   UNL     1      -1.848   0.185   0.509  1.00  0.00     0.009 A 
ENDBRANCH   9  19
BRANCH  18  26
ATOM     26  C   UNL     1      -6.763  -2.666   4.046  1.00  0.00     0.429 C 
ATOM     27  F   UNL     1      -8.072  -2.717   3.672  1.00  0.00    -0.167 F 
ATOM     28  F   UNL     1      -6.306  -3.930   4.041  1.00  0.00    -0.167 F 
ATOM     29  F   UNL     1      -6.790  -2.228   5.330  1.00  0.00    -0.167 F 
ENDBRANCH  18  26
ENDBRANCH   5   8
ENDBRANCH   3   4
ENDBRANCH   2   3
ENDBRANCH   1   2
BRANCH   1  30
ATOM     30  C   UNL     1      -1.426  -4.790   6.245  1.00  0.00     0.116 C 
BRANCH  30  31
ATOM     31  N   UNL     1      -1.735  -5.784   7.263  1.00  0.00    -0.352 N 
ATOM     32  C   UNL     1      -1.304  -5.843   8.591  1.00  0.00     0.251 C 
ATOM     33  H   UNL     1      -2.329  -6.515   6.976  1.00  0.00     0.163 HD
ATOM     34  O   UNL     1      -1.573  -6.811   9.273  1.00  0.00    -0.269 OA
BRANCH  32  35
ATOM     35  C   UNL     1      -0.647  -4.653   9.216  1.00  0.00     0.039 A 
ATOM     36  C   UNL     1      -1.018  -4.311  10.523  1.00  0.00     0.014 A 
ATOM     37  C   UNL     1       0.104  -3.758   8.467  1.00  0.00     0.014 A 
ATOM     38  C   UNL     1      -0.919  -2.982  10.938  1.00  0.00     0.010 A 
ATOM     39  C   UNL     1       0.071  -2.423   8.807  1.00  0.00     0.010 A 
ATOM     40  C   UNL     1      -0.504  -2.027  10.014  1.00  0.00    -0.014 A 
BRANCH  40  41
ATOM     41  C   UNL     1      -0.738  -0.597  10.165  1.00  0.00     0.031 A 
ATOM     42  C   UNL     1       0.381   0.318  10.455  1.00  0.00     0.074 A 
ATOM     43  C   UNL     1      -1.970  -0.098   9.915  1.00  0.00     0.049 A 
ATOM     44  N   UNL     1       0.253   1.444  11.072  1.00  0.00    -0.248 NA
ATOM     45  C   UNL     1       1.757   0.020  10.079  1.00  0.00     0.031 C 
ATOM     46  C   UNL     1      -2.341   1.305   9.755  1.00  0.00     0.029 A 
ATOM     47  N   UNL     1      -3.195  -0.781   9.940  1.00  0.00    -0.354 N 
ATOM     48  C   UNL     1       1.434   2.135  10.924  1.00  0.00     0.074 A 
ATOM     49  C   UNL     1       2.358   1.180  10.355  1.00  0.00     0.031 C 
ATOM     50  C   UNL     1      -3.656   1.433   9.991  1.00  0.00     0.029 A 
ATOM     51  C   UNL     1      -4.144   0.140  10.436  1.00  0.00     0.049 A 
ATOM     52  H   UNL     1      -3.359  -1.712   9.667  1.00  0.00     0.167 HD
ATOM     53  C   UNL     1       1.463   3.478  11.162  1.00  0.00     0.037 A 
ATOM     54  C   UNL     1      -4.795  -0.086  11.613  1.00  0.00     0.037 A 
ATOM     55  C   UNL     1       0.147   3.968  11.566  1.00  0.00     0.049 A 
ATOM     56  C   UNL     1      -4.523   0.955  12.672  1.00  0.00     0.074 A 
ATOM     57  C   UNL     1      -0.872   4.583  10.857  1.00  0.00     0.029 A 
ATOM     58  N   UNL     1      -0.406   3.560  12.775  1.00  0.00    -0.354 N 
ATOM     59  N   UNL     1      -3.527   1.796  12.627  1.00  0.00    -0.248 NA
ATOM     60  C   UNL     1      -5.335   1.122  13.874  1.00  0.00     0.031 C 
ATOM     61  C   UNL     1      -2.058   4.499  11.625  1.00  0.00     0.029 A 
ATOM     62  C   UNL     1      -1.757   3.851  12.810  1.00  0.00     0.049 A 
ATOM     63  H   UNL     1       0.093   3.125  13.503  1.00  0.00     0.167 HD
ATOM     64  C   UNL     1      -3.532   2.581  13.752  1.00  0.00     0.074 A 
ATOM     65  C   UNL     1      -4.699   2.136  14.489  1.00  0.00     0.031 C 
ATOM     66  C   UNL     1      -2.566   3.522  13.975  1.00  0.00     0.037 A 
BRANCH  53  67
ATOM     67  C   UNL     1       2.594   4.378  10.713  1.00  0.00     0.057 A 
ATOM     68  C   UNL     1       2.357   5.711  10.324  1.00  0.00     0.134 A 
ATOM     69  C   UNL     1       3.936   3.975  10.598  1.00  0.00     0.134 A 
ATOM     70  F   UNL     1       1.164   6.295  10.492  1.00  0.00    -0.206 F 
ATOM     71  C   UNL     1       3.338   6.523   9.740  1.00  0.00     0.040 A 
ATOM     72  C   UNL     1       4.916   4.755   9.966  1.00  0.00     0.040 A 
ATOM     73  F   UNL     1       4.370   2.829  11.140  1.00  0.00    -0.206 F 
ATOM     74  C   UNL     1       4.614   6.031   9.517  1.00  0.00     0.006 A 
ENDBRANCH  53  67
BRANCH  54  75
ATOM     75  C   UNL     1      -5.071  -1.525  11.855  1.00  0.00     0.057 A 
ATOM     76  C   UNL     1      -6.003  -2.169  11.022  1.00  0.00     0.134 A 
ATOM     77  C   UNL     1      -4.175  -2.338  12.554  1.00  0.00     0.134 A 
ATOM     78  F   UNL     1      -6.896  -1.445  10.327  1.00  0.00    -0.206 F 
ATOM     79  C   UNL     1      -5.964  -3.547  10.794  1.00  0.00     0.040 A 
ATOM     80  C   UNL     1      -4.133  -3.722  12.340  1.00  0.00     0.040 A 
ATOM     81  F   UNL     1      -3.244  -1.797  13.353  1.00  0.00    -0.206 F 
ATOM     82  C   UNL     1      -4.998  -4.323  11.426  1.00  0.00     0.006 A 
ENDBRANCH  54  75
BRANCH  66  83
ATOM     83  C   UNL     1      -2.336   4.297  15.254  1.00  0.00     0.057 A 
ATOM     84  C   UNL     1      -2.697   3.849  16.532  1.00  0.00     0.134 A 
ATOM     85  C   UNL     1      -1.585   5.498  15.236  1.00  0.00     0.134 A 
ATOM     86  F   UNL     1      -3.310   2.673  16.718  1.00  0.00    -0.206 F 
ATOM     87  C   UNL     1      -2.389   4.566  17.697  1.00  0.00     0.040 A 
ATOM     88  C   UNL     1      -1.223   6.190  16.395  1.00  0.00     0.040 A 
ATOM     89  F   UNL     1      -1.147   6.043  14.092  1.00  0.00    -0.206 F 
ATOM     90  C   UNL     1      -1.638   5.733  17.634  1.00  0.00     0.006 A 
ENDBRANCH  66  83
ENDBRANCH  40  41
ENDBRANCH  32  35
ENDBRANCH  30  31
ENDBRANCH   1  30
TORSDOF 13
