REMARK SMILES CC(C)c1ccc([C@]2(C(=O)NCCCCNC(=O)c3ccc(-c4c5nc(c(-c6c(F)cccc6F)c6ccc([nH]6)c(-c6c(F)cccc6F)c6nc(c(-c7c(F)cccc7F)c7ccc4[nH]7)C=C6)C=C5)cc3)CCC[C@@H]2C)cc1
REMARK SMILES IDX 13 1 12 2 11 3 9 4 10 5 8 7 73 8 76 9 74 10 75 11 77 12 7 13
REMARK SMILES IDX 4 14 5 15 79 16 6 17 78 18 2 19 1 20 3 21 14 22 15 23 16 24
REMARK SMILES IDX 17 25 18 27 19 28 20 29 72 30 21 31 71 32 22 33 23 34 24 35
REMARK SMILES IDX 65 36 25 37 70 38 64 39 66 40 26 41 69 42 63 43 62 44 27 46
REMARK SMILES IDX 53 47 36 48 52 49 37 50 40 51 51 52 67 53 38 54 39 55 50 57
REMARK SMILES IDX 68 58 41 59 28 60 29 61 34 62 30 63 31 64 33 65 35 66 32 67
REMARK SMILES IDX 54 68 55 69 60 70 56 71 57 72 59 73 61 74 58 75 42 76 43 77
REMARK SMILES IDX 48 78 44 79 45 80 47 81 49 82 46 83
REMARK H PARENT 11 6 16 26 66 45 40 56
REMARK Flexibility Score: inf
ROOT
ATOM      1  C   UNL     1      -8.895  -3.121   1.539  1.00  0.00     0.023 C 
ENDROOT
BRANCH   1   2
ATOM      2  C   UNL     1      -8.291  -1.862   2.143  1.00  0.00     0.116 C 
BRANCH   2   3
ATOM      3  N   UNL     1      -6.972  -2.027   2.695  1.00  0.00    -0.355 N 
ATOM      4  C   UNL     1      -5.789  -1.410   2.431  1.00  0.00     0.230 C 
ATOM      5  O   UNL     1      -5.041  -1.381   3.421  1.00  0.00    -0.274 OA
ATOM      6  H   UNL     1      -6.916  -2.716   3.395  1.00  0.00     0.163 HD
BRANCH   4   7
ATOM      7  C   UNL     1      -5.320  -0.806   1.030  1.00  0.00     0.077 C 
ATOM      8  C   UNL     1      -5.902  -1.579  -0.181  1.00  0.00     0.022 C 
ATOM      9  C   UNL     1      -5.822   0.668   0.759  1.00  0.00     0.006 C 
ATOM     10  C   UNL     1      -7.054  -0.765  -0.775  1.00  0.00     0.002 C 
ATOM     11  C   UNL     1      -7.154   0.536   0.009  1.00  0.00     0.005 C 
ATOM     12  C   UNL     1      -4.967   1.570  -0.159  1.00  0.00     0.009 C 
BRANCH   7  13
ATOM     13  C   UNL     1      -3.763  -0.918   1.068  1.00  0.00    -0.032 A 
ATOM     14  C   UNL     1      -0.915  -1.064   1.137  1.00  0.00    -0.045 A 
ATOM     15  C   UNL     1      -1.590   0.033   1.677  1.00  0.00     0.004 A 
ATOM     16  C   UNL     1      -1.680  -2.125   0.637  1.00  0.00     0.004 A 
ATOM     17  C   UNL     1      -2.986   0.080   1.682  1.00  0.00     0.005 A 
ATOM     18  C   UNL     1      -3.080  -2.056   0.608  1.00  0.00     0.005 A 
BRANCH  14  19
ATOM     19  C   UNL     1       0.600  -1.113   1.079  1.00  0.00     0.013 C 
ATOM     20  C   UNL     1       1.138  -0.082   0.082  1.00  0.00     0.012 C 
ATOM     21  C   UNL     1       1.240  -0.917   2.457  1.00  0.00     0.012 C 
ENDBRANCH  14  19
ENDBRANCH   7  13
ENDBRANCH   4   7
ENDBRANCH   2   3
ENDBRANCH   1   2
BRANCH   1  22
ATOM     22  C   UNL     1      -9.750  -3.950   2.494  1.00  0.00     0.023 C 
BRANCH  22  23
ATOM     23  C   UNL     1     -10.830  -3.185   3.253  1.00  0.00     0.116 C 
BRANCH  23  24
ATOM     24  N   UNL     1     -11.704  -2.374   2.417  1.00  0.00    -0.352 N 
ATOM     25  C   UNL     1     -13.021  -2.038   2.645  1.00  0.00     0.251 C 
ATOM     26  H   UNL     1     -11.305  -2.023   1.588  1.00  0.00     0.163 HD
ATOM     27  O   UNL     1     -13.656  -1.397   1.821  1.00  0.00    -0.269 OA
BRANCH  25  28
ATOM     28  C   UNL     1     -13.669  -2.510   3.887  1.00  0.00     0.039 A 
ATOM     29  C   UNL     1     -14.886  -3.188   3.798  1.00  0.00     0.014 A 
ATOM     30  C   UNL     1     -13.043  -2.337   5.123  1.00  0.00     0.014 A 
ATOM     31  C   UNL     1     -15.442  -3.754   4.947  1.00  0.00     0.010 A 
ATOM     32  C   UNL     1     -13.551  -2.977   6.247  1.00  0.00     0.010 A 
ATOM     33  C   UNL     1     -14.761  -3.681   6.174  1.00  0.00    -0.014 A 
BRANCH  33  34
ATOM     34  C   UNL     1     -15.318  -4.310   7.398  1.00  0.00     0.031 A 
ATOM     35  C   UNL     1     -15.707  -3.452   8.570  1.00  0.00     0.074 A 
ATOM     36  C   UNL     1     -15.422  -5.651   7.476  1.00  0.00     0.049 A 
ATOM     37  N   UNL     1     -16.191  -3.808   9.732  1.00  0.00    -0.248 NA
ATOM     38  C   UNL     1     -15.489  -2.003   8.431  1.00  0.00     0.031 C 
ATOM     39  C   UNL     1     -15.016  -6.597   6.434  1.00  0.00     0.029 A 
ATOM     40  N   UNL     1     -15.903  -6.452   8.481  1.00  0.00    -0.354 N 
ATOM     41  C   UNL     1     -16.312  -2.635  10.466  1.00  0.00     0.074 A 
ATOM     42  C   UNL     1     -15.793  -1.565   9.643  1.00  0.00     0.031 C 
ATOM     43  C   UNL     1     -15.305  -7.845   6.837  1.00  0.00     0.029 A 
ATOM     44  C   UNL     1     -15.890  -7.790   8.173  1.00  0.00     0.049 A 
ATOM     45  H   UNL     1     -16.228  -6.100   9.341  1.00  0.00     0.167 HD
ATOM     46  C   UNL     1     -16.836  -2.458  11.701  1.00  0.00     0.037 A 
ATOM     47  C   UNL     1     -16.316  -8.850   8.885  1.00  0.00     0.037 A 
ATOM     48  C   UNL     1     -17.393  -3.517  12.498  1.00  0.00     0.049 A 
ATOM     49  C   UNL     1     -16.929  -8.624  10.240  1.00  0.00     0.074 A 
ATOM     50  C   UNL     1     -18.022  -3.434  13.728  1.00  0.00     0.029 A 
ATOM     51  N   UNL     1     -17.391  -4.856  12.138  1.00  0.00    -0.354 N 
ATOM     52  N   UNL     1     -17.119  -7.499  10.886  1.00  0.00    -0.248 NA
ATOM     53  C   UNL     1     -17.400  -9.817  10.958  1.00  0.00     0.031 C 
ATOM     54  C   UNL     1     -18.367  -4.729  14.129  1.00  0.00     0.029 A 
ATOM     55  C   UNL     1     -17.993  -5.612  13.129  1.00  0.00     0.049 A 
ATOM     56  H   UNL     1     -17.016  -5.216  11.302  1.00  0.00     0.167 HD
ATOM     57  C   UNL     1     -17.762  -7.843  12.067  1.00  0.00     0.074 A 
ATOM     58  C   UNL     1     -17.939  -9.280  12.044  1.00  0.00     0.031 C 
ATOM     59  C   UNL     1     -18.173  -7.041  13.080  1.00  0.00     0.037 A 
BRANCH  46  60
ATOM     60  C   UNL     1     -16.837  -1.062  12.255  1.00  0.00     0.057 A 
ATOM     61  C   UNL     1     -17.657  -0.056  11.726  1.00  0.00     0.134 A 
ATOM     62  C   UNL     1     -16.012  -0.721  13.334  1.00  0.00     0.134 A 
ATOM     63  F   UNL     1     -18.460  -0.312  10.682  1.00  0.00    -0.206 F 
ATOM     64  C   UNL     1     -17.633   1.246  12.228  1.00  0.00     0.040 A 
ATOM     65  C   UNL     1     -16.000   0.570  13.864  1.00  0.00     0.040 A 
ATOM     66  F   UNL     1     -15.205  -1.637  13.891  1.00  0.00    -0.206 F 
ATOM     67  C   UNL     1     -16.805   1.561  13.304  1.00  0.00     0.006 A 
ENDBRANCH  46  60
BRANCH  47  68
ATOM     68  C   UNL     1     -16.240 -10.216   8.309  1.00  0.00     0.057 A 
ATOM     69  C   UNL     1     -17.400 -10.892   7.910  1.00  0.00     0.134 A 
ATOM     70  C   UNL     1     -15.020 -10.883   8.154  1.00  0.00     0.134 A 
ATOM     71  F   UNL     1     -18.600 -10.310   8.050  1.00  0.00    -0.206 F 
ATOM     72  C   UNL     1     -17.352 -12.189   7.398  1.00  0.00     0.040 A 
ATOM     73  C   UNL     1     -14.955 -12.173   7.622  1.00  0.00     0.040 A 
ATOM     74  F   UNL     1     -13.872 -10.287   8.509  1.00  0.00    -0.206 F 
ATOM     75  C   UNL     1     -16.125 -12.832   7.250  1.00  0.00     0.006 A 
ENDBRANCH  47  68
BRANCH  59  76
ATOM     76  C   UNL     1     -18.895  -7.695  14.221  1.00  0.00     0.057 A 
ATOM     77  C   UNL     1     -18.231  -8.498  15.156  1.00  0.00     0.134 A 
ATOM     78  C   UNL     1     -20.270  -7.493  14.399  1.00  0.00     0.134 A 
ATOM     79  F   UNL     1     -16.917  -8.741  15.033  1.00  0.00    -0.206 F 
ATOM     80  C   UNL     1     -18.914  -9.101  16.213  1.00  0.00     0.040 A 
ATOM     81  C   UNL     1     -20.958  -8.068  15.468  1.00  0.00     0.040 A 
ATOM     82  F   UNL     1     -20.963  -6.726  13.544  1.00  0.00    -0.206 F 
ATOM     83  C   UNL     1     -20.281  -8.881  16.374  1.00  0.00     0.006 A 
ENDBRANCH  59  76
ENDBRANCH  33  34
ENDBRANCH  25  28
ENDBRANCH  23  24
ENDBRANCH  22  23
ENDBRANCH   1  22
TORSDOF 13
