REMARK SMILES O=C(NCCCCNC(=O)c1cc(-c2cccc(C(F)(F)F)c2)nc2c(F)cccc12)c1ccc(-c2c3nc(c(-c4c(F)cccc4F)c4ccc([nH]4)c(-c4c(F)cccc4F)c4nc(c(-c5c(F)cccc5F)c5ccc2[nH]5)C=C4)C=C3)cc1
REMARK SMILES IDX 5 1 4 2 3 3 1 4 2 5 32 7 33 8 85 9 34 10 84 11 35 12 36 13
REMARK SMILES IDX 37 14 78 15 38 16 83 17 77 18 79 19 39 20 82 21 76 22 75 23
REMARK SMILES IDX 40 25 66 26 49 27 65 28 50 29 53 30 64 31 80 32 51 33 52 34
REMARK SMILES IDX 63 36 81 37 54 38 41 39 42 40 47 41 43 42 44 43 46 44 48 45
REMARK SMILES IDX 45 46 67 47 68 48 73 49 69 50 70 51 72 52 74 53 71 54 55 55
REMARK SMILES IDX 56 56 61 57 57 58 58 59 60 60 62 61 59 62 6 63 7 64 8 65
REMARK SMILES IDX 9 66 10 68 11 69 12 70 31 71 13 72 25 73 30 74 24 75 26 76
REMARK SMILES IDX 29 77 27 78 28 79 14 80 15 81 23 82 16 83 18 84 17 85 19 86
REMARK SMILES IDX 20 87 21 88 22 89
REMARK H PARENT 3 6 79 24 53 35 8 67
REMARK Flexibility Score: inf
ROOT
ATOM      1  C   UNL     1       4.929   2.446   0.872  1.00  0.00     0.023 C 
ENDROOT
BRANCH   1   2
ATOM      2  C   UNL     1       4.572   0.966   0.830  1.00  0.00     0.116 C 
BRANCH   2   3
ATOM      3  N   UNL     1       3.137   0.732   0.819  1.00  0.00    -0.352 N 
ATOM      4  O   UNL     1       1.153   0.079  -0.033  1.00  0.00    -0.269 OA
ATOM      5  C   UNL     1       2.378   0.060  -0.106  1.00  0.00     0.251 C 
ATOM      6  H   UNL     1       2.641   1.107   1.583  1.00  0.00     0.163 HD
BRANCH   5   7
ATOM      7  C   UNL     1       3.040  -0.670  -1.207  1.00  0.00     0.039 A 
ATOM      8  C   UNL     1       4.119  -1.520  -0.949  1.00  0.00     0.014 A 
ATOM      9  C   UNL     1       2.566  -0.508  -2.511  1.00  0.00     0.014 A 
ATOM     10  C   UNL     1       4.798  -2.115  -2.007  1.00  0.00     0.010 A 
ATOM     11  C   UNL     1       3.201  -1.167  -3.566  1.00  0.00     0.010 A 
ATOM     12  C   UNL     1       4.332  -1.962  -3.322  1.00  0.00    -0.014 A 
BRANCH  12  13
ATOM     13  C   UNL     1       4.974  -2.728  -4.417  1.00  0.00     0.031 A 
ATOM     14  C   UNL     1       5.719  -2.038  -5.522  1.00  0.00     0.074 A 
ATOM     15  C   UNL     1       4.858  -4.070  -4.407  1.00  0.00     0.049 A 
ATOM     16  N   UNL     1       6.302  -2.562  -6.570  1.00  0.00    -0.248 NA
ATOM     17  C   UNL     1       5.820  -0.572  -5.449  1.00  0.00     0.031 C 
ATOM     18  C   UNL     1       4.136  -4.844  -3.393  1.00  0.00     0.029 A 
ATOM     19  N   UNL     1       5.335  -5.020  -5.271  1.00  0.00    -0.354 N 
ATOM     20  C   UNL     1       6.818  -1.495  -7.293  1.00  0.00     0.074 A 
ATOM     21  C   UNL     1       6.471  -0.289  -6.571  1.00  0.00     0.031 C 
ATOM     22  C   UNL     1       4.233  -6.149  -3.684  1.00  0.00     0.029 A 
ATOM     23  C   UNL     1       4.970  -6.300  -4.932  1.00  0.00     0.049 A 
ATOM     24  H   UNL     1       5.886  -4.806  -6.059  1.00  0.00     0.167 HD
ATOM     25  C   UNL     1       7.517  -1.527  -8.452  1.00  0.00     0.037 A 
ATOM     26  C   UNL     1       5.174  -7.465  -5.572  1.00  0.00     0.037 A 
ATOM     27  C   UNL     1       7.882  -2.735  -9.147  1.00  0.00     0.049 A 
ATOM     28  C   UNL     1       5.928  -7.462  -6.867  1.00  0.00     0.074 A 
ATOM     29  C   UNL     1       8.672  -2.874 -10.276  1.00  0.00     0.029 A 
ATOM     30  N   UNL     1       7.472  -4.009  -8.787  1.00  0.00    -0.354 N 
ATOM     31  N   UNL     1       6.469  -6.452  -7.502  1.00  0.00    -0.248 NA
ATOM     32  C   UNL     1       6.088  -8.757  -7.543  1.00  0.00     0.031 C 
ATOM     33  C   UNL     1       8.698  -4.227 -10.627  1.00  0.00     0.029 A 
ATOM     34  C   UNL     1       7.956  -4.935  -9.696  1.00  0.00     0.049 A 
ATOM     35  H   UNL     1       6.918  -4.224  -8.002  1.00  0.00     0.167 HD
ATOM     36  C   UNL     1       7.037  -6.986  -8.649  1.00  0.00     0.074 A 
ATOM     37  C   UNL     1       6.796  -8.414  -8.610  1.00  0.00     0.031 C 
ATOM     38  C   UNL     1       7.694  -6.350  -9.648  1.00  0.00     0.037 A 
BRANCH  25  39
ATOM     39  C   UNL     1       7.931  -0.222  -9.064  1.00  0.00     0.057 A 
ATOM     40  C   UNL     1       8.995   0.531  -8.555  1.00  0.00     0.134 A 
ATOM     41  C   UNL     1       7.310   0.241 -10.232  1.00  0.00     0.134 A 
ATOM     42  F   UNL     1       9.627   0.145  -7.436  1.00  0.00    -0.206 F 
ATOM     43  C   UNL     1       9.426   1.702  -9.184  1.00  0.00     0.040 A 
ATOM     44  C   UNL     1       7.743   1.400 -10.879  1.00  0.00     0.040 A 
ATOM     45  F   UNL     1       6.289  -0.439 -10.775  1.00  0.00    -0.206 F 
ATOM     46  C   UNL     1       8.804   2.134 -10.354  1.00  0.00     0.006 A 
ENDBRANCH  25  39
BRANCH  26  47
ATOM     47  C   UNL     1       4.617  -8.719  -5.011  1.00  0.00     0.057 A 
ATOM     48  C   UNL     1       5.449  -9.706  -4.472  1.00  0.00     0.134 A 
ATOM     49  C   UNL     1       3.236  -8.954  -4.992  1.00  0.00     0.134 A 
ATOM     50  F   UNL     1       6.780  -9.544  -4.478  1.00  0.00    -0.206 F 
ATOM     51  C   UNL     1       4.928 -10.888  -3.944  1.00  0.00     0.040 A 
ATOM     52  C   UNL     1       2.701 -10.119  -4.445  1.00  0.00     0.040 A 
ATOM     53  F   UNL     1       2.387  -8.041  -5.487  1.00  0.00    -0.206 F 
ATOM     54  C   UNL     1       3.549 -11.094  -3.924  1.00  0.00     0.006 A 
ENDBRANCH  26  47
BRANCH  38  55
ATOM     55  C   UNL     1       8.191  -7.196 -10.779  1.00  0.00     0.057 A 
ATOM     56  C   UNL     1       7.318  -7.699 -11.751  1.00  0.00     0.134 A 
ATOM     57  C   UNL     1       9.554  -7.484 -10.915  1.00  0.00     0.134 A 
ATOM     58  F   UNL     1       5.999  -7.471 -11.664  1.00  0.00    -0.206 F 
ATOM     59  C   UNL     1       7.784  -8.473 -12.815  1.00  0.00     0.040 A 
ATOM     60  C   UNL     1      10.034  -8.239 -11.986  1.00  0.00     0.040 A 
ATOM     61  F   UNL     1      10.440  -7.027 -10.018  1.00  0.00    -0.206 F 
ATOM     62  C   UNL     1       9.146  -8.739 -12.937  1.00  0.00     0.006 A 
ENDBRANCH  38  55
ENDBRANCH  12  13
ENDBRANCH   5   7
ENDBRANCH   2   3
ENDBRANCH   1   2
BRANCH   1  63
ATOM     63  C   UNL     1       4.446   3.197   2.110  1.00  0.00     0.023 C 
BRANCH  63  64
ATOM     64  C   UNL     1       4.771   2.533   3.441  1.00  0.00     0.116 C 
BRANCH  64  65
ATOM     65  N   UNL     1       6.195   2.304   3.639  1.00  0.00    -0.352 N 
ATOM     66  C   UNL     1       6.942   2.540   4.767  1.00  0.00     0.252 C 
ATOM     67  H   UNL     1       6.683   1.935   2.868  1.00  0.00     0.163 HD
ATOM     68  O   UNL     1       8.143   2.303   4.796  1.00  0.00    -0.269 OA
BRANCH  66  69
ATOM     69  C   UNL     1       6.282   3.152   5.932  1.00  0.00     0.051 A 
ATOM     70  C   UNL     1       6.646   4.465   6.209  1.00  0.00     0.043 A 
ATOM     71  C   UNL     1       5.264   2.494   6.651  1.00  0.00     0.016 A 
ATOM     72  C   UNL     1       5.942   5.134   7.188  1.00  0.00     0.072 A 
ATOM     73  C   UNL     1       4.563   3.275   7.585  1.00  0.00     0.107 A 
ATOM     74  C   UNL     1       4.906   1.133   6.456  1.00  0.00     0.011 A 
ATOM     75  N   UNL     1       4.910   4.558   7.849  1.00  0.00    -0.245 NA
ATOM     76  C   UNL     1       3.467   2.682   8.217  1.00  0.00     0.149 A 
ATOM     77  C   UNL     1       3.817   0.573   7.115  1.00  0.00     0.004 A 
ATOM     78  F   UNL     1       2.723   3.403   9.073  1.00  0.00    -0.205 F 
ATOM     79  C   UNL     1       3.081   1.360   7.986  1.00  0.00     0.041 A 
BRANCH  72  80
ATOM     80  C   UNL     1       6.283   6.507   7.583  1.00  0.00     0.001 A 
ATOM     81  C   UNL     1       6.449   7.529   6.633  1.00  0.00     0.010 A 
ATOM     82  C   UNL     1       6.495   6.821   8.936  1.00  0.00     0.023 A 
ATOM     83  C   UNL     1       6.833   8.815   7.019  1.00  0.00     0.001 A 
ATOM     84  C   UNL     1       6.896   8.105   9.338  1.00  0.00     0.056 A 
ATOM     85  C   UNL     1       7.063   9.099   8.363  1.00  0.00     0.013 A 
BRANCH  84  86
ATOM     86  C   UNL     1       7.179   8.413  10.787  1.00  0.00     0.416 C 
ATOM     87  F   UNL     1       8.491   8.710  11.002  1.00  0.00    -0.166 F 
ATOM     88  F   UNL     1       6.475   9.486  11.242  1.00  0.00    -0.166 F 
ATOM     89  F   UNL     1       6.888   7.388  11.635  1.00  0.00    -0.166 F 
ENDBRANCH  84  86
ENDBRANCH  72  80
ENDBRANCH  66  69
ENDBRANCH  64  65
ENDBRANCH  63  64
ENDBRANCH   1  63
TORSDOF 13
