REMARK SMILES Nc1ccc(C(=O)NC[C@@H]2CC[C@@H](C(=O)NCCCCNC(=O)c3ccc(-c4c5nc(c(-c6c(F)cccc6F)c6ccc([nH]6)c(-c6c(F)cccc6F)c6nc(c(-c7c(F)cccc7F)c7ccc4[nH]7)C=C6)C=C5)cc3)O2)cc1Cl
REMARK SMILES IDX 17 1 16 2 14 3 15 4 13 6 10 7 11 8 78 9 12 10 9 11 8 12 6 13
REMARK SMILES IDX 7 14 5 16 2 17 3 18 80 19 4 20 79 21 81 22 1 23 18 26 19 27
REMARK SMILES IDX 20 28 21 29 22 30 23 32 24 33 25 34 77 35 26 36 76 37 27 38
REMARK SMILES IDX 28 39 29 40 70 41 30 42 75 43 69 44 71 45 31 46 74 47 68 48
REMARK SMILES IDX 67 49 32 51 58 52 41 53 57 54 42 55 45 56 56 57 72 58 43 59
REMARK SMILES IDX 44 60 55 62 73 63 46 64 33 65 34 66 39 67 35 68 36 69 38 70
REMARK SMILES IDX 40 71 37 72 59 73 60 74 65 75 61 76 62 77 64 78 66 79 63 80
REMARK SMILES IDX 47 81 48 82 53 83 49 84 50 85 52 86 54 87 51 88
REMARK H PARENT 16 5 8 15 1 24 1 25 21 31 71 50 45 61
REMARK Flexibility Score: inf
ROOT
ATOM      1  C   UNL     1       5.374  -2.877  -2.259  1.00  0.00     0.116 C 
ENDROOT
BRANCH   1   2
ATOM      2  N   UNL     1       6.127  -2.340  -3.375  1.00  0.00    -0.354 N 
ATOM      3  C   UNL     1       6.197  -1.048  -3.817  1.00  0.00     0.249 C 
ATOM      4  O   UNL     1       6.925  -0.811  -4.783  1.00  0.00    -0.272 OA
ATOM      5  H   UNL     1       6.659  -2.994  -3.884  1.00  0.00     0.163 HD
BRANCH   3   6
ATOM      6  C   UNL     1       5.319   0.029  -3.152  1.00  0.00     0.207 C 
ATOM      7  C   UNL     1       5.780   1.358  -1.281  1.00  0.00     0.138 C 
ATOM      8  C   UNL     1       5.355   2.278  -2.411  1.00  0.00     0.037 C 
ATOM      9  O   UNL     1       5.410   0.041  -1.715  1.00  0.00    -0.363 OA
ATOM     10  C   UNL     1       5.682   1.435  -3.619  1.00  0.00     0.045 C 
BRANCH   7  11
ATOM     11  C   UNL     1       5.211   1.650   0.120  1.00  0.00     0.148 C 
BRANCH  11  12
ATOM     12  N   UNL     1       4.080   2.564   0.139  1.00  0.00    -0.349 N 
ATOM     13  C   UNL     1       2.721   2.464   0.062  1.00  0.00     0.251 C 
ATOM     14  O   UNL     1       2.118   3.541   0.058  1.00  0.00    -0.269 OA
ATOM     15  H   UNL     1       4.371   3.500   0.231  1.00  0.00     0.163 HD
BRANCH  13  16
ATOM     16  C   UNL     1       1.921   1.205  -0.003  1.00  0.00     0.041 A 
ATOM     17  C   UNL     1       0.168  -1.040  -0.040  1.00  0.00     0.050 A 
ATOM     18  C   UNL     1       1.554  -1.199  -0.122  1.00  0.00     0.028 A 
ATOM     19  C   UNL     1      -0.336   0.266  -0.001  1.00  0.00     0.064 A 
ATOM     20  C   UNL     1       2.421  -0.092  -0.101  1.00  0.00     0.016 A 
ATOM     21  C   UNL     1       0.523   1.367   0.032  1.00  0.00     0.036 A 
ATOM     22  Cl  UNL     1      -2.043   0.553   0.034  1.00  0.00    -0.082 Cl
BRANCH  17  23
ATOM     23  N   UNL     1      -0.662  -2.153  -0.132  1.00  0.00    -0.398 N 
ATOM     24  H   UNL     1      -0.273  -3.057  -0.157  1.00  0.00     0.156 HD
ATOM     25  H   UNL     1      -1.639  -2.036  -0.172  1.00  0.00     0.156 HD
ENDBRANCH  17  23
ENDBRANCH  13  16
ENDBRANCH  11  12
ENDBRANCH   7  11
ENDBRANCH   3   6
ENDBRANCH   1   2
BRANCH   1  26
ATOM     26  C   UNL     1       4.469  -4.034  -2.669  1.00  0.00     0.023 C 
BRANCH  26  27
ATOM     27  C   UNL     1       5.188  -5.244  -3.263  1.00  0.00     0.023 C 
BRANCH  27  28
ATOM     28  C   UNL     1       6.304  -5.826  -2.404  1.00  0.00     0.116 C 
BRANCH  28  29
ATOM     29  N   UNL     1       5.838  -6.295  -1.109  1.00  0.00    -0.352 N 
ATOM     30  C   UNL     1       5.994  -7.526  -0.514  1.00  0.00     0.251 C 
ATOM     31  H   UNL     1       5.336  -5.634  -0.579  1.00  0.00     0.163 HD
ATOM     32  O   UNL     1       5.403  -7.784   0.526  1.00  0.00    -0.269 OA
BRANCH  30  33
ATOM     33  C   UNL     1       6.853  -8.549  -1.151  1.00  0.00     0.039 A 
ATOM     34  C   UNL     1       6.382  -9.861  -1.243  1.00  0.00     0.014 A 
ATOM     35  C   UNL     1       8.108  -8.217  -1.665  1.00  0.00     0.014 A 
ATOM     36  C   UNL     1       7.138 -10.822  -1.918  1.00  0.00     0.010 A 
ATOM     37  C   UNL     1       8.820  -9.152  -2.410  1.00  0.00     0.010 A 
ATOM     38  C   UNL     1       8.344 -10.465  -2.545  1.00  0.00    -0.014 A 
BRANCH  38  39
ATOM     39  C   UNL     1       9.115 -11.447  -3.351  1.00  0.00     0.031 A 
ATOM     40  C   UNL     1      10.509 -11.835  -2.944  1.00  0.00     0.074 A 
ATOM     41  C   UNL     1       8.588 -11.934  -4.491  1.00  0.00     0.049 A 
ATOM     42  N   UNL     1      11.361 -12.618  -3.555  1.00  0.00    -0.248 NA
ATOM     43  C   UNL     1      11.023 -11.242  -1.701  1.00  0.00     0.031 C 
ATOM     44  C   UNL     1       7.268 -11.596  -5.025  1.00  0.00     0.029 A 
ATOM     45  N   UNL     1       9.105 -12.809  -5.413  1.00  0.00    -0.354 N 
ATOM     46  C   UNL     1      12.512 -12.603  -2.778  1.00  0.00     0.074 A 
ATOM     47  C   UNL     1      12.271 -11.683  -1.687  1.00  0.00     0.031 C 
ATOM     48  C   UNL     1       7.072 -12.268  -6.170  1.00  0.00     0.029 A 
ATOM     49  C   UNL     1       8.265 -13.052  -6.473  1.00  0.00     0.049 A 
ATOM     50  H   UNL     1       9.994 -13.223  -5.324  1.00  0.00     0.167 HD
ATOM     51  C   UNL     1      13.656 -13.310  -2.941  1.00  0.00     0.037 A 
ATOM     52  C   UNL     1       8.440 -13.811  -7.571  1.00  0.00     0.037 A 
ATOM     53  C   UNL     1      13.891 -14.230  -4.023  1.00  0.00     0.049 A 
ATOM     54  C   UNL     1       9.723 -14.574  -7.743  1.00  0.00     0.074 A 
ATOM     55  C   UNL     1      14.996 -15.032  -4.249  1.00  0.00     0.029 A 
ATOM     56  N   UNL     1      13.009 -14.462  -5.068  1.00  0.00    -0.354 N 
ATOM     57  N   UNL     1      10.776 -14.607  -6.963  1.00  0.00    -0.248 NA
ATOM     58  C   UNL     1       9.839 -15.413  -8.944  1.00  0.00     0.031 C 
ATOM     59  C   UNL     1      14.805 -15.710  -5.459  1.00  0.00     0.029 A 
ATOM     60  C   UNL     1      13.555 -15.376  -5.956  1.00  0.00     0.049 A 
ATOM     61  H   UNL     1      12.124 -14.041  -5.165  1.00  0.00     0.167 HD
ATOM     62  C   UNL     1      11.669 -15.486  -7.563  1.00  0.00     0.074 A 
ATOM     63  C   UNL     1      11.027 -15.975  -8.765  1.00  0.00     0.031 C 
ATOM     64  C   UNL     1      12.908 -15.854  -7.152  1.00  0.00     0.037 A 
BRANCH  51  65
ATOM     65  C   UNL     1      14.741 -13.105  -1.920  1.00  0.00     0.057 A 
ATOM     66  C   UNL     1      14.595 -13.525  -0.590  1.00  0.00     0.134 A 
ATOM     67  C   UNL     1      15.947 -12.486  -2.270  1.00  0.00     0.134 A 
ATOM     68  F   UNL     1      13.461 -14.115  -0.183  1.00  0.00    -0.206 F 
ATOM     69  C   UNL     1      15.591 -13.298   0.362  1.00  0.00     0.040 A 
ATOM     70  C   UNL     1      16.963 -12.284  -1.334  1.00  0.00     0.040 A 
ATOM     71  F   UNL     1      16.160 -12.066  -3.526  1.00  0.00    -0.206 F 
ATOM     72  C   UNL     1      16.782 -12.680  -0.011  1.00  0.00     0.006 A 
ENDBRANCH  51  65
BRANCH  52  73
ATOM     73  C   UNL     1       7.357 -13.897  -8.585  1.00  0.00     0.057 A 
ATOM     74  C   UNL     1       6.613 -15.069  -8.752  1.00  0.00     0.134 A 
ATOM     75  C   UNL     1       7.030 -12.803  -9.396  1.00  0.00     0.134 A 
ATOM     76  F   UNL     1       6.891 -16.156  -8.016  1.00  0.00    -0.206 F 
ATOM     77  C   UNL     1       5.590 -15.158  -9.697  1.00  0.00     0.040 A 
ATOM     78  C   UNL     1       5.992 -12.869 -10.328  1.00  0.00     0.040 A 
ATOM     79  F   UNL     1       7.700 -11.648  -9.278  1.00  0.00    -0.206 F 
ATOM     80  C   UNL     1       5.272 -14.052 -10.483  1.00  0.00     0.006 A 
ENDBRANCH  52  73
BRANCH  64  81
ATOM     81  C   UNL     1      13.641 -16.859  -7.994  1.00  0.00     0.057 A 
ATOM     82  C   UNL     1      14.160 -16.535  -9.254  1.00  0.00     0.134 A 
ATOM     83  C   UNL     1      13.866 -18.158  -7.518  1.00  0.00     0.134 A 
ATOM     84  F   UNL     1      13.970 -15.313  -9.775  1.00  0.00    -0.206 F 
ATOM     85  C   UNL     1      14.856 -17.473 -10.020  1.00  0.00     0.040 A 
ATOM     86  C   UNL     1      14.585 -19.095  -8.261  1.00  0.00     0.040 A 
ATOM     87  F   UNL     1      13.403 -18.532  -6.315  1.00  0.00    -0.206 F 
ATOM     88  C   UNL     1      15.076 -18.755  -9.519  1.00  0.00     0.006 A 
ENDBRANCH  64  81
ENDBRANCH  38  39
ENDBRANCH  30  33
ENDBRANCH  28  29
ENDBRANCH  27  28
ENDBRANCH  26  27
ENDBRANCH   1  26
TORSDOF 15
