REMARK SMILES COc1ccc([C@H]2CC(c3ccccc3)=NN2C(=O)CCCC(=O)NCCCCNC(=O)c2ccc(-c3c4nc(c(-c5c(F)cccc5F)c5ccc([nH]5)c(-c5c(F)cccc5F)c5nc(c(-c6c(F)cccc6F)c6ccc3[nH]6)C=C5)C=C4)cc2)cc1
REMARK SMILES IDX 23 1 24 2 25 3 22 5 21 6 20 7 18 8 19 9 17 10 7 11 8 12 9 13
REMARK SMILES IDX 16 14 6 15 3 16 4 17 88 18 5 19 87 20 2 21 1 22 10 23 11 24
REMARK SMILES IDX 15 25 12 26 14 27 13 28 26 29 27 30 28 31 29 32 30 33 31 34
REMARK SMILES IDX 32 36 33 37 34 38 86 39 35 40 85 41 36 42 37 43 38 44 79 45
REMARK SMILES IDX 39 46 84 47 78 48 80 49 40 50 83 51 77 52 76 53 41 55 67 56
REMARK SMILES IDX 50 57 66 58 51 59 54 60 65 61 81 62 52 63 53 64 64 66 82 67
REMARK SMILES IDX 55 68 42 69 43 70 48 71 44 72 45 73 47 74 49 75 46 76 68 77
REMARK SMILES IDX 69 78 74 79 70 80 71 81 73 82 75 83 72 84 56 85 57 86 62 87
REMARK SMILES IDX 58 88 59 89 61 90 63 91 60 92
REMARK H PARENT 25 4 30 35 80 54 54 65
REMARK Flexibility Score: inf
ROOT
ATOM      1  C   UNL     1      -0.566   6.143   1.890  1.00  0.00     0.220 C 
ATOM      2  O   UNL     1      -1.748   5.886   1.645  1.00  0.00    -0.275 OA
ATOM      3  N   UNL     1      -0.333   6.967   2.943  1.00  0.00    -0.356 N 
ATOM      4  H   UNL     1      -1.088   7.077   3.565  1.00  0.00     0.163 HD
ENDROOT
BRANCH   1   5
ATOM      5  C   UNL     1       0.547   5.393   1.179  1.00  0.00     0.100 C 
BRANCH   5   6
ATOM      6  C   UNL     1       1.700   5.989   0.404  1.00  0.00     0.020 C 
BRANCH   6   7
ATOM      7  C   UNL     1       2.978   6.486   1.082  1.00  0.00     0.103 C 
BRANCH   7   8
ATOM      8  C   UNL     1       4.005   5.698   1.923  1.00  0.00     0.243 C 
ATOM      9  O   UNL     1       5.172   5.725   1.491  1.00  0.00    -0.273 OA
BRANCH   8  10
ATOM     10  N   UNL     1       3.760   5.201   3.198  1.00  0.00    -0.225 N 
ATOM     11  C   UNL     1       2.634   4.451   3.808  1.00  0.00     0.147 C 
ATOM     12  C   UNL     1       3.086   4.137   5.232  1.00  0.00     0.091 C 
ATOM     13  C   UNL     1       4.454   4.733   5.203  1.00  0.00     0.071 C 
ATOM     14  N   UNL     1       4.808   5.313   4.103  1.00  0.00    -0.174 NA
BRANCH  11  15
ATOM     15  C   UNL     1       2.232   3.176   3.084  1.00  0.00    -0.023 A 
ATOM     16  C   UNL     1       1.208   1.293   1.282  1.00  0.00     0.118 A 
ATOM     17  C   UNL     1       0.382   1.833   2.264  1.00  0.00     0.047 A 
ATOM     18  C   UNL     1       2.567   1.605   1.267  1.00  0.00     0.047 A 
ATOM     19  C   UNL     1       0.898   2.735   3.194  1.00  0.00     0.010 A 
ATOM     20  C   UNL     1       3.082   2.534   2.175  1.00  0.00     0.010 A 
BRANCH  16  21
ATOM     21  O   UNL     1       0.574   0.597   0.292  1.00  0.00    -0.497 OA
ATOM     22  C   UNL     1       1.203  -0.624  -0.072  1.00  0.00     0.278 C 
ENDBRANCH  16  21
ENDBRANCH  11  15
BRANCH  13  23
ATOM     23  C   UNL     1       5.320   4.661   6.383  1.00  0.00    -0.002 A 
ATOM     24  C   UNL     1       5.696   5.836   7.036  1.00  0.00     0.010 A 
ATOM     25  C   UNL     1       5.791   3.419   6.812  1.00  0.00     0.010 A 
ATOM     26  C   UNL     1       6.551   5.764   8.136  1.00  0.00     0.001 A 
ATOM     27  C   UNL     1       6.659   3.356   7.902  1.00  0.00     0.001 A 
ATOM     28  C   UNL     1       7.036   4.526   8.564  1.00  0.00     0.000 A 
ENDBRANCH  13  23
ENDBRANCH   8  10
ENDBRANCH   7   8
ENDBRANCH   6   7
ENDBRANCH   5   6
ENDBRANCH   1   5
BRANCH   3  29
ATOM     29  C   UNL     1       0.855   7.701   3.281  1.00  0.00     0.116 C 
BRANCH  29  30
ATOM     30  C   UNL     1       0.917   8.988   2.463  1.00  0.00     0.023 C 
BRANCH  30  31
ATOM     31  C   UNL     1      -0.062  10.046   2.965  1.00  0.00     0.023 C 
BRANCH  31  32
ATOM     32  C   UNL     1       0.207  10.491   4.394  1.00  0.00     0.116 C 
BRANCH  32  33
ATOM     33  N   UNL     1       1.550  11.025   4.579  1.00  0.00    -0.352 N 
ATOM     34  C   UNL     1       1.921  12.073   5.384  1.00  0.00     0.251 C 
ATOM     35  H   UNL     1       2.270  10.586   4.071  1.00  0.00     0.163 HD
ATOM     36  O   UNL     1       3.059  12.523   5.377  1.00  0.00    -0.269 OA
BRANCH  34  37
ATOM     37  C   UNL     1       0.881  12.659   6.242  1.00  0.00     0.039 A 
ATOM     38  C   UNL     1       0.523  13.994   6.056  1.00  0.00     0.014 A 
ATOM     39  C   UNL     1       0.174  11.829   7.116  1.00  0.00     0.014 A 
ATOM     40  C   UNL     1      -0.595  14.490   6.720  1.00  0.00     0.010 A 
ATOM     41  C   UNL     1      -0.984  12.304   7.711  1.00  0.00     0.010 A 
ATOM     42  C   UNL     1      -1.373  13.639   7.525  1.00  0.00    -0.014 A 
BRANCH  42  43
ATOM     43  C   UNL     1      -2.591  14.137   8.202  1.00  0.00     0.031 A 
ATOM     44  C   UNL     1      -2.639  14.179   9.702  1.00  0.00     0.074 A 
ATOM     45  C   UNL     1      -3.665  14.490   7.471  1.00  0.00     0.049 A 
ATOM     46  N   UNL     1      -3.620  14.540  10.488  1.00  0.00    -0.248 NA
ATOM     47  C   UNL     1      -1.436  13.719  10.415  1.00  0.00     0.031 C 
ATOM     48  C   UNL     1      -3.757  14.427   6.011  1.00  0.00     0.029 A 
ATOM     49  N   UNL     1      -4.889  14.971   7.860  1.00  0.00    -0.354 N 
ATOM     50  C   UNL     1      -3.158  14.334  11.781  1.00  0.00     0.074 A 
ATOM     51  C   UNL     1      -1.837  13.756  11.675  1.00  0.00     0.031 C 
ATOM     52  C   UNL     1      -4.960  14.884   5.626  1.00  0.00     0.029 A 
ATOM     53  C   UNL     1      -5.731  15.247   6.811  1.00  0.00     0.049 A 
ATOM     54  H   UNL     1      -5.140  15.105   8.803  1.00  0.00     0.167 HD
ATOM     55  C   UNL     1      -3.767  14.632  12.952  1.00  0.00     0.037 A 
ATOM     56  C   UNL     1      -6.981  15.746   6.811  1.00  0.00     0.037 A 
ATOM     57  C   UNL     1      -5.065  15.242  13.048  1.00  0.00     0.049 A 
ATOM     58  C   UNL     1      -7.626  16.095   8.123  1.00  0.00     0.074 A 
ATOM     59  C   UNL     1      -5.747  15.649  14.180  1.00  0.00     0.029 A 
ATOM     60  N   UNL     1      -5.877  15.536  11.962  1.00  0.00    -0.354 N 
ATOM     61  N   UNL     1      -7.149  15.968   9.338  1.00  0.00    -0.248 NA
ATOM     62  C   UNL     1      -8.978  16.666   8.064  1.00  0.00     0.031 C 
ATOM     63  C   UNL     1      -6.987  16.159  13.781  1.00  0.00     0.029 A 
ATOM     64  C   UNL     1      -7.061  16.106  12.398  1.00  0.00     0.049 A 
ATOM     65  H   UNL     1      -5.646  15.364  11.020  1.00  0.00     0.167 HD
ATOM     66  C   UNL     1      -8.130  16.464  10.186  1.00  0.00     0.074 A 
ATOM     67  C   UNL     1      -9.222  16.910   9.344  1.00  0.00     0.031 C 
ATOM     68  C   UNL     1      -8.131  16.544  11.539  1.00  0.00     0.037 A 
BRANCH  55  69
ATOM     69  C   UNL     1      -3.022  14.309  14.213  1.00  0.00     0.057 A 
ATOM     70  C   UNL     1      -1.872  15.016  14.592  1.00  0.00     0.134 A 
ATOM     71  C   UNL     1      -3.457  13.283  15.060  1.00  0.00     0.134 A 
ATOM     72  F   UNL     1      -1.391  15.998  13.815  1.00  0.00    -0.206 F 
ATOM     73  C   UNL     1      -1.163  14.692  15.750  1.00  0.00     0.040 A 
ATOM     74  C   UNL     1      -2.773  12.969  16.236  1.00  0.00     0.040 A 
ATOM     75  F   UNL     1      -4.551  12.568  14.758  1.00  0.00    -0.206 F 
ATOM     76  C   UNL     1      -1.618  13.669  16.579  1.00  0.00     0.006 A 
ENDBRANCH  55  69
BRANCH  56  77
ATOM     77  C   UNL     1      -7.684  15.989   5.527  1.00  0.00     0.057 A 
ATOM     78  C   UNL     1      -7.901  17.291   5.061  1.00  0.00     0.134 A 
ATOM     79  C   UNL     1      -8.155  14.935   4.737  1.00  0.00     0.134 A 
ATOM     80  F   UNL     1      -7.486  18.343   5.782  1.00  0.00    -0.206 F 
ATOM     81  C   UNL     1      -8.576  17.538   3.864  1.00  0.00     0.040 A 
ATOM     82  C   UNL     1      -8.812  15.166   3.527  1.00  0.00     0.040 A 
ATOM     83  F   UNL     1      -7.971  13.664   5.123  1.00  0.00    -0.206 F 
ATOM     84  C   UNL     1      -9.030  16.472   3.091  1.00  0.00     0.006 A 
ENDBRANCH  56  77
BRANCH  68  85
ATOM     85  C   UNL     1      -9.337  17.155  12.185  1.00  0.00     0.057 A 
ATOM     86  C   UNL     1     -10.560  16.476  12.255  1.00  0.00     0.134 A 
ATOM     87  C   UNL     1      -9.264  18.423  12.775  1.00  0.00     0.134 A 
ATOM     88  F   UNL     1     -10.697  15.264  11.698  1.00  0.00    -0.206 F 
ATOM     89  C   UNL     1     -11.675  17.047  12.871  1.00  0.00     0.040 A 
ATOM     90  C   UNL     1     -10.364  18.994  13.415  1.00  0.00     0.040 A 
ATOM     91  F   UNL     1      -8.118  19.122  12.750  1.00  0.00    -0.206 F 
ATOM     92  C   UNL     1     -11.576  18.307  13.459  1.00  0.00     0.006 A 
ENDBRANCH  68  85
ENDBRANCH  42  43
ENDBRANCH  34  37
ENDBRANCH  32  33
ENDBRANCH  31  32
ENDBRANCH  30  31
ENDBRANCH  29  30
ENDBRANCH   3  29
TORSDOF 18
