REMARK SMILES CC[C@]1(C(=O)NCCCCNC(=O)c2ccc(-c3c4nc(c(-c5c(F)cccc5F)c5ccc([nH]5)c(-c5c(F)cccc5F)c5nc(c(-c6c(F)cccc6F)c6ccc3[nH]6)C=C5)C=C4)cc2)CCC[N@@H+](Cc2cc(OC)ccc2F)C1
REMARK SMILES IDX 8 1 7 2 6 3 4 4 5 5 3 7 68 8 82 9 69 10 71 11 70 12 2 14
REMARK SMILES IDX 1 15 72 16 73 17 74 18 80 19 75 20 79 21 81 22 78 23 76 24
REMARK SMILES IDX 77 25 9 26 10 27 11 28 12 29 13 31 14 32 15 33 67 34 16 35
REMARK SMILES IDX 66 36 17 37 18 38 19 39 60 40 20 41 65 42 59 43 61 44 21 45
REMARK SMILES IDX 64 46 58 47 57 48 22 50 48 51 31 52 47 53 32 54 35 55 46 56
REMARK SMILES IDX 62 57 33 58 34 59 45 61 63 62 36 63 23 64 24 65 29 66 25 67
REMARK SMILES IDX 26 68 28 69 30 70 27 71 49 72 50 73 55 74 51 75 52 76 54 77
REMARK SMILES IDX 56 78 53 79 37 80 38 81 43 82 39 83 40 84 42 85 44 86 41 87
REMARK H PARENT 6 6 71 13 11 30 61 49 35 60
REMARK Flexibility Score: inf
ROOT
ATOM      1  C   UNL     1       0.965   5.300   3.279  1.00  0.00     0.023 C 
ENDROOT
BRANCH   1   2
ATOM      2  C   UNL     1       1.863   4.069   3.149  1.00  0.00     0.116 C 
BRANCH   2   3
ATOM      3  N   UNL     1       1.271   2.884   3.746  1.00  0.00    -0.355 N 
ATOM      4  C   UNL     1       0.714   1.756   3.219  1.00  0.00     0.231 C 
ATOM      5  O   UNL     1       0.274   0.960   4.056  1.00  0.00    -0.274 OA
ATOM      6  H   UNL     1       1.272   2.898   4.730  1.00  0.00     0.163 HD
BRANCH   4   7
ATOM      7  C   UNL     1       0.635   1.463   1.689  1.00  0.00     0.098 C 
ATOM      8  C   UNL     1      -0.177   2.585   0.994  1.00  0.00     0.028 C 
ATOM      9  C   UNL     1       2.079   1.339   1.147  1.00  0.00     0.279 C 
ATOM     10  C   UNL     1       0.160   2.837  -0.474  1.00  0.00     0.063 C 
ATOM     11  N   UNL     1       2.169   1.478  -0.312  1.00  0.00    -0.330 N 
ATOM     12  C   UNL     1       1.656   2.761  -0.772  1.00  0.00     0.262 C 
ATOM     13  H   UNL     1       1.541   0.777  -0.704  1.00  0.00     0.348 HD
BRANCH   7  14
ATOM     14  C   UNL     1      -0.114   0.090   1.523  1.00  0.00     0.019 C 
ATOM     15  C   UNL     1      -0.044  -0.609   0.171  1.00  0.00     0.005 C 
ENDBRANCH   7  14
BRANCH  11  16
ATOM     16  C   UNL     1       3.472   1.099  -0.873  1.00  0.00     0.302 C 
BRANCH  16  17
ATOM     17  C   UNL     1       4.670   1.939  -0.503  1.00  0.00     0.046 A 
ATOM     18  C   UNL     1       5.217   2.856  -1.415  1.00  0.00     0.059 A 
ATOM     19  C   UNL     1       5.311   1.781   0.729  1.00  0.00     0.132 A 
ATOM     20  C   UNL     1       6.374   3.580  -1.101  1.00  0.00     0.119 A 
ATOM     21  C   UNL     1       6.418   2.546   1.078  1.00  0.00     0.043 A 
ATOM     22  F   UNL     1       4.872   0.870   1.609  1.00  0.00    -0.206 F 
ATOM     23  C   UNL     1       6.950   3.452   0.164  1.00  0.00     0.049 A 
BRANCH  20  24
ATOM     24  O   UNL     1       6.854   4.380  -2.101  1.00  0.00    -0.497 OA
ATOM     25  C   UNL     1       8.244   4.690  -2.023  1.00  0.00     0.278 C 
ENDBRANCH  20  24
ENDBRANCH  16  17
ENDBRANCH  11  16
ENDBRANCH   4   7
ENDBRANCH   2   3
ENDBRANCH   1   2
BRANCH   1  26
ATOM     26  C   UNL     1       0.768   5.822   4.700  1.00  0.00     0.023 C 
BRANCH  26  27
ATOM     27  C   UNL     1       2.042   6.201   5.440  1.00  0.00     0.116 C 
BRANCH  27  28
ATOM     28  N   UNL     1       2.859   7.172   4.728  1.00  0.00    -0.352 N 
ATOM     29  C   UNL     1       3.490   8.298   5.201  1.00  0.00     0.251 C 
ATOM     30  H   UNL     1       2.978   6.997   3.766  1.00  0.00     0.163 HD
ATOM     31  O   UNL     1       4.055   9.058   4.428  1.00  0.00    -0.269 OA
BRANCH  29  32
ATOM     32  C   UNL     1       3.450   8.608   6.648  1.00  0.00     0.039 A 
ATOM     33  C   UNL     1       3.166   9.917   7.046  1.00  0.00     0.014 A 
ATOM     34  C   UNL     1       3.672   7.614   7.604  1.00  0.00     0.014 A 
ATOM     35  C   UNL     1       3.034  10.211   8.404  1.00  0.00     0.010 A 
ATOM     36  C   UNL     1       3.456   7.890   8.950  1.00  0.00     0.010 A 
ATOM     37  C   UNL     1       3.139   9.192   9.365  1.00  0.00    -0.014 A 
BRANCH  37  38
ATOM     38  C   UNL     1       2.924   9.471  10.807  1.00  0.00     0.031 A 
ATOM     39  C   UNL     1       4.046   9.278  11.789  1.00  0.00     0.074 A 
ATOM     40  C   UNL     1       1.702   9.838  11.239  1.00  0.00     0.049 A 
ATOM     41  N   UNL     1       4.040   9.425  13.090  1.00  0.00    -0.248 NA
ATOM     42  C   UNL     1       5.337   8.833  11.242  1.00  0.00     0.031 C 
ATOM     43  C   UNL     1       0.517  10.001  10.395  1.00  0.00     0.029 A 
ATOM     44  N   UNL     1       1.253  10.135  12.502  1.00  0.00    -0.354 N 
ATOM     45  C   UNL     1       5.316   9.078  13.514  1.00  0.00     0.074 A 
ATOM     46  C   UNL     1       6.052   8.656  12.342  1.00  0.00     0.031 C 
ATOM     47  C   UNL     1      -0.515  10.396  11.157  1.00  0.00     0.029 A 
ATOM     48  C   UNL     1      -0.076  10.483  12.546  1.00  0.00     0.049 A 
ATOM     49  H   UNL     1       1.828  10.102  13.300  1.00  0.00     0.167 HD
ATOM     50  C   UNL     1       5.838   9.131  14.763  1.00  0.00     0.037 A 
ATOM     51  C   UNL     1      -0.851  10.833  13.589  1.00  0.00     0.037 A 
ATOM     52  C   UNL     1       5.112   9.576  15.923  1.00  0.00     0.049 A 
ATOM     53  C   UNL     1      -0.245  10.896  14.964  1.00  0.00     0.074 A 
ATOM     54  C   UNL     1       5.567   9.723  17.222  1.00  0.00     0.029 A 
ATOM     55  N   UNL     1       3.775   9.947  15.923  1.00  0.00    -0.354 N 
ATOM     56  N   UNL     1       0.984  10.636  15.339  1.00  0.00    -0.248 NA
ATOM     57  C   UNL     1      -1.132  11.315  16.058  1.00  0.00     0.031 C 
ATOM     58  C   UNL     1       4.495  10.144  18.015  1.00  0.00     0.029 A 
ATOM     59  C   UNL     1       3.385  10.307  17.202  1.00  0.00     0.049 A 
ATOM     60  H   UNL     1       3.191   9.953  15.131  1.00  0.00     0.167 HD
ATOM     61  C   UNL     1       1.026  10.886  16.705  1.00  0.00     0.074 A 
ATOM     62  C   UNL     1      -0.298  11.334  17.088  1.00  0.00     0.031 C 
ATOM     63  C   UNL     1       2.066  10.758  17.565  1.00  0.00     0.037 A 
BRANCH  50  64
ATOM     64  C   UNL     1       7.267   8.704  14.932  1.00  0.00     0.057 A 
ATOM     65  C   UNL     1       8.330   9.466  14.427  1.00  0.00     0.134 A 
ATOM     66  C   UNL     1       7.588   7.533  15.630  1.00  0.00     0.134 A 
ATOM     67  F   UNL     1       8.092  10.591  13.737  1.00  0.00    -0.206 F 
ATOM     68  C   UNL     1       9.657   9.063  14.584  1.00  0.00     0.040 A 
ATOM     69  C   UNL     1       8.912   7.135  15.818  1.00  0.00     0.040 A 
ATOM     70  F   UNL     1       6.620   6.759  16.144  1.00  0.00    -0.206 F 
ATOM     71  C   UNL     1       9.951   7.897  15.288  1.00  0.00     0.006 A 
ENDBRANCH  50  64
BRANCH  51  72
ATOM     72  C   UNL     1      -2.276  11.187  13.372  1.00  0.00     0.057 A 
ATOM     73  C   UNL     1      -2.720  12.508  13.511  1.00  0.00     0.134 A 
ATOM     74  C   UNL     1      -3.228  10.220  13.031  1.00  0.00     0.134 A 
ATOM     75  F   UNL     1      -1.858  13.476  13.854  1.00  0.00    -0.206 F 
ATOM     76  C   UNL     1      -4.062  12.851  13.341  1.00  0.00     0.040 A 
ATOM     77  C   UNL     1      -4.569  10.552  12.833  1.00  0.00     0.040 A 
ATOM     78  F   UNL     1      -2.865   8.938  12.874  1.00  0.00    -0.206 F 
ATOM     79  C   UNL     1      -4.990  11.871  12.996  1.00  0.00     0.006 A 
ENDBRANCH  51  72
BRANCH  63  80
ATOM     80  C   UNL     1       1.824  11.146  18.994  1.00  0.00     0.057 A 
ATOM     81  C   UNL     1       1.035  10.367  19.851  1.00  0.00     0.134 A 
ATOM     82  C   UNL     1       2.410  12.302  19.525  1.00  0.00     0.134 A 
ATOM     83  F   UNL     1       0.436   9.255  19.399  1.00  0.00    -0.206 F 
ATOM     84  C   UNL     1       0.817  10.738  21.177  1.00  0.00     0.040 A 
ATOM     85  C   UNL     1       2.221  12.669  20.859  1.00  0.00     0.040 A 
ATOM     86  F   UNL     1       3.184  13.087  18.762  1.00  0.00    -0.206 F 
ATOM     87  C   UNL     1       1.416  11.890  21.687  1.00  0.00     0.006 A 
ENDBRANCH  63  80
ENDBRANCH  37  38
ENDBRANCH  29  32
ENDBRANCH  27  28
ENDBRANCH  26  27
ENDBRANCH   1  26
TORSDOF 15
