REMARK SMILES CC(C)[C@H](NC(=O)c1cc2cc(Cl)ccc2n1C)C(=O)N[C@@H](C(=O)NCCCCNC(=O)c1ccc(-c2c3nc(c(-c4c(F)cccc4F)c4ccc([nH]4)c(-c4c(F)cccc4F)c4nc(c(-c5c(F)cccc5F)c5ccc2[nH]5)C=C4)C=C3)cc1)c1ccccc1
REMARK SMILES IDX 26 1 25 2 23 3 24 4 22 6 21 7 19 8 20 9 4 11 2 12 1 13 3 14
REMARK SMILES IDX 5 15 6 16 7 18 8 19 9 20 17 21 10 22 16 23 18 24 11 25 15 26
REMARK SMILES IDX 12 27 14 28 13 29 87 30 88 31 92 32 89 33 91 34 90 35 27 36
REMARK SMILES IDX 28 37 29 38 30 39 31 40 32 42 33 43 34 44 86 45 35 46 85 47
REMARK SMILES IDX 36 48 37 49 38 50 79 51 39 52 84 53 78 54 80 55 40 56 83 57
REMARK SMILES IDX 77 58 76 59 41 61 67 62 50 63 66 64 51 65 54 66 65 67 81 68
REMARK SMILES IDX 52 69 53 70 64 72 82 73 55 74 42 75 43 76 48 77 44 78 45 79
REMARK SMILES IDX 47 80 49 81 46 82 68 83 69 84 74 85 70 86 71 87 73 88 75 89
REMARK SMILES IDX 72 90 56 91 57 92 62 93 58 94 59 95 61 96 63 97 60 98
REMARK H PARENT 25 5 21 10 5 17 30 41 80 60 54 71
REMARK Flexibility Score: inf
ROOT
ATOM      1  C   UNL     1       2.157   2.134  -3.289  1.00  0.00     0.116 C 
ENDROOT
BRANCH   1   2
ATOM      2  N   UNL     1       1.794   3.530  -3.483  1.00  0.00    -0.354 N 
ATOM      3  C   UNL     1       0.683   4.254  -3.138  1.00  0.00     0.247 C 
ATOM      4  O   UNL     1       0.471   5.221  -3.883  1.00  0.00    -0.272 OA
ATOM      5  H   UNL     1       2.480   4.056  -3.953  1.00  0.00     0.163 HD
BRANCH   3   6
ATOM      6  C   UNL     1      -0.313   3.898  -1.939  1.00  0.00     0.202 C 
BRANCH   6   7
ATOM      7  N   UNL     1      -1.391   3.031  -2.426  1.00  0.00    -0.339 N 
ATOM      8  C   UNL     1      -2.051   1.917  -2.039  1.00  0.00     0.243 C 
ATOM      9  O   UNL     1      -3.234   1.853  -2.405  1.00  0.00    -0.273 OA
ATOM     10  H   UNL     1      -1.734   3.355  -3.290  1.00  0.00     0.164 HD
BRANCH   8  11
ATOM     11  C   UNL     1      -1.486   0.763  -1.224  1.00  0.00     0.174 C 
BRANCH  11  12
ATOM     12  C   UNL     1      -1.421   1.031   0.320  1.00  0.00     0.015 C 
ATOM     13  C   UNL     1      -0.071   1.477   0.902  1.00  0.00     0.010 C 
ATOM     14  C   UNL     1      -2.531   1.972   0.807  1.00  0.00     0.010 C 
ENDBRANCH  11  12
BRANCH  11  15
ATOM     15  N   UNL     1      -0.265   0.210  -1.795  1.00  0.00    -0.339 N 
ATOM     16  C   UNL     1       0.022  -0.518  -2.927  1.00  0.00     0.268 C 
ATOM     17  H   UNL     1       0.533   0.399  -1.249  1.00  0.00     0.164 HD
ATOM     18  O   UNL     1       1.054  -1.188  -2.758  1.00  0.00    -0.268 OA
BRANCH  16  19
ATOM     19  C   UNL     1      -0.638  -0.519  -4.246  1.00  0.00     0.107 A 
ATOM     20  C   UNL     1      -0.279  -1.459  -5.232  1.00  0.00     0.042 A 
ATOM     21  N   UNL     1      -1.377   0.411  -4.976  1.00  0.00    -0.340 N 
ATOM     22  C   UNL     1      -0.816  -1.092  -6.494  1.00  0.00     0.002 A 
ATOM     23  C   UNL     1      -1.711  -0.070  -6.239  1.00  0.00     0.048 A 
ATOM     24  C   UNL     1      -1.298   1.852  -4.905  1.00  0.00     0.150 C 
ATOM     25  C   UNL     1      -0.603  -1.476  -7.831  1.00  0.00     0.030 A 
ATOM     26  C   UNL     1      -2.517   0.519  -7.230  1.00  0.00     0.028 A 
ATOM     27  C   UNL     1      -1.312  -0.811  -8.843  1.00  0.00     0.041 A 
ATOM     28  C   UNL     1      -2.280   0.145  -8.549  1.00  0.00     0.023 A 
ATOM     29  Cl  UNL     1      -0.943  -1.130 -10.493  1.00  0.00    -0.084 Cl
ENDBRANCH  16  19
ENDBRANCH  11  15
ENDBRANCH   8  11
ENDBRANCH   6   7
BRANCH   6  30
ATOM     30  C   UNL     1      -1.048   5.197  -1.458  1.00  0.00    -0.016 A 
ATOM     31  C   UNL     1      -2.454   5.221  -1.262  1.00  0.00     0.006 A 
ATOM     32  C   UNL     1      -0.375   6.421  -1.340  1.00  0.00     0.006 A 
ATOM     33  C   UNL     1      -3.162   6.409  -1.084  1.00  0.00     0.000 A 
ATOM     34  C   UNL     1      -1.087   7.615  -1.158  1.00  0.00     0.000 A 
ATOM     35  C   UNL     1      -2.477   7.612  -1.053  1.00  0.00     0.000 A 
ENDBRANCH   6  30
ENDBRANCH   3   6
ENDBRANCH   1   2
BRANCH   1  36
ATOM     36  C   UNL     1       2.209   1.388  -4.641  1.00  0.00     0.023 C 
BRANCH  36  37
ATOM     37  C   UNL     1       3.581   1.156  -5.284  1.00  0.00     0.023 C 
BRANCH  37  38
ATOM     38  C   UNL     1       4.509   0.183  -4.542  1.00  0.00     0.116 C 
BRANCH  38  39
ATOM     39  N   UNL     1       3.900  -1.095  -4.203  1.00  0.00    -0.352 N 
ATOM     40  C   UNL     1       4.201  -2.381  -4.553  1.00  0.00     0.251 C 
ATOM     41  H   UNL     1       3.120  -1.018  -3.607  1.00  0.00     0.163 HD
ATOM     42  O   UNL     1       3.914  -3.271  -3.730  1.00  0.00    -0.269 OA
BRANCH  40  43
ATOM     43  C   UNL     1       4.731  -2.808  -5.874  1.00  0.00     0.039 A 
ATOM     44  C   UNL     1       4.820  -1.968  -6.982  1.00  0.00     0.014 A 
ATOM     45  C   UNL     1       4.976  -4.186  -6.051  1.00  0.00     0.014 A 
ATOM     46  C   UNL     1       5.061  -2.507  -8.244  1.00  0.00     0.010 A 
ATOM     47  C   UNL     1       5.218  -4.729  -7.312  1.00  0.00     0.010 A 
ATOM     48  C   UNL     1       5.211  -3.892  -8.421  1.00  0.00    -0.014 A 
BRANCH  48  49
ATOM     49  C   UNL     1       5.399  -4.377  -9.788  1.00  0.00     0.031 A 
ATOM     50  C   UNL     1       6.551  -3.775 -10.516  1.00  0.00     0.074 A 
ATOM     51  C   UNL     1       4.637  -5.300 -10.411  1.00  0.00     0.049 A 
ATOM     52  N   UNL     1       6.511  -2.930 -11.494  1.00  0.00    -0.248 NA
ATOM     53  C   UNL     1       7.904  -4.065 -10.026  1.00  0.00     0.031 C 
ATOM     54  C   UNL     1       3.637  -6.210  -9.854  1.00  0.00     0.029 A 
ATOM     55  N   UNL     1       4.658  -5.642 -11.734  1.00  0.00    -0.354 N 
ATOM     56  C   UNL     1       7.833  -2.688 -11.857  1.00  0.00     0.074 A 
ATOM     57  C   UNL     1       8.648  -3.324 -10.851  1.00  0.00     0.031 C 
ATOM     58  C   UNL     1       3.298  -7.131 -10.789  1.00  0.00     0.029 A 
ATOM     59  C   UNL     1       3.940  -6.786 -12.047  1.00  0.00     0.049 A 
ATOM     60  H   UNL     1       5.144  -5.117 -12.411  1.00  0.00     0.167 HD
ATOM     61  C   UNL     1       8.155  -2.123 -13.054  1.00  0.00     0.037 A 
ATOM     62  C   UNL     1       3.910  -7.421 -13.246  1.00  0.00     0.037 A 
ATOM     63  C   UNL     1       7.020  -1.468 -13.652  1.00  0.00     0.049 A 
ATOM     64  C   UNL     1       4.315  -6.447 -14.290  1.00  0.00     0.074 A 
ATOM     65  C   UNL     1       6.187  -0.429 -13.285  1.00  0.00     0.029 A 
ATOM     66  N   UNL     1       6.378  -2.098 -14.690  1.00  0.00    -0.354 N 
ATOM     67  N   UNL     1       3.581  -5.439 -14.669  1.00  0.00    -0.248 NA
ATOM     68  C   UNL     1       5.731  -6.343 -14.610  1.00  0.00     0.031 C 
ATOM     69  C   UNL     1       4.895  -0.810 -13.755  1.00  0.00     0.029 A 
ATOM     70  C   UNL     1       5.037  -2.030 -14.416  1.00  0.00     0.049 A 
ATOM     71  H   UNL     1       6.798  -2.516 -15.476  1.00  0.00     0.167 HD
ATOM     72  C   UNL     1       4.481  -4.403 -14.864  1.00  0.00     0.074 A 
ATOM     73  C   UNL     1       5.795  -5.042 -14.903  1.00  0.00     0.031 C 
ATOM     74  C   UNL     1       4.111  -3.099 -14.700  1.00  0.00     0.037 A 
BRANCH  61  75
ATOM     75  C   UNL     1       9.392  -2.449 -13.854  1.00  0.00     0.057 A 
ATOM     76  C   UNL     1      10.128  -3.640 -13.707  1.00  0.00     0.134 A 
ATOM     77  C   UNL     1       9.668  -1.714 -15.022  1.00  0.00     0.134 A 
ATOM     78  F   UNL     1       9.944  -4.475 -12.678  1.00  0.00    -0.206 F 
ATOM     79  C   UNL     1      11.029  -4.095 -14.675  1.00  0.00     0.040 A 
ATOM     80  C   UNL     1      10.531  -2.184 -16.019  1.00  0.00     0.040 A 
ATOM     81  F   UNL     1       9.038  -0.556 -15.275  1.00  0.00    -0.206 F 
ATOM     82  C   UNL     1      11.203  -3.388 -15.854  1.00  0.00     0.006 A 
ENDBRANCH  61  75
BRANCH  62  83
ATOM     83  C   UNL     1       3.830  -8.875 -13.514  1.00  0.00     0.057 A 
ATOM     84  C   UNL     1       4.351  -9.808 -12.601  1.00  0.00     0.134 A 
ATOM     85  C   UNL     1       3.502  -9.374 -14.783  1.00  0.00     0.134 A 
ATOM     86  F   UNL     1       4.776  -9.426 -11.388  1.00  0.00    -0.206 F 
ATOM     87  C   UNL     1       4.545 -11.153 -12.930  1.00  0.00     0.040 A 
ATOM     88  C   UNL     1       3.697 -10.720 -15.128  1.00  0.00     0.040 A 
ATOM     89  F   UNL     1       3.045  -8.556 -15.742  1.00  0.00    -0.206 F 
ATOM     90  C   UNL     1       4.230 -11.612 -14.202  1.00  0.00     0.006 A 
ENDBRANCH  62  83
BRANCH  74  91
ATOM     91  C   UNL     1       2.649  -2.797 -14.536  1.00  0.00     0.057 A 
ATOM     92  C   UNL     1       2.045  -1.873 -15.396  1.00  0.00     0.134 A 
ATOM     93  C   UNL     1       1.867  -3.284 -13.478  1.00  0.00     0.134 A 
ATOM     94  F   UNL     1       2.750  -1.318 -16.395  1.00  0.00    -0.206 F 
ATOM     95  C   UNL     1       0.721  -1.462 -15.225  1.00  0.00     0.040 A 
ATOM     96  C   UNL     1       0.529  -2.912 -13.321  1.00  0.00     0.040 A 
ATOM     97  F   UNL     1       2.388  -4.084 -12.539  1.00  0.00    -0.206 F 
ATOM     98  C   UNL     1      -0.046  -1.992 -14.192  1.00  0.00     0.006 A 
ENDBRANCH  74  91
ENDBRANCH  48  49
ENDBRANCH  40  43
ENDBRANCH  38  39
ENDBRANCH  37  38
ENDBRANCH  36  37
ENDBRANCH   1  36
TORSDOF 17
