REMARK SMILES CC(C)c1cc(OCC(=O)NCCCCNC(=O)c2ccc(-c3c4nc(c(-c5c(F)cccc5F)c5ccc([nH]5)c(-c5c(F)cccc5F)c5nc(c(-c6c(F)cccc6F)c6ccc3[nH]6)C=C5)C=C4)cc2)nc(Nc2ccc(F)cc2F)n1
REMARK SMILES IDX 12 1 11 2 9 3 10 4 8 6 7 7 6 8 4 9 5 10 84 11 74 12 73 13
REMARK SMILES IDX 2 14 1 15 3 16 75 17 76 19 77 20 82 21 78 22 81 23 83 24
REMARK SMILES IDX 79 25 80 26 13 27 14 28 15 29 16 30 17 31 18 33 19 34 20 35
REMARK SMILES IDX 72 36 21 37 71 38 22 39 23 40 24 41 65 42 25 43 70 44 64 45
REMARK SMILES IDX 66 46 26 47 69 48 63 49 62 50 27 52 53 53 36 54 52 55 37 56
REMARK SMILES IDX 40 57 51 58 67 59 38 60 39 61 50 63 68 64 41 65 28 66 29 67
REMARK SMILES IDX 34 68 30 69 31 70 33 71 35 72 32 73 54 74 55 75 60 76 56 77
REMARK SMILES IDX 57 78 59 79 61 80 58 81 42 82 43 83 48 84 44 85 45 86 47 87
REMARK SMILES IDX 49 88 46 89
REMARK H PARENT 11 5 75 18 16 32 66 51 40 62
REMARK Flexibility Score: inf
ROOT
ATOM      1  C   UNL     1      -4.526  -2.057  -2.348  1.00  0.00     0.116 C 
ENDROOT
BRANCH   1   2
ATOM      2  N   UNL     1      -3.135  -2.388  -2.112  1.00  0.00    -0.353 N 
ATOM      3  C   UNL     1      -2.479  -2.468  -0.920  1.00  0.00     0.258 C 
ATOM      4  O   UNL     1      -1.291  -2.796  -0.916  1.00  0.00    -0.271 OA
ATOM      5  H   UNL     1      -2.596  -2.580  -2.913  1.00  0.00     0.163 HD
BRANCH   3   6
ATOM      6  C   UNL     1      -3.228  -2.168   0.386  1.00  0.00     0.331 C 
BRANCH   6   7
ATOM      7  O   UNL     1      -3.813  -0.884   0.519  1.00  0.00    -0.467 OA
BRANCH   7   8
ATOM      8  C   UNL     1      -2.988   0.206   0.485  1.00  0.00     0.218 A 
ATOM      9  C   UNL     1      -0.939   1.344   0.345  1.00  0.00     0.052 A 
ATOM     10  C   UNL     1      -1.612   0.153   0.497  1.00  0.00     0.092 A 
ATOM     11  N   UNL     1      -1.614   2.507   0.294  1.00  0.00    -0.217 NA
ATOM     12  C   UNL     1      -2.954   2.487   0.335  1.00  0.00     0.230 A 
ATOM     13  N   UNL     1      -3.670   1.362   0.428  1.00  0.00    -0.177 NA
BRANCH   9  14
ATOM     14  C   UNL     1       0.577   1.437   0.283  1.00  0.00     0.032 C 
ATOM     15  C   UNL     1       1.286   0.119  -0.058  1.00  0.00     0.014 C 
ATOM     16  C   UNL     1       1.021   2.504  -0.729  1.00  0.00     0.014 C 
ENDBRANCH   9  14
BRANCH  12  17
ATOM     17  N   UNL     1      -3.656   3.688   0.391  1.00  0.00    -0.322 N 
ATOM     18  H   UNL     1      -4.626   3.614   0.542  1.00  0.00     0.170 HD
BRANCH  17  19
ATOM     19  C   UNL     1      -3.153   4.987   0.259  1.00  0.00     0.077 A 
ATOM     20  C   UNL     1      -3.462   5.945   1.235  1.00  0.00     0.032 A 
ATOM     21  C   UNL     1      -2.248   5.348  -0.757  1.00  0.00     0.149 A 
ATOM     22  C   UNL     1      -2.872   7.212   1.200  1.00  0.00     0.041 A 
ATOM     23  C   UNL     1      -1.669   6.611  -0.808  1.00  0.00     0.080 A 
ATOM     24  F   UNL     1      -1.959   4.484  -1.744  1.00  0.00    -0.205 F 
ATOM     25  C   UNL     1      -1.981   7.530   0.180  1.00  0.00     0.126 A 
ATOM     26  F   UNL     1      -1.414   8.743   0.156  1.00  0.00    -0.207 F 
ENDBRANCH  17  19
ENDBRANCH  12  17
ENDBRANCH   7   8
ENDBRANCH   6   7
ENDBRANCH   3   6
ENDBRANCH   1   2
BRANCH   1  27
ATOM     27  C   UNL     1      -4.691  -0.701  -3.031  1.00  0.00     0.023 C 
BRANCH  27  28
ATOM     28  C   UNL     1      -4.056  -0.590  -4.420  1.00  0.00     0.023 C 
BRANCH  28  29
ATOM     29  C   UNL     1      -4.450  -1.675  -5.417  1.00  0.00     0.116 C 
BRANCH  29  30
ATOM     30  N   UNL     1      -5.883  -1.734  -5.664  1.00  0.00    -0.352 N 
ATOM     31  C   UNL     1      -6.560  -1.807  -6.857  1.00  0.00     0.251 C 
ATOM     32  H   UNL     1      -6.449  -1.721  -4.859  1.00  0.00     0.163 HD
ATOM     33  O   UNL     1      -7.785  -1.727  -6.874  1.00  0.00    -0.269 OA
BRANCH  31  34
ATOM     34  C   UNL     1      -5.815  -1.945  -8.127  1.00  0.00     0.039 A 
ATOM     35  C   UNL     1      -6.175  -1.136  -9.209  1.00  0.00     0.014 A 
ATOM     36  C   UNL     1      -4.765  -2.858  -8.255  1.00  0.00     0.014 A 
ATOM     37  C   UNL     1      -5.435  -1.191 -10.392  1.00  0.00     0.010 A 
ATOM     38  C   UNL     1      -3.982  -2.857  -9.407  1.00  0.00     0.010 A 
ATOM     39  C   UNL     1      -4.307  -2.022 -10.488  1.00  0.00    -0.014 A 
BRANCH  39  40
ATOM     40  C   UNL     1      -3.450  -2.020 -11.702  1.00  0.00     0.031 A 
ATOM     41  C   UNL     1      -3.306  -3.264 -12.535  1.00  0.00     0.074 A 
ATOM     42  C   UNL     1      -2.747  -0.914 -12.020  1.00  0.00     0.049 A 
ATOM     43  N   UNL     1      -2.554  -3.473 -13.586  1.00  0.00    -0.248 NA
ATOM     44  C   UNL     1      -4.090  -4.436 -12.115  1.00  0.00     0.031 C 
ATOM     45  C   UNL     1      -2.760   0.343 -11.268  1.00  0.00     0.029 A 
ATOM     46  N   UNL     1      -1.874  -0.673 -13.051  1.00  0.00    -0.354 N 
ATOM     47  C   UNL     1      -2.763  -4.800 -13.943  1.00  0.00     0.074 A 
ATOM     48  C   UNL     1      -3.670  -5.361 -12.966  1.00  0.00     0.031 C 
ATOM     49  C   UNL     1      -1.952   1.227 -11.874  1.00  0.00     0.029 A 
ATOM     50  C   UNL     1      -1.331   0.590 -13.031  1.00  0.00     0.049 A 
ATOM     51  H   UNL     1      -1.657  -1.341 -13.741  1.00  0.00     0.167 HD
ATOM     52  C   UNL     1      -2.261  -5.482 -15.000  1.00  0.00     0.037 A 
ATOM     53  C   UNL     1      -0.425   1.166 -13.844  1.00  0.00     0.037 A 
ATOM     54  C   UNL     1      -1.375  -4.914 -15.983  1.00  0.00     0.049 A 
ATOM     55  C   UNL     1       0.127   0.383 -15.003  1.00  0.00     0.074 A 
ATOM     56  C   UNL     1      -0.866  -5.505 -17.127  1.00  0.00     0.029 A 
ATOM     57  N   UNL     1      -0.860  -3.628 -15.936  1.00  0.00    -0.354 N 
ATOM     58  N   UNL     1      -0.140  -0.847 -15.373  1.00  0.00    -0.248 NA
ATOM     59  C   UNL     1       1.103   1.069 -15.862  1.00  0.00     0.031 C 
ATOM     60  C   UNL     1       0.001  -4.596 -17.741  1.00  0.00     0.029 A 
ATOM     61  C   UNL     1      -0.015  -3.417 -17.014  1.00  0.00     0.049 A 
ATOM     62  H   UNL     1      -1.064  -2.962 -15.239  1.00  0.00     0.167 HD
ATOM     63  C   UNL     1       0.608  -1.070 -16.522  1.00  0.00     0.074 A 
ATOM     64  C   UNL     1       1.328   0.156 -16.797  1.00  0.00     0.031 C 
ATOM     65  C   UNL     1       0.691  -2.189 -17.282  1.00  0.00     0.037 A 
BRANCH  52  66
ATOM     66  C   UNL     1      -2.655  -6.923 -15.149  1.00  0.00     0.057 A 
ATOM     67  C   UNL     1      -3.959  -7.304 -15.494  1.00  0.00     0.134 A 
ATOM     68  C   UNL     1      -1.708  -7.943 -14.990  1.00  0.00     0.134 A 
ATOM     69  F   UNL     1      -4.918  -6.379 -15.652  1.00  0.00    -0.206 F 
ATOM     70  C   UNL     1      -4.313  -8.646 -15.648  1.00  0.00     0.040 A 
ATOM     71  C   UNL     1      -2.042  -9.286 -15.171  1.00  0.00     0.040 A 
ATOM     72  F   UNL     1      -0.439  -7.651 -14.668  1.00  0.00    -0.206 F 
ATOM     73  C   UNL     1      -3.350  -9.641 -15.494  1.00  0.00     0.006 A 
ENDBRANCH  52  66
BRANCH  53  74
ATOM     74  C   UNL     1       0.013   2.565 -13.601  1.00  0.00     0.057 A 
ATOM     75  C   UNL     1      -0.326   3.595 -14.487  1.00  0.00     0.134 A 
ATOM     76  C   UNL     1       0.795   2.904 -12.490  1.00  0.00     0.134 A 
ATOM     77  F   UNL     1      -1.057   3.331 -15.580  1.00  0.00    -0.206 F 
ATOM     78  C   UNL     1       0.117   4.904 -14.292  1.00  0.00     0.040 A 
ATOM     79  C   UNL     1       1.221   4.215 -12.267  1.00  0.00     0.040 A 
ATOM     80  F   UNL     1       1.149   1.966 -11.599  1.00  0.00    -0.206 F 
ATOM     81  C   UNL     1       0.890   5.218 -13.176  1.00  0.00     0.006 A 
ENDBRANCH  53  74
BRANCH  65  82
ATOM     82  C   UNL     1       1.558  -2.130 -18.506  1.00  0.00     0.057 A 
ATOM     83  C   UNL     1       2.956  -2.085 -18.425  1.00  0.00     0.134 A 
ATOM     84  C   UNL     1       0.986  -2.157 -19.785  1.00  0.00     0.134 A 
ATOM     85  F   UNL     1       3.567  -2.044 -17.232  1.00  0.00    -0.206 F 
ATOM     86  C   UNL     1       3.752  -2.044 -19.572  1.00  0.00     0.040 A 
ATOM     87  C   UNL     1       1.772  -2.147 -20.938  1.00  0.00     0.040 A 
ATOM     88  F   UNL     1      -0.346  -2.210 -19.934  1.00  0.00    -0.206 F 
ATOM     89  C   UNL     1       3.159  -2.083 -20.833  1.00  0.00     0.006 A 
ENDBRANCH  65  82
ENDBRANCH  39  40
ENDBRANCH  31  34
ENDBRANCH  29  30
ENDBRANCH  28  29
ENDBRANCH  27  28
ENDBRANCH   1  27
TORSDOF 16
