REMARK SMILES Cc1ccsc1[C@@H]1[NH2+][C@@H](C(=O)NCCCCNC(=O)c2ccc(-c3c4nc(c(-c5c(F)cccc5F)c5ccc([nH]5)c(-c5c(F)cccc5F)c5nc(c(-c6c(F)cccc6F)c6ccc3[nH]6)C=C5)C=C4)cc2)CS1
REMARK SMILES IDX 15 1 14 2 13 3 12 4 10 5 11 6 9 8 7 9 8 10 75 11 74 14 6 15
REMARK SMILES IDX 1 16 2 17 3 18 4 19 5 20 16 21 17 22 18 23 19 25 20 26 21 27
REMARK SMILES IDX 73 28 22 29 72 30 23 31 24 32 25 33 66 34 26 35 71 36 65 37
REMARK SMILES IDX 67 38 27 39 70 40 64 41 63 42 28 44 54 45 37 46 53 47 38 48
REMARK SMILES IDX 41 49 52 50 68 51 39 52 40 53 51 55 69 56 42 57 29 58 30 59
REMARK SMILES IDX 35 60 31 61 32 62 34 63 36 64 33 65 55 66 56 67 61 68 57 69
REMARK SMILES IDX 58 70 60 71 62 72 59 73 43 74 44 75 49 76 45 77 46 78 48 79
REMARK SMILES IDX 50 80 47 81
REMARK H PARENT 12 7 8 12 8 13 17 24 67 43 41 54
REMARK Flexibility Score: inf
ROOT
ATOM      1  C   UNL     1       2.038  -0.180   5.515  1.00  0.00     0.023 C 
ENDROOT
BRANCH   1   2
ATOM      2  C   UNL     1       2.050  -0.058   3.983  1.00  0.00     0.023 C 
BRANCH   2   3
ATOM      3  C   UNL     1       2.983  -1.031   3.256  1.00  0.00     0.116 C 
BRANCH   3   4
ATOM      4  N   UNL     1       2.637  -2.397   3.581  1.00  0.00    -0.351 N 
ATOM      5  C   UNL     1       2.300  -3.460   2.807  1.00  0.00     0.279 C 
ATOM      6  O   UNL     1       2.050  -4.498   3.425  1.00  0.00    -0.268 OA
ATOM      7  H   UNL     1       2.648  -2.593   4.545  1.00  0.00     0.163 HD
BRANCH   5   8
ATOM      8  C   UNL     1       2.321  -3.384   1.259  1.00  0.00     0.283 C 
ATOM      9  C   UNL     1       0.173  -3.159   0.115  1.00  0.00     0.284 C 
ATOM     10  N   UNL     1       1.318  -2.425   0.691  1.00  0.00    -0.320 N 
ATOM     11  S   UNL     1       0.292  -4.888   0.627  1.00  0.00    -0.087 SA
ATOM     12  H   UNL     1       0.984  -1.810   1.432  1.00  0.00     0.348 HD
ATOM     13  H   UNL     1       1.764  -1.878  -0.046  1.00  0.00     0.348 HD
ATOM     14  C   UNL     1       2.092  -4.785   0.692  1.00  0.00     0.151 C 
BRANCH   9  15
ATOM     15  C   UNL     1       0.039  -2.982  -1.403  1.00  0.00     0.075 A 
ATOM     16  C   UNL     1      -1.266  -0.755  -1.545  1.00  0.00     0.046 C 
ATOM     17  C   UNL     1      -0.647  -1.990  -2.111  1.00  0.00    -0.030 A 
ATOM     18  C   UNL     1      -0.765  -2.320  -3.507  1.00  0.00     0.015 A 
ATOM     19  C   UNL     1      -0.097  -3.469  -3.844  1.00  0.00     0.065 A 
ATOM     20  S   UNL     1       0.739  -4.112  -2.517  1.00  0.00    -0.141 S 
ENDBRANCH   9  15
ENDBRANCH   5   8
ENDBRANCH   3   4
ENDBRANCH   2   3
ENDBRANCH   1   2
BRANCH   1  21
ATOM     21  C   UNL     1       3.388  -0.001   6.204  1.00  0.00     0.116 C 
BRANCH  21  22
ATOM     22  N   UNL     1       3.947   1.326   6.000  1.00  0.00    -0.352 N 
ATOM     23  C   UNL     1       4.398   2.239   6.920  1.00  0.00     0.251 C 
ATOM     24  H   UNL     1       4.012   1.612   5.060  1.00  0.00     0.163 HD
ATOM     25  O   UNL     1       4.684   3.379   6.557  1.00  0.00    -0.269 OA
BRANCH  23  26
ATOM     26  C   UNL     1       4.517   1.874   8.350  1.00  0.00     0.039 A 
ATOM     27  C   UNL     1       4.076   2.783   9.316  1.00  0.00     0.014 A 
ATOM     28  C   UNL     1       5.073   0.654   8.743  1.00  0.00     0.014 A 
ATOM     29  C   UNL     1       4.128   2.440  10.670  1.00  0.00     0.010 A 
ATOM     30  C   UNL     1       5.057   0.284  10.088  1.00  0.00     0.010 A 
ATOM     31  C   UNL     1       4.582   1.172  11.066  1.00  0.00    -0.014 A 
BRANCH  31  32
ATOM     32  C   UNL     1       4.566   0.756  12.495  1.00  0.00     0.031 A 
ATOM     33  C   UNL     1       5.853   0.440  13.209  1.00  0.00     0.074 A 
ATOM     34  C   UNL     1       3.389   0.614  13.137  1.00  0.00     0.049 A 
ATOM     35  N   UNL     1       6.035  -0.015  14.423  1.00  0.00    -0.248 NA
ATOM     36  C   UNL     1       7.098   0.644  12.452  1.00  0.00     0.031 C 
ATOM     37  C   UNL     1       2.068   0.860  12.554  1.00  0.00     0.029 A 
ATOM     38  N   UNL     1       3.112   0.217  14.423  1.00  0.00    -0.354 N 
ATOM     39  C   UNL     1       7.410  -0.149  14.575  1.00  0.00     0.074 A 
ATOM     40  C   UNL     1       8.011   0.209  13.308  1.00  0.00     0.031 C 
ATOM     41  C   UNL     1       1.126   0.630  13.483  1.00  0.00     0.029 A 
ATOM     42  C   UNL     1       1.768   0.176  14.712  1.00  0.00     0.049 A 
ATOM     43  H   UNL     1       3.811  -0.017  15.076  1.00  0.00     0.167 HD
ATOM     44  C   UNL     1       8.112  -0.508  15.676  1.00  0.00     0.037 A 
ATOM     45  C   UNL     1       1.127  -0.199  15.835  1.00  0.00     0.037 A 
ATOM     46  C   UNL     1       7.517  -0.860  16.939  1.00  0.00     0.049 A 
ATOM     47  C   UNL     1       1.931  -0.651  17.025  1.00  0.00     0.074 A 
ATOM     48  C   UNL     1       8.146  -1.225  18.117  1.00  0.00     0.029 A 
ATOM     49  N   UNL     1       6.153  -0.888  17.189  1.00  0.00    -0.354 N 
ATOM     50  N   UNL     1       3.232  -0.726  17.167  1.00  0.00    -0.248 NA
ATOM     51  C   UNL     1       1.175  -1.067  18.216  1.00  0.00     0.031 C 
ATOM     52  C   UNL     1       7.163  -1.515  19.068  1.00  0.00     0.029 A 
ATOM     53  C   UNL     1       5.922  -1.277  18.499  1.00  0.00     0.049 A 
ATOM     54  H   UNL     1       5.454  -0.665  16.534  1.00  0.00     0.167 HD
ATOM     55  C   UNL     1       3.449  -1.155  18.471  1.00  0.00     0.074 A 
ATOM     56  C   UNL     1       2.147  -1.310  19.083  1.00  0.00     0.031 C 
ATOM     57  C   UNL     1       4.622  -1.399  19.105  1.00  0.00     0.037 A 
BRANCH  44  58
ATOM     58  C   UNL     1       9.610  -0.520  15.572  1.00  0.00     0.057 A 
ATOM     59  C   UNL     1      10.346   0.667  15.463  1.00  0.00     0.134 A 
ATOM     60  C   UNL     1      10.329  -1.720  15.636  1.00  0.00     0.134 A 
ATOM     61  F   UNL     1       9.719   1.851  15.386  1.00  0.00    -0.206 F 
ATOM     62  C   UNL     1      11.740   0.661  15.399  1.00  0.00     0.040 A 
ATOM     63  C   UNL     1      11.725  -1.738  15.603  1.00  0.00     0.040 A 
ATOM     64  F   UNL     1       9.689  -2.894  15.749  1.00  0.00    -0.206 F 
ATOM     65  C   UNL     1      12.434  -0.545  15.479  1.00  0.00     0.006 A 
ENDBRANCH  44  58
BRANCH  45  66
ATOM     66  C   UNL     1      -0.358  -0.166  15.908  1.00  0.00     0.057 A 
ATOM     67  C   UNL     1      -1.020   0.710  16.777  1.00  0.00     0.134 A 
ATOM     68  C   UNL     1      -1.149  -1.046  15.159  1.00  0.00     0.134 A 
ATOM     69  F   UNL     1      -0.319   1.565  17.537  1.00  0.00    -0.206 F 
ATOM     70  C   UNL     1      -2.408   0.683  16.930  1.00  0.00     0.040 A 
ATOM     71  C   UNL     1      -2.540  -1.062  15.277  1.00  0.00     0.040 A 
ATOM     72  F   UNL     1      -0.581  -1.906  14.301  1.00  0.00    -0.206 F 
ATOM     73  C   UNL     1      -3.172  -0.206  16.177  1.00  0.00     0.006 A 
ENDBRANCH  45  66
BRANCH  57  74
ATOM     74  C   UNL     1       4.555  -1.798  20.551  1.00  0.00     0.057 A 
ATOM     75  C   UNL     1       4.077  -3.050  20.958  1.00  0.00     0.134 A 
ATOM     76  C   UNL     1       5.011  -0.925  21.549  1.00  0.00     0.134 A 
ATOM     77  F   UNL     1       3.613  -3.927  20.056  1.00  0.00    -0.206 F 
ATOM     78  C   UNL     1       4.029  -3.409  22.307  1.00  0.00     0.040 A 
ATOM     79  C   UNL     1       4.997  -1.285  22.896  1.00  0.00     0.040 A 
ATOM     80  F   UNL     1       5.490   0.286  21.227  1.00  0.00    -0.206 F 
ATOM     81  C   UNL     1       4.498  -2.527  23.279  1.00  0.00     0.006 A 
ENDBRANCH  57  74
ENDBRANCH  31  32
ENDBRANCH  23  26
ENDBRANCH  21  22
ENDBRANCH   1  21
TORSDOF 12
