REMARK SMILES CCCN1C(=O)/C(=C\c2ccc(OC)c(OC)c2C(=O)NCCCCNC(=O)c2ccc(-c3c4nc(c(-c5c(F)cccc5F)c5ccc([nH]5)c(-c5c(F)cccc5F)c5nc(c(-c6c(F)cccc6F)c6ccc3[nH]6)C=C5)C=C4)cc2)S/C1=[NH+]\c1nccs1
REMARK SMILES IDX 23 1 22 2 21 3 19 4 20 5 18 7 9 8 10 9 11 10 15 11 12 12
REMARK SMILES IDX 8 13 4 14 5 15 84 16 6 17 7 18 83 19 85 20 3 22 2 23 1 24
REMARK SMILES IDX 86 25 87 26 90 27 88 28 89 29 16 30 17 31 13 32 14 33 24 34
REMARK SMILES IDX 25 35 26 36 27 37 28 39 29 40 30 41 82 42 31 43 81 44 32 45
REMARK SMILES IDX 33 46 34 47 75 48 35 49 80 50 74 51 76 52 36 53 79 54 73 55
REMARK SMILES IDX 72 56 37 58 63 59 46 60 62 61 47 62 50 63 61 64 77 65 48 66
REMARK SMILES IDX 49 67 60 69 78 70 51 71 38 72 39 73 44 74 40 75 41 76 43 77
REMARK SMILES IDX 45 78 42 79 64 80 65 81 70 82 66 83 67 84 69 85 71 86 68 87
REMARK SMILES IDX 52 88 53 89 58 90 54 91 55 92 57 93 59 94 56 95
REMARK H PARENT 21 6 85 21 26 38 76 57 50 68
REMARK Flexibility Score: inf
ROOT
ATOM      1  C   UNL     1       0.986   2.629  -7.108  1.00  0.00     0.023 C 
ENDROOT
BRANCH   1   2
ATOM      2  C   UNL     1       0.485   3.345  -5.862  1.00  0.00     0.116 C 
BRANCH   2   3
ATOM      3  N   UNL     1       1.511   3.755  -4.928  1.00  0.00    -0.352 N 
ATOM      4  C   UNL     1       1.423   4.660  -3.896  1.00  0.00     0.255 C 
ATOM      5  O   UNL     1       2.244   4.563  -2.985  1.00  0.00    -0.269 OA
ATOM      6  H   UNL     1       2.390   3.328  -5.047  1.00  0.00     0.163 HD
BRANCH   4   7
ATOM      7  C   UNL     1       0.372   5.712  -3.844  1.00  0.00     0.092 A 
ATOM      8  C   UNL     1      -0.994   5.361  -3.651  1.00  0.00    -0.007 A 
ATOM      9  C   UNL     1      -1.972   6.366  -3.663  1.00  0.00     0.013 A 
ATOM     10  C   UNL     1      -1.610   7.705  -3.779  1.00  0.00     0.051 A 
ATOM     11  C   UNL     1       0.739   7.077  -3.959  1.00  0.00     0.174 A 
ATOM     12  C   UNL     1      -0.267   8.062  -3.890  1.00  0.00     0.161 A 
BRANCH   8  13
ATOM     13  C   UNL     1      -1.506   3.981  -3.532  1.00  0.00     0.032 C 
ATOM     14  N   UNL     1       0.311   2.146  -1.051  1.00  0.00    -0.219 N 
ATOM     15  C   UNL     1      -0.291   3.334  -1.421  1.00  0.00     0.321 C 
ATOM     16  C   UNL     1      -0.129   0.997  -1.673  1.00  0.00     0.271 C 
ATOM     17  O   UNL     1      -0.191   4.411  -0.870  1.00  0.00    -0.250 OA
ATOM     18  C   UNL     1      -1.154   3.085  -2.603  1.00  0.00     0.100 C 
ATOM     19  S   UNL     1      -1.466   1.393  -2.734  1.00  0.00    -0.012 SA
ATOM     20  N   UNL     1       0.432  -0.134  -1.417  1.00  0.00    -0.228 N 
ATOM     21  H   UNL     1       1.226  -0.142  -0.836  1.00  0.00     0.268 HD
BRANCH  14  22
ATOM     22  C   UNL     1       1.351   2.160  -0.033  1.00  0.00     0.206 C 
BRANCH  22  23
ATOM     23  C   UNL     1       0.875   1.661   1.337  1.00  0.00     0.035 C 
ATOM     24  C   UNL     1       1.018   0.156   1.528  1.00  0.00     0.007 C 
ENDBRANCH  22  23
ENDBRANCH  14  22
BRANCH  20  25
ATOM     25  C   UNL     1      -0.017  -1.310  -1.908  1.00  0.00     0.319 A 
ATOM     26  N   UNL     1      -0.779  -1.564  -2.947  1.00  0.00    -0.101 NA
ATOM     27  S   UNL     1       0.520  -2.740  -1.073  1.00  0.00    -0.070 S 
ATOM     28  C   UNL     1      -1.007  -2.923  -3.072  1.00  0.00     0.219 A 
ATOM     29  C   UNL     1      -0.381  -3.718  -2.142  1.00  0.00     0.110 A 
ENDBRANCH  20  25
ENDBRANCH   8  13
BRANCH  11  30
ATOM     30  O   UNL     1       1.974   7.537  -4.353  1.00  0.00    -0.492 OA
ATOM     31  C   UNL     1       3.091   7.164  -3.553  1.00  0.00     0.278 C 
ENDBRANCH  11  30
BRANCH  12  32
ATOM     32  O   UNL     1      -0.045   9.413  -4.009  1.00  0.00    -0.493 OA
ATOM     33  C   UNL     1       0.895   9.920  -3.061  1.00  0.00     0.278 C 
ENDBRANCH  12  32
ENDBRANCH   4   7
ENDBRANCH   2   3
ENDBRANCH   1   2
BRANCH   1  34
ATOM     34  C   UNL     1       1.951   1.460  -6.896  1.00  0.00     0.023 C 
BRANCH  34  35
ATOM     35  C   UNL     1       1.583   0.415  -5.843  1.00  0.00     0.116 C 
BRANCH  35  36
ATOM     36  N   UNL     1       0.337  -0.274  -6.116  1.00  0.00    -0.352 N 
ATOM     37  C   UNL     1       0.025  -1.612  -6.146  1.00  0.00     0.251 C 
ATOM     38  H   UNL     1      -0.420   0.323  -6.315  1.00  0.00     0.163 HD
ATOM     39  O   UNL     1      -1.101  -1.942  -6.522  1.00  0.00    -0.269 OA
BRANCH  37  40
ATOM     40  C   UNL     1       0.995  -2.679  -5.776  1.00  0.00     0.039 A 
ATOM     41  C   UNL     1       0.851  -3.933  -6.388  1.00  0.00     0.014 A 
ATOM     42  C   UNL     1       1.977  -2.518  -4.794  1.00  0.00     0.014 A 
ATOM     43  C   UNL     1       1.726  -4.979  -6.080  1.00  0.00     0.010 A 
ATOM     44  C   UNL     1       2.890  -3.539  -4.528  1.00  0.00     0.010 A 
ATOM     45  C   UNL     1       2.782  -4.771  -5.181  1.00  0.00    -0.014 A 
BRANCH  45  46
ATOM     46  C   UNL     1       3.850  -5.787  -5.017  1.00  0.00     0.031 A 
ATOM     47  C   UNL     1       4.034  -6.532  -3.729  1.00  0.00     0.074 A 
ATOM     48  C   UNL     1       4.717  -5.952  -6.034  1.00  0.00     0.049 A 
ATOM     49  N   UNL     1       4.917  -7.450  -3.427  1.00  0.00    -0.248 NA
ATOM     50  C   UNL     1       3.124  -6.189  -2.626  1.00  0.00     0.031 C 
ATOM     51  C   UNL     1       4.677  -5.212  -7.299  1.00  0.00     0.029 A 
ATOM     52  N   UNL     1       5.807  -6.772  -6.164  1.00  0.00    -0.354 N 
ATOM     53  C   UNL     1       4.666  -7.801  -2.106  1.00  0.00     0.074 A 
ATOM     54  C   UNL     1       3.579  -6.961  -1.649  1.00  0.00     0.031 C 
ATOM     55  C   UNL     1       5.690  -5.618  -8.078  1.00  0.00     0.029 A 
ATOM     56  C   UNL     1       6.461  -6.627  -7.363  1.00  0.00     0.049 A 
ATOM     57  H   UNL     1       6.093  -7.404  -5.465  1.00  0.00     0.167 HD
ATOM     58  C   UNL     1       5.282  -8.746  -1.355  1.00  0.00     0.037 A 
ATOM     59  C   UNL     1       7.561  -7.240  -7.834  1.00  0.00     0.037 A 
ATOM     60  C   UNL     1       6.381  -9.555  -1.825  1.00  0.00     0.049 A 
ATOM     61  C   UNL     1       8.213  -8.295  -6.991  1.00  0.00     0.074 A 
ATOM     62  C   UNL     1       7.042 -10.582  -1.172  1.00  0.00     0.029 A 
ATOM     63  N   UNL     1       6.994  -9.412  -3.063  1.00  0.00    -0.354 N 
ATOM     64  N   UNL     1       7.898  -8.696  -5.783  1.00  0.00    -0.248 NA
ATOM     65  C   UNL     1       9.356  -8.999  -7.583  1.00  0.00     0.031 C 
ATOM     66  C   UNL     1       8.085 -11.025  -1.995  1.00  0.00     0.029 A 
ATOM     67  C   UNL     1       8.039 -10.314  -3.184  1.00  0.00     0.049 A 
ATOM     68  H   UNL     1       6.726  -8.764  -3.753  1.00  0.00     0.167 HD
ATOM     69  C   UNL     1       8.784  -9.719  -5.479  1.00  0.00     0.074 A 
ATOM     70  C   UNL     1       9.637  -9.886  -6.639  1.00  0.00     0.031 C 
ATOM     71  C   UNL     1       8.882 -10.456  -4.345  1.00  0.00     0.037 A 
BRANCH  58  72
ATOM     72  C   UNL     1       4.785  -8.960   0.048  1.00  0.00     0.057 A 
ATOM     73  C   UNL     1       3.529  -9.526   0.308  1.00  0.00     0.134 A 
ATOM     74  C   UNL     1       5.589  -8.649   1.153  1.00  0.00     0.134 A 
ATOM     75  F   UNL     1       2.704  -9.842  -0.701  1.00  0.00    -0.206 F 
ATOM     76  C   UNL     1       3.082  -9.753   1.612  1.00  0.00     0.040 A 
ATOM     77  C   UNL     1       5.163  -8.896   2.461  1.00  0.00     0.040 A 
ATOM     78  F   UNL     1       6.806  -8.113   0.982  1.00  0.00    -0.206 F 
ATOM     79  C   UNL     1       3.904  -9.444   2.694  1.00  0.00     0.006 A 
ENDBRANCH  58  72
BRANCH  59  80
ATOM     80  C   UNL     1       8.066  -6.904  -9.188  1.00  0.00     0.057 A 
ATOM     81  C   UNL     1       7.930  -7.802 -10.252  1.00  0.00     0.134 A 
ATOM     82  C   UNL     1       8.658  -5.665  -9.461  1.00  0.00     0.134 A 
ATOM     83  F   UNL     1       7.379  -9.008 -10.051  1.00  0.00    -0.206 F 
ATOM     84  C   UNL     1       8.377  -7.487 -11.537  1.00  0.00     0.040 A 
ATOM     85  C   UNL     1       9.087  -5.327 -10.746  1.00  0.00     0.040 A 
ATOM     86  F   UNL     1       8.802  -4.753  -8.488  1.00  0.00    -0.206 F 
ATOM     87  C   UNL     1       8.951  -6.243 -11.787  1.00  0.00     0.006 A 
ENDBRANCH  59  80
BRANCH  71  88
ATOM     88  C   UNL     1       9.934 -11.526  -4.329  1.00  0.00     0.057 A 
ATOM     89  C   UNL     1      11.301 -11.222  -4.269  1.00  0.00     0.134 A 
ATOM     90  C   UNL     1       9.573 -12.879  -4.375  1.00  0.00     0.134 A 
ATOM     91  F   UNL     1      11.713  -9.945  -4.237  1.00  0.00    -0.206 F 
ATOM     92  C   UNL     1      12.272 -12.224  -4.296  1.00  0.00     0.040 A 
ATOM     93  C   UNL     1      10.534 -13.890  -4.372  1.00  0.00     0.040 A 
ATOM     94  F   UNL     1       8.282 -13.239  -4.424  1.00  0.00    -0.206 F 
ATOM     95  C   UNL     1      11.888 -13.563  -4.343  1.00  0.00     0.006 A 
ENDBRANCH  71  88
ENDBRANCH  45  46
ENDBRANCH  37  40
ENDBRANCH  35  36
ENDBRANCH  34  35
ENDBRANCH   1  34
TORSDOF 17
