REMARK SMILES C[C@H]1C[NH+](CC[C@@H]2CCC[C@]2([NH3+])C(=O)NCCCCNC(=O)c2ccc(-c3c4nc(c(-c5c(F)cccc5F)c5ccc([nH]5)c(-c5c(F)cccc5F)c5nc(c(-c6c(F)cccc6F)c6ccc3[nH]6)C=C5)C=C4)cc2)C[C@H](C)O1
REMARK SMILES IDX 17 1 16 2 15 3 13 4 14 5 11 7 7 8 8 9 9 10 10 11 6 12 5 13
REMARK SMILES IDX 4 14 1 15 2 16 3 17 80 18 78 19 77 20 79 22 12 23 18 27
REMARK SMILES IDX 19 28 20 29 21 30 22 32 23 33 24 34 76 35 25 36 75 37 26 38
REMARK SMILES IDX 27 39 28 40 69 41 29 42 74 43 68 44 70 45 30 46 73 47 67 48
REMARK SMILES IDX 66 49 31 51 57 52 40 53 56 54 41 55 44 56 55 57 71 58 42 59
REMARK SMILES IDX 43 60 54 62 72 63 45 64 32 65 33 66 38 67 34 68 35 69 37 70
REMARK SMILES IDX 39 71 36 72 58 73 59 74 64 75 60 76 61 77 63 78 65 79 62 80
REMARK SMILES IDX 46 81 47 82 52 83 48 84 49 85 51 86 53 87 50 88
REMARK H PARENT 15 6 4 21 12 24 12 25 12 26 20 31 70 50 44 61
REMARK Flexibility Score: inf
ROOT
ATOM      1  C   UNL     1       3.136   4.826   0.977  1.00  0.00     0.023 C 
ENDROOT
BRANCH   1   2
ATOM      2  C   UNL     1       2.856   3.777   2.075  1.00  0.00     0.116 C 
BRANCH   2   3
ATOM      3  N   UNL     1       1.828   4.237   3.022  1.00  0.00    -0.351 N 
ATOM      4  C   UNL     1       0.930   3.373   3.605  1.00  0.00     0.281 C 
ATOM      5  O   UNL     1       1.277   2.227   3.911  1.00  0.00    -0.268 OA
ATOM      6  H   UNL     1       1.782   5.194   3.246  1.00  0.00     0.163 HD
BRANCH   4   7
ATOM      7  C   UNL     1      -0.569   3.853   3.872  1.00  0.00     0.177 C 
ATOM      8  C   UNL     1      -1.230   4.893   2.939  1.00  0.00     0.066 C 
ATOM      9  C   UNL     1      -0.622   6.217   3.425  1.00  0.00     0.011 C 
ATOM     10  C   UNL     1      -0.508   6.045   4.948  1.00  0.00     0.008 C 
ATOM     11  C   UNL     1      -0.674   4.553   5.233  1.00  0.00     0.079 C 
BRANCH   8  12
ATOM     12  C   UNL     1      -1.401   4.713   1.409  1.00  0.00     0.072 C 
BRANCH  12  13
ATOM     13  C   UNL     1      -0.230   4.323   0.504  1.00  0.00     0.262 C 
BRANCH  13  14
ATOM     14  N   UNL     1       0.153   2.941   0.166  1.00  0.00    -0.331 N 
ATOM     15  C   UNL     1       0.532   0.860  -3.024  1.00  0.00     0.045 C 
ATOM     16  C   UNL     1       0.653   1.249  -1.560  1.00  0.00     0.170 C 
ATOM     17  C   UNL     1      -0.048   2.594  -1.256  1.00  0.00     0.294 C 
ATOM     18  O   UNL     1       0.070   0.182  -0.794  1.00  0.00    -0.364 OA
ATOM     19  C   UNL     1       0.125   0.432   0.615  1.00  0.00     0.170 C 
ATOM     20  C   UNL     1      -0.398   1.847   0.968  1.00  0.00     0.294 C 
ATOM     21  H   UNL     1       1.143   2.997   0.404  1.00  0.00     0.348 HD
ATOM     22  C   UNL     1       1.517   0.120   1.169  1.00  0.00     0.045 C 
ENDBRANCH  13  14
ENDBRANCH  12  13
ENDBRANCH   8  12
BRANCH   7  23
ATOM     23  N   UNL     1      -1.441   2.652   3.962  1.00  0.00    -0.345 N 
ATOM     24  H   UNL     1      -2.403   2.943   4.133  1.00  0.00     0.345 HD
ATOM     25  H   UNL     1      -1.124   2.060   4.729  1.00  0.00     0.345 HD
ATOM     26  H   UNL     1      -1.393   2.131   3.087  1.00  0.00     0.345 HD
ENDBRANCH   7  23
ENDBRANCH   4   7
ENDBRANCH   2   3
ENDBRANCH   1   2
BRANCH   1  27
ATOM     27  C   UNL     1       4.497   4.738   0.296  1.00  0.00     0.023 C 
BRANCH  27  28
ATOM     28  C   UNL     1       4.707   3.519  -0.597  1.00  0.00     0.116 C 
BRANCH  28  29
ATOM     29  N   UNL     1       4.089   3.616  -1.919  1.00  0.00    -0.352 N 
ATOM     30  C   UNL     1       4.656   3.402  -3.162  1.00  0.00     0.251 C 
ATOM     31  H   UNL     1       3.138   3.868  -1.925  1.00  0.00     0.163 HD
ATOM     32  O   UNL     1       3.997   3.562  -4.188  1.00  0.00    -0.269 OA
BRANCH  30  33
ATOM     33  C   UNL     1       6.089   3.036  -3.257  1.00  0.00     0.039 A 
ATOM     34  C   UNL     1       6.937   3.788  -4.076  1.00  0.00     0.014 A 
ATOM     35  C   UNL     1       6.611   2.022  -2.454  1.00  0.00     0.014 A 
ATOM     36  C   UNL     1       8.323   3.615  -3.980  1.00  0.00     0.010 A 
ATOM     37  C   UNL     1       7.989   1.920  -2.289  1.00  0.00     0.010 A 
ATOM     38  C   UNL     1       8.863   2.731  -3.030  1.00  0.00    -0.014 A 
BRANCH  38  39
ATOM     39  C   UNL     1      10.326   2.663  -2.762  1.00  0.00     0.031 A 
ATOM     40  C   UNL     1      11.069   1.367  -2.940  1.00  0.00     0.074 A 
ATOM     41  C   UNL     1      10.969   3.735  -2.254  1.00  0.00     0.049 A 
ATOM     42  N   UNL     1      12.312   1.077  -2.647  1.00  0.00    -0.248 NA
ATOM     43  C   UNL     1      10.301   0.235  -3.483  1.00  0.00     0.031 C 
ATOM     44  C   UNL     1      10.359   5.035  -1.964  1.00  0.00     0.029 A 
ATOM     45  N   UNL     1      12.280   3.897  -1.876  1.00  0.00    -0.354 N 
ATOM     46  C   UNL     1      12.464  -0.273  -2.941  1.00  0.00     0.074 A 
ATOM     47  C   UNL     1      11.174  -0.756  -3.385  1.00  0.00     0.031 C 
ATOM     48  C   UNL     1      11.298   5.867  -1.484  1.00  0.00     0.029 A 
ATOM     49  C   UNL     1      12.567   5.153  -1.395  1.00  0.00     0.049 A 
ATOM     50  H   UNL     1      12.952   3.180  -1.943  1.00  0.00     0.167 HD
ATOM     51  C   UNL     1      13.580  -1.036  -2.874  1.00  0.00     0.037 A 
ATOM     52  C   UNL     1      13.721   5.671  -0.932  1.00  0.00     0.037 A 
ATOM     53  C   UNL     1      14.875  -0.548  -2.480  1.00  0.00     0.049 A 
ATOM     54  C   UNL     1      14.955   4.812  -0.896  1.00  0.00     0.074 A 
ATOM     55  C   UNL     1      16.082  -1.225  -2.458  1.00  0.00     0.029 A 
ATOM     56  N   UNL     1      15.132   0.742  -2.043  1.00  0.00    -0.354 N 
ATOM     57  N   UNL     1      15.099   3.558  -1.250  1.00  0.00    -0.248 NA
ATOM     58  C   UNL     1      16.189   5.442  -0.402  1.00  0.00     0.031 C 
ATOM     59  C   UNL     1      17.064  -0.353  -1.977  1.00  0.00     0.029 A 
ATOM     60  C   UNL     1      16.475   0.878  -1.736  1.00  0.00     0.049 A 
ATOM     61  H   UNL     1      14.459   1.456  -1.962  1.00  0.00     0.167 HD
ATOM     62  C   UNL     1      16.441   3.258  -1.050  1.00  0.00     0.074 A 
ATOM     63  C   UNL     1      17.071   4.464  -0.555  1.00  0.00     0.031 C 
ATOM     64  C   UNL     1      17.092   2.088  -1.259  1.00  0.00     0.037 A 
BRANCH  51  65
ATOM     65  C   UNL     1      13.449  -2.482  -3.253  1.00  0.00     0.057 A 
ATOM     66  C   UNL     1      13.234  -2.880  -4.579  1.00  0.00     0.134 A 
ATOM     67  C   UNL     1      13.558  -3.489  -2.286  1.00  0.00     0.134 A 
ATOM     68  F   UNL     1      13.108  -1.964  -5.552  1.00  0.00    -0.206 F 
ATOM     69  C   UNL     1      13.100  -4.226  -4.925  1.00  0.00     0.040 A 
ATOM     70  C   UNL     1      13.453  -4.839  -2.624  1.00  0.00     0.040 A 
ATOM     71  F   UNL     1      13.771  -3.178  -0.998  1.00  0.00    -0.206 F 
ATOM     72  C   UNL     1      13.216  -5.210  -3.946  1.00  0.00     0.006 A 
ENDBRANCH  51  65
BRANCH  52  73
ATOM     73  C   UNL     1      13.783   7.090  -0.497  1.00  0.00     0.057 A 
ATOM     74  C   UNL     1      14.468   8.044  -1.260  1.00  0.00     0.134 A 
ATOM     75  C   UNL     1      13.184   7.524   0.691  1.00  0.00     0.134 A 
ATOM     76  F   UNL     1      15.081   7.684  -2.397  1.00  0.00    -0.206 F 
ATOM     77  C   UNL     1      14.573   9.373  -0.848  1.00  0.00     0.040 A 
ATOM     78  C   UNL     1      13.261   8.856   1.103  1.00  0.00     0.040 A 
ATOM     79  F   UNL     1      12.508   6.661   1.463  1.00  0.00    -0.206 F 
ATOM     80  C   UNL     1      13.964   9.783   0.336  1.00  0.00     0.006 A 
ENDBRANCH  52  73
BRANCH  64  81
ATOM     81  C   UNL     1      18.567   2.064  -0.992  1.00  0.00     0.057 A 
ATOM     82  C   UNL     1      19.082   2.062   0.310  1.00  0.00     0.134 A 
ATOM     83  C   UNL     1      19.481   1.998  -2.051  1.00  0.00     0.134 A 
ATOM     84  F   UNL     1      18.259   2.138   1.367  1.00  0.00    -0.206 F 
ATOM     85  C   UNL     1      20.457   2.011   0.549  1.00  0.00     0.040 A 
ATOM     86  C   UNL     1      20.856   1.922  -1.825  1.00  0.00     0.040 A 
ATOM     87  F   UNL     1      19.051   1.990  -3.322  1.00  0.00    -0.206 F 
ATOM     88  C   UNL     1      21.347   1.933  -0.521  1.00  0.00     0.006 A 
ENDBRANCH  64  81
ENDBRANCH  38  39
ENDBRANCH  30  33
ENDBRANCH  28  29
ENDBRANCH  27  28
ENDBRANCH   1  27
TORSDOF 15
