REMARK SMILES Cc1[nH]cnc1C[NH+]1CCC(Oc2cccc(F)c2)(C(=O)NCCCCNC(=O)c2ccc(-c3c4nc(c(-c5c(F)cccc5F)c5ccc([nH]5)c(-c5c(F)cccc5F)c5nc(c(-c6c(F)cccc6F)c6ccc3[nH]6)C=C5)C=C4)cc2)CC1
REMARK SMILES IDX 24 1 23 2 22 3 20 4 21 5 11 7 8 8 9 9 85 10 10 12 84 13 7 14
REMARK SMILES IDX 6 15 1 16 2 17 3 18 4 19 5 21 12 22 13 23 14 24 19 25 15 26
REMARK SMILES IDX 17 27 16 28 18 29 25 30 26 31 27 32 28 33 29 35 30 36 31 37
REMARK SMILES IDX 83 38 32 39 82 40 33 41 34 42 35 43 76 44 36 45 81 46 75 47
REMARK SMILES IDX 77 48 37 49 80 50 74 51 73 52 38 54 64 55 47 56 63 57 48 58
REMARK SMILES IDX 51 59 62 60 78 61 49 62 50 63 61 65 79 66 52 67 39 68 40 69
REMARK SMILES IDX 45 70 41 71 42 72 44 73 46 74 43 75 65 76 66 77 71 78 67 79
REMARK SMILES IDX 68 80 70 81 72 82 69 83 53 84 54 85 59 86 55 87 56 88 58 89
REMARK SMILES IDX 60 90 57 91
REMARK H PARENT 22 6 8 11 3 20 27 34 77 53 51 64
REMARK Flexibility Score: inf
ROOT
ATOM      1  C   UNL     1       0.229  -1.386   6.404  1.00  0.00     0.023 C 
ENDROOT
BRANCH   1   2
ATOM      2  C   UNL     1      -1.080  -2.164   6.301  1.00  0.00     0.116 C 
BRANCH   2   3
ATOM      3  N   UNL     1      -1.929  -1.639   5.250  1.00  0.00    -0.353 N 
ATOM      4  C   UNL     1      -2.339  -2.205   4.074  1.00  0.00     0.264 C 
ATOM      5  O   UNL     1      -3.176  -1.558   3.437  1.00  0.00    -0.270 OA
ATOM      6  H   UNL     1      -2.264  -0.727   5.408  1.00  0.00     0.163 HD
BRANCH   4   7
ATOM      7  C   UNL     1      -1.792  -3.584   3.595  1.00  0.00     0.197 C 
ATOM      8  N   UNL     1      -0.482  -3.133   1.015  1.00  0.00    -0.330 N 
ATOM      9  C   UNL     1       0.126  -2.624   2.242  1.00  0.00     0.267 C 
ATOM     10  C   UNL     1      -1.950  -3.116   1.085  1.00  0.00     0.267 C 
ATOM     11  H   UNL     1      -0.201  -4.110   0.934  1.00  0.00     0.348 HD
ATOM     12  C   UNL     1      -0.267  -3.538   3.396  1.00  0.00     0.120 C 
ATOM     13  C   UNL     1      -2.458  -3.970   2.256  1.00  0.00     0.120 C 
BRANCH   8  14
ATOM     14  C   UNL     1       0.036  -2.468  -0.200  1.00  0.00     0.321 C 
BRANCH  14  15
ATOM     15  C   UNL     1      -0.124  -0.974  -0.205  1.00  0.00     0.115 A 
ATOM     16  C   UNL     1       2.309  -0.009   0.049  1.00  0.00     0.066 C 
ATOM     17  C   UNL     1       0.836   0.020  -0.086  1.00  0.00     0.040 A 
ATOM     18  N   UNL     1       0.128   1.197  -0.112  1.00  0.00    -0.348 N 
ATOM     19  C   UNL     1      -1.190   0.890  -0.269  1.00  0.00     0.197 A 
ATOM     20  H   UNL     1       0.507   2.102  -0.031  1.00  0.00     0.167 HD
ATOM     21  N   UNL     1      -1.371  -0.404  -0.359  1.00  0.00    -0.236 NA
ENDBRANCH  14  15
ENDBRANCH   8  14
BRANCH   7  22
ATOM     22  O   UNL     1      -2.234  -4.436   4.690  1.00  0.00    -0.477 OA
BRANCH  22  23
ATOM     23  C   UNL     1      -2.019  -5.776   4.592  1.00  0.00     0.123 A 
ATOM     24  C   UNL     1      -0.766  -6.333   4.847  1.00  0.00     0.046 A 
ATOM     25  C   UNL     1      -3.120  -6.601   4.379  1.00  0.00     0.085 A 
ATOM     26  C   UNL     1      -0.587  -7.715   4.782  1.00  0.00     0.007 A 
ATOM     27  C   UNL     1      -2.937  -7.977   4.336  1.00  0.00     0.126 A 
ATOM     28  C   UNL     1      -1.678  -8.541   4.517  1.00  0.00     0.039 A 
ATOM     29  F   UNL     1      -3.990  -8.777   4.124  1.00  0.00    -0.207 F 
ENDBRANCH  22  23
ENDBRANCH   7  22
ENDBRANCH   4   7
ENDBRANCH   2   3
ENDBRANCH   1   2
BRANCH   1  30
ATOM     30  C   UNL     1       0.075   0.059   6.876  1.00  0.00     0.023 C 
BRANCH  30  31
ATOM     31  C   UNL     1      -0.647   0.231   8.208  1.00  0.00     0.116 C 
BRANCH  31  32
ATOM     32  N   UNL     1      -0.019  -0.509   9.292  1.00  0.00    -0.352 N 
ATOM     33  C   UNL     1       0.281  -0.096  10.566  1.00  0.00     0.251 C 
ATOM     34  H   UNL     1       0.226  -1.439   9.082  1.00  0.00     0.163 HD
ATOM     35  O   UNL     1       0.946  -0.816  11.306  1.00  0.00    -0.269 OA
BRANCH  33  36
ATOM     36  C   UNL     1      -0.165   1.233  11.034  1.00  0.00     0.039 A 
ATOM     37  C   UNL     1       0.744   2.042  11.719  1.00  0.00     0.014 A 
ATOM     38  C   UNL     1      -1.462   1.688  10.783  1.00  0.00     0.014 A 
ATOM     39  C   UNL     1       0.374   3.335  12.087  1.00  0.00     0.010 A 
ATOM     40  C   UNL     1      -1.802   3.006  11.079  1.00  0.00     0.010 A 
ATOM     41  C   UNL     1      -0.886   3.844  11.730  1.00  0.00    -0.014 A 
BRANCH  41  42
ATOM     42  C   UNL     1      -1.238   5.260  12.001  1.00  0.00     0.031 A 
ATOM     43  C   UNL     1      -2.369   5.607  12.928  1.00  0.00     0.074 A 
ATOM     44  C   UNL     1      -0.561   6.239  11.369  1.00  0.00     0.049 A 
ATOM     45  N   UNL     1      -2.820   6.787  13.270  1.00  0.00    -0.248 NA
ATOM     46  C   UNL     1      -3.104   4.485  13.532  1.00  0.00     0.031 C 
ATOM     47  C   UNL     1       0.519   6.029  10.403  1.00  0.00     0.029 A 
ATOM     48  N   UNL     1      -0.678   7.604  11.444  1.00  0.00    -0.354 N 
ATOM     49  C   UNL     1      -3.890   6.550  14.123  1.00  0.00     0.074 A 
ATOM     50  C   UNL     1      -4.059   5.115  14.201  1.00  0.00     0.031 C 
ATOM     51  C   UNL     1       0.992   7.220  10.008  1.00  0.00     0.029 A 
ATOM     52  C   UNL     1       0.224   8.278  10.657  1.00  0.00     0.049 A 
ATOM     53  H   UNL     1      -1.346   8.058  12.008  1.00  0.00     0.167 HD
ATOM     54  C   UNL     1      -4.644   7.447  14.801  1.00  0.00     0.037 A 
ATOM     55  C   UNL     1       0.415   9.599  10.476  1.00  0.00     0.037 A 
ATOM     56  C   UNL     1      -4.460   8.874  14.734  1.00  0.00     0.049 A 
ATOM     57  C   UNL     1      -0.442  10.575  11.231  1.00  0.00     0.074 A 
ATOM     58  C   UNL     1      -5.133   9.860  15.434  1.00  0.00     0.029 A 
ATOM     59  N   UNL     1      -3.544   9.518  13.917  1.00  0.00    -0.354 N 
ATOM     60  N   UNL     1      -1.403  10.335  12.090  1.00  0.00    -0.248 NA
ATOM     61  C   UNL     1      -0.188  12.003  10.995  1.00  0.00     0.031 C 
ATOM     62  C   UNL     1      -4.664  11.102  14.999  1.00  0.00     0.029 A 
ATOM     63  C   UNL     1      -3.656  10.891  14.072  1.00  0.00     0.049 A 
ATOM     64  H   UNL     1      -2.907   9.067  13.316  1.00  0.00     0.167 HD
ATOM     65  C   UNL     1      -1.859  11.578  12.508  1.00  0.00     0.074 A 
ATOM     66  C   UNL     1      -1.054  12.570  11.825  1.00  0.00     0.031 C 
ATOM     67  C   UNL     1      -2.858  11.870  13.377  1.00  0.00     0.037 A 
BRANCH  54  68
ATOM     68  C   UNL     1      -5.735   6.917  15.687  1.00  0.00     0.057 A 
ATOM     69  C   UNL     1      -7.082   7.151  15.383  1.00  0.00     0.134 A 
ATOM     70  C   UNL     1      -5.451   6.234  16.877  1.00  0.00     0.134 A 
ATOM     71  F   UNL     1      -7.425   7.804  14.263  1.00  0.00    -0.206 F 
ATOM     72  C   UNL     1      -8.106   6.736  16.237  1.00  0.00     0.040 A 
ATOM     73  C   UNL     1      -6.468   5.788  17.725  1.00  0.00     0.040 A 
ATOM     74  F   UNL     1      -4.182   5.967  17.223  1.00  0.00    -0.206 F 
ATOM     75  C   UNL     1      -7.800   6.050  17.410  1.00  0.00     0.006 A 
ENDBRANCH  54  68
BRANCH  55  76
ATOM     76  C   UNL     1       1.490  10.064   9.565  1.00  0.00     0.057 A 
ATOM     77  C   UNL     1       1.406   9.881   8.179  1.00  0.00     0.134 A 
ATOM     78  C   UNL     1       2.650  10.665  10.066  1.00  0.00     0.134 A 
ATOM     79  F   UNL     1       0.324   9.302   7.637  1.00  0.00    -0.206 F 
ATOM     80  C   UNL     1       2.445  10.258   7.327  1.00  0.00     0.040 A 
ATOM     81  C   UNL     1       3.686  11.071   9.224  1.00  0.00     0.040 A 
ATOM     82  F   UNL     1       2.782  10.883  11.383  1.00  0.00    -0.206 F 
ATOM     83  C   UNL     1       3.589  10.858   7.850  1.00  0.00     0.006 A 
ENDBRANCH  55  76
BRANCH  67  84
ATOM     84  C   UNL     1      -3.143  13.320  13.644  1.00  0.00     0.057 A 
ATOM     85  C   UNL     1      -2.870  13.885  14.897  1.00  0.00     0.134 A 
ATOM     86  C   UNL     1      -3.749  14.140  12.684  1.00  0.00     0.134 A 
ATOM     87  F   UNL     1      -2.301  13.152  15.866  1.00  0.00    -0.206 F 
ATOM     88  C   UNL     1      -3.200  15.209  15.188  1.00  0.00     0.040 A 
ATOM     89  C   UNL     1      -4.057  15.474  12.954  1.00  0.00     0.040 A 
ATOM     90  F   UNL     1      -4.027  13.664  11.461  1.00  0.00    -0.206 F 
ATOM     91  C   UNL     1      -3.792  16.009  14.213  1.00  0.00     0.006 A 
ENDBRANCH  67  84
ENDBRANCH  41  42
ENDBRANCH  33  36
ENDBRANCH  31  32
ENDBRANCH  30  31
ENDBRANCH   1  30
TORSDOF 15
