REMARK SMILES Cc1c(Cl)cc2c(c1C)O[C@H](C(F)(F)F)C(C(=O)NCCCCNC(=O)c1ccc(-c3c4nc(c(-c5c(F)cccc5F)c5ccc([nH]5)c(-c5c(F)cccc5F)c5nc(c(-c6c(F)cccc6F)c6ccc3[nH]6)C=C5)C=C4)cc1)=C2
REMARK SMILES IDX 22 1 21 2 20 3 19 4 17 5 18 6 16 8 1 9 2 10 3 11 8 12 4 13
REMARK SMILES IDX 5 14 7 15 9 16 6 17 10 18 81 19 11 20 12 21 13 22 14 23
REMARK SMILES IDX 15 24 23 25 24 26 25 27 26 29 27 30 28 31 80 32 29 33 79 34
REMARK SMILES IDX 30 35 31 36 32 37 73 38 33 39 78 40 72 41 74 42 34 43 77 44
REMARK SMILES IDX 71 45 70 46 35 48 61 49 44 50 60 51 45 52 48 53 59 54 75 55
REMARK SMILES IDX 46 56 47 57 58 59 76 60 49 61 36 62 37 63 42 64 38 65 39 66
REMARK SMILES IDX 41 67 43 68 40 69 62 70 63 71 68 72 64 73 65 74 67 75 69 76
REMARK SMILES IDX 66 77 50 78 51 79 56 80 52 81 53 82 55 83 57 84 54 85
REMARK H PARENT 19 7 24 28 74 47 48 58
REMARK Flexibility Score: inf
ROOT
ATOM      1  C   UNL     1      -6.679   7.489  -2.378  1.00  0.00     0.023 C 
ENDROOT
BRANCH   1   2
ATOM      2  C   UNL     1      -5.776   6.259  -2.253  1.00  0.00     0.023 C 
BRANCH   2   3
ATOM      3  C   UNL     1      -4.525   6.313  -3.125  1.00  0.00     0.116 C 
BRANCH   3   4
ATOM      4  N   UNL     1      -3.431   7.000  -2.462  1.00  0.00    -0.352 N 
ATOM      5  C   UNL     1      -2.292   6.651  -1.819  1.00  0.00     0.251 C 
ATOM      6  O   UNL     1      -1.627   7.596  -1.382  1.00  0.00    -0.270 OA
ATOM      7  H   UNL     1      -3.548   7.977  -2.487  1.00  0.00     0.163 HD
BRANCH   5   8
ATOM      8  C   UNL     1      -1.810   5.253  -1.611  1.00  0.00     0.067 C 
ATOM      9  C   UNL     1       1.360  -0.213   0.097  1.00  0.00     0.046 C 
ATOM     10  C   UNL     1       0.826   1.177  -0.146  1.00  0.00    -0.026 A 
ATOM     11  C   UNL     1       1.552   2.320   0.246  1.00  0.00     0.045 A 
ATOM     12  C   UNL     1      -0.451   1.356  -0.732  1.00  0.00    -0.004 A 
ATOM     13  Cl  UNL     1       3.084   2.212   1.046  1.00  0.00    -0.084 Cl
ATOM     14  C   UNL     1       1.056   3.608   0.019  1.00  0.00     0.032 A 
ATOM     15  C   UNL     1      -0.917   2.663  -0.978  1.00  0.00     0.131 A 
ATOM     16  C   UNL     1      -1.323   0.197  -1.151  1.00  0.00     0.049 C 
ATOM     17  C   UNL     1      -0.177   3.785  -0.603  1.00  0.00     0.019 A 
ATOM     18  O   UNL     1      -2.153   2.788  -1.554  1.00  0.00    -0.475 OA
ATOM     19  C   UNL     1      -0.724   5.119  -0.828  1.00  0.00     0.025 C 
ATOM     20  C   UNL     1      -2.426   4.038  -2.242  1.00  0.00     0.314 C 
BRANCH  20  21
ATOM     21  C   UNL     1      -2.065   3.893  -3.732  1.00  0.00     0.429 C 
ATOM     22  F   UNL     1      -2.880   2.987  -4.330  1.00  0.00    -0.167 F 
ATOM     23  F   UNL     1      -2.216   5.051  -4.417  1.00  0.00    -0.167 F 
ATOM     24  F   UNL     1      -0.792   3.483  -3.927  1.00  0.00    -0.167 F 
ENDBRANCH  20  21
ENDBRANCH   5   8
ENDBRANCH   3   4
ENDBRANCH   2   3
ENDBRANCH   1   2
BRANCH   1  25
ATOM     25  C   UNL     1      -7.141   7.823  -3.795  1.00  0.00     0.116 C 
BRANCH  25  26
ATOM     26  N   UNL     1      -7.744   6.701  -4.501  1.00  0.00    -0.352 N 
ATOM     27  C   UNL     1      -8.706   6.742  -5.482  1.00  0.00     0.251 C 
ATOM     28  H   UNL     1      -7.425   5.806  -4.244  1.00  0.00     0.163 HD
ATOM     29  O   UNL     1      -9.178   5.711  -5.947  1.00  0.00    -0.269 OA
BRANCH  27  30
ATOM     30  C   UNL     1      -9.198   8.057  -5.930  1.00  0.00     0.039 A 
ATOM     31  C   UNL     1     -10.561   8.337  -5.818  1.00  0.00     0.014 A 
ATOM     32  C   UNL     1      -8.299   9.032  -6.371  1.00  0.00     0.014 A 
ATOM     33  C   UNL     1     -11.016   9.630  -6.073  1.00  0.00     0.010 A 
ATOM     34  C   UNL     1      -8.745  10.333  -6.569  1.00  0.00     0.010 A 
ATOM     35  C   UNL     1     -10.104  10.645  -6.407  1.00  0.00    -0.014 A 
BRANCH  35  36
ATOM     36  C   UNL     1     -10.551  12.047  -6.573  1.00  0.00     0.031 A 
ATOM     37  C   UNL     1     -10.490  12.700  -7.922  1.00  0.00     0.074 A 
ATOM     38  C   UNL     1     -10.951  12.748  -5.495  1.00  0.00     0.049 A 
ATOM     39  N   UNL     1     -10.769  13.934  -8.254  1.00  0.00    -0.248 NA
ATOM     40  C   UNL     1     -10.032  11.861  -9.041  1.00  0.00     0.031 C 
ATOM     41  C   UNL     1     -11.015  12.232  -4.126  1.00  0.00     0.029 A 
ATOM     42  N   UNL     1     -11.376  14.047  -5.381  1.00  0.00    -0.354 N 
ATOM     43  C   UNL     1     -10.514  14.022  -9.616  1.00  0.00     0.074 A 
ATOM     44  C   UNL     1     -10.011  12.733 -10.039  1.00  0.00     0.031 C 
ATOM     45  C   UNL     1     -11.482  13.196  -3.315  1.00  0.00     0.029 A 
ATOM     46  C   UNL     1     -11.719  14.404  -4.100  1.00  0.00     0.049 A 
ATOM     47  H   UNL     1     -11.430  14.665  -6.146  1.00  0.00     0.167 HD
ATOM     48  C   UNL     1     -10.704  15.076 -10.442  1.00  0.00     0.037 A 
ATOM     49  C   UNL     1     -12.175  15.574  -3.615  1.00  0.00     0.037 A 
ATOM     50  C   UNL     1     -11.226  16.349 -10.023  1.00  0.00     0.049 A 
ATOM     51  C   UNL     1     -12.374  16.731  -4.552  1.00  0.00     0.074 A 
ATOM     52  C   UNL     1     -11.490  17.468 -10.794  1.00  0.00     0.029 A 
ATOM     53  N   UNL     1     -11.567  16.670  -8.718  1.00  0.00    -0.354 N 
ATOM     54  N   UNL     1     -12.163  16.790  -5.844  1.00  0.00    -0.248 NA
ATOM     55  C   UNL     1     -12.873  17.983  -3.965  1.00  0.00     0.031 C 
ATOM     56  C   UNL     1     -11.969  18.475  -9.950  1.00  0.00     0.029 A 
ATOM     57  C   UNL     1     -12.033  17.972  -8.660  1.00  0.00     0.049 A 
ATOM     58  H   UNL     1     -11.490  16.062  -7.948  1.00  0.00     0.167 HD
ATOM     59  C   UNL     1     -12.524  18.074  -6.230  1.00  0.00     0.074 A 
ATOM     60  C   UNL     1     -12.974  18.759  -5.036  1.00  0.00     0.031 C 
ATOM     61  C   UNL     1     -12.484  18.634  -7.463  1.00  0.00     0.037 A 
BRANCH  48  62
ATOM     62  C   UNL     1     -10.359  14.887 -11.888  1.00  0.00     0.057 A 
ATOM     63  C   UNL     1     -11.159  14.108 -12.734  1.00  0.00     0.134 A 
ATOM     64  C   UNL     1      -9.239  15.513 -12.448  1.00  0.00     0.134 A 
ATOM     65  F   UNL     1     -12.236  13.470 -12.253  1.00  0.00    -0.206 F 
ATOM     66  C   UNL     1     -10.845  13.942 -14.083  1.00  0.00     0.040 A 
ATOM     67  C   UNL     1      -8.928  15.373 -13.801  1.00  0.00     0.040 A 
ATOM     68  F   UNL     1      -8.435  16.275 -11.691  1.00  0.00    -0.206 F 
ATOM     69  C   UNL     1      -9.730  14.581 -14.622  1.00  0.00     0.006 A 
ENDBRANCH  48  62
BRANCH  49  70
ATOM     70  C   UNL     1     -12.517  15.693  -2.177  1.00  0.00     0.057 A 
ATOM     71  C   UNL     1     -13.852  15.736  -1.761  1.00  0.00     0.134 A 
ATOM     72  C   UNL     1     -11.528  15.746  -1.188  1.00  0.00     0.134 A 
ATOM     73  F   UNL     1     -14.841  15.705  -2.666  1.00  0.00    -0.206 F 
ATOM     74  C   UNL     1     -14.194  15.837  -0.412  1.00  0.00     0.040 A 
ATOM     75  C   UNL     1     -11.856  15.829   0.166  1.00  0.00     0.040 A 
ATOM     76  F   UNL     1     -10.231  15.701  -1.524  1.00  0.00    -0.206 F 
ATOM     77  C   UNL     1     -13.193  15.878   0.557  1.00  0.00     0.006 A 
ENDBRANCH  49  70
BRANCH  61  78
ATOM     78  C   UNL     1     -12.959  20.048  -7.592  1.00  0.00     0.057 A 
ATOM     79  C   UNL     1     -12.171  21.128  -7.178  1.00  0.00     0.134 A 
ATOM     80  C   UNL     1     -14.188  20.334  -8.201  1.00  0.00     0.134 A 
ATOM     81  F   UNL     1     -10.989  20.916  -6.578  1.00  0.00    -0.206 F 
ATOM     82  C   UNL     1     -12.592  22.446  -7.357  1.00  0.00     0.040 A 
ATOM     83  C   UNL     1     -14.610  21.648  -8.403  1.00  0.00     0.040 A 
ATOM     84  F   UNL     1     -14.984  19.342  -8.626  1.00  0.00    -0.206 F 
ATOM     85  C   UNL     1     -13.812  22.709  -7.980  1.00  0.00     0.006 A 
ENDBRANCH  61  78
ENDBRANCH  35  36
ENDBRANCH  27  30
ENDBRANCH  25  26
ENDBRANCH   1  25
TORSDOF 12
