REMARK SMILES Cc1cccc(C[N@H+]2CC[C@@](C)(C(=O)NCCCCNC(=O)c3ccc(-c4c5nc(c(-c6c(F)cccc6F)c6ccc([nH]6)c(-c6c(F)cccc6F)c6nc(c(-c7c(F)cccc7F)c7ccc4[nH]7)C=C6)C=C5)cc3)C2)n1
REMARK SMILES IDX 17 1 16 2 15 3 13 4 14 5 11 7 8 8 9 9 77 10 10 12 12 13 7 14
REMARK SMILES IDX 6 15 1 16 2 17 3 18 78 19 4 20 5 21 18 22 19 23 20 24 21 25
REMARK SMILES IDX 22 27 23 28 24 29 76 30 25 31 75 32 26 33 27 34 28 35 69 36
REMARK SMILES IDX 29 37 74 38 68 39 70 40 30 41 73 42 67 43 66 44 31 46 57 47
REMARK SMILES IDX 40 48 56 49 41 50 44 51 55 52 71 53 42 54 43 55 54 57 72 58
REMARK SMILES IDX 45 59 32 60 33 61 38 62 34 63 35 64 37 65 39 66 36 67 58 68
REMARK SMILES IDX 59 69 64 70 60 71 61 72 63 73 65 74 62 75 46 76 47 77 52 78
REMARK SMILES IDX 48 79 49 80 51 81 53 82 50 83
REMARK H PARENT 15 6 8 11 20 26 70 45 44 56
REMARK Flexibility Score: inf
ROOT
ATOM      1  C   UNL     1       0.090  -0.146  -0.512  1.00  0.00     0.023 C 
ENDROOT
BRANCH   1   2
ATOM      2  C   UNL     1       0.069   0.755   1.477  1.00  0.00     0.116 C 
BRANCH   2   3
ATOM      3  N   UNL     1       1.178   1.218   2.464  1.00  0.00    -0.355 N 
ATOM      4  C   UNL     1       1.467   2.437   2.983  1.00  0.00     0.231 C 
ATOM      5  O   UNL     1       2.449   2.430   3.740  1.00  0.00    -0.274 OA
ATOM      6  H   UNL     1       1.776   0.497   2.767  1.00  0.00     0.163 HD
BRANCH   4   7
ATOM      7  C   UNL     1       0.607   3.726   2.787  1.00  0.00     0.100 C 
ATOM      8  N   UNL     1      -1.174   3.912   1.099  1.00  0.00    -0.329 N 
ATOM      9  C   UNL     1      -1.804   3.456   2.339  1.00  0.00     0.263 C 
ATOM     10  C   UNL     1       0.258   4.172   1.357  1.00  0.00     0.279 C 
ATOM     11  H   UNL     1      -1.630   4.787   0.841  1.00  0.00     0.348 HD
ATOM     12  C   UNL     1      -0.767   3.583   3.458  1.00  0.00     0.084 C 
ATOM     13  C   UNL     1       1.414   4.859   3.476  1.00  0.00     0.028 C 
BRANCH   8  14
ATOM     14  C   UNL     1      -1.455   3.120  -0.125  1.00  0.00     0.319 C 
BRANCH  14  15
ATOM     15  C   UNL     1      -0.816   1.724  -0.170  1.00  0.00     0.095 A 
ATOM     16  C   UNL     1       3.309   0.330   0.477  1.00  0.00     0.067 C 
ATOM     17  C   UNL     1       1.814   0.285   0.477  1.00  0.00     0.038 A 
ATOM     18  C   UNL     1       0.905  -1.103   1.175  1.00  0.00     0.023 A 
ATOM     19  N   UNL     1       0.954   1.692  -0.124  1.00  0.00    -0.252 NA
ATOM     20  C   UNL     1      -0.897  -1.100   1.096  1.00  0.00     0.004 A 
ATOM     21  C   UNL     1      -1.763   0.351   0.475  1.00  0.00     0.030 A 
ENDBRANCH  14  15
ENDBRANCH   8  14
ENDBRANCH   4   7
ENDBRANCH   2   3
ENDBRANCH   1   2
BRANCH   1  22
ATOM     22  C   UNL     1       0.957  -1.437  -1.278  1.00  0.00     0.023 C 
BRANCH  22  23
ATOM     23  C   UNL     1       0.616  -2.892  -0.978  1.00  0.00     0.116 C 
BRANCH  23  24
ATOM     24  N   UNL     1      -0.785  -3.233  -1.136  1.00  0.00    -0.352 N 
ATOM     25  C   UNL     1      -1.298  -4.506  -1.113  1.00  0.00     0.251 C 
ATOM     26  H   UNL     1      -1.418  -2.491  -1.271  1.00  0.00     0.163 HD
ATOM     27  O   UNL     1      -2.482  -4.745  -1.303  1.00  0.00    -0.269 OA
BRANCH  25  28
ATOM     28  C   UNL     1      -0.330  -5.587  -0.876  1.00  0.00     0.039 A 
ATOM     29  C   UNL     1       0.040  -6.400  -1.945  1.00  0.00     0.014 A 
ATOM     30  C   UNL     1       0.339  -5.638   0.351  1.00  0.00     0.014 A 
ATOM     31  C   UNL     1       1.095  -7.288  -1.776  1.00  0.00     0.010 A 
ATOM     32  C   UNL     1       1.458  -6.445   0.476  1.00  0.00     0.010 A 
ATOM     33  C   UNL     1       1.812  -7.312  -0.568  1.00  0.00    -0.014 A 
BRANCH  33  34
ATOM     34  C   UNL     1       2.855  -8.338  -0.347  1.00  0.00     0.031 A 
ATOM     35  C   UNL     1       2.619  -9.389   0.702  1.00  0.00     0.074 A 
ATOM     36  C   UNL     1       3.971  -8.339  -1.099  1.00  0.00     0.049 A 
ATOM     37  N   UNL     1       3.363 -10.412   1.033  1.00  0.00    -0.248 NA
ATOM     38  C   UNL     1       1.395  -9.256   1.510  1.00  0.00     0.031 C 
ATOM     39  C   UNL     1       4.304  -7.343  -2.120  1.00  0.00     0.029 A 
ATOM     40  N   UNL     1       5.018  -9.221  -1.141  1.00  0.00    -0.354 N 
ATOM     41  C   UNL     1       2.696 -11.030   2.083  1.00  0.00     0.074 A 
ATOM     42  C   UNL     1       1.550 -10.216   2.404  1.00  0.00     0.031 C 
ATOM     43  C   UNL     1       5.444  -7.705  -2.731  1.00  0.00     0.029 A 
ATOM     44  C   UNL     1       5.939  -8.934  -2.119  1.00  0.00     0.049 A 
ATOM     45  H   UNL     1       5.102  -9.987  -0.529  1.00  0.00     0.167 HD
ATOM     46  C   UNL     1       2.985 -12.202   2.695  1.00  0.00     0.037 A 
ATOM     47  C   UNL     1       7.048  -9.605  -2.482  1.00  0.00     0.037 A 
ATOM     48  C   UNL     1       4.124 -13.006   2.349  1.00  0.00     0.049 A 
ATOM     49  C   UNL     1       7.376 -10.884  -1.760  1.00  0.00     0.074 A 
ATOM     50  C   UNL     1       4.522 -14.217   2.881  1.00  0.00     0.029 A 
ATOM     51  N   UNL     1       5.054 -12.665   1.375  1.00  0.00    -0.354 N 
ATOM     52  N   UNL     1       6.713 -11.488  -0.802  1.00  0.00    -0.248 NA
ATOM     53  C   UNL     1       8.599 -11.580  -2.176  1.00  0.00     0.031 C 
ATOM     54  C   UNL     1       5.728 -14.579   2.271  1.00  0.00     0.029 A 
ATOM     55  C   UNL     1       6.039 -13.633   1.305  1.00  0.00     0.049 A 
ATOM     56  H   UNL     1       5.016 -11.855   0.817  1.00  0.00     0.167 HD
ATOM     57  C   UNL     1       7.415 -12.655  -0.527  1.00  0.00     0.074 A 
ATOM     58  C   UNL     1       8.549 -12.675  -1.431  1.00  0.00     0.031 C 
ATOM     59  C   UNL     1       7.149 -13.625   0.384  1.00  0.00     0.037 A 
BRANCH  46  60
ATOM     60  C   UNL     1       2.058 -12.651   3.790  1.00  0.00     0.057 A 
ATOM     61  C   UNL     1       0.718 -12.990   3.542  1.00  0.00     0.134 A 
ATOM     62  C   UNL     1       2.497 -12.710   5.118  1.00  0.00     0.134 A 
ATOM     63  F   UNL     1       0.222 -12.937   2.296  1.00  0.00    -0.206 F 
ATOM     64  C   UNL     1      -0.160 -13.320   4.576  1.00  0.00     0.040 A 
ATOM     65  C   UNL     1       1.638 -13.077   6.157  1.00  0.00     0.040 A 
ATOM     66  F   UNL     1       3.764 -12.402   5.433  1.00  0.00    -0.206 F 
ATOM     67  C   UNL     1       0.302 -13.368   5.889  1.00  0.00     0.006 A 
ENDBRANCH  46  60
BRANCH  47  68
ATOM     68  C   UNL     1       7.892  -9.111  -3.602  1.00  0.00     0.057 A 
ATOM     69  C   UNL     1       7.996  -9.824  -4.803  1.00  0.00     0.134 A 
ATOM     70  C   UNL     1       8.616  -7.916  -3.503  1.00  0.00     0.134 A 
ATOM     71  F   UNL     1       7.337 -10.981  -4.960  1.00  0.00    -0.206 F 
ATOM     72  C   UNL     1       8.804  -9.381  -5.853  1.00  0.00     0.040 A 
ATOM     73  C   UNL     1       9.405  -7.446  -4.555  1.00  0.00     0.040 A 
ATOM     74  F   UNL     1       8.553  -7.177  -2.385  1.00  0.00    -0.206 F 
ATOM     75  C   UNL     1       9.508  -8.185  -5.731  1.00  0.00     0.006 A 
ENDBRANCH  47  68
BRANCH  59  76
ATOM     76  C   UNL     1       8.068 -14.812   0.406  1.00  0.00     0.057 A 
ATOM     77  C   UNL     1       9.392 -14.725   0.853  1.00  0.00     0.134 A 
ATOM     78  C   UNL     1       7.599 -16.072   0.010  1.00  0.00     0.134 A 
ATOM     79  F   UNL     1       9.904 -13.546   1.239  1.00  0.00    -0.206 F 
ATOM     80  C   UNL     1      10.227 -15.842   0.874  1.00  0.00     0.040 A 
ATOM     81  C   UNL     1       8.412 -17.203   0.062  1.00  0.00     0.040 A 
ATOM     82  F   UNL     1       6.336 -16.227  -0.415  1.00  0.00    -0.206 F 
ATOM     83  C   UNL     1       9.735 -17.087   0.485  1.00  0.00     0.006 A 
ENDBRANCH  59  76
ENDBRANCH  33  34
ENDBRANCH  25  28
ENDBRANCH  23  24
ENDBRANCH  22  23
ENDBRANCH   1  22
TORSDOF 13
