REMARK SMILES NS(=O)(=O)c1ccc(N2N=C(C(=O)NCCCCNC(=O)c3ccc(-c4c5nc(c(-c6c(F)cccc6F)c6ccc([nH]6)c(-c6c(F)cccc6F)c6nc(c(-c7c(F)cccc7F)c7ccc4[nH]7)C=C6)C=C5)cc3)C[C@H]2c2cccs2)cc1
REMARK SMILES IDX 16 1 15 2 14 3 12 4 13 5 11 7 9 8 10 9 77 10 76 11 8 12 5 13
REMARK SMILES IDX 6 14 84 15 7 16 83 17 2 18 3 19 4 20 1 21 78 24 79 25 82 26
REMARK SMILES IDX 80 27 81 28 17 29 18 30 19 31 20 32 21 34 22 35 23 36 75 37
REMARK SMILES IDX 24 38 74 39 25 40 26 41 27 42 68 43 28 44 73 45 67 46 69 47
REMARK SMILES IDX 29 48 72 49 66 50 65 51 30 53 56 54 39 55 55 56 40 57 43 58
REMARK SMILES IDX 54 59 70 60 41 61 42 62 53 64 71 65 44 66 31 67 32 68 37 69
REMARK SMILES IDX 33 70 34 71 36 72 38 73 35 74 57 75 58 76 63 77 59 78 60 79
REMARK SMILES IDX 62 80 64 81 61 82 45 83 46 84 51 85 47 86 48 87 50 88 52 89
REMARK SMILES IDX 49 90
REMARK H PARENT 14 6 1 22 1 23 19 33 69 52 43 63
REMARK Flexibility Score: inf
ROOT
ATOM      1  C   UNL     1       1.006  -9.856   7.635  1.00  0.00     0.023 C 
ENDROOT
BRANCH   1   2
ATOM      2  C   UNL     1       2.067  -8.771   7.756  1.00  0.00     0.116 C 
BRANCH   2   3
ATOM      3  N   UNL     1       2.845  -8.646   6.539  1.00  0.00    -0.351 N 
ATOM      4  C   UNL     1       2.981  -7.672   5.580  1.00  0.00     0.267 C 
ATOM      5  O   UNL     1       3.678  -7.933   4.603  1.00  0.00    -0.268 OA
ATOM      6  H   UNL     1       3.401  -9.438   6.359  1.00  0.00     0.163 HD
BRANCH   4   7
ATOM      7  C   UNL     1       2.361  -6.286   5.686  1.00  0.00     0.128 C 
ATOM      8  N   UNL     1       2.051  -4.206   5.278  1.00  0.00    -0.256 N 
ATOM      9  N   UNL     1       2.629  -5.356   4.820  1.00  0.00    -0.171 NA
ATOM     10  C   UNL     1       1.215  -4.407   6.471  1.00  0.00     0.154 C 
ATOM     11  C   UNL     1       1.422  -5.892   6.768  1.00  0.00     0.097 C 
BRANCH   8  12
ATOM     12  C   UNL     1       1.727  -3.190   4.375  1.00  0.00     0.060 A 
ATOM     13  C   UNL     1       0.978  -1.102   2.653  1.00  0.00     0.082 A 
ATOM     14  C   UNL     1       0.771  -2.427   2.263  1.00  0.00     0.024 A 
ATOM     15  C   UNL     1       1.578  -0.808   3.875  1.00  0.00     0.024 A 
ATOM     16  C   UNL     1       1.157  -3.464   3.122  1.00  0.00     0.029 A 
ATOM     17  C   UNL     1       1.954  -1.852   4.721  1.00  0.00     0.029 A 
BRANCH  13  18
ATOM     18  S   UNL     1       0.489   0.220   1.589  1.00  0.00     0.238 S 
ATOM     19  O   UNL     1       1.097   1.451   2.050  1.00  0.00    -0.207 OA
ATOM     20  O   UNL     1      -0.923   0.105   1.329  1.00  0.00    -0.207 OA
BRANCH  18  21
ATOM     21  N   UNL     1       1.274  -0.143   0.151  1.00  0.00    -0.225 NA
ATOM     22  H   UNL     1       1.056   0.570  -0.545  1.00  0.00     0.137 HD
ATOM     23  H   UNL     1       0.961  -1.054  -0.186  1.00  0.00     0.137 HD
ENDBRANCH  18  21
ENDBRANCH  13  18
ENDBRANCH   8  12
BRANCH  10  24
ATOM     24  C   UNL     1       1.456  -3.493   7.669  1.00  0.00     0.030 A 
ATOM     25  C   UNL     1       0.900  -2.241   7.883  1.00  0.00     0.017 A 
ATOM     26  S   UNL     1       2.489  -3.909   8.983  1.00  0.00    -0.147 S 
ATOM     27  C   UNL     1       1.300  -1.652   9.116  1.00  0.00     0.012 A 
ATOM     28  C   UNL     1       2.118  -2.486   9.841  1.00  0.00     0.065 A 
ENDBRANCH  10  24
ENDBRANCH   4   7
ENDBRANCH   2   3
ENDBRANCH   1   2
BRANCH   1  29
ATOM     29  C   UNL     1       1.555 -11.274   7.745  1.00  0.00     0.023 C 
BRANCH  29  30
ATOM     30  C   UNL     1       2.353 -11.553   9.013  1.00  0.00     0.116 C 
BRANCH  30  31
ATOM     31  N   UNL     1       1.617 -11.256  10.235  1.00  0.00    -0.352 N 
ATOM     32  C   UNL     1       1.501 -12.017  11.373  1.00  0.00     0.251 C 
ATOM     33  H   UNL     1       1.141 -10.394  10.247  1.00  0.00     0.163 HD
ATOM     34  O   UNL     1       0.738 -11.685  12.273  1.00  0.00    -0.269 OA
BRANCH  32  35
ATOM     35  C   UNL     1       2.281 -13.265  11.478  1.00  0.00     0.039 A 
ATOM     36  C   UNL     1       1.626 -14.446  11.830  1.00  0.00     0.014 A 
ATOM     37  C   UNL     1       3.642 -13.273  11.159  1.00  0.00     0.014 A 
ATOM     38  C   UNL     1       2.322 -15.653  11.786  1.00  0.00     0.010 A 
ATOM     39  C   UNL     1       4.307 -14.486  11.028  1.00  0.00     0.010 A 
ATOM     40  C   UNL     1       3.655 -15.688  11.340  1.00  0.00    -0.014 A 
BRANCH  40  41
ATOM     41  C   UNL     1       4.380 -16.973  11.185  1.00  0.00     0.031 A 
ATOM     42  C   UNL     1       5.616 -17.244  11.996  1.00  0.00     0.074 A 
ATOM     43  C   UNL     1       3.967 -17.865  10.264  1.00  0.00     0.049 A 
ATOM     44  N   UNL     1       6.418 -18.278  11.961  1.00  0.00    -0.248 NA
ATOM     45  C   UNL     1       6.022 -16.202  12.952  1.00  0.00     0.031 C 
ATOM     46  C   UNL     1       2.816 -17.694   9.375  1.00  0.00     0.029 A 
ATOM     47  N   UNL     1       4.476 -19.091   9.915  1.00  0.00    -0.354 N 
ATOM     48  C   UNL     1       7.426 -18.004  12.877  1.00  0.00     0.074 A 
ATOM     49  C   UNL     1       7.170 -16.681  13.404  1.00  0.00     0.031 C 
ATOM     50  C   UNL     1       2.690 -18.786   8.604  1.00  0.00     0.029 A 
ATOM     51  C   UNL     1       3.773 -19.713   8.911  1.00  0.00     0.049 A 
ATOM     52  H   UNL     1       5.269 -19.487  10.343  1.00  0.00     0.167 HD
ATOM     53  C   UNL     1       8.457 -18.792  13.262  1.00  0.00     0.037 A 
ATOM     54  C   UNL     1       3.984 -20.895   8.301  1.00  0.00     0.037 A 
ATOM     55  C   UNL     1       8.697 -20.114  12.744  1.00  0.00     0.049 A 
ATOM     56  C   UNL     1       5.143 -21.748   8.736  1.00  0.00     0.074 A 
ATOM     57  C   UNL     1       9.676 -21.018  13.114  1.00  0.00     0.029 A 
ATOM     58  N   UNL     1       7.957 -20.715  11.737  1.00  0.00    -0.354 N 
ATOM     59  N   UNL     1       6.043 -21.512   9.660  1.00  0.00    -0.248 NA
ATOM     60  C   UNL     1       5.313 -23.036   8.048  1.00  0.00     0.031 C 
ATOM     61  C   UNL     1       9.566 -22.143  12.290  1.00  0.00     0.029 A 
ATOM     62  C   UNL     1       8.477 -21.967  11.451  1.00  0.00     0.049 A 
ATOM     63  H   UNL     1       7.177 -20.312  11.291  1.00  0.00     0.167 HD
ATOM     64  C   UNL     1       6.866 -22.631   9.686  1.00  0.00     0.074 A 
ATOM     65  C   UNL     1       6.349 -23.551   8.694  1.00  0.00     0.031 C 
ATOM     66  C   UNL     1       7.951 -22.875  10.462  1.00  0.00     0.037 A 
BRANCH  53  67
ATOM     67  C   UNL     1       9.404 -18.240  14.289  1.00  0.00     0.057 A 
ATOM     68  C   UNL     1       9.012 -18.014  15.616  1.00  0.00     0.134 A 
ATOM     69  C   UNL     1      10.732 -17.948  13.952  1.00  0.00     0.134 A 
ATOM     70  F   UNL     1       7.751 -18.260  16.004  1.00  0.00    -0.206 F 
ATOM     71  C   UNL     1       9.894 -17.487  16.560  1.00  0.00     0.040 A 
ATOM     72  C   UNL     1      11.633 -17.451  14.896  1.00  0.00     0.040 A 
ATOM     73  F   UNL     1      11.178 -18.145  12.703  1.00  0.00    -0.206 F 
ATOM     74  C   UNL     1      11.212 -17.210  16.202  1.00  0.00     0.006 A 
ENDBRANCH  53  67
BRANCH  54  75
ATOM     75  C   UNL     1       3.064 -21.349   7.227  1.00  0.00     0.057 A 
ATOM     76  C   UNL     1       2.201 -22.433   7.424  1.00  0.00     0.134 A 
ATOM     77  C   UNL     1       3.023 -20.712   5.981  1.00  0.00     0.134 A 
ATOM     78  F   UNL     1       2.205 -23.096   8.590  1.00  0.00    -0.206 F 
ATOM     79  C   UNL     1       1.343 -22.879   6.417  1.00  0.00     0.040 A 
ATOM     80  C   UNL     1       2.151 -21.129   4.974  1.00  0.00     0.040 A 
ATOM     81  F   UNL     1       3.817 -19.660   5.731  1.00  0.00    -0.206 F 
ATOM     82  C   UNL     1       1.313 -22.222   5.188  1.00  0.00     0.006 A 
ENDBRANCH  54  75
BRANCH  66  83
ATOM     83  C   UNL     1       8.631 -24.204  10.299  1.00  0.00     0.057 A 
ATOM     84  C   UNL     1       9.376 -24.523   9.156  1.00  0.00     0.134 A 
ATOM     85  C   UNL     1       8.573 -25.161  11.320  1.00  0.00     0.134 A 
ATOM     86  F   UNL     1       9.462 -23.656   8.136  1.00  0.00    -0.206 F 
ATOM     87  C   UNL     1      10.018 -25.756   9.025  1.00  0.00     0.040 A 
ATOM     88  C   UNL     1       9.237 -26.384  11.214  1.00  0.00     0.040 A 
ATOM     89  F   UNL     1       7.886 -24.917  12.446  1.00  0.00    -0.206 F 
ATOM     90  C   UNL     1       9.956 -26.687  10.060  1.00  0.00     0.006 A 
ENDBRANCH  66  83
ENDBRANCH  40  41
ENDBRANCH  32  35
ENDBRANCH  30  31
ENDBRANCH  29  30
ENDBRANCH   1  29
TORSDOF 15
