REMARK SMILES CCc1cc(OCCC(=O)NCCCCNC(=O)c2ccc(-c3c4nc(c(-c5c(F)cccc5F)c5ccc([nH]5)c(-c5c(F)cccc5F)c5nc(c(-c6c(F)cccc6F)c6ccc3[nH]6)C=C5)C=C4)cc2)nc(-c2cnccn2)n1
REMARK SMILES IDX 12 1 11 2 9 3 10 4 8 6 7 7 6 8 5 9 3 10 4 11 81 12 74 13
REMARK SMILES IDX 73 14 2 15 1 16 75 17 76 18 80 19 77 20 79 21 78 22 13 23
REMARK SMILES IDX 14 24 15 25 16 26 17 27 18 29 19 30 20 31 72 32 21 33 71 34
REMARK SMILES IDX 22 35 23 36 24 37 65 38 25 39 70 40 64 41 66 42 26 43 69 44
REMARK SMILES IDX 63 45 62 46 27 48 53 49 36 50 52 51 37 52 40 53 51 54 67 55
REMARK SMILES IDX 38 56 39 57 50 59 68 60 41 61 28 62 29 63 34 64 30 65 31 66
REMARK SMILES IDX 33 67 35 68 32 69 54 70 55 71 60 72 56 73 57 74 59 75 61 76
REMARK SMILES IDX 58 77 42 78 43 79 48 80 44 81 45 82 47 83 49 84 46 85
REMARK H PARENT 11 5 16 28 66 47 40 58
REMARK Flexibility Score: inf
ROOT
ATOM      1  C   UNL     1       2.987  -3.814  -0.902  1.00  0.00     0.116 C 
ENDROOT
BRANCH   1   2
ATOM      2  N   UNL     1       3.831  -2.634  -1.507  1.00  0.00    -0.356 N 
ATOM      3  C   UNL     1       4.862  -1.945  -0.945  1.00  0.00     0.223 C 
ATOM      4  O   UNL     1       5.187  -0.859  -1.423  1.00  0.00    -0.275 OA
ATOM      5  H   UNL     1       3.580  -2.356  -2.418  1.00  0.00     0.163 HD
BRANCH   3   6
ATOM      6  C   UNL     1       5.571  -2.554   0.246  1.00  0.00     0.141 C 
BRANCH   6   7
ATOM      7  C   UNL     1       4.862  -2.427   1.603  1.00  0.00     0.241 C 
BRANCH   7   8
ATOM      8  O   UNL     1       3.931  -3.463   1.983  1.00  0.00    -0.477 OA
BRANCH   8   9
ATOM      9  C   UNL     1       2.796  -3.557   1.192  1.00  0.00     0.217 A 
ATOM     10  C   UNL     1       1.547  -2.341  -1.240  1.00  0.00     0.048 A 
ATOM     11  C   UNL     1       2.317  -2.136   0.329  1.00  0.00     0.092 A 
ATOM     12  N   UNL     1       1.338  -3.996  -1.892  1.00  0.00    -0.231 NA
ATOM     13  C   UNL     1       1.734  -5.439  -0.873  1.00  0.00     0.183 A 
ATOM     14  N   UNL     1       2.512  -5.174   0.645  1.00  0.00    -0.192 NA
BRANCH  10  15
ATOM     15  C   UNL     1       0.905  -1.109  -1.855  1.00  0.00     0.053 C 
ATOM     16  C   UNL     1       0.781   0.055  -0.856  1.00  0.00     0.011 C 
ENDBRANCH  10  15
BRANCH  13  17
ATOM     17  C   UNL     1       0.820  -6.673  -0.745  1.00  0.00     0.126 A 
ATOM     18  C   UNL     1       1.179  -7.763   0.038  1.00  0.00     0.143 A 
ATOM     19  N   UNL     1      -0.493  -6.577  -1.089  1.00  0.00    -0.250 NA
ATOM     20  N   UNL     1       0.313  -8.750   0.437  1.00  0.00    -0.261 NA
ATOM     21  C   UNL     1      -1.367  -7.534  -0.707  1.00  0.00     0.132 A 
ATOM     22  C   UNL     1      -0.970  -8.606   0.046  1.00  0.00     0.131 A 
ENDBRANCH  13  17
ENDBRANCH   8   9
ENDBRANCH   7   8
ENDBRANCH   6   7
ENDBRANCH   3   6
ENDBRANCH   1   2
BRANCH   1  23
ATOM     23  C   UNL     1       0.986  -3.808   0.000  1.00  0.00     0.023 C 
BRANCH  23  24
ATOM     24  C   UNL     1      -0.641  -3.849  -0.916  1.00  0.00     0.023 C 
BRANCH  24  25
ATOM     25  C   UNL     1      -0.954  -4.213  -2.504  1.00  0.00     0.116 C 
BRANCH  25  26
ATOM     26  N   UNL     1      -0.091  -5.186  -3.257  1.00  0.00    -0.352 N 
ATOM     27  C   UNL     1      -0.368  -6.349  -3.929  1.00  0.00     0.251 C 
ATOM     28  H   UNL     1       0.862  -4.939  -3.270  1.00  0.00     0.163 HD
ATOM     29  O   UNL     1       0.448  -7.231  -4.155  1.00  0.00    -0.269 OA
BRANCH  27  30
ATOM     30  C   UNL     1      -1.712  -6.399  -4.478  1.00  0.00     0.039 A 
ATOM     31  C   UNL     1      -2.660  -7.332  -4.061  1.00  0.00     0.014 A 
ATOM     32  C   UNL     1      -2.024  -5.284  -5.252  1.00  0.00     0.014 A 
ATOM     33  C   UNL     1      -3.996  -7.061  -4.328  1.00  0.00     0.010 A 
ATOM     34  C   UNL     1      -3.341  -4.973  -5.432  1.00  0.00     0.010 A 
ATOM     35  C   UNL     1      -4.328  -5.860  -4.972  1.00  0.00    -0.014 A 
BRANCH  35  36
ATOM     36  C   UNL     1      -5.699  -5.490  -5.332  1.00  0.00     0.031 A 
ATOM     37  C   UNL     1      -6.012  -5.459  -6.794  1.00  0.00     0.074 A 
ATOM     38  C   UNL     1      -6.522  -4.995  -4.394  1.00  0.00     0.049 A 
ATOM     39  N   UNL     1      -7.007  -4.892  -7.414  1.00  0.00    -0.248 NA
ATOM     40  C   UNL     1      -5.012  -6.082  -7.686  1.00  0.00     0.031 C 
ATOM     41  C   UNL     1      -6.244  -4.931  -2.957  1.00  0.00     0.029 A 
ATOM     42  N   UNL     1      -7.748  -4.405  -4.526  1.00  0.00    -0.354 N 
ATOM     43  C   UNL     1      -6.739  -5.069  -8.763  1.00  0.00     0.074 A 
ATOM     44  C   UNL     1      -5.452  -5.713  -8.876  1.00  0.00     0.031 C 
ATOM     45  C   UNL     1      -7.281  -4.340  -2.338  1.00  0.00     0.029 A 
ATOM     46  C   UNL     1      -8.267  -3.948  -3.339  1.00  0.00     0.049 A 
ATOM     47  H   UNL     1      -8.215  -4.317  -5.388  1.00  0.00     0.167 HD
ATOM     48  C   UNL     1      -7.524  -4.747  -9.813  1.00  0.00     0.037 A 
ATOM     49  C   UNL     1      -9.411  -3.276  -3.116  1.00  0.00     0.037 A 
ATOM     50  C   UNL     1      -8.808  -4.128  -9.659  1.00  0.00     0.049 A 
ATOM     51  C   UNL     1     -10.277  -2.942  -4.304  1.00  0.00     0.074 A 
ATOM     52  C   UNL     1      -9.731  -3.797 -10.630  1.00  0.00     0.029 A 
ATOM     53  N   UNL     1      -9.348  -3.751  -8.435  1.00  0.00    -0.354 N 
ATOM     54  N   UNL     1     -10.062  -3.178  -5.579  1.00  0.00    -0.248 NA
ATOM     55  C   UNL     1     -11.544  -2.255  -4.027  1.00  0.00     0.031 C 
ATOM     56  C   UNL     1     -10.817  -3.186  -9.996  1.00  0.00     0.029 A 
ATOM     57  C   UNL     1     -10.591  -3.182  -8.627  1.00  0.00     0.049 A 
ATOM     58  H   UNL     1      -8.909  -3.871  -7.562  1.00  0.00     0.167 HD
ATOM     59  C   UNL     1     -11.181  -2.703  -6.250  1.00  0.00     0.074 A 
ATOM     60  C   UNL     1     -12.077  -2.178  -5.238  1.00  0.00     0.031 C 
ATOM     61  C   UNL     1     -11.453  -2.695  -7.579  1.00  0.00     0.037 A 
BRANCH  48  62
ATOM     62  C   UNL     1      -7.011  -5.084 -11.180  1.00  0.00     0.057 A 
ATOM     63  C   UNL     1      -6.848  -6.413 -11.598  1.00  0.00     0.134 A 
ATOM     64  C   UNL     1      -6.658  -4.076 -12.083  1.00  0.00     0.134 A 
ATOM     65  F   UNL     1      -7.143  -7.428 -10.769  1.00  0.00    -0.206 F 
ATOM     66  C   UNL     1      -6.324  -6.727 -12.851  1.00  0.00     0.040 A 
ATOM     67  C   UNL     1      -6.162  -4.378 -13.353  1.00  0.00     0.040 A 
ATOM     68  F   UNL     1      -6.780  -2.784 -11.746  1.00  0.00    -0.206 F 
ATOM     69  C   UNL     1      -5.986  -5.706 -13.736  1.00  0.00     0.006 A 
ENDBRANCH  48  62
BRANCH  49  70
ATOM     70  C   UNL     1      -9.823  -2.909  -1.737  1.00  0.00     0.057 A 
ATOM     71  C   UNL     1     -10.939  -3.510  -1.140  1.00  0.00     0.134 A 
ATOM     72  C   UNL     1      -9.141  -1.941  -0.990  1.00  0.00     0.134 A 
ATOM     73  F   UNL     1     -11.641  -4.438  -1.807  1.00  0.00    -0.206 F 
ATOM     74  C   UNL     1     -11.384  -3.137   0.130  1.00  0.00     0.040 A 
ATOM     75  C   UNL     1      -9.559  -1.578   0.293  1.00  0.00     0.040 A 
ATOM     76  F   UNL     1      -8.055  -1.336  -1.492  1.00  0.00    -0.206 F 
ATOM     77  C   UNL     1     -10.692  -2.168   0.851  1.00  0.00     0.006 A 
ENDBRANCH  49  70
BRANCH  61  78
ATOM     78  C   UNL     1     -12.784  -2.147  -7.999  1.00  0.00     0.057 A 
ATOM     79  C   UNL     1     -13.064  -0.777  -7.959  1.00  0.00     0.134 A 
ATOM     80  C   UNL     1     -13.768  -3.001  -8.512  1.00  0.00     0.134 A 
ATOM     81  F   UNL     1     -12.165   0.089  -7.468  1.00  0.00    -0.206 F 
ATOM     82  C   UNL     1     -14.289  -0.275  -8.398  1.00  0.00     0.040 A 
ATOM     83  C   UNL     1     -14.983  -2.508  -8.984  1.00  0.00     0.040 A 
ATOM     84  F   UNL     1     -13.552  -4.323  -8.589  1.00  0.00    -0.206 F 
ATOM     85  C   UNL     1     -15.248  -1.141  -8.921  1.00  0.00     0.006 A 
ENDBRANCH  61  78
ENDBRANCH  35  36
ENDBRANCH  27  30
ENDBRANCH  25  26
ENDBRANCH  24  25
ENDBRANCH  23  24
ENDBRANCH   1  23
TORSDOF 16
