REMARK SMILES Nc1oc2ccc(F)cc2c(=O)c1[C@@H]1[NH2+][C@H](C(=O)NCCCCNC(=O)c2ccc(-c3c4nc(c(-c5c(F)cccc5F)c5ccc([nH]5)c(-c5c(F)cccc5F)c5nc(c(-c6c(F)cccc6F)c6ccc3[nH]6)C=C5)C=C4)cc2)CS1
REMARK SMILES IDX 21 1 20 2 19 3 17 4 18 5 16 7 14 8 15 9 82 10 81 13 13 14
REMARK SMILES IDX 2 15 3 16 4 17 11 18 5 19 10 20 12 21 6 22 9 23 7 24 8 25
REMARK SMILES IDX 1 26 22 29 23 30 24 31 25 32 26 34 27 35 28 36 80 37 29 38
REMARK SMILES IDX 79 39 30 40 31 41 32 42 73 43 33 44 78 45 72 46 74 47 34 48
REMARK SMILES IDX 77 49 71 50 70 51 35 53 61 54 44 55 60 56 45 57 48 58 59 59
REMARK SMILES IDX 75 60 46 61 47 62 58 64 76 65 49 66 36 67 37 68 42 69 38 70
REMARK SMILES IDX 39 71 41 72 43 73 40 74 62 75 63 76 68 77 64 78 65 79 67 80
REMARK SMILES IDX 69 81 66 82 50 83 51 84 56 85 52 86 53 87 55 88 57 89 54 90
REMARK H PARENT 19 6 15 11 15 12 1 27 1 28 24 33 74 52 48 63
REMARK Flexibility Score: inf
ROOT
ATOM      1  C   UNL     1      -1.887   0.847  -0.547  1.00  0.00     0.023 C 
ENDROOT
BRANCH   1   2
ATOM      2  C   UNL     1      -0.672  -0.066  -0.732  1.00  0.00     0.116 C 
BRANCH   2   3
ATOM      3  N   UNL     1      -0.330  -0.342  -2.112  1.00  0.00    -0.351 N 
ATOM      4  C   UNL     1       0.845  -0.135  -2.778  1.00  0.00     0.279 C 
ATOM      5  O   UNL     1       1.024  -0.773  -3.820  1.00  0.00    -0.268 OA
ATOM      6  H   UNL     1      -1.053  -0.737  -2.651  1.00  0.00     0.163 HD
BRANCH   4   7
ATOM      7  C   UNL     1       1.935   0.818  -2.254  1.00  0.00     0.283 C 
ATOM      8  C   UNL     1       2.173   2.698  -0.733  1.00  0.00     0.283 C 
ATOM      9  N   UNL     1       1.334   2.071  -1.763  1.00  0.00    -0.320 N 
ATOM     10  S   UNL     1       3.499   1.543  -0.275  1.00  0.00    -0.087 SA
ATOM     11  H   UNL     1       1.228   2.717  -2.545  1.00  0.00     0.348 HD
ATOM     12  H   UNL     1       0.427   1.853  -1.350  1.00  0.00     0.348 HD
ATOM     13  C   UNL     1       2.781   0.156  -1.182  1.00  0.00     0.151 C 
BRANCH   8  14
ATOM     14  C   UNL     1       1.260   3.124   0.394  1.00  0.00     0.128 A 
ATOM     15  C   UNL     1       0.860   2.438   1.491  1.00  0.00     0.205 A 
ATOM     16  O   UNL     1      -0.173   2.857   2.317  1.00  0.00    -0.440 OA
ATOM     17  C   UNL     1      -0.935   3.928   1.945  1.00  0.00     0.140 A 
ATOM     18  C   UNL     1       0.670   4.481   0.190  1.00  0.00     0.205 A 
ATOM     19  C   UNL     1      -2.147   4.133   2.604  1.00  0.00     0.051 A 
ATOM     20  C   UNL     1      -0.521   4.822   0.973  1.00  0.00     0.068 A 
ATOM     21  O   UNL     1       1.117   5.276  -0.630  1.00  0.00    -0.288 OA
ATOM     22  C   UNL     1      -2.918   5.257   2.320  1.00  0.00     0.043 A 
ATOM     23  C   UNL     1      -1.254   5.984   0.720  1.00  0.00     0.055 A 
ATOM     24  C   UNL     1      -2.447   6.189   1.403  1.00  0.00     0.124 A 
ATOM     25  F   UNL     1      -3.162   7.297   1.172  1.00  0.00    -0.207 F 
BRANCH  15  26
ATOM     26  N   UNL     1       1.364   1.233   1.897  1.00  0.00    -0.369 N 
ATOM     27  H   UNL     1       1.015   0.802   2.711  1.00  0.00     0.159 HD
ATOM     28  H   UNL     1       2.077   0.796   1.377  1.00  0.00     0.159 HD
ENDBRANCH  15  26
ENDBRANCH   8  14
ENDBRANCH   4   7
ENDBRANCH   2   3
ENDBRANCH   1   2
BRANCH   1  29
ATOM     29  C   UNL     1      -2.883   0.399   0.538  1.00  0.00     0.023 C 
BRANCH  29  30
ATOM     30  C   UNL     1      -2.317  -0.312   1.770  1.00  0.00     0.116 C 
BRANCH  30  31
ATOM     31  N   UNL     1      -2.007   0.544   2.901  1.00  0.00    -0.352 N 
ATOM     32  C   UNL     1      -2.741   0.879   4.020  1.00  0.00     0.251 C 
ATOM     33  H   UNL     1      -1.115   0.958   2.864  1.00  0.00     0.163 HD
ATOM     34  O   UNL     1      -2.261   1.573   4.898  1.00  0.00    -0.269 OA
BRANCH  32  35
ATOM     35  C   UNL     1      -4.158   0.475   4.104  1.00  0.00     0.039 A 
ATOM     36  C   UNL     1      -4.521  -0.847   3.891  1.00  0.00     0.014 A 
ATOM     37  C   UNL     1      -5.135   1.443   4.372  1.00  0.00     0.014 A 
ATOM     38  C   UNL     1      -5.855  -1.161   3.719  1.00  0.00     0.010 A 
ATOM     39  C   UNL     1      -6.489   1.094   4.334  1.00  0.00     0.010 A 
ATOM     40  C   UNL     1      -6.858  -0.204   3.963  1.00  0.00    -0.014 A 
BRANCH  40  41
ATOM     41  C   UNL     1      -8.263  -0.672   3.893  1.00  0.00     0.031 A 
ATOM     42  C   UNL     1      -9.195  -0.202   2.816  1.00  0.00     0.074 A 
ATOM     43  C   UNL     1      -8.613  -1.675   4.723  1.00  0.00     0.049 A 
ATOM     44  N   UNL     1     -10.359  -0.694   2.472  1.00  0.00    -0.248 NA
ATOM     45  C   UNL     1      -8.779   0.964   2.022  1.00  0.00     0.031 C 
ATOM     46  C   UNL     1      -7.772  -2.192   5.809  1.00  0.00     0.029 A 
ATOM     47  N   UNL     1      -9.709  -2.495   4.734  1.00  0.00    -0.354 N 
ATOM     48  C   UNL     1     -10.808   0.090   1.418  1.00  0.00     0.074 A 
ATOM     49  C   UNL     1      -9.812   1.117   1.203  1.00  0.00     0.031 C 
ATOM     50  C   UNL     1      -8.324  -3.308   6.299  1.00  0.00     0.029 A 
ATOM     51  C   UNL     1      -9.592  -3.540   5.620  1.00  0.00     0.049 A 
ATOM     52  H   UNL     1     -10.499  -2.351   4.166  1.00  0.00     0.167 HD
ATOM     53  C   UNL     1     -11.943  -0.049   0.691  1.00  0.00     0.037 A 
ATOM     54  C   UNL     1     -10.415  -4.576   5.856  1.00  0.00     0.037 A 
ATOM     55  C   UNL     1     -12.934  -1.069   0.929  1.00  0.00     0.049 A 
ATOM     56  C   UNL     1     -11.678  -4.680   5.055  1.00  0.00     0.074 A 
ATOM     57  C   UNL     1     -14.138  -1.276   0.278  1.00  0.00     0.029 A 
ATOM     58  N   UNL     1     -12.829  -2.058   1.897  1.00  0.00    -0.354 N 
ATOM     59  N   UNL     1     -12.085  -3.933   4.057  1.00  0.00    -0.248 NA
ATOM     60  C   UNL     1     -12.601  -5.760   5.421  1.00  0.00     0.031 C 
ATOM     61  C   UNL     1     -14.776  -2.370   0.875  1.00  0.00     0.029 A 
ATOM     62  C   UNL     1     -13.952  -2.869   1.870  1.00  0.00     0.049 A 
ATOM     63  H   UNL     1     -12.069  -2.166   2.514  1.00  0.00     0.167 HD
ATOM     64  C   UNL     1     -13.314  -4.449   3.678  1.00  0.00     0.074 A 
ATOM     65  C   UNL     1     -13.562  -5.601   4.523  1.00  0.00     0.031 C 
ATOM     66  C   UNL     1     -14.173  -4.004   2.729  1.00  0.00     0.037 A 
BRANCH  53  67
ATOM     67  C   UNL     1     -12.179   0.928  -0.424  1.00  0.00     0.057 A 
ATOM     68  C   UNL     1     -13.174   1.910  -0.324  1.00  0.00     0.134 A 
ATOM     69  C   UNL     1     -11.451   0.868  -1.620  1.00  0.00     0.134 A 
ATOM     70  F   UNL     1     -13.911   2.021   0.790  1.00  0.00    -0.206 F 
ATOM     71  C   UNL     1     -13.440   2.790  -1.375  1.00  0.00     0.040 A 
ATOM     72  C   UNL     1     -11.694   1.756  -2.670  1.00  0.00     0.040 A 
ATOM     73  F   UNL     1     -10.475  -0.040  -1.776  1.00  0.00    -0.206 F 
ATOM     74  C   UNL     1     -12.697   2.716  -2.552  1.00  0.00     0.006 A 
ENDBRANCH  53  67
BRANCH  54  75
ATOM     75  C   UNL     1     -10.087  -5.572   6.908  1.00  0.00     0.057 A 
ATOM     76  C   UNL     1     -10.039  -5.204   8.259  1.00  0.00     0.134 A 
ATOM     77  C   UNL     1      -9.835  -6.912   6.597  1.00  0.00     0.134 A 
ATOM     78  F   UNL     1     -10.262  -3.933   8.624  1.00  0.00    -0.206 F 
ATOM     79  C   UNL     1      -9.748  -6.129   9.261  1.00  0.00     0.040 A 
ATOM     80  C   UNL     1      -9.575  -7.856   7.593  1.00  0.00     0.040 A 
ATOM     81  F   UNL     1      -9.879  -7.331   5.324  1.00  0.00    -0.206 F 
ATOM     82  C   UNL     1      -9.527  -7.464   8.929  1.00  0.00     0.006 A 
ENDBRANCH  54  75
BRANCH  66  83
ATOM     83  C   UNL     1     -15.446  -4.778   2.570  1.00  0.00     0.057 A 
ATOM     84  C   UNL     1     -15.645  -5.607   1.460  1.00  0.00     0.134 A 
ATOM     85  C   UNL     1     -16.468  -4.713   3.526  1.00  0.00     0.134 A 
ATOM     86  F   UNL     1     -14.706  -5.709   0.508  1.00  0.00    -0.206 F 
ATOM     87  C   UNL     1     -16.815  -6.351   1.310  1.00  0.00     0.040 A 
ATOM     88  C   UNL     1     -17.631  -5.472   3.400  1.00  0.00     0.040 A 
ATOM     89  F   UNL     1     -16.326  -3.951   4.622  1.00  0.00    -0.206 F 
ATOM     90  C   UNL     1     -17.808  -6.292   2.287  1.00  0.00     0.006 A 
ENDBRANCH  66  83
ENDBRANCH  40  41
ENDBRANCH  32  35
ENDBRANCH  30  31
ENDBRANCH  29  30
ENDBRANCH   1  29
TORSDOF 13
