REMARK SMILES C[C@H](C(=O)NCCCCNC(=O)c1ccc(-c2c3nc(c(-c4c(F)cccc4F)c4ccc([nH]4)c(-c4c(F)cccc4F)c4nc(c(-c5c(F)cccc5F)c5ccc2[nH]5)C=C4)C=C3)cc1)c1ccc2ncccc2c1
REMARK SMILES IDX 8 1 7 2 6 3 5 4 3 5 4 6 2 8 1 9 67 10 68 11 76 12 69 13
REMARK SMILES IDX 75 14 70 15 74 16 71 17 73 18 72 19 9 20 10 21 11 22 12 24
REMARK SMILES IDX 13 25 14 26 66 27 15 28 65 29 16 30 17 31 18 32 59 33 19 34
REMARK SMILES IDX 64 35 58 36 60 37 20 38 63 39 57 40 56 41 21 43 47 44 30 45
REMARK SMILES IDX 46 46 31 47 34 48 45 49 61 50 32 51 33 52 44 54 62 55 35 56
REMARK SMILES IDX 22 57 23 58 28 59 24 60 25 61 27 62 29 63 26 64 48 65 49 66
REMARK SMILES IDX 54 67 50 68 51 69 53 70 55 71 52 72 36 73 37 74 42 75 38 76
REMARK SMILES IDX 39 77 41 78 43 79 40 80
REMARK H PARENT 5 7 10 23 60 42 34 53
REMARK Flexibility Score: inf
ROOT
ATOM      1  C   UNL     1      -1.550  -3.285  -0.822  1.00  0.00     0.023 C 
ENDROOT
BRANCH   1   2
ATOM      2  C   UNL     1      -1.308  -2.155   0.168  1.00  0.00     0.023 C 
BRANCH   2   3
ATOM      3  C   UNL     1       0.161  -1.907   0.515  1.00  0.00     0.116 C 
BRANCH   3   4
ATOM      4  N   UNL     1       0.716  -0.894  -0.357  1.00  0.00    -0.356 N 
ATOM      5  C   UNL     1       0.705   0.468  -0.228  1.00  0.00     0.227 C 
ATOM      6  O   UNL     1       1.039   1.123  -1.220  1.00  0.00    -0.274 OA
ATOM      7  H   UNL     1       1.169  -1.235  -1.162  1.00  0.00     0.163 HD
BRANCH   5   8
ATOM      8  C   UNL     1       0.326   1.140   1.110  1.00  0.00     0.105 C 
ATOM      9  C   UNL     1       1.148   2.432   1.239  1.00  0.00     0.023 C 
BRANCH   8  10
ATOM     10  C   UNL     1      -1.179   1.365   1.242  1.00  0.00    -0.035 A 
ATOM     11  C   UNL     1      -1.835   2.462   0.675  1.00  0.00     0.007 A 
ATOM     12  C   UNL     1      -1.978   0.394   1.863  1.00  0.00     0.015 A 
ATOM     13  C   UNL     1      -3.236   2.526   0.651  1.00  0.00     0.029 A 
ATOM     14  C   UNL     1      -3.380   0.396   1.726  1.00  0.00     0.000 A 
ATOM     15  C   UNL     1      -4.026   1.482   1.109  1.00  0.00     0.070 A 
ATOM     16  C   UNL     1      -4.163  -0.700   2.119  1.00  0.00     0.012 A 
ATOM     17  N   UNL     1      -5.358   1.509   0.916  1.00  0.00    -0.256 NA
ATOM     18  C   UNL     1      -5.528  -0.702   1.866  1.00  0.00     0.021 A 
ATOM     19  C   UNL     1      -6.075   0.421   1.276  1.00  0.00     0.112 A 
ENDBRANCH   8  10
ENDBRANCH   5   8
ENDBRANCH   3   4
ENDBRANCH   2   3
ENDBRANCH   1   2
BRANCH   1  20
ATOM     20  C   UNL     1      -1.393  -4.668  -0.211  1.00  0.00     0.116 C 
BRANCH  20  21
ATOM     21  N   UNL     1      -2.344  -4.950   0.861  1.00  0.00    -0.352 N 
ATOM     22  C   UNL     1      -2.976  -6.136   1.154  1.00  0.00     0.251 C 
ATOM     23  H   UNL     1      -2.560  -4.192   1.451  1.00  0.00     0.163 HD
ATOM     24  O   UNL     1      -3.813  -6.199   2.048  1.00  0.00    -0.269 OA
BRANCH  22  25
ATOM     25  C   UNL     1      -2.663  -7.319   0.332  1.00  0.00     0.039 A 
ATOM     26  C   UNL     1      -3.708  -8.032  -0.259  1.00  0.00     0.014 A 
ATOM     27  C   UNL     1      -1.334  -7.643   0.058  1.00  0.00     0.014 A 
ATOM     28  C   UNL     1      -3.416  -9.015  -1.206  1.00  0.00     0.010 A 
ATOM     29  C   UNL     1      -1.050  -8.545  -0.955  1.00  0.00     0.010 A 
ATOM     30  C   UNL     1      -2.087  -9.241  -1.597  1.00  0.00    -0.014 A 
BRANCH  30  31
ATOM     31  C   UNL     1      -1.733 -10.209  -2.663  1.00  0.00     0.031 A 
ATOM     32  C   UNL     1      -0.826 -11.362  -2.335  1.00  0.00     0.074 A 
ATOM     33  C   UNL     1      -2.125  -9.992  -3.933  1.00  0.00     0.049 A 
ATOM     34  N   UNL     1      -0.248 -12.218  -3.138  1.00  0.00    -0.248 NA
ATOM     35  C   UNL     1      -0.482 -11.543  -0.915  1.00  0.00     0.031 C 
ATOM     36  C   UNL     1      -2.957  -8.877  -4.390  1.00  0.00     0.029 A 
ATOM     37  N   UNL     1      -1.857 -10.696  -5.080  1.00  0.00    -0.354 N 
ATOM     38  C   UNL     1       0.558 -13.005  -2.327  1.00  0.00     0.074 A 
ATOM     39  C   UNL     1       0.439 -12.492  -0.980  1.00  0.00     0.031 C 
ATOM     40  C   UNL     1      -3.150  -8.985  -5.715  1.00  0.00     0.029 A 
ATOM     41  C   UNL     1      -2.424 -10.152  -6.207  1.00  0.00     0.049 A 
ATOM     42  H   UNL     1      -1.310 -11.514  -5.094  1.00  0.00     0.167 HD
ATOM     43  C   UNL     1       1.311 -14.077  -2.668  1.00  0.00     0.037 A 
ATOM     44  C   UNL     1      -2.358 -10.548  -7.492  1.00  0.00     0.037 A 
ATOM     45  C   UNL     1       1.376 -14.620  -3.997  1.00  0.00     0.049 A 
ATOM     46  C   UNL     1      -1.557 -11.772  -7.840  1.00  0.00     0.074 A 
ATOM     47  C   UNL     1       2.044 -15.749  -4.436  1.00  0.00     0.029 A 
ATOM     48  N   UNL     1       0.734 -14.077  -5.100  1.00  0.00    -0.354 N 
ATOM     49  N   UNL     1      -0.841 -12.541  -7.056  1.00  0.00    -0.248 NA
ATOM     50  C   UNL     1      -1.559 -12.185  -9.250  1.00  0.00     0.031 C 
ATOM     51  C   UNL     1       1.827 -15.875  -5.813  1.00  0.00     0.029 A 
ATOM     52  C   UNL     1       0.994 -14.845  -6.222  1.00  0.00     0.049 A 
ATOM     53  H   UNL     1       0.176 -13.266  -5.087  1.00  0.00     0.167 HD
ATOM     54  C   UNL     1      -0.332 -13.544  -7.869  1.00  0.00     0.074 A 
ATOM     55  C   UNL     1      -0.827 -13.290  -9.206  1.00  0.00     0.031 C 
ATOM     56  C   UNL     1       0.474 -14.583  -7.539  1.00  0.00     0.037 A 
BRANCH  43  57
ATOM     57  C   UNL     1       2.108 -14.731  -1.578  1.00  0.00     0.057 A 
ATOM     58  C   UNL     1       1.495 -15.449  -0.543  1.00  0.00     0.134 A 
ATOM     59  C   UNL     1       3.505 -14.641  -1.562  1.00  0.00     0.134 A 
ATOM     60  F   UNL     1       0.158 -15.557  -0.489  1.00  0.00    -0.206 F 
ATOM     61  C   UNL     1       2.239 -16.022   0.489  1.00  0.00     0.040 A 
ATOM     62  C   UNL     1       4.263 -15.236  -0.552  1.00  0.00     0.040 A 
ATOM     63  F   UNL     1       4.157 -13.972  -2.525  1.00  0.00    -0.206 F 
ATOM     64  C   UNL     1       3.628 -15.920   0.483  1.00  0.00     0.006 A 
ENDBRANCH  43  57
BRANCH  44  65
ATOM     65  C   UNL     1      -3.102  -9.803  -8.538  1.00  0.00     0.057 A 
ATOM     66  C   UNL     1      -4.248 -10.349  -9.128  1.00  0.00     0.134 A 
ATOM     67  C   UNL     1      -2.693  -8.538  -8.973  1.00  0.00     0.134 A 
ATOM     68  F   UNL     1      -4.678 -11.566  -8.765  1.00  0.00    -0.206 F 
ATOM     69  C   UNL     1      -4.952  -9.672 -10.125  1.00  0.00     0.040 A 
ATOM     70  C   UNL     1      -3.399  -7.839  -9.954  1.00  0.00     0.040 A 
ATOM     71  F   UNL     1      -1.608  -7.957  -8.440  1.00  0.00    -0.206 F 
ATOM     72  C   UNL     1      -4.529  -8.410 -10.537  1.00  0.00     0.006 A 
ENDBRANCH  44  65
BRANCH  56  73
ATOM     73  C   UNL     1       0.834 -15.545  -8.630  1.00  0.00     0.057 A 
ATOM     74  C   UNL     1       1.766 -15.222  -9.623  1.00  0.00     0.134 A 
ATOM     75  C   UNL     1       0.278 -16.831  -8.653  1.00  0.00     0.134 A 
ATOM     76  F   UNL     1       2.323 -14.002  -9.661  1.00  0.00    -0.206 F 
ATOM     77  C   UNL     1       2.122 -16.140 -10.612  1.00  0.00     0.040 A 
ATOM     78  C   UNL     1       0.643 -17.764  -9.623  1.00  0.00     0.040 A 
ATOM     79  F   UNL     1      -0.615 -17.203  -7.724  1.00  0.00    -0.206 F 
ATOM     80  C   UNL     1       1.565 -17.418 -10.608  1.00  0.00     0.006 A 
ENDBRANCH  56  73
ENDBRANCH  30  31
ENDBRANCH  22  25
ENDBRANCH  20  21
ENDBRANCH   1  20
TORSDOF 12
