REMARK SMILES Cc1ccc(N2CCC[C@@H](Cn3cc(C(=O)NCCCCNC(=O)c4ccc(-c5c6nc(c(-c7c(F)cccc7F)c7ccc([nH]7)c(-c7c(F)cccc7F)c7nc(c(-c8c(F)cccc8F)c8ccc5[nH]8)C=C7)C=C6)cc4)nn3)C2)nn1
REMARK SMILES IDX 19 1 18 2 17 3 15 4 16 5 14 7 12 8 13 9 80 10 79 11 11 12
REMARK SMILES IDX 10 13 6 14 7 15 81 16 8 17 9 18 5 19 1 20 2 21 3 22 83 23
REMARK SMILES IDX 4 24 82 25 20 26 21 27 22 28 23 29 24 31 25 32 26 33 78 34
REMARK SMILES IDX 27 35 77 36 28 37 29 38 30 39 71 40 31 41 76 42 70 43 72 44
REMARK SMILES IDX 32 45 75 46 69 47 68 48 33 50 59 51 42 52 58 53 43 54 46 55
REMARK SMILES IDX 57 56 73 57 44 58 45 59 56 61 74 62 47 63 34 64 35 65 40 66
REMARK SMILES IDX 36 67 37 68 39 69 41 70 38 71 60 72 61 73 66 74 62 75 63 76
REMARK SMILES IDX 65 77 67 78 64 79 48 80 49 81 54 82 50 83 51 84 53 85 55 86
REMARK SMILES IDX 52 87
REMARK H PARENT 17 6 22 30 72 49 46 60
REMARK Flexibility Score: inf
ROOT
ATOM      1  C   UNL     1       2.528   7.101  -4.606  1.00  0.00     0.023 C 
ENDROOT
BRANCH   1   2
ATOM      2  C   UNL     1       1.033   6.987  -4.907  1.00  0.00     0.116 C 
BRANCH   2   3
ATOM      3  N   UNL     1       0.592   7.995  -5.853  1.00  0.00    -0.351 N 
ATOM      4  C   UNL     1       0.275   7.905  -7.190  1.00  0.00     0.273 C 
ATOM      5  O   UNL     1      -0.191   8.923  -7.719  1.00  0.00    -0.267 OA
ATOM      6  H   UNL     1       0.504   8.899  -5.474  1.00  0.00     0.163 HD
BRANCH   4   7
ATOM      7  C   UNL     1       0.417   6.653  -7.921  1.00  0.00     0.170 A 
ATOM      8  N   UNL     1       0.733   4.598  -8.502  1.00  0.00    -0.251 N 
ATOM      9  C   UNL     1       1.266   5.580  -7.720  1.00  0.00     0.145 A 
ATOM     10  N   UNL     1      -0.165   5.096  -9.361  1.00  0.00    -0.067 NA
ATOM     11  N   UNL     1      -0.391   6.352  -8.999  1.00  0.00    -0.125 NA
BRANCH   8  12
ATOM     12  C   UNL     1       0.862   3.167  -8.324  1.00  0.00     0.151 C 
BRANCH  12  13
ATOM     13  C   UNL     1      -0.115   2.568  -7.287  1.00  0.00     0.030 C 
ATOM     14  N   UNL     1      -0.790   2.442  -4.972  1.00  0.00    -0.355 N 
ATOM     15  C   UNL     1      -2.189   2.765  -5.194  1.00  0.00     0.118 C 
ATOM     16  C   UNL     1       0.176   3.060  -5.856  1.00  0.00     0.123 C 
ATOM     17  C   UNL     1      -2.562   2.256  -6.582  1.00  0.00     0.022 C 
ATOM     18  C   UNL     1      -1.602   2.799  -7.649  1.00  0.00     0.009 C 
BRANCH  14  19
ATOM     19  C   UNL     1      -0.384   1.903  -3.773  1.00  0.00     0.151 A 
ATOM     20  C   UNL     1       1.030   0.159  -0.175  1.00  0.00     0.069 C 
ATOM     21  C   UNL     1       0.512   0.737  -1.453  1.00  0.00     0.060 A 
ATOM     22  C   UNL     1      -0.413   0.060  -2.225  1.00  0.00     0.029 A 
ATOM     23  N   UNL     1       0.972   1.949  -1.828  1.00  0.00    -0.154 NA
ATOM     24  C   UNL     1      -0.872   0.661  -3.390  1.00  0.00     0.051 A 
ATOM     25  N   UNL     1       0.537   2.521  -3.006  1.00  0.00    -0.133 NA
ENDBRANCH  14  19
ENDBRANCH  12  13
ENDBRANCH   8  12
ENDBRANCH   4   7
ENDBRANCH   2   3
ENDBRANCH   1   2
BRANCH   1  26
ATOM     26  C   UNL     1       2.910   8.284  -3.705  1.00  0.00     0.023 C 
BRANCH  26  27
ATOM     27  C   UNL     1       2.339   8.202  -2.295  1.00  0.00     0.116 C 
BRANCH  27  28
ATOM     28  N   UNL     1       2.831   7.044  -1.553  1.00  0.00    -0.352 N 
ATOM     29  C   UNL     1       2.521   6.681  -0.261  1.00  0.00     0.251 C 
ATOM     30  H   UNL     1       3.456   6.454  -2.032  1.00  0.00     0.163 HD
ATOM     31  O   UNL     1       3.287   5.977   0.398  1.00  0.00    -0.269 OA
BRANCH  29  32
ATOM     32  C   UNL     1       1.248   7.131   0.322  1.00  0.00     0.039 A 
ATOM     33  C   UNL     1       1.153   7.489   1.670  1.00  0.00     0.014 A 
ATOM     34  C   UNL     1       0.124   7.161  -0.506  1.00  0.00     0.014 A 
ATOM     35  C   UNL     1      -0.075   7.912   2.165  1.00  0.00     0.010 A 
ATOM     36  C   UNL     1      -1.048   7.710  -0.058  1.00  0.00     0.010 A 
ATOM     37  C   UNL     1      -1.168   8.017   1.290  1.00  0.00    -0.014 A 
BRANCH  37  38
ATOM     38  C   UNL     1      -2.442   8.543   1.745  1.00  0.00     0.031 A 
ATOM     39  C   UNL     1      -2.373   9.951   2.208  1.00  0.00     0.074 A 
ATOM     40  C   UNL     1      -3.609   7.888   1.569  1.00  0.00     0.049 A 
ATOM     41  N   UNL     1      -2.416  10.373   3.426  1.00  0.00    -0.248 NA
ATOM     42  C   UNL     1      -2.039  10.996   1.227  1.00  0.00     0.031 C 
ATOM     43  C   UNL     1      -3.863   6.644   0.835  1.00  0.00     0.029 A 
ATOM     44  N   UNL     1      -4.856   8.259   1.963  1.00  0.00    -0.354 N 
ATOM     45  C   UNL     1      -2.356  11.761   3.350  1.00  0.00     0.074 A 
ATOM     46  C   UNL     1      -1.909  12.065   2.017  1.00  0.00     0.031 C 
ATOM     47  C   UNL     1      -5.195   6.482   0.659  1.00  0.00     0.029 A 
ATOM     48  C   UNL     1      -5.891   7.517   1.402  1.00  0.00     0.049 A 
ATOM     49  H   UNL     1      -5.015   8.995   2.597  1.00  0.00     0.167 HD
ATOM     50  C   UNL     1      -2.950  12.530   4.304  1.00  0.00     0.037 A 
ATOM     51  C   UNL     1      -7.220   7.764   1.535  1.00  0.00     0.037 A 
ATOM     52  C   UNL     1      -3.269  11.735   5.470  1.00  0.00     0.049 A 
ATOM     53  C   UNL     1      -7.390   8.639   2.723  1.00  0.00     0.074 A 
ATOM     54  C   UNL     1      -2.541  10.972   6.363  1.00  0.00     0.029 A 
ATOM     55  N   UNL     1      -4.574  11.328   5.613  1.00  0.00    -0.354 N 
ATOM     56  N   UNL     1      -7.173   8.241   3.945  1.00  0.00    -0.248 NA
ATOM     57  C   UNL     1      -7.318  10.077   2.513  1.00  0.00     0.031 C 
ATOM     58  C   UNL     1      -3.358   9.830   6.623  1.00  0.00     0.029 A 
ATOM     59  C   UNL     1      -4.565   9.999   5.944  1.00  0.00     0.049 A 
ATOM     60  H   UNL     1      -5.373  11.892   5.498  1.00  0.00     0.167 HD
ATOM     61  C   UNL     1      -6.498   9.296   4.543  1.00  0.00     0.074 A 
ATOM     62  C   UNL     1      -6.687  10.429   3.637  1.00  0.00     0.031 C 
ATOM     63  C   UNL     1      -5.606   9.076   5.554  1.00  0.00     0.037 A 
BRANCH  50  64
ATOM     64  C   UNL     1      -3.644  13.849   4.039  1.00  0.00     0.057 A 
ATOM     65  C   UNL     1      -4.074  14.296   2.774  1.00  0.00     0.134 A 
ATOM     66  C   UNL     1      -4.199  14.543   5.132  1.00  0.00     0.134 A 
ATOM     67  F   UNL     1      -3.668  13.738   1.629  1.00  0.00    -0.206 F 
ATOM     68  C   UNL     1      -5.040  15.293   2.610  1.00  0.00     0.040 A 
ATOM     69  C   UNL     1      -5.202  15.508   4.980  1.00  0.00     0.040 A 
ATOM     70  F   UNL     1      -3.857  14.233   6.392  1.00  0.00    -0.206 F 
ATOM     71  C   UNL     1      -5.640  15.872   3.715  1.00  0.00     0.006 A 
ENDBRANCH  50  64
BRANCH  51  72
ATOM     72  C   UNL     1      -8.318   7.547   0.565  1.00  0.00     0.057 A 
ATOM     73  C   UNL     1      -8.091   7.637  -0.819  1.00  0.00     0.134 A 
ATOM     74  C   UNL     1      -9.661   7.542   0.969  1.00  0.00     0.134 A 
ATOM     75  F   UNL     1      -6.845   7.723  -1.309  1.00  0.00    -0.206 F 
ATOM     76  C   UNL     1      -9.135   7.740  -1.745  1.00  0.00     0.040 A 
ATOM     77  C   UNL     1     -10.717   7.646   0.052  1.00  0.00     0.040 A 
ATOM     78  F   UNL     1      -9.980   7.503   2.271  1.00  0.00    -0.206 F 
ATOM     79  C   UNL     1     -10.455   7.759  -1.310  1.00  0.00     0.006 A 
ENDBRANCH  51  72
BRANCH  63  80
ATOM     80  C   UNL     1      -5.570   7.701   6.164  1.00  0.00     0.057 A 
ATOM     81  C   UNL     1      -5.779   7.575   7.540  1.00  0.00     0.134 A 
ATOM     82  C   UNL     1      -5.231   6.529   5.467  1.00  0.00     0.134 A 
ATOM     83  F   UNL     1      -6.048   8.659   8.284  1.00  0.00    -0.206 F 
ATOM     84  C   UNL     1      -5.683   6.344   8.193  1.00  0.00     0.040 A 
ATOM     85  C   UNL     1      -5.166   5.284   6.102  1.00  0.00     0.040 A 
ATOM     86  F   UNL     1      -4.910   6.561   4.168  1.00  0.00    -0.206 F 
ATOM     87  C   UNL     1      -5.391   5.190   7.471  1.00  0.00     0.006 A 
ENDBRANCH  63  80
ENDBRANCH  37  38
ENDBRANCH  29  32
ENDBRANCH  27  28
ENDBRANCH  26  27
ENDBRANCH   1  26
TORSDOF 14
