REMARK SMILES O=C(NCCCCNC(=O)[C@H]1Cc2c([nH]c3ccccc23)[C@H](c2c[nH]c3ccccc23)[NH2+]1)c1ccc(-c2c3nc(c(-c4c(F)cccc4F)c4ccc([nH]4)c(-c4c(F)cccc4F)c4nc(c(-c5c(F)cccc5F)c5ccc2[nH]5)C=C4)C=C3)cc1
REMARK SMILES IDX 5 1 4 2 3 3 1 4 2 5 33 7 34 8 86 9 35 10 85 11 36 12 37 13
REMARK SMILES IDX 38 14 79 15 39 16 84 17 78 18 80 19 40 20 83 21 77 22 76 23
REMARK SMILES IDX 41 25 67 26 50 27 66 28 51 29 54 30 65 31 81 32 52 33 53 34
REMARK SMILES IDX 64 36 82 37 55 38 42 39 43 40 48 41 44 42 45 43 47 44 49 45
REMARK SMILES IDX 46 46 68 47 69 48 74 49 70 50 71 51 73 52 75 53 72 54 56 55
REMARK SMILES IDX 57 56 62 57 58 58 59 59 61 60 63 61 60 62 6 63 7 64 8 65
REMARK SMILES IDX 9 66 10 68 11 69 12 70 32 71 13 72 22 73 14 76 21 77 15 78
REMARK SMILES IDX 16 79 20 80 17 82 19 83 18 84 23 85 24 86 31 87 25 88 26 89
REMARK SMILES IDX 30 90 27 92 29 93 28 94
REMARK H PARENT 3 6 80 24 54 35 8 67 32 74 32 75 15 81 25 91
REMARK Flexibility Score: inf
ROOT
ATOM      1  C   UNL     1       5.343   1.176  -2.206  1.00  0.00     0.023 C 
ENDROOT
BRANCH   1   2
ATOM      2  C   UNL     1       4.834   0.656  -0.871  1.00  0.00     0.116 C 
BRANCH   2   3
ATOM      3  N   UNL     1       3.385   0.724  -0.717  1.00  0.00    -0.352 N 
ATOM      4  O   UNL     1       1.343  -0.035  -0.102  1.00  0.00    -0.269 OA
ATOM      5  C   UNL     1       2.552  -0.176  -0.086  1.00  0.00     0.251 C 
ATOM      6  H   UNL     1       2.947   1.511  -1.113  1.00  0.00     0.163 HD
BRANCH   5   7
ATOM      7  C   UNL     1       3.171  -1.342   0.578  1.00  0.00     0.039 A 
ATOM      8  C   UNL     1       4.268  -1.153   1.417  1.00  0.00     0.014 A 
ATOM      9  C   UNL     1       2.714  -2.627   0.277  1.00  0.00     0.014 A 
ATOM     10  C   UNL     1       5.024  -2.247   1.800  1.00  0.00     0.010 A 
ATOM     11  C   UNL     1       3.416  -3.735   0.761  1.00  0.00     0.010 A 
ATOM     12  C   UNL     1       4.600  -3.552   1.489  1.00  0.00    -0.014 A 
BRANCH  12  13
ATOM     13  C   UNL     1       5.403  -4.689   2.001  1.00  0.00     0.031 A 
ATOM     14  C   UNL     1       6.114  -5.632   1.072  1.00  0.00     0.074 A 
ATOM     15  C   UNL     1       5.551  -4.802   3.335  1.00  0.00     0.049 A 
ATOM     16  N   UNL     1       6.906  -6.631   1.371  1.00  0.00    -0.248 NA
ATOM     17  C   UNL     1       5.911  -5.441  -0.372  1.00  0.00     0.031 C 
ATOM     18  C   UNL     1       4.896  -3.943   4.327  1.00  0.00     0.029 A 
ATOM     19  N   UNL     1       6.327  -5.643   4.086  1.00  0.00    -0.354 N 
ATOM     20  C   UNL     1       7.275  -7.202   0.160  1.00  0.00     0.074 A 
ATOM     21  C   UNL     1       6.610  -6.448  -0.881  1.00  0.00     0.031 C 
ATOM     22  C   UNL     1       5.360  -4.248   5.546  1.00  0.00     0.029 A 
ATOM     23  C   UNL     1       6.283  -5.369   5.431  1.00  0.00     0.049 A 
ATOM     24  H   UNL     1       6.864  -6.372   3.700  1.00  0.00     0.167 HD
ATOM     25  C   UNL     1       8.097  -8.257  -0.058  1.00  0.00     0.037 A 
ATOM     26  C   UNL     1       6.910  -5.960   6.463  1.00  0.00     0.037 A 
ATOM     27  C   UNL     1       8.774  -8.987   0.984  1.00  0.00     0.049 A 
ATOM     28  C   UNL     1       7.824  -7.114   6.186  1.00  0.00     0.074 A 
ATOM     29  C   UNL     1       9.633 -10.067   0.864  1.00  0.00     0.029 A 
ATOM     30  N   UNL     1       8.676  -8.704   2.338  1.00  0.00    -0.354 N 
ATOM     31  N   UNL     1       8.153  -7.646   5.035  1.00  0.00    -0.248 NA
ATOM     32  C   UNL     1       8.441  -7.758   7.352  1.00  0.00     0.031 C 
ATOM     33  C   UNL     1      10.032 -10.455   2.148  1.00  0.00     0.029 A 
ATOM     34  C   UNL     1       9.450  -9.595   3.065  1.00  0.00     0.049 A 
ATOM     35  H   UNL     1       8.136  -7.978   2.726  1.00  0.00     0.167 HD
ATOM     36  C   UNL     1       9.009  -8.693   5.335  1.00  0.00     0.074 A 
ATOM     37  C   UNL     1       9.179  -8.695   6.775  1.00  0.00     0.031 C 
ATOM     38  C   UNL     1       9.591  -9.585   4.497  1.00  0.00     0.037 A 
BRANCH  25  39
ATOM     39  C   UNL     1       8.305  -8.702  -1.476  1.00  0.00     0.057 A 
ATOM     40  C   UNL     1       9.125  -7.991  -2.360  1.00  0.00     0.134 A 
ATOM     41  C   UNL     1       7.734  -9.894  -1.940  1.00  0.00     0.134 A 
ATOM     42  F   UNL     1       9.692  -6.836  -1.981  1.00  0.00    -0.206 F 
ATOM     43  C   UNL     1       9.365  -8.447  -3.659  1.00  0.00     0.040 A 
ATOM     44  C   UNL     1       7.981 -10.370  -3.230  1.00  0.00     0.040 A 
ATOM     45  F   UNL     1       6.942 -10.626  -1.142  1.00  0.00    -0.206 F 
ATOM     46  C   UNL     1       8.799  -9.644  -4.093  1.00  0.00     0.006 A 
ENDBRANCH  25  39
BRANCH  26  47
ATOM     47  C   UNL     1       6.674  -5.474   7.843  1.00  0.00     0.057 A 
ATOM     48  C   UNL     1       7.676  -4.817   8.563  1.00  0.00     0.134 A 
ATOM     49  C   UNL     1       5.430  -5.638   8.466  1.00  0.00     0.134 A 
ATOM     50  F   UNL     1       8.892  -4.643   8.024  1.00  0.00    -0.206 F 
ATOM     51  C   UNL     1       7.454  -4.348   9.859  1.00  0.00     0.040 A 
ATOM     52  C   UNL     1       5.186  -5.151   9.749  1.00  0.00     0.040 A 
ATOM     53  F   UNL     1       4.426  -6.251   7.822  1.00  0.00    -0.206 F 
ATOM     54  C   UNL     1       6.203  -4.509  10.452  1.00  0.00     0.006 A 
ENDBRANCH  26  47
BRANCH  38  55
ATOM     55  C   UNL     1      10.456 -10.629   5.132  1.00  0.00     0.057 A 
ATOM     56  C   UNL     1       9.902 -11.705   5.838  1.00  0.00     0.134 A 
ATOM     57  C   UNL     1      11.851 -10.558   5.042  1.00  0.00     0.134 A 
ATOM     58  F   UNL     1       8.572 -11.817   5.973  1.00  0.00    -0.206 F 
ATOM     59  C   UNL     1      10.709 -12.660   6.458  1.00  0.00     0.040 A 
ATOM     60  C   UNL     1      12.667 -11.518   5.639  1.00  0.00     0.040 A 
ATOM     61  F   UNL     1      12.440  -9.553   4.376  1.00  0.00    -0.206 F 
ATOM     62  C   UNL     1      12.096 -12.569   6.356  1.00  0.00     0.006 A 
ENDBRANCH  38  55
ENDBRANCH  12  13
ENDBRANCH   5   7
ENDBRANCH   2   3
ENDBRANCH   1   2
BRANCH   1  63
ATOM     63  C   UNL     1       4.916   2.602  -2.524  1.00  0.00     0.023 C 
BRANCH  63  64
ATOM     64  C   UNL     1       5.408   3.656  -1.533  1.00  0.00     0.116 C 
BRANCH  64  65
ATOM     65  N   UNL     1       6.795   3.966  -1.783  1.00  0.00    -0.351 N 
ATOM     66  C   UNL     1       7.354   4.979  -2.507  1.00  0.00     0.278 C 
ATOM     67  H   UNL     1       7.440   3.350  -1.365  1.00  0.00     0.163 HD
ATOM     68  O   UNL     1       8.573   4.908  -2.688  1.00  0.00    -0.268 OA
BRANCH  66  69
ATOM     69  C   UNL     1       6.495   6.151  -3.043  1.00  0.00     0.277 C 
ATOM     70  C   UNL     1       7.250   7.440  -2.619  1.00  0.00     0.114 C 
ATOM     71  N   UNL     1       6.297   5.993  -4.511  1.00  0.00    -0.324 N 
ATOM     72  C   UNL     1       6.742   8.606  -3.375  1.00  0.00    -0.006 A 
ATOM     73  C   UNL     1       5.703   7.136  -5.225  1.00  0.00     0.264 C 
ATOM     74  H   UNL     1       5.688   5.188  -4.655  1.00  0.00     0.347 HD
ATOM     75  H   UNL     1       7.235   5.892  -4.899  1.00  0.00     0.347 HD
ATOM     76  C   UNL     1       6.061   8.435  -4.561  1.00  0.00     0.083 A 
ATOM     77  C   UNL     1       6.861   9.997  -3.121  1.00  0.00     0.003 A 
ATOM     78  N   UNL     1       5.805   9.684  -5.063  1.00  0.00    -0.353 N 
ATOM     79  C   UNL     1       6.262  10.653  -4.198  1.00  0.00     0.046 A 
ATOM     80  C   UNL     1       7.429  10.769  -2.090  1.00  0.00     0.010 A 
ATOM     81  H   UNL     1       5.358   9.863  -5.922  1.00  0.00     0.166 HD
ATOM     82  C   UNL     1       6.199  12.047  -4.294  1.00  0.00     0.026 A 
ATOM     83  C   UNL     1       7.369  12.165  -2.167  1.00  0.00     0.001 A 
ATOM     84  C   UNL     1       6.763  12.792  -3.254  1.00  0.00     0.002 A 
BRANCH  73  85
ATOM     85  C   UNL     1       4.207   7.027  -5.521  1.00  0.00     0.041 A 
ATOM     86  C   UNL     1       3.568   7.828  -6.466  1.00  0.00     0.093 A 
ATOM     87  C   UNL     1       3.166   6.163  -5.014  1.00  0.00     0.009 A 
ATOM     88  N   UNL     1       2.228   7.567  -6.462  1.00  0.00    -0.361 N 
ATOM     89  C   UNL     1       1.954   6.537  -5.603  1.00  0.00     0.046 A 
ATOM     90  C   UNL     1       3.109   5.083  -4.114  1.00  0.00     0.011 A 
ATOM     91  H   UNL     1       1.558   8.048  -6.999  1.00  0.00     0.166 HD
ATOM     92  C   UNL     1       0.727   5.919  -5.321  1.00  0.00     0.026 A 
ATOM     93  C   UNL     1       1.900   4.433  -3.829  1.00  0.00     0.001 A 
ATOM     94  C   UNL     1       0.721   4.854  -4.423  1.00  0.00     0.002 A 
ENDBRANCH  73  85
ENDBRANCH  66  69
ENDBRANCH  64  65
ENDBRANCH  63  64
ENDBRANCH   1  63
TORSDOF 12
