REMARK SMILES CN1CC(=O)N(CC(=O)N2CCCC[C@H]2C(=O)NCCCCNC(=O)c2ccc(-c3c4nc(c(-c5c(F)cccc5F)c5ccc([nH]5)c(-c5c(F)cccc5F)c5nc(c(-c6c(F)cccc6F)c6ccc3[nH]6)C=C5)C=C4)cc2)C1=O
REMARK SMILES IDX 20 1 19 2 18 3 16 4 17 5 15 7 10 8 11 9 12 10 14 11 13 12
REMARK SMILES IDX 8 13 9 14 7 15 6 16 1 17 2 18 3 19 80 20 4 21 81 22 5 23
REMARK SMILES IDX 21 24 22 25 23 26 24 27 25 29 26 30 27 31 79 32 28 33 78 34
REMARK SMILES IDX 29 35 30 36 31 37 72 38 32 39 77 40 71 41 73 42 33 43 76 44
REMARK SMILES IDX 70 45 69 46 34 48 60 49 43 50 59 51 44 52 47 53 58 54 74 55
REMARK SMILES IDX 45 56 46 57 57 59 75 60 48 61 35 62 36 63 41 64 37 65 38 66
REMARK SMILES IDX 40 67 42 68 39 69 61 70 62 71 67 72 63 73 64 74 66 75 68 76
REMARK SMILES IDX 65 77 49 78 50 79 55 80 51 81 52 82 54 83 56 84 53 85
REMARK H PARENT 18 6 23 28 73 47 47 58
REMARK Flexibility Score: inf
ROOT
ATOM      1  C   UNL     1       0.414   4.975  -4.291  1.00  0.00     0.023 C 
ENDROOT
BRANCH   1   2
ATOM      2  C   UNL     1       1.794   4.456  -4.677  1.00  0.00     0.116 C 
BRANCH   2   3
ATOM      3  N   UNL     1       2.619   4.141  -3.533  1.00  0.00    -0.354 N 
ATOM      4  C   UNL     1       3.344   3.041  -3.198  1.00  0.00     0.242 C 
ATOM      5  O   UNL     1       3.990   3.130  -2.144  1.00  0.00    -0.273 OA
ATOM      6  H   UNL     1       2.665   4.864  -2.866  1.00  0.00     0.163 HD
BRANCH   4   7
ATOM      7  C   UNL     1       3.281   1.680  -3.959  1.00  0.00     0.174 C 
ATOM      8  N   UNL     1       2.852   1.644  -5.365  1.00  0.00    -0.329 N 
ATOM      9  C   UNL     1       3.840   2.181  -6.317  1.00  0.00     0.120 C 
ATOM     10  C   UNL     1       5.204   1.516  -6.188  1.00  0.00     0.022 C 
ATOM     11  C   UNL     1       4.632   0.940  -3.824  1.00  0.00     0.035 C 
ATOM     12  C   UNL     1       5.693   1.534  -4.745  1.00  0.00     0.004 C 
BRANCH   8  13
ATOM     13  C   UNL     1       1.613   1.236  -5.859  1.00  0.00     0.243 C 
ATOM     14  O   UNL     1       1.416   1.251  -7.084  1.00  0.00    -0.273 OA
BRANCH  13  15
ATOM     15  C   UNL     1       0.357   1.056  -4.970  1.00  0.00     0.230 C 
BRANCH  15  16
ATOM     16  N   UNL     1       0.404   0.348  -3.716  1.00  0.00    -0.253 N 
ATOM     17  C   UNL     1       0.562   0.135  -0.117  1.00  0.00     0.149 C 
ATOM     18  N   UNL     1       0.393  -0.072  -1.535  1.00  0.00    -0.318 N 
ATOM     19  C   UNL     1       0.398  -1.384  -2.134  1.00  0.00     0.221 C 
ATOM     20  C   UNL     1       0.349   0.931  -2.482  1.00  0.00     0.327 C 
ATOM     21  C   UNL     1       0.392  -1.012  -3.607  1.00  0.00     0.250 C 
ATOM     22  O   UNL     1       0.317   2.129  -2.252  1.00  0.00    -0.248 OA
ATOM     23  O   UNL     1       0.380  -1.813  -4.530  1.00  0.00    -0.272 OA
ENDBRANCH  15  16
ENDBRANCH  13  15
ENDBRANCH   8  13
ENDBRANCH   4   7
ENDBRANCH   2   3
ENDBRANCH   1   2
BRANCH   1  24
ATOM     24  C   UNL     1       0.396   6.407  -3.770  1.00  0.00     0.023 C 
BRANCH  24  25
ATOM     25  C   UNL     1       1.069   7.426  -4.678  1.00  0.00     0.116 C 
BRANCH  25  26
ATOM     26  N   UNL     1       0.566   7.415  -6.046  1.00  0.00    -0.352 N 
ATOM     27  C   UNL     1       0.282   8.486  -6.859  1.00  0.00     0.251 C 
ATOM     28  H   UNL     1       0.410   6.525  -6.438  1.00  0.00     0.163 HD
ATOM     29  O   UNL     1      -0.226   8.325  -7.962  1.00  0.00    -0.269 OA
BRANCH  27  30
ATOM     30  C   UNL     1       0.562   9.844  -6.357  1.00  0.00     0.039 A 
ATOM     31  C   UNL     1      -0.457  10.797  -6.377  1.00  0.00     0.014 A 
ATOM     32  C   UNL     1       1.808  10.139  -5.797  1.00  0.00     0.014 A 
ATOM     33  C   UNL     1      -0.248  12.033  -5.764  1.00  0.00     0.010 A 
ATOM     34  C   UNL     1       1.981  11.334  -5.112  1.00  0.00     0.010 A 
ATOM     35  C   UNL     1       0.958  12.295  -5.094  1.00  0.00    -0.014 A 
BRANCH  35  36
ATOM     36  C   UNL     1       1.188  13.580  -4.392  1.00  0.00     0.031 A 
ATOM     37  C   UNL     1       2.287  14.494  -4.859  1.00  0.00     0.074 A 
ATOM     38  C   UNL     1       0.460  13.893  -3.302  1.00  0.00     0.049 A 
ATOM     39  N   UNL     1       2.712  15.614  -4.333  1.00  0.00    -0.248 NA
ATOM     40  C   UNL     1       3.032  14.073  -6.057  1.00  0.00     0.031 C 
ATOM     41  C   UNL     1      -0.599  13.065  -2.720  1.00  0.00     0.029 A 
ATOM     42  N   UNL     1       0.509  14.992  -2.482  1.00  0.00    -0.354 N 
ATOM     43  C   UNL     1       3.781  16.017  -5.123  1.00  0.00     0.074 A 
ATOM     44  C   UNL     1       3.981  14.993  -6.124  1.00  0.00     0.031 C 
ATOM     45  C   UNL     1      -1.117  13.699  -1.655  1.00  0.00     0.029 A 
ATOM     46  C   UNL     1      -0.406  14.959  -1.458  1.00  0.00     0.049 A 
ATOM     47  H   UNL     1       1.141  15.735  -2.616  1.00  0.00     0.167 HD
ATOM     48  C   UNL     1       4.512  17.152  -5.041  1.00  0.00     0.037 A 
ATOM     49  C   UNL     1      -0.642  15.846  -0.474  1.00  0.00     0.037 A 
ATOM     50  C   UNL     1       4.285  18.188  -4.070  1.00  0.00     0.049 A 
ATOM     51  C   UNL     1       0.174  17.109  -0.416  1.00  0.00     0.074 A 
ATOM     52  C   UNL     1       4.938  19.400  -3.932  1.00  0.00     0.029 A 
ATOM     53  N   UNL     1       3.321  18.134  -3.074  1.00  0.00    -0.354 N 
ATOM     54  N   UNL     1       1.145  17.504  -1.203  1.00  0.00    -0.248 NA
ATOM     55  C   UNL     1      -0.146  18.055   0.663  1.00  0.00     0.031 C 
ATOM     56  C   UNL     1       4.387  20.069  -2.835  1.00  0.00     0.029 A 
ATOM     57  C   UNL     1       3.365  19.291  -2.315  1.00  0.00     0.049 A 
ATOM     58  H   UNL     1       2.699  17.386  -2.929  1.00  0.00     0.167 HD
ATOM     59  C   UNL     1       1.525  18.756  -0.739  1.00  0.00     0.074 A 
ATOM     60  C   UNL     1       0.675  19.059   0.393  1.00  0.00     0.031 C 
ATOM     61  C   UNL     1       2.492  19.583  -1.208  1.00  0.00     0.037 A 
BRANCH  48  62
ATOM     62  C   UNL     1       5.612  17.338  -6.044  1.00  0.00     0.057 A 
ATOM     63  C   UNL     1       5.340  17.587  -7.396  1.00  0.00     0.134 A 
ATOM     64  C   UNL     1       6.955  17.290  -5.653  1.00  0.00     0.134 A 
ATOM     65  F   UNL     1       4.074  17.629  -7.839  1.00  0.00    -0.206 F 
ATOM     66  C   UNL     1       6.365  17.757  -8.328  1.00  0.00     0.040 A 
ATOM     67  C   UNL     1       7.989  17.485  -6.571  1.00  0.00     0.040 A 
ATOM     68  F   UNL     1       7.285  17.057  -4.374  1.00  0.00    -0.206 F 
ATOM     69  C   UNL     1       7.695  17.713  -7.914  1.00  0.00     0.006 A 
ENDBRANCH  48  62
BRANCH  49  70
ATOM     70  C   UNL     1      -1.718  15.598   0.519  1.00  0.00     0.057 A 
ATOM     71  C   UNL     1      -2.887  16.368   0.521  1.00  0.00     0.134 A 
ATOM     72  C   UNL     1      -1.597  14.608   1.501  1.00  0.00     0.134 A 
ATOM     73  F   UNL     1      -3.053  17.343  -0.385  1.00  0.00    -0.206 F 
ATOM     74  C   UNL     1      -3.884  16.184   1.479  1.00  0.00     0.040 A 
ATOM     75  C   UNL     1      -2.598  14.396   2.451  1.00  0.00     0.040 A 
ATOM     76  F   UNL     1      -0.505  13.831   1.549  1.00  0.00    -0.206 F 
ATOM     77  C   UNL     1      -3.742  15.192   2.447  1.00  0.00     0.006 A 
ENDBRANCH  49  70
BRANCH  61  78
ATOM     78  C   UNL     1       2.643  20.913  -0.534  1.00  0.00     0.057 A 
ATOM     79  C   UNL     1       3.210  21.039   0.740  1.00  0.00     0.134 A 
ATOM     80  C   UNL     1       2.253  22.088  -1.190  1.00  0.00     0.134 A 
ATOM     81  F   UNL     1       3.593  19.950   1.425  1.00  0.00    -0.206 F 
ATOM     82  C   UNL     1       3.363  22.286   1.348  1.00  0.00     0.040 A 
ATOM     83  C   UNL     1       2.425  23.342  -0.603  1.00  0.00     0.040 A 
ATOM     84  F   UNL     1       1.712  22.036  -2.416  1.00  0.00    -0.206 F 
ATOM     85  C   UNL     1       2.976  23.442   0.673  1.00  0.00     0.006 A 
ENDBRANCH  61  78
ENDBRANCH  35  36
ENDBRANCH  27  30
ENDBRANCH  25  26
ENDBRANCH  24  25
ENDBRANCH   1  24
TORSDOF 14
