REMARK SMILES CC(C)[C@@H](NC(=O)[C@@H]1CC[C@@H]2CCCC[C@@H]2[NH2+]1)C(=O)NCCCCNC(=O)c1ccc(-c2c3nc(c(-c4c(F)cccc4F)c4ccc([nH]4)c(-c4c(F)cccc4F)c4nc(c(-c5c(F)cccc5F)c5ccc2[nH]5)C=C4)C=C3)cc1
REMARK SMILES IDX 22 1 21 2 20 3 18 4 19 5 4 7 2 8 1 9 3 10 5 11 6 12 7 14
REMARK SMILES IDX 8 15 9 16 17 17 10 18 16 19 11 22 15 23 12 24 14 25 13 26
REMARK SMILES IDX 23 27 24 28 25 29 26 30 27 32 28 33 29 34 81 35 30 36 80 37
REMARK SMILES IDX 31 38 32 39 33 40 74 41 34 42 79 43 73 44 75 45 35 46 78 47
REMARK SMILES IDX 72 48 71 49 36 51 62 52 45 53 61 54 46 55 49 56 60 57 76 58
REMARK SMILES IDX 47 59 48 60 59 62 77 63 50 64 37 65 38 66 43 67 39 68 40 69
REMARK SMILES IDX 42 70 44 71 41 72 63 73 64 74 69 75 65 76 66 77 68 78 70 79
REMARK SMILES IDX 67 80 51 81 52 82 57 83 53 84 54 85 56 86 58 87 55 88
REMARK H PARENT 20 6 5 13 17 20 17 21 25 31 75 50 49 61
REMARK Flexibility Score: inf
ROOT
ATOM      1  C   UNL     1      -0.807   0.039   3.441  1.00  0.00     0.023 C 
ENDROOT
BRANCH   1   2
ATOM      2  C   UNL     1      -1.116  -0.763   2.162  1.00  0.00     0.116 C 
BRANCH   2   3
ATOM      3  N   UNL     1      -1.457  -2.196   2.366  1.00  0.00    -0.354 N 
ATOM      4  C   UNL     1      -2.073  -2.689   3.546  1.00  0.00     0.242 C 
ATOM      5  O   UNL     1      -1.069  -2.747   4.322  1.00  0.00    -0.273 OA
ATOM      6  H   UNL     1      -1.245  -2.833   1.647  1.00  0.00     0.163 HD
BRANCH   4   7
ATOM      7  C   UNL     1      -4.014  -3.395   3.950  1.00  0.00     0.174 C 
BRANCH   7   8
ATOM      8  C   UNL     1      -4.548  -3.223   5.779  1.00  0.00     0.015 C 
ATOM      9  C   UNL     1      -5.459  -4.572   6.008  1.00  0.00     0.010 C 
ATOM     10  C   UNL     1      -3.086  -2.295   6.942  1.00  0.00     0.010 C 
ENDBRANCH   7   8
BRANCH   7  11
ATOM     11  N   UNL     1      -5.341  -3.160   3.254  1.00  0.00    -0.339 N 
ATOM     12  C   UNL     1      -5.148  -3.011   1.916  1.00  0.00     0.278 C 
ATOM     13  H   UNL     1      -6.216  -3.122   3.705  1.00  0.00     0.164 HD
ATOM     14  O   UNL     1      -5.930  -3.156   1.009  1.00  0.00    -0.268 OA
BRANCH  12  15
ATOM     15  C   UNL     1      -3.714  -2.620   1.940  1.00  0.00     0.272 C 
ATOM     16  C   UNL     1      -2.839  -4.298   2.181  1.00  0.00     0.076 C 
ATOM     17  N   UNL     1      -3.741  -1.326   3.253  1.00  0.00    -0.333 N 
ATOM     18  C   UNL     1      -2.155  -4.846   3.865  1.00  0.00     0.016 C 
ATOM     19  C   UNL     1      -3.315  -1.813   4.951  1.00  0.00     0.186 C 
ATOM     20  H   UNL     1      -4.685  -0.940   3.277  1.00  0.00     0.347 HD
ATOM     21  H   UNL     1      -3.001  -0.677   2.984  1.00  0.00     0.347 HD
ATOM     22  C   UNL     1      -2.604  -3.766   5.399  1.00  0.00     0.048 C 
ATOM     23  C   UNL     1      -4.661  -1.006   6.077  1.00  0.00     0.065 C 
ATOM     24  C   UNL     1      -2.953  -4.423   7.161  1.00  0.00     0.010 C 
ATOM     25  C   UNL     1      -5.161  -1.982   7.636  1.00  0.00     0.006 C 
ATOM     26  C   UNL     1      -4.385  -3.645   8.135  1.00  0.00     0.001 C 
ENDBRANCH  12  15
ENDBRANCH   7  11
ENDBRANCH   4   7
ENDBRANCH   2   3
ENDBRANCH   1   2
BRANCH   1  27
ATOM     27  C   UNL     1       0.308   1.077   3.389  1.00  0.00     0.023 C 
BRANCH  27  28
ATOM     28  C   UNL     1       0.322   1.975   2.175  1.00  0.00     0.116 C 
BRANCH  28  29
ATOM     29  N   UNL     1      -0.941   2.631   1.890  1.00  0.00    -0.352 N 
ATOM     30  C   UNL     1      -1.175   3.505   0.849  1.00  0.00     0.251 C 
ATOM     31  H   UNL     1      -1.695   2.435   2.492  1.00  0.00     0.163 HD
ATOM     32  O   UNL     1      -2.216   4.142   0.757  1.00  0.00    -0.269 OA
BRANCH  30  33
ATOM     33  C   UNL     1      -0.082   3.698  -0.126  1.00  0.00     0.039 A 
ATOM     34  C   UNL     1       0.537   4.946  -0.208  1.00  0.00     0.014 A 
ATOM     35  C   UNL     1       0.426   2.598  -0.821  1.00  0.00     0.014 A 
ATOM     36  C   UNL     1       1.733   5.066  -0.917  1.00  0.00     0.010 A 
ATOM     37  C   UNL     1       1.658   2.701  -1.455  1.00  0.00     0.010 A 
ATOM     38  C   UNL     1       2.330   3.932  -1.496  1.00  0.00    -0.014 A 
BRANCH  38  39
ATOM     39  C   UNL     1       3.675   4.012  -2.118  1.00  0.00     0.031 A 
ATOM     40  C   UNL     1       3.848   3.742  -3.584  1.00  0.00     0.074 A 
ATOM     41  C   UNL     1       4.753   4.242  -1.343  1.00  0.00     0.049 A 
ATOM     42  N   UNL     1       4.947   3.717  -4.294  1.00  0.00    -0.248 NA
ATOM     43  C   UNL     1       2.632   3.418  -4.346  1.00  0.00     0.031 C 
ATOM     44  C   UNL     1       4.735   4.418   0.112  1.00  0.00     0.029 A 
ATOM     45  N   UNL     1       6.079   4.364  -1.674  1.00  0.00    -0.354 N 
ATOM     46  C   UNL     1       4.561   3.331  -5.571  1.00  0.00     0.074 A 
ATOM     47  C   UNL     1       3.131   3.110  -5.533  1.00  0.00     0.031 C 
ATOM     48  C   UNL     1       5.985   4.660   0.541  1.00  0.00     0.029 A 
ATOM     49  C   UNL     1       6.890   4.649  -0.603  1.00  0.00     0.049 A 
ATOM     50  H   UNL     1       6.417   4.257  -2.593  1.00  0.00     0.167 HD
ATOM     51  C   UNL     1       5.326   3.187  -6.678  1.00  0.00     0.037 A 
ATOM     52  C   UNL     1       8.212   4.898  -0.556  1.00  0.00     0.037 A 
ATOM     53  C   UNL     1       6.734   3.467  -6.735  1.00  0.00     0.049 A 
ATOM     54  C   UNL     1       9.005   4.906  -1.829  1.00  0.00     0.074 A 
ATOM     55  C   UNL     1       7.591   3.399  -7.820  1.00  0.00     0.029 A 
ATOM     56  N   UNL     1       7.489   3.897  -5.655  1.00  0.00    -0.354 N 
ATOM     57  N   UNL     1       8.617   4.598  -3.042  1.00  0.00    -0.248 NA
ATOM     58  C   UNL     1      10.413   5.320  -1.733  1.00  0.00     0.031 C 
ATOM     59  C   UNL     1       8.865   3.799  -7.397  1.00  0.00     0.029 A 
ATOM     60  C   UNL     1       8.794   4.124  -6.052  1.00  0.00     0.049 A 
ATOM     61  H   UNL     1       7.146   4.023  -4.740  1.00  0.00     0.167 HD
ATOM     62  C   UNL     1       9.721   4.804  -3.857  1.00  0.00     0.074 A 
ATOM     63  C   UNL     1      10.794   5.270  -3.002  1.00  0.00     0.031 C 
ATOM     64  C   UNL     1       9.835   4.621  -5.193  1.00  0.00     0.037 A 
BRANCH  51  65
ATOM     65  C   UNL     1       4.635   2.715  -7.919  1.00  0.00     0.057 A 
ATOM     66  C   UNL     1       3.816   3.568  -8.670  1.00  0.00     0.134 A 
ATOM     67  C   UNL     1       4.774   1.393  -8.356  1.00  0.00     0.134 A 
ATOM     68  F   UNL     1       3.628   4.840  -8.287  1.00  0.00    -0.206 F 
ATOM     69  C   UNL     1       3.136   3.114  -9.800  1.00  0.00     0.040 A 
ATOM     70  C   UNL     1       4.113   0.932  -9.496  1.00  0.00     0.040 A 
ATOM     71  F   UNL     1       5.542   0.527  -7.678  1.00  0.00    -0.206 F 
ATOM     72  C   UNL     1       3.286   1.792 -10.217  1.00  0.00     0.006 A 
ENDBRANCH  51  65
BRANCH  52  73
ATOM     73  C   UNL     1       8.852   5.249   0.732  1.00  0.00     0.057 A 
ATOM     74  C   UNL     1       9.133   6.584   1.048  1.00  0.00     0.134 A 
ATOM     75  C   UNL     1       9.197   4.272   1.669  1.00  0.00     0.134 A 
ATOM     76  F   UNL     1       8.836   7.560   0.178  1.00  0.00    -0.206 F 
ATOM     77  C   UNL     1       9.753   6.934   2.248  1.00  0.00     0.040 A 
ATOM     78  C   UNL     1       9.806   4.609   2.879  1.00  0.00     0.040 A 
ATOM     79  F   UNL     1       8.944   2.978   1.423  1.00  0.00    -0.206 F 
ATOM     80  C   UNL     1      10.090   5.944   3.168  1.00  0.00     0.006 A 
ENDBRANCH  52  73
BRANCH  64  81
ATOM     81  C   UNL     1      11.149   4.969  -5.817  1.00  0.00     0.057 A 
ATOM     82  C   UNL     1      12.240   4.095  -5.764  1.00  0.00     0.134 A 
ATOM     83  C   UNL     1      11.309   6.178  -6.504  1.00  0.00     0.134 A 
ATOM     84  F   UNL     1      12.146   2.929  -5.108  1.00  0.00    -0.206 F 
ATOM     85  C   UNL     1      13.455   4.417  -6.369  1.00  0.00     0.040 A 
ATOM     86  C   UNL     1      12.516   6.506  -7.121  1.00  0.00     0.040 A 
ATOM     87  F   UNL     1      10.298   7.055  -6.585  1.00  0.00    -0.206 F 
ATOM     88  C   UNL     1      13.594   5.624  -7.053  1.00  0.00     0.006 A 
ENDBRANCH  64  81
ENDBRANCH  38  39
ENDBRANCH  30  33
ENDBRANCH  28  29
ENDBRANCH  27  28
ENDBRANCH   1  27
TORSDOF 14
