REMARK SMILES CC(C)[C@H](NC(=O)[C@H]1CC(=O)N(c2ccc(F)cc2)C1)C(=O)N1CCC[C@@H]1C(=O)NCCCCNC(=O)c1ccc(-c2c3nc(c(-c4c(F)cccc4F)c4ccc([nH]4)c(-c4c(F)cccc4F)c4nc(c(-c5c(F)cccc5F)c5ccc2[nH]5)C=C4)C=C3)cc1
REMARK SMILES IDX 31 1 30 2 28 3 29 4 27 6 23 7 24 8 25 9 26 10 21 11 22 12
REMARK SMILES IDX 4 13 2 14 1 15 3 16 5 17 6 18 7 20 8 21 9 22 20 23 10 24
REMARK SMILES IDX 12 25 11 26 13 27 14 28 19 29 15 30 18 31 16 32 17 33 32 34
REMARK SMILES IDX 33 35 34 36 35 37 36 38 37 40 38 41 39 42 91 43 40 44 90 45
REMARK SMILES IDX 41 46 42 47 43 48 84 49 44 50 89 51 83 52 85 53 45 54 88 55
REMARK SMILES IDX 82 56 81 57 46 59 72 60 55 61 71 62 56 63 59 64 70 65 86 66
REMARK SMILES IDX 57 67 58 68 69 70 87 71 60 72 47 73 48 74 53 75 49 76 50 77
REMARK SMILES IDX 52 78 54 79 51 80 73 81 74 82 79 83 75 84 76 85 78 86 80 87
REMARK SMILES IDX 77 88 61 89 62 90 67 91 63 92 64 93 66 94 68 95 65 96
REMARK H PARENT 30 5 5 19 35 39 85 58 59 69
REMARK Flexibility Score: inf
ROOT
ATOM      1  C   UNL     1      -3.156   4.516  -4.070  1.00  0.00     0.116 C 
ENDROOT
BRANCH   1   2
ATOM      2  N   UNL     1      -3.339   5.735  -3.306  1.00  0.00    -0.354 N 
ATOM      3  C   UNL     1      -3.851   5.961  -2.061  1.00  0.00     0.242 C 
ATOM      4  O   UNL     1      -3.851   7.141  -1.688  1.00  0.00    -0.273 OA
ATOM      5  H   UNL     1      -3.039   6.549  -3.770  1.00  0.00     0.163 HD
BRANCH   3   6
ATOM      6  C   UNL     1      -4.445   4.855  -1.145  1.00  0.00     0.174 C 
ATOM      7  N   UNL     1      -3.500   3.839  -0.651  1.00  0.00    -0.329 N 
ATOM      8  C   UNL     1      -4.100   2.521  -0.719  1.00  0.00     0.120 C 
ATOM      9  C   UNL     1      -5.193   2.618  -1.768  1.00  0.00     0.024 C 
ATOM     10  C   UNL     1      -5.610   4.086  -1.776  1.00  0.00     0.037 C 
BRANCH   7  11
ATOM     11  C   UNL     1      -2.578   4.196   0.332  1.00  0.00     0.246 C 
ATOM     12  O   UNL     1      -2.671   5.279   0.918  1.00  0.00    -0.272 OA
BRANCH  11  13
ATOM     13  C   UNL     1      -1.235   3.389   0.468  1.00  0.00     0.174 C 
BRANCH  13  14
ATOM     14  C   UNL     1      -0.137   3.962  -0.453  1.00  0.00     0.015 C 
ATOM     15  C   UNL     1      -0.636   4.876  -1.559  1.00  0.00     0.010 C 
ATOM     16  C   UNL     1       0.977   4.677   0.308  1.00  0.00     0.010 C 
ENDBRANCH  13  14
BRANCH  13  17
ATOM     17  N   UNL     1      -1.393   1.915   0.525  1.00  0.00    -0.344 N 
ATOM     18  C   UNL     1      -0.688   0.797   0.232  1.00  0.00     0.226 C 
ATOM     19  H   UNL     1      -2.278   1.678   0.886  1.00  0.00     0.164 HD
ATOM     20  O   UNL     1      -0.882  -0.147   1.013  1.00  0.00    -0.275 OA
BRANCH  18  21
ATOM     21  C   UNL     1       0.151   0.519  -1.011  1.00  0.00     0.107 C 
ATOM     22  C   UNL     1      -0.549   0.921  -2.297  1.00  0.00     0.116 C 
ATOM     23  C   UNL     1       1.585   1.021  -1.100  1.00  0.00     0.139 C 
ATOM     24  C   UNL     1       0.430   1.798  -3.015  1.00  0.00     0.227 C 
ATOM     25  N   UNL     1       1.662   1.701  -2.376  1.00  0.00    -0.312 N 
ATOM     26  O   UNL     1       0.133   2.442  -4.001  1.00  0.00    -0.274 OA
BRANCH  25  27
ATOM     27  C   UNL     1       2.844   2.282  -2.875  1.00  0.00     0.044 A 
ATOM     28  C   UNL     1       2.863   3.620  -3.286  1.00  0.00     0.029 A 
ATOM     29  C   UNL     1       3.989   1.498  -3.055  1.00  0.00     0.029 A 
ATOM     30  C   UNL     1       4.010   4.173  -3.860  1.00  0.00     0.041 A 
ATOM     31  C   UNL     1       5.115   2.035  -3.692  1.00  0.00     0.041 A 
ATOM     32  C   UNL     1       5.116   3.368  -4.086  1.00  0.00     0.123 A 
ATOM     33  F   UNL     1       6.187   3.879  -4.707  1.00  0.00    -0.207 F 
ENDBRANCH  25  27
ENDBRANCH  18  21
ENDBRANCH  13  17
ENDBRANCH  11  13
ENDBRANCH   7  11
ENDBRANCH   3   6
ENDBRANCH   1   2
BRANCH   1  34
ATOM     34  C   UNL     1      -3.278   4.722  -5.575  1.00  0.00     0.023 C 
BRANCH  34  35
ATOM     35  C   UNL     1      -2.176   5.566  -6.215  1.00  0.00     0.023 C 
BRANCH  35  36
ATOM     36  C   UNL     1      -0.739   5.133  -5.939  1.00  0.00     0.116 C 
BRANCH  36  37
ATOM     37  N   UNL     1      -0.459   3.757  -6.316  1.00  0.00    -0.352 N 
ATOM     38  C   UNL     1       0.565   3.223  -7.062  1.00  0.00     0.251 C 
ATOM     39  H   UNL     1      -1.109   3.098  -5.981  1.00  0.00     0.163 HD
ATOM     40  O   UNL     1       0.587   2.025  -7.332  1.00  0.00    -0.269 OA
BRANCH  38  41
ATOM     41  C   UNL     1       1.637   4.101  -7.569  1.00  0.00     0.039 A 
ATOM     42  C   UNL     1       2.053   3.967  -8.894  1.00  0.00     0.014 A 
ATOM     43  C   UNL     1       2.216   5.067  -6.743  1.00  0.00     0.014 A 
ATOM     44  C   UNL     1       2.971   4.876  -9.418  1.00  0.00     0.010 A 
ATOM     45  C   UNL     1       3.078   6.013  -7.279  1.00  0.00     0.010 A 
ATOM     46  C   UNL     1       3.443   5.938  -8.628  1.00  0.00    -0.014 A 
BRANCH  46  47
ATOM     47  C   UNL     1       4.244   7.032  -9.220  1.00  0.00     0.031 A 
ATOM     48  C   UNL     1       5.662   7.260  -8.796  1.00  0.00     0.074 A 
ATOM     49  C   UNL     1       3.642   7.872 -10.084  1.00  0.00     0.049 A 
ATOM     50  N   UNL     1       6.498   8.184  -9.195  1.00  0.00    -0.248 NA
ATOM     51  C   UNL     1       6.207   6.351  -7.776  1.00  0.00     0.031 C 
ATOM     52  C   UNL     1       2.242   7.782 -10.508  1.00  0.00     0.029 A 
ATOM     53  N   UNL     1       4.122   8.967 -10.755  1.00  0.00    -0.354 N 
ATOM     54  C   UNL     1       7.667   7.966  -8.480  1.00  0.00     0.074 A 
ATOM     55  C   UNL     1       7.415   6.862  -7.580  1.00  0.00     0.031 C 
ATOM     56  C   UNL     1       1.989   8.755 -11.396  1.00  0.00     0.029 A 
ATOM     57  C   UNL     1       3.192   9.560 -11.574  1.00  0.00     0.049 A 
ATOM     58  H   UNL     1       5.045   9.296 -10.660  1.00  0.00     0.167 HD
ATOM     59  C   UNL     1       8.849   8.616  -8.589  1.00  0.00     0.037 A 
ATOM     60  C   UNL     1       3.297  10.633 -12.380  1.00  0.00     0.037 A 
ATOM     61  C   UNL     1       9.084   9.711  -9.495  1.00  0.00     0.049 A 
ATOM     62  C   UNL     1       4.615  11.347 -12.472  1.00  0.00     0.074 A 
ATOM     63  C   UNL     1      10.264  10.394  -9.729  1.00  0.00     0.029 A 
ATOM     64  N   UNL     1       8.118  10.289 -10.308  1.00  0.00    -0.354 N 
ATOM     65  N   UNL     1       5.741  11.079 -11.856  1.00  0.00    -0.248 NA
ATOM     66  C   UNL     1       4.682  12.507 -13.370  1.00  0.00     0.031 C 
ATOM     67  C   UNL     1       9.998  11.424 -10.636  1.00  0.00     0.029 A 
ATOM     68  C   UNL     1       8.668  11.344 -11.018  1.00  0.00     0.049 A 
ATOM     69  H   UNL     1       7.181   9.994 -10.370  1.00  0.00     0.167 HD
ATOM     70  C   UNL     1       6.656  12.021 -12.305  1.00  0.00     0.074 A 
ATOM     71  C   UNL     1       5.956  12.860 -13.257  1.00  0.00     0.031 C 
ATOM     72  C   UNL     1       7.957  12.174 -11.960  1.00  0.00     0.037 A 
BRANCH  59  73
ATOM     73  C   UNL     1       9.982   8.158  -7.718  1.00  0.00     0.057 A 
ATOM     74  C   UNL     1      10.495   8.988  -6.713  1.00  0.00     0.134 A 
ATOM     75  C   UNL     1      10.610   6.920  -7.914  1.00  0.00     0.134 A 
ATOM     76  F   UNL     1       9.948  10.190  -6.475  1.00  0.00    -0.206 F 
ATOM     77  C   UNL     1      11.597   8.608  -5.943  1.00  0.00     0.040 A 
ATOM     78  C   UNL     1      11.693   6.517  -7.131  1.00  0.00     0.040 A 
ATOM     79  F   UNL     1      10.164   6.074  -8.855  1.00  0.00    -0.206 F 
ATOM     80  C   UNL     1      12.195   7.367  -6.149  1.00  0.00     0.006 A 
ENDBRANCH  59  73
BRANCH  60  81
ATOM     81  C   UNL     1       2.128  11.050 -13.194  1.00  0.00     0.057 A 
ATOM     82  C   UNL     1       0.983  11.601 -12.605  1.00  0.00     0.134 A 
ATOM     83  C   UNL     1       2.108  10.848 -14.578  1.00  0.00     0.134 A 
ATOM     84  F   UNL     1       0.934  11.808 -11.281  1.00  0.00    -0.206 F 
ATOM     85  C   UNL     1      -0.149  11.911 -13.361  1.00  0.00     0.040 A 
ATOM     86  C   UNL     1       0.992  11.176 -15.349  1.00  0.00     0.040 A 
ATOM     87  F   UNL     1       3.180  10.336 -15.200  1.00  0.00    -0.206 F 
ATOM     88  C   UNL     1      -0.145  11.700 -14.738  1.00  0.00     0.006 A 
ENDBRANCH  60  81
BRANCH  72  89
ATOM     89  C   UNL     1       8.726  13.282 -12.618  1.00  0.00     0.057 A 
ATOM     90  C   UNL     1       9.753  12.995 -13.527  1.00  0.00     0.134 A 
ATOM     91  C   UNL     1       8.510  14.626 -12.288  1.00  0.00     0.134 A 
ATOM     92  F   UNL     1      10.019  11.728 -13.878  1.00  0.00    -0.206 F 
ATOM     93  C   UNL     1      10.552  14.004 -14.067  1.00  0.00     0.040 A 
ATOM     94  C   UNL     1       9.284  15.645 -12.844  1.00  0.00     0.040 A 
ATOM     95  F   UNL     1       7.534  14.968 -11.434  1.00  0.00    -0.206 F 
ATOM     96  C   UNL     1      10.317  15.334 -13.727  1.00  0.00     0.006 A 
ENDBRANCH  72  89
ENDBRANCH  46  47
ENDBRANCH  38  41
ENDBRANCH  36  37
ENDBRANCH  35  36
ENDBRANCH  34  35
ENDBRANCH   1  34
TORSDOF 17
