REMARK SMILES [NH3+][C@H](CCC(=O)NCCCCNC(=O)c1ccc(-c2c3nc(c(-c4c(F)cccc4F)c4ccc([nH]4)c(-c4c(F)cccc4F)c4nc(c(-c5c(F)cccc5F)c5ccc2[nH]5)C=C4)C=C3)cc1)Cc1c[nH]c2ccccc12
REMARK SMILES IDX 8 1 7 2 5 3 6 4 4 6 3 7 2 8 1 9 69 13 70 14 71 15 78 16
REMARK SMILES IDX 72 17 73 18 77 19 74 21 76 22 75 23 9 24 10 25 11 26 12 27
REMARK SMILES IDX 13 28 14 30 15 31 16 32 68 33 17 34 67 35 18 36 19 37 20 38
REMARK SMILES IDX 61 39 21 40 66 41 60 42 62 43 22 44 65 45 59 46 58 47 23 49
REMARK SMILES IDX 49 50 32 51 48 52 33 53 36 54 47 55 63 56 34 57 35 58 46 60
REMARK SMILES IDX 64 61 37 62 24 63 25 64 30 65 26 66 27 67 29 68 31 69 28 70
REMARK SMILES IDX 50 71 51 72 56 73 52 74 53 75 55 76 57 77 54 78 38 79 39 80
REMARK SMILES IDX 44 81 40 82 41 83 43 84 45 85 42 86
REMARK H PARENT 7 5 1 10 1 11 1 12 72 20 12 29 62 48 36 59
REMARK Flexibility Score: inf
ROOT
ATOM      1  C   UNL     1      -0.734   2.519   1.558  1.00  0.00     0.116 C 
ENDROOT
BRANCH   1   2
ATOM      2  N   UNL     1      -0.066   3.252   0.493  1.00  0.00    -0.356 N 
ATOM      3  C   UNL     1       0.396   2.980  -0.751  1.00  0.00     0.220 C 
ATOM      4  O   UNL     1       0.726   3.970  -1.417  1.00  0.00    -0.275 OA
ATOM      5  H   UNL     1       0.091   4.192   0.741  1.00  0.00     0.163 HD
BRANCH   3   6
ATOM      6  C   UNL     1       0.502   1.612  -1.395  1.00  0.00     0.106 C 
BRANCH   6   7
ATOM      7  C   UNL     1       1.412   0.596  -0.725  1.00  0.00     0.075 C 
BRANCH   7   8
ATOM      8  C   UNL     1       0.743  -0.282   0.341  1.00  0.00     0.185 C 
BRANCH   8   9
ATOM      9  N   UNL     1       1.165   0.314   1.614  1.00  0.00    -0.355 N 
ATOM     10  H   UNL     1       0.760  -0.214   2.387  1.00  0.00     0.344 HD
ATOM     11  H   UNL     1       0.845   1.282   1.659  1.00  0.00     0.344 HD
ATOM     12  H   UNL     1       2.182   0.288   1.680  1.00  0.00     0.344 HD
ENDBRANCH   8   9
BRANCH   8  13
ATOM     13  C   UNL     1      -0.805  -0.584   0.097  1.00  0.00     0.102 C 
BRANCH  13  14
ATOM     14  C   UNL     1      -1.126  -1.659  -0.997  1.00  0.00    -0.017 A 
ATOM     15  C   UNL     1      -0.843  -2.988  -0.671  1.00  0.00     0.087 A 
ATOM     16  C   UNL     1      -0.612  -1.698  -2.345  1.00  0.00     0.003 A 
ATOM     17  N   UNL     1       0.537  -2.918  -0.954  1.00  0.00    -0.361 N 
ATOM     18  C   UNL     1       0.664  -2.223  -2.141  1.00  0.00     0.046 A 
ATOM     19  C   UNL     1      -1.028  -1.613  -3.685  1.00  0.00     0.010 A 
ATOM     20  H   UNL     1       1.268  -3.292  -0.410  1.00  0.00     0.166 HD
ATOM     21  C   UNL     1       1.713  -2.016  -3.029  1.00  0.00     0.026 A 
ATOM     22  C   UNL     1      -0.027  -1.649  -4.676  1.00  0.00     0.001 A 
ATOM     23  C   UNL     1       1.328  -1.701  -4.330  1.00  0.00     0.002 A 
ENDBRANCH  13  14
ENDBRANCH   8  13
ENDBRANCH   7   8
ENDBRANCH   6   7
ENDBRANCH   3   6
ENDBRANCH   1   2
BRANCH   1  24
ATOM     24  C   UNL     1       0.039   2.556   2.892  1.00  0.00     0.023 C 
BRANCH  24  25
ATOM     25  C   UNL     1      -0.028   3.877   3.601  1.00  0.00     0.023 C 
BRANCH  25  26
ATOM     26  C   UNL     1      -1.443   4.193   3.991  1.00  0.00     0.116 C 
BRANCH  26  27
ATOM     27  N   UNL     1      -1.974   3.211   4.933  1.00  0.00    -0.352 N 
ATOM     28  C   UNL     1      -2.377   3.431   6.231  1.00  0.00     0.251 C 
ATOM     29  H   UNL     1      -2.053   2.287   4.602  1.00  0.00     0.163 HD
ATOM     30  O   UNL     1      -2.547   2.526   7.017  1.00  0.00    -0.269 OA
BRANCH  28  31
ATOM     31  C   UNL     1      -2.559   4.840   6.619  1.00  0.00     0.039 A 
ATOM     32  C   UNL     1      -1.959   5.304   7.784  1.00  0.00     0.014 A 
ATOM     33  C   UNL     1      -3.174   5.712   5.715  1.00  0.00     0.014 A 
ATOM     34  C   UNL     1      -1.937   6.674   8.014  1.00  0.00     0.010 A 
ATOM     35  C   UNL     1      -2.971   7.068   5.851  1.00  0.00     0.010 A 
ATOM     36  C   UNL     1      -2.396   7.564   7.026  1.00  0.00    -0.014 A 
BRANCH  36  37
ATOM     37  C   UNL     1      -2.330   9.025   7.221  1.00  0.00     0.031 A 
ATOM     38  C   UNL     1      -3.596   9.831   7.179  1.00  0.00     0.074 A 
ATOM     39  C   UNL     1      -1.138   9.618   7.412  1.00  0.00     0.049 A 
ATOM     40  N   UNL     1      -3.751  11.121   7.322  1.00  0.00    -0.248 NA
ATOM     41  C   UNL     1      -4.852   9.104   6.919  1.00  0.00     0.031 C 
ATOM     42  C   UNL     1       0.158   8.934   7.424  1.00  0.00     0.029 A 
ATOM     43  N   UNL     1      -0.824  10.931   7.643  1.00  0.00    -0.354 N 
ATOM     44  C   UNL     1      -5.111  11.352   7.172  1.00  0.00     0.074 A 
ATOM     45  C   UNL     1      -5.729  10.090   6.842  1.00  0.00     0.031 C 
ATOM     46  C   UNL     1       1.120   9.825   7.706  1.00  0.00     0.029 A 
ATOM     47  C   UNL     1       0.519  11.149   7.822  1.00  0.00     0.049 A 
ATOM     48  H   UNL     1      -1.497  11.649   7.677  1.00  0.00     0.167 HD
ATOM     49  C   UNL     1      -5.788  12.510   7.330  1.00  0.00     0.037 A 
ATOM     50  C   UNL     1       1.192  12.294   8.038  1.00  0.00     0.037 A 
ATOM     51  C   UNL     1      -5.162  13.761   7.652  1.00  0.00     0.049 A 
ATOM     52  C   UNL     1       0.419  13.580   8.136  1.00  0.00     0.074 A 
ATOM     53  C   UNL     1      -5.762  14.988   7.863  1.00  0.00     0.029 A 
ATOM     54  N   UNL     1      -3.795  13.951   7.790  1.00  0.00    -0.354 N 
ATOM     55  N   UNL     1      -0.876  13.776   8.059  1.00  0.00    -0.248 NA
ATOM     56  C   UNL     1       1.198  14.805   8.355  1.00  0.00     0.031 C 
ATOM     57  C   UNL     1      -4.755  15.938   8.035  1.00  0.00     0.029 A 
ATOM     58  C   UNL     1      -3.532  15.286   8.039  1.00  0.00     0.049 A 
ATOM     59  H   UNL     1      -3.115  13.242   7.722  1.00  0.00     0.167 HD
ATOM     60  C   UNL     1      -1.067  15.137   8.258  1.00  0.00     0.074 A 
ATOM     61  C   UNL     1       0.243  15.713   8.477  1.00  0.00     0.031 C 
ATOM     62  C   UNL     1      -2.223  15.846   8.261  1.00  0.00     0.037 A 
BRANCH  49  63
ATOM     63  C   UNL     1      -7.275  12.477   7.134  1.00  0.00     0.057 A 
ATOM     64  C   UNL     1      -8.126  11.772   7.998  1.00  0.00     0.134 A 
ATOM     65  C   UNL     1      -7.868  13.191   6.086  1.00  0.00     0.134 A 
ATOM     66  F   UNL     1      -7.624  11.060   9.018  1.00  0.00    -0.206 F 
ATOM     67  C   UNL     1      -9.507  11.750   7.803  1.00  0.00     0.040 A 
ATOM     68  C   UNL     1      -9.251  13.212   5.907  1.00  0.00     0.040 A 
ATOM     69  F   UNL     1      -7.115  13.893   5.226  1.00  0.00    -0.206 F 
ATOM     70  C   UNL     1     -10.074  12.480   6.761  1.00  0.00     0.006 A 
ENDBRANCH  49  63
BRANCH  50  71
ATOM     71  C   UNL     1       2.672  12.282   8.158  1.00  0.00     0.057 A 
ATOM     72  C   UNL     1       3.312  12.666   9.342  1.00  0.00     0.134 A 
ATOM     73  C   UNL     1       3.485  11.919   7.077  1.00  0.00     0.134 A 
ATOM     74  F   UNL     1       2.591  13.034  10.412  1.00  0.00    -0.206 F 
ATOM     75  C   UNL     1       4.702  12.735   9.432  1.00  0.00     0.040 A 
ATOM     76  C   UNL     1       4.876  11.940   7.167  1.00  0.00     0.040 A 
ATOM     77  F   UNL     1       2.937  11.525   5.917  1.00  0.00    -0.206 F 
ATOM     78  C   UNL     1       5.489  12.367   8.342  1.00  0.00     0.006 A 
ENDBRANCH  50  71
BRANCH  62  79
ATOM     79  C   UNL     1      -2.135  17.314   8.568  1.00  0.00     0.057 A 
ATOM     80  C   UNL     1      -1.513  18.226   7.706  1.00  0.00     0.134 A 
ATOM     81  C   UNL     1      -2.723  17.828   9.733  1.00  0.00     0.134 A 
ATOM     82  F   UNL     1      -0.930  17.804   6.573  1.00  0.00    -0.206 F 
ATOM     83  C   UNL     1      -1.438  19.585   8.014  1.00  0.00     0.040 A 
ATOM     84  C   UNL     1      -2.697  19.190  10.027  1.00  0.00     0.040 A 
ATOM     85  F   UNL     1      -3.354  17.015  10.595  1.00  0.00    -0.206 F 
ATOM     86  C   UNL     1      -2.039  20.071   9.173  1.00  0.00     0.006 A 
ENDBRANCH  62  79
ENDBRANCH  36  37
ENDBRANCH  28  31
ENDBRANCH  26  27
ENDBRANCH  25  26
ENDBRANCH  24  25
ENDBRANCH   1  24
TORSDOF 16
