REMARK SMILES [H]/N=c1\ccc2c(C)c(CC(=O)NCCCCNC(=O)c3ccc(-c4c5nc(c(-c6c(F)cccc6F)c6ccc([nH]6)c(-c6c(F)cccc6F)c6nc(c(-c7c(F)cccc7F)c7ccc4[nH]7)C=C6)C=C5)cc3)c(O)oc-2c1
REMARK SMILES IDX 15 1 14 2 13 3 11 4 12 5 10 7 9 8 8 9 7 10 6 11 5 12 78 13
REMARK SMILES IDX 75 14 4 15 79 16 77 17 3 18 2 19 1 20 76 21 16 23 17 24
REMARK SMILES IDX 18 25 19 26 20 28 21 29 22 30 74 31 23 32 73 33 24 34 25 35
REMARK SMILES IDX 26 36 67 37 27 38 72 39 66 40 68 41 28 42 71 43 65 44 64 45
REMARK SMILES IDX 29 47 55 48 38 49 54 50 39 51 42 52 53 53 69 54 40 55 41 56
REMARK SMILES IDX 52 58 70 59 43 60 30 61 31 62 36 63 32 64 33 65 35 66 37 67
REMARK SMILES IDX 34 68 56 69 57 70 62 71 58 72 59 73 61 74 63 75 60 76 44 77
REMARK SMILES IDX 45 78 50 79 46 80 47 81 49 82 51 83 48 84
REMARK H PARENT 13 6 76 22 18 27 68 46 42 57
REMARK Flexibility Score: inf
ROOT
ATOM      1  C   UNL     1       2.511   0.908  -4.072  1.00  0.00     0.023 C 
ENDROOT
BRANCH   1   2
ATOM      2  C   UNL     1       1.603  -0.269  -4.430  1.00  0.00     0.116 C 
BRANCH   2   3
ATOM      3  N   UNL     1       1.638  -1.310  -3.421  1.00  0.00    -0.356 N 
ATOM      4  C   UNL     1       0.759  -1.558  -2.409  1.00  0.00     0.224 C 
ATOM      5  O   UNL     1       1.007  -2.489  -1.639  1.00  0.00    -0.275 OA
ATOM      6  H   UNL     1       2.405  -1.924  -3.474  1.00  0.00     0.163 HD
BRANCH   4   7
ATOM      7  C   UNL     1      -0.526  -0.742  -2.272  1.00  0.00     0.143 C 
BRANCH   7   8
ATOM      8  C   UNL     1      -0.325   0.714  -1.891  1.00  0.00     0.046 A 
ATOM      9  C   UNL     1       0.716  -0.035   0.333  1.00  0.00     0.046 C 
ATOM     10  C   UNL     1       0.423   1.067  -0.662  1.00  0.00    -0.029 A 
ATOM     11  C   UNL     1       0.809   2.355  -0.466  1.00  0.00     0.021 A 
ATOM     12  C   UNL     1       1.648   2.766   0.660  1.00  0.00     0.014 A 
ATOM     13  C   UNL     1       0.390   3.388  -1.417  1.00  0.00     0.140 A 
ATOM     14  C   UNL     1      -0.767   1.716  -2.687  1.00  0.00     0.286 A 
ATOM     15  C   UNL     1       2.047   4.036   0.814  1.00  0.00     0.028 A 
ATOM     16  C   UNL     1       0.773   4.664  -1.282  1.00  0.00     0.075 A 
ATOM     17  O   UNL     1      -0.452   3.039  -2.455  1.00  0.00    -0.425 OA
ATOM     18  C   UNL     1       1.642   5.080  -0.161  1.00  0.00     0.058 A 
ATOM     19  N   UNL     1       2.014   6.314  -0.060  1.00  0.00    -0.301 NA
ATOM     20  H   UNL     1       2.592   6.594   0.686  1.00  0.00     0.188 HD
BRANCH  14  21
ATOM     21  O   UNL     1      -1.518   1.488  -3.821  1.00  0.00    -0.480 OA
ATOM     22  H   UNL     1      -1.805   2.209  -4.345  1.00  0.00     0.297 HD
ENDBRANCH  14  21
ENDBRANCH   7   8
ENDBRANCH   4   7
ENDBRANCH   2   3
ENDBRANCH   1   2
BRANCH   1  23
ATOM     23  C   UNL     1       4.004   0.578  -4.018  1.00  0.00     0.023 C 
BRANCH  23  24
ATOM     24  C   UNL     1       4.581  -0.036  -5.285  1.00  0.00     0.116 C 
BRANCH  24  25
ATOM     25  N   UNL     1       4.433   0.802  -6.466  1.00  0.00    -0.352 N 
ATOM     26  C   UNL     1       5.281   0.910  -7.544  1.00  0.00     0.251 C 
ATOM     27  H   UNL     1       3.624   1.362  -6.497  1.00  0.00     0.163 HD
ATOM     28  O   UNL     1       5.064   1.726  -8.434  1.00  0.00    -0.269 OA
BRANCH  26  29
ATOM     29  C   UNL     1       6.494   0.066  -7.589  1.00  0.00     0.039 A 
ATOM     30  C   UNL     1       6.411  -1.305  -7.341  1.00  0.00     0.014 A 
ATOM     31  C   UNL     1       7.734   0.673  -7.805  1.00  0.00     0.014 A 
ATOM     32  C   UNL     1       7.576  -2.033  -7.131  1.00  0.00     0.010 A 
ATOM     33  C   UNL     1       8.903  -0.080  -7.672  1.00  0.00     0.010 A 
ATOM     34  C   UNL     1       8.834  -1.425  -7.275  1.00  0.00    -0.014 A 
BRANCH  34  35
ATOM     35  C   UNL     1      10.057  -2.210  -6.971  1.00  0.00     0.031 A 
ATOM     36  C   UNL     1      10.932  -1.850  -5.801  1.00  0.00     0.074 A 
ATOM     37  C   UNL     1      10.346  -3.292  -7.717  1.00  0.00     0.049 A 
ATOM     38  N   UNL     1      12.011  -2.450  -5.361  1.00  0.00    -0.248 NA
ATOM     39  C   UNL     1      10.553  -0.659  -5.027  1.00  0.00     0.031 C 
ATOM     40  C   UNL     1       9.577  -3.742  -8.879  1.00  0.00     0.029 A 
ATOM     41  N   UNL     1      11.347  -4.219  -7.597  1.00  0.00    -0.354 N 
ATOM     42  C   UNL     1      12.447  -1.702  -4.275  1.00  0.00     0.074 A 
ATOM     43  C   UNL     1      11.535  -0.586  -4.141  1.00  0.00     0.031 C 
ATOM     44  C   UNL     1      10.109  -4.885  -9.338  1.00  0.00     0.029 A 
ATOM     45  C   UNL     1      11.281  -5.218  -8.535  1.00  0.00     0.049 A 
ATOM     46  H   UNL     1      12.046  -4.174  -6.904  1.00  0.00     0.167 HD
ATOM     47  C   UNL     1      13.502  -1.929  -3.456  1.00  0.00     0.037 A 
ATOM     48  C   UNL     1      12.081  -6.281  -8.736  1.00  0.00     0.037 A 
ATOM     49  C   UNL     1      14.401  -3.048  -3.577  1.00  0.00     0.049 A 
ATOM     50  C   UNL     1      13.255  -6.501  -7.829  1.00  0.00     0.074 A 
ATOM     51  C   UNL     1      15.479  -3.383  -2.775  1.00  0.00     0.029 A 
ATOM     52  N   UNL     1      14.328  -4.014  -4.569  1.00  0.00    -0.354 N 
ATOM     53  N   UNL     1      13.641  -5.796  -6.794  1.00  0.00    -0.248 NA
ATOM     54  C   UNL     1      14.107  -7.660  -8.124  1.00  0.00     0.031 C 
ATOM     55  C   UNL     1      16.079  -4.533  -3.305  1.00  0.00     0.029 A 
ATOM     56  C   UNL     1      15.353  -4.933  -4.415  1.00  0.00     0.049 A 
ATOM     57  H   UNL     1      13.646  -4.043  -5.280  1.00  0.00     0.167 HD
ATOM     58  C   UNL     1      14.783  -6.423  -6.314  1.00  0.00     0.074 A 
ATOM     59  C   UNL     1      15.008  -7.582  -7.154  1.00  0.00     0.031 C 
ATOM     60  C   UNL     1      15.577  -6.067  -5.275  1.00  0.00     0.037 A 
BRANCH  47  61
ATOM     61  C   UNL     1      13.749  -0.927  -2.365  1.00  0.00     0.057 A 
ATOM     62  C   UNL     1      14.831  -0.041  -2.441  1.00  0.00     0.134 A 
ATOM     63  C   UNL     1      12.918  -0.838  -1.240  1.00  0.00     0.134 A 
ATOM     64  F   UNL     1      15.668  -0.076  -3.489  1.00  0.00    -0.206 F 
ATOM     65  C   UNL     1      15.072   0.903  -1.442  1.00  0.00     0.040 A 
ATOM     66  C   UNL     1      13.137   0.117  -0.245  1.00  0.00     0.040 A 
ATOM     67  F   UNL     1      11.856  -1.648  -1.113  1.00  0.00    -0.206 F 
ATOM     68  C   UNL     1      14.219   0.990  -0.344  1.00  0.00     0.006 A 
ENDBRANCH  47  61
BRANCH  48  69
ATOM     69  C   UNL     1      11.790  -7.209  -9.854  1.00  0.00     0.057 A 
ATOM     70  C   UNL     1      11.986  -6.822 -11.185  1.00  0.00     0.134 A 
ATOM     71  C   UNL     1      11.280  -8.489  -9.619  1.00  0.00     0.134 A 
ATOM     72  F   UNL     1      12.466  -5.603 -11.472  1.00  0.00    -0.206 F 
ATOM     73  C   UNL     1      11.665  -7.669 -12.245  1.00  0.00     0.040 A 
ATOM     74  C   UNL     1      10.976  -9.356 -10.669  1.00  0.00     0.040 A 
ATOM     75  F   UNL     1      11.088  -8.920  -8.363  1.00  0.00    -0.206 F 
ATOM     76  C   UNL     1      11.161  -8.942 -11.988  1.00  0.00     0.006 A 
ENDBRANCH  48  69
BRANCH  60  77
ATOM     77  C   UNL     1      16.764  -6.942  -5.004  1.00  0.00     0.057 A 
ATOM     78  C   UNL     1      16.779  -7.814  -3.909  1.00  0.00     0.134 A 
ATOM     79  C   UNL     1      17.895  -6.917  -5.830  1.00  0.00     0.134 A 
ATOM     80  F   UNL     1      15.728  -7.883  -3.078  1.00  0.00    -0.206 F 
ATOM     81  C   UNL     1      17.878  -8.633  -3.647  1.00  0.00     0.040 A 
ATOM     82  C   UNL     1      18.990  -7.747  -5.590  1.00  0.00     0.040 A 
ATOM     83  F   UNL     1      17.933  -6.114  -6.905  1.00  0.00    -0.206 F 
ATOM     84  C   UNL     1      18.985  -8.606  -4.493  1.00  0.00     0.006 A 
ENDBRANCH  60  77
ENDBRANCH  34  35
ENDBRANCH  26  29
ENDBRANCH  24  25
ENDBRANCH  23  24
ENDBRANCH   1  23
TORSDOF 13
