REMARK SMILES O=C(NCCCCNC(=O)c1c(-c2ccc(Cl)cc2)noc1CO[C@@H]1CCCCO1)c1ccc(-c2c3nc(c(-c4c(F)cccc4F)c4ccc([nH]4)c(-c4c(F)cccc4F)c4nc(c(-c5c(F)cccc5F)c5ccc2[nH]5)C=C4)C=C3)cc1
REMARK SMILES IDX 6 1 5 2 4 3 3 4 1 5 2 6 31 8 32 9 84 10 33 11 83 12 34 13
REMARK SMILES IDX 35 14 36 15 77 16 37 17 82 18 76 19 78 20 38 21 81 22 75 23
REMARK SMILES IDX 74 24 39 26 65 27 48 28 64 29 49 30 52 31 63 32 79 33 50 34
REMARK SMILES IDX 51 35 62 37 80 38 53 39 40 40 41 41 46 42 42 43 43 44 45 45
REMARK SMILES IDX 47 46 44 47 66 48 67 49 72 50 68 51 69 52 71 53 73 54 70 55
REMARK SMILES IDX 54 56 55 57 60 58 56 59 57 60 59 61 61 62 58 63 7 64 8 65
REMARK SMILES IDX 9 66 10 68 11 69 12 70 22 71 20 72 21 73 13 74 14 75 19 76
REMARK SMILES IDX 15 77 18 78 16 79 17 80 23 81 24 82 25 83 26 84 30 85 27 86
REMARK SMILES IDX 29 87 28 88
REMARK H PARENT 3 7 78 25 52 36 8 67
REMARK Flexibility Score: inf
ROOT
ATOM      1  C   UNL     1       3.955  -0.722   3.609  1.00  0.00     0.023 C 
ENDROOT
BRANCH   1   2
ATOM      2  C   UNL     1       4.582   0.052   2.443  1.00  0.00     0.023 C 
BRANCH   2   3
ATOM      3  C   UNL     1       4.407  -0.595   1.072  1.00  0.00     0.116 C 
BRANCH   3   4
ATOM      4  N   UNL     1       3.007  -0.792   0.736  1.00  0.00    -0.352 N 
ATOM      5  O   UNL     1       0.995  -0.240  -0.115  1.00  0.00    -0.269 OA
ATOM      6  C   UNL     1       2.208  -0.090  -0.134  1.00  0.00     0.251 C 
ATOM      7  H   UNL     1       2.565  -1.539   1.201  1.00  0.00     0.163 HD
BRANCH   6   8
ATOM      8  C   UNL     1       2.824   0.856  -1.085  1.00  0.00     0.039 A 
ATOM      9  C   UNL     1       3.924   0.471  -1.856  1.00  0.00     0.014 A 
ATOM     10  C   UNL     1       2.271   2.130  -1.226  1.00  0.00     0.014 A 
ATOM     11  C   UNL     1       4.550   1.400  -2.679  1.00  0.00     0.010 A 
ATOM     12  C   UNL     1       2.857   3.040  -2.106  1.00  0.00     0.010 A 
ATOM     13  C   UNL     1       4.014   2.689  -2.821  1.00  0.00    -0.014 A 
BRANCH  13  14
ATOM     14  C   UNL     1       4.632   3.654  -3.760  1.00  0.00     0.031 A 
ATOM     15  C   UNL     1       5.259   4.919  -3.254  1.00  0.00     0.074 A 
ATOM     16  C   UNL     1       4.585   3.397  -5.080  1.00  0.00     0.049 A 
ATOM     17  N   UNL     1       5.746   5.926  -3.931  1.00  0.00    -0.248 NA
ATOM     18  C   UNL     1       5.339   5.078  -1.794  1.00  0.00     0.031 C 
ATOM     19  C   UNL     1       3.999   2.199  -5.684  1.00  0.00     0.029 A 
ATOM     20  N   UNL     1       5.021   4.133  -6.151  1.00  0.00    -0.354 N 
ATOM     21  C   UNL     1       6.165   6.852  -2.984  1.00  0.00     0.074 A 
ATOM     22  C   UNL     1       5.858   6.293  -1.684  1.00  0.00     0.031 C 
ATOM     23  C   UNL     1       4.112   2.280  -7.017  1.00  0.00     0.029 A 
ATOM     24  C   UNL     1       4.719   3.561  -7.362  1.00  0.00     0.049 A 
ATOM     25  H   UNL     1       5.502   4.987  -6.061  1.00  0.00     0.167 HD
ATOM     26  C   UNL     1       6.750   8.057  -3.186  1.00  0.00     0.037 A 
ATOM     27  C   UNL     1       4.873   4.031  -8.612  1.00  0.00     0.037 A 
ATOM     28  C   UNL     1       7.057   8.596  -4.486  1.00  0.00     0.049 A 
ATOM     29  C   UNL     1       5.492   5.382  -8.814  1.00  0.00     0.074 A 
ATOM     30  C   UNL     1       7.690   9.786  -4.799  1.00  0.00     0.029 A 
ATOM     31  N   UNL     1       6.740   7.983  -5.690  1.00  0.00    -0.354 N 
ATOM     32  N   UNL     1       5.915   6.234  -7.912  1.00  0.00    -0.248 NA
ATOM     33  C   UNL     1       5.653   5.838 -10.200  1.00  0.00     0.031 C 
ATOM     34  C   UNL     1       7.713   9.916  -6.192  1.00  0.00     0.029 A 
ATOM     35  C   UNL     1       7.141   8.783  -6.748  1.00  0.00     0.049 A 
ATOM     36  H   UNL     1       6.296   7.109  -5.780  1.00  0.00     0.167 HD
ATOM     37  C   UNL     1       6.414   7.319  -8.619  1.00  0.00     0.074 A 
ATOM     38  C   UNL     1       6.243   7.014 -10.026  1.00  0.00     0.031 C 
ATOM     39  C   UNL     1       6.969   8.460  -8.143  1.00  0.00     0.037 A 
BRANCH  26  40
ATOM     40  C   UNL     1       7.063   8.885  -1.973  1.00  0.00     0.057 A 
ATOM     41  C   UNL     1       8.080   8.539  -1.075  1.00  0.00     0.134 A 
ATOM     42  C   UNL     1       6.342  10.058  -1.709  1.00  0.00     0.134 A 
ATOM     43  F   UNL     1       8.801   7.423  -1.261  1.00  0.00    -0.206 F 
ATOM     44  C   UNL     1       8.347   9.309   0.059  1.00  0.00     0.040 A 
ATOM     45  C   UNL     1       6.617  10.850  -0.593  1.00  0.00     0.040 A 
ATOM     46  F   UNL     1       5.359  10.453  -2.532  1.00  0.00    -0.206 F 
ATOM     47  C   UNL     1       7.617  10.471   0.300  1.00  0.00     0.006 A 
ENDBRANCH  26  40
BRANCH  27  48
ATOM     48  C   UNL     1       4.410   3.207  -9.754  1.00  0.00     0.057 A 
ATOM     49  C   UNL     1       5.319   2.553 -10.590  1.00  0.00     0.134 A 
ATOM     50  C   UNL     1       3.045   2.998  -9.990  1.00  0.00     0.134 A 
ATOM     51  F   UNL     1       6.638   2.724 -10.419  1.00  0.00    -0.206 F 
ATOM     52  C   UNL     1       4.888   1.717 -11.622  1.00  0.00     0.040 A 
ATOM     53  C   UNL     1       2.600   2.147 -11.001  1.00  0.00     0.040 A 
ATOM     54  F   UNL     1       2.126   3.587  -9.211  1.00  0.00    -0.206 F 
ATOM     55  C   UNL     1       3.525   1.504 -11.822  1.00  0.00     0.006 A 
ENDBRANCH  27  48
BRANCH  39  56
ATOM     56  C   UNL     1       7.470   9.452  -9.149  1.00  0.00     0.057 A 
ATOM     57  C   UNL     1       6.599  10.272  -9.877  1.00  0.00     0.134 A 
ATOM     58  C   UNL     1       8.845   9.634  -9.340  1.00  0.00     0.134 A 
ATOM     59  F   UNL     1       5.271  10.136  -9.749  1.00  0.00    -0.206 F 
ATOM     60  C   UNL     1       7.080  11.235 -10.765  1.00  0.00     0.040 A 
ATOM     61  C   UNL     1       9.338  10.608 -10.208  1.00  0.00     0.040 A 
ATOM     62  F   UNL     1       9.731   8.883  -8.668  1.00  0.00    -0.206 F 
ATOM     63  C   UNL     1       8.454  11.411 -10.925  1.00  0.00     0.006 A 
ENDBRANCH  39  56
ENDBRANCH  13  14
ENDBRANCH   6   8
ENDBRANCH   3   4
ENDBRANCH   2   3
ENDBRANCH   1   2
BRANCH   1  64
ATOM     64  C   UNL     1       4.350  -2.195   3.693  1.00  0.00     0.116 C 
BRANCH  64  65
ATOM     65  N   UNL     1       5.781  -2.353   3.846  1.00  0.00    -0.352 N 
ATOM     66  C   UNL     1       6.507  -3.068   4.758  1.00  0.00     0.257 C 
ATOM     67  H   UNL     1       6.322  -1.864   3.184  1.00  0.00     0.163 HD
ATOM     68  O   UNL     1       7.706  -2.799   4.839  1.00  0.00    -0.269 OA
BRANCH  66  69
ATOM     69  C   UNL     1       5.891  -4.091   5.571  1.00  0.00     0.113 A 
ATOM     70  C   UNL     1       6.297  -4.510   6.878  1.00  0.00     0.127 A 
ATOM     71  C   UNL     1       4.977  -5.063   5.205  1.00  0.00     0.175 A 
ATOM     72  N   UNL     1       5.519  -5.502   7.332  1.00  0.00    -0.079 NA
ATOM     73  O   UNL     1       4.691  -5.839   6.285  1.00  0.00    -0.357 OA
BRANCH  70  74
ATOM     74  C   UNL     1       7.473  -4.083   7.623  1.00  0.00     0.005 A 
ATOM     75  C   UNL     1       7.680  -2.741   7.963  1.00  0.00     0.012 A 
ATOM     76  C   UNL     1       8.474  -5.029   7.898  1.00  0.00     0.012 A 
ATOM     77  C   UNL     1       8.891  -2.347   8.539  1.00  0.00     0.021 A 
ATOM     78  C   UNL     1       9.682  -4.633   8.471  1.00  0.00     0.021 A 
ATOM     79  C   UNL     1       9.889  -3.291   8.779  1.00  0.00     0.041 A 
ATOM     80  Cl  UNL     1      11.396  -2.793   9.443  1.00  0.00    -0.084 Cl
ENDBRANCH  70  74
BRANCH  71  81
ATOM     81  C   UNL     1       4.340  -5.491   3.937  1.00  0.00     0.242 C 
BRANCH  81  82
ATOM     82  O   UNL     1       4.673  -6.857   3.714  1.00  0.00    -0.345 OA
BRANCH  82  83
ATOM     83  C   UNL     1       5.548  -7.157   2.622  1.00  0.00     0.250 C 
ATOM     84  C   UNL     1       6.833  -7.799   3.153  1.00  0.00     0.062 C 
ATOM     85  O   UNL     1       5.745  -6.070   1.723  1.00  0.00    -0.353 OA
ATOM     86  C   UNL     1       7.819  -6.756   3.651  1.00  0.00     0.008 C 
ATOM     87  C   UNL     1       7.097  -5.744   1.430  1.00  0.00     0.163 C 
ATOM     88  C   UNL     1       7.948  -5.590   2.680  1.00  0.00     0.029 C 
ENDBRANCH  82  83
ENDBRANCH  81  82
ENDBRANCH  71  81
ENDBRANCH  66  69
ENDBRANCH  64  65
ENDBRANCH   1  64
TORSDOF 15
