REMARK SMILES CCC[C@H](C)N(C)S(=O)(=O)c1ccc(CC(=O)NCCCCNC(=O)c2ccc(-c3c4nc(c(-c5c(F)cccc5F)c5ccc([nH]5)c(-c5c(F)cccc5F)c5nc(c(-c6c(F)cccc6F)c6ccc3[nH]6)C=C5)C=C4)cc2)s1
REMARK SMILES IDX 16 1 17 2 18 3 15 5 14 6 11 7 12 8 80 9 13 10 8 11 9 12
REMARK SMILES IDX 10 13 6 14 7 15 4 16 5 17 3 18 2 19 1 20 19 21 20 22 21 23
REMARK SMILES IDX 22 24 23 25 24 26 25 28 26 29 27 30 79 31 28 32 78 33 29 34
REMARK SMILES IDX 30 35 31 36 72 37 32 38 77 39 71 40 73 41 33 42 76 43 70 44
REMARK SMILES IDX 69 45 34 47 60 48 43 49 59 50 44 51 47 52 58 53 74 54 45 55
REMARK SMILES IDX 46 56 57 58 75 59 48 60 35 61 36 62 41 63 37 64 38 65 40 66
REMARK SMILES IDX 42 67 39 68 61 69 62 70 67 71 63 72 64 73 66 74 68 75 65 76
REMARK SMILES IDX 49 77 50 78 55 79 51 80 52 81 54 82 56 83 53 84
REMARK H PARENT 18 4 23 27 73 46 47 57
REMARK Flexibility Score: inf
ROOT
ATOM      1  C   UNL     1      -0.052 -10.870   3.078  1.00  0.00     0.225 C 
ATOM      2  O   UNL     1      -0.701 -11.569   2.296  1.00  0.00    -0.275 OA
ATOM      3  N   UNL     1      -0.654 -10.493   4.244  1.00  0.00    -0.356 N 
ATOM      4  H   UNL     1      -1.552 -10.868   4.395  1.00  0.00     0.163 HD
ENDROOT
BRANCH   1   5
ATOM      5  C   UNL     1       1.403 -10.533   2.812  1.00  0.00     0.146 C 
BRANCH   5   6
ATOM      6  C   UNL     1       1.678  -9.066   2.641  1.00  0.00     0.015 A 
ATOM      7  C   UNL     1       1.775  -6.723   1.841  1.00  0.00     0.135 A 
ATOM      8  C   UNL     1       2.676  -6.973   2.859  1.00  0.00     0.034 A 
ATOM      9  S   UNL     1       0.871  -8.124   1.456  1.00  0.00    -0.127 S 
ATOM     10  C   UNL     1       2.619  -8.315   3.320  1.00  0.00     0.017 A 
BRANCH   7  11
ATOM     11  S   UNL     1       1.495  -5.241   0.875  1.00  0.00     0.252 S 
ATOM     12  O   UNL     1       0.655  -5.620  -0.237  1.00  0.00    -0.206 OA
ATOM     13  O   UNL     1       2.834  -4.720   0.672  1.00  0.00    -0.206 OA
BRANCH  11  14
ATOM     14  N   UNL     1       0.654  -4.098   1.828  1.00  0.00    -0.197 NA
ATOM     15  C   UNL     1       1.197  -3.883   3.188  1.00  0.00     0.124 C 
BRANCH  14  16
ATOM     16  C   UNL     1       0.229  -2.797   1.199  1.00  0.00     0.070 C 
ATOM     17  C   UNL     1       0.546  -2.621  -0.286  1.00  0.00     0.026 C 
BRANCH  16  18
ATOM     18  C   UNL     1      -1.267  -2.545   1.484  1.00  0.00     0.020 C 
BRANCH  18  19
ATOM     19  C   UNL     1      -2.232  -3.679   1.118  1.00  0.00    -0.002 C 
ATOM     20  C   UNL     1      -2.401  -4.713   2.226  1.00  0.00     0.004 C 
ENDBRANCH  18  19
ENDBRANCH  16  18
ENDBRANCH  14  16
ENDBRANCH  11  14
ENDBRANCH   7  11
ENDBRANCH   5   6
ENDBRANCH   1   5
BRANCH   3  21
ATOM     21  C   UNL     1      -0.161  -9.622   5.290  1.00  0.00     0.116 C 
BRANCH  21  22
ATOM     22  C   UNL     1      -0.774  -8.225   5.186  1.00  0.00     0.023 C 
BRANCH  22  23
ATOM     23  C   UNL     1      -2.277  -8.166   5.483  1.00  0.00     0.023 C 
BRANCH  23  24
ATOM     24  C   UNL     1      -2.684  -8.648   6.871  1.00  0.00     0.116 C 
BRANCH  24  25
ATOM     25  N   UNL     1      -2.050  -7.898   7.944  1.00  0.00    -0.352 N 
ATOM     26  C   UNL     1      -2.570  -7.524   9.159  1.00  0.00     0.251 C 
ATOM     27  H   UNL     1      -1.121  -7.621   7.776  1.00  0.00     0.163 HD
ATOM     28  O   UNL     1      -1.929  -6.787   9.901  1.00  0.00    -0.269 OA
BRANCH  26  29
ATOM     29  C   UNL     1      -3.920  -7.980   9.553  1.00  0.00     0.039 A 
ATOM     30  C   UNL     1      -4.819  -7.045  10.074  1.00  0.00     0.014 A 
ATOM     31  C   UNL     1      -4.301  -9.316   9.404  1.00  0.00     0.014 A 
ATOM     32  C   UNL     1      -6.123  -7.436  10.382  1.00  0.00     0.010 A 
ATOM     33  C   UNL     1      -5.618  -9.691   9.654  1.00  0.00     0.010 A 
ATOM     34  C   UNL     1      -6.541  -8.755  10.142  1.00  0.00    -0.014 A 
BRANCH  34  35
ATOM     35  C   UNL     1      -7.943  -9.172  10.387  1.00  0.00     0.031 A 
ATOM     36  C   UNL     1      -8.259 -10.174  11.461  1.00  0.00     0.074 A 
ATOM     37  C   UNL     1      -8.925  -8.702   9.595  1.00  0.00     0.049 A 
ATOM     38  N   UNL     1      -9.410 -10.708  11.781  1.00  0.00    -0.248 NA
ATOM     39  C   UNL     1      -7.125 -10.657  12.263  1.00  0.00     0.031 C 
ATOM     40  C   UNL     1      -8.743  -7.758   8.491  1.00  0.00     0.029 A 
ATOM     41  N   UNL     1     -10.271  -8.962   9.593  1.00  0.00    -0.354 N 
ATOM     42  C   UNL     1      -9.137 -11.603  12.806  1.00  0.00     0.074 A 
ATOM     43  C   UNL     1      -7.707 -11.573  13.024  1.00  0.00     0.031 C 
ATOM     44  C   UNL     1      -9.938  -7.495   7.938  1.00  0.00     0.029 A 
ATOM     45  C   UNL     1     -10.962  -8.276   8.625  1.00  0.00     0.049 A 
ATOM     46  H   UNL     1     -10.702  -9.581  10.226  1.00  0.00     0.167 HD
ATOM     47  C   UNL     1     -10.002 -12.366  13.517  1.00  0.00     0.037 A 
ATOM     48  C   UNL     1     -12.274  -8.277   8.325  1.00  0.00     0.037 A 
ATOM     49  C   UNL     1     -11.427 -12.376  13.318  1.00  0.00     0.049 A 
ATOM     50  C   UNL     1     -13.213  -9.137   9.120  1.00  0.00     0.074 A 
ATOM     51  C   UNL     1     -12.395 -13.061  14.033  1.00  0.00     0.029 A 
ATOM     52  N   UNL     1     -12.090 -11.668  12.327  1.00  0.00    -0.354 N 
ATOM     53  N   UNL     1     -12.952  -9.931  10.130  1.00  0.00    -0.248 NA
ATOM     54  C   UNL     1     -14.631  -9.100   8.734  1.00  0.00     0.031 C 
ATOM     55  C   UNL     1     -13.640 -12.794  13.452  1.00  0.00     0.029 A 
ATOM     56  C   UNL     1     -13.451 -11.915  12.397  1.00  0.00     0.049 A 
ATOM     57  H   UNL     1     -11.656 -11.077  11.669  1.00  0.00     0.167 HD
ATOM     58  C   UNL     1     -14.172 -10.468  10.517  1.00  0.00     0.074 A 
ATOM     59  C   UNL     1     -15.176  -9.904   9.636  1.00  0.00     0.031 C 
ATOM     60  C   UNL     1     -14.437 -11.346  11.514  1.00  0.00     0.037 A 
BRANCH  47  61
ATOM     61  C   UNL     1      -9.417 -13.255  14.574  1.00  0.00     0.057 A 
ATOM     62  C   UNL     1      -8.881 -12.737  15.761  1.00  0.00     0.134 A 
ATOM     63  C   UNL     1      -9.384 -14.645  14.402  1.00  0.00     0.134 A 
ATOM     64  F   UNL     1      -8.868 -11.414  15.979  1.00  0.00    -0.206 F 
ATOM     65  C   UNL     1      -8.303 -13.566  16.723  1.00  0.00     0.040 A 
ATOM     66  C   UNL     1      -8.832 -15.486  15.370  1.00  0.00     0.040 A 
ATOM     67  F   UNL     1      -9.884 -15.206  13.291  1.00  0.00    -0.206 F 
ATOM     68  C   UNL     1      -8.280 -14.946  16.530  1.00  0.00     0.006 A 
ENDBRANCH  47  61
BRANCH  48  69
ATOM     69  C   UNL     1     -12.782  -7.395   7.246  1.00  0.00     0.057 A 
ATOM     70  C   UNL     1     -13.502  -6.236   7.554  1.00  0.00     0.134 A 
ATOM     71  C   UNL     1     -12.547  -7.674   5.896  1.00  0.00     0.134 A 
ATOM     72  F   UNL     1     -13.771  -5.928   8.832  1.00  0.00    -0.206 F 
ATOM     73  C   UNL     1     -13.978  -5.386   6.556  1.00  0.00     0.040 A 
ATOM     74  C   UNL     1     -13.002  -6.823   4.887  1.00  0.00     0.040 A 
ATOM     75  F   UNL     1     -11.858  -8.768   5.540  1.00  0.00    -0.206 F 
ATOM     76  C   UNL     1     -13.723  -5.676   5.217  1.00  0.00     0.006 A 
ENDBRANCH  48  69
BRANCH  60  77
ATOM     77  C   UNL     1     -15.872 -11.727  11.725  1.00  0.00     0.057 A 
ATOM     78  C   UNL     1     -16.536 -12.605  10.859  1.00  0.00     0.134 A 
ATOM     79  C   UNL     1     -16.586 -11.236  12.825  1.00  0.00     0.134 A 
ATOM     80  F   UNL     1     -15.910 -13.098   9.780  1.00  0.00    -0.206 F 
ATOM     81  C   UNL     1     -17.867 -12.967  11.071  1.00  0.00     0.040 A 
ATOM     82  C   UNL     1     -17.910 -11.607  13.059  1.00  0.00     0.040 A 
ATOM     83  F   UNL     1     -16.005 -10.395  13.694  1.00  0.00    -0.206 F 
ATOM     84  C   UNL     1     -18.556 -12.473  12.177  1.00  0.00     0.006 A 
ENDBRANCH  60  77
ENDBRANCH  34  35
ENDBRANCH  26  29
ENDBRANCH  24  25
ENDBRANCH  23  24
ENDBRANCH  22  23
ENDBRANCH  21  22
ENDBRANCH   3  21
TORSDOF 17
