REMARK SMILES O=C(CCCNC(=O)[C@@H]1CCCN(S(=O)(=O)c2ccc(F)cc2)C1)NCCCCNC(=O)c1ccc(-c2c3nc(c(-c4c(F)cccc4F)c4ccc([nH]4)c(-c4c(F)cccc4F)c4nc(c(-c5c(F)cccc5F)c5ccc2[nH]5)C=C4)C=C3)cc1
REMARK SMILES IDX 1 1 2 2 25 3 3 5 4 6 5 7 6 8 7 9 8 11 9 12 10 13 24 14 11 15
REMARK SMILES IDX 13 16 12 17 14 18 15 19 16 20 17 21 18 22 23 23 19 24 22 25
REMARK SMILES IDX 20 26 21 27 26 28 27 29 28 30 29 31 30 32 31 33 32 35 33 36
REMARK SMILES IDX 34 37 86 38 35 39 85 40 36 41 37 42 38 43 79 44 39 45 84 46
REMARK SMILES IDX 78 47 80 48 40 49 83 50 77 51 76 52 41 54 67 55 50 56 66 57
REMARK SMILES IDX 51 58 54 59 65 60 81 61 52 62 53 63 64 65 82 66 55 67 42 68
REMARK SMILES IDX 43 69 48 70 44 71 45 72 47 73 49 74 46 75 68 76 69 77 74 78
REMARK SMILES IDX 70 79 71 80 73 81 75 82 72 83 56 84 57 85 62 86 58 87 59 88
REMARK SMILES IDX 61 89 63 90 60 91
REMARK H PARENT 25 4 6 10 30 34 80 53 54 64
REMARK Flexibility Score: inf
ROOT
ATOM      1  O   UNL     1       0.793  -0.429   0.242  1.00  0.00    -0.275 OA
ATOM      2  C   UNL     1       1.799   0.193  -0.078  1.00  0.00     0.220 C 
ATOM      3  N   UNL     1       2.344   0.170  -1.343  1.00  0.00    -0.356 N 
ATOM      4  H   UNL     1       3.124   0.735  -1.542  1.00  0.00     0.163 HD
ENDROOT
BRANCH   2   5
ATOM      5  C   UNL     1       2.618   0.977   0.925  1.00  0.00     0.102 C 
BRANCH   5   6
ATOM      6  C   UNL     1       3.478   0.023   1.751  1.00  0.00     0.031 C 
BRANCH   6   7
ATOM      7  C   UNL     1       4.577  -0.676   0.951  1.00  0.00     0.116 C 
BRANCH   7   8
ATOM      8  N   UNL     1       5.695   0.200   0.672  1.00  0.00    -0.356 N 
ATOM      9  C   UNL     1       7.033   0.057   0.816  1.00  0.00     0.224 C 
ATOM     10  H   UNL     1       5.429   1.073   0.304  1.00  0.00     0.163 HD
ATOM     11  O   UNL     1       7.706   1.031   0.451  1.00  0.00    -0.275 OA
BRANCH   9  12
ATOM     12  C   UNL     1       7.760  -1.207   1.282  1.00  0.00     0.093 C 
ATOM     13  C   UNL     1       8.142  -2.104   0.103  1.00  0.00     0.016 C 
ATOM     14  C   UNL     1       7.224  -1.962   2.499  1.00  0.00     0.116 C 
ATOM     15  C   UNL     1       7.110  -3.186  -0.163  1.00  0.00     0.018 C 
ATOM     16  N   UNL     1       6.300  -3.091   2.150  1.00  0.00    -0.197 NA
ATOM     17  C   UNL     1       6.841  -3.989   1.103  1.00  0.00     0.102 C 
BRANCH  16  18
ATOM     18  S   UNL     1       5.636  -3.873   3.530  1.00  0.00     0.243 S 
ATOM     19  O   UNL     1       6.508  -4.972   3.880  1.00  0.00    -0.207 OA
ATOM     20  O   UNL     1       5.294  -2.846   4.493  1.00  0.00    -0.207 OA
BRANCH  18  21
ATOM     21  C   UNL     1       4.100  -4.551   2.926  1.00  0.00     0.082 A 
ATOM     22  C   UNL     1       4.091  -5.795   2.284  1.00  0.00     0.025 A 
ATOM     23  C   UNL     1       2.897  -3.879   3.185  1.00  0.00     0.025 A 
ATOM     24  C   UNL     1       2.882  -6.336   1.844  1.00  0.00     0.040 A 
ATOM     25  C   UNL     1       1.689  -4.437   2.761  1.00  0.00     0.040 A 
ATOM     26  C   UNL     1       1.693  -5.654   2.087  1.00  0.00     0.123 A 
ATOM     27  F   UNL     1       0.535  -6.188   1.679  1.00  0.00    -0.207 F 
ENDBRANCH  18  21
ENDBRANCH  16  18
ENDBRANCH   9  12
ENDBRANCH   7   8
ENDBRANCH   6   7
ENDBRANCH   5   6
ENDBRANCH   2   5
BRANCH   3  28
ATOM     28  C   UNL     1       1.790  -0.669  -2.385  1.00  0.00     0.116 C 
BRANCH  28  29
ATOM     29  C   UNL     1       2.245  -0.244  -3.778  1.00  0.00     0.023 C 
BRANCH  29  30
ATOM     30  C   UNL     1       3.752  -0.363  -4.039  1.00  0.00     0.023 C 
BRANCH  30  31
ATOM     31  C   UNL     1       4.325  -1.776  -3.958  1.00  0.00     0.116 C 
BRANCH  31  32
ATOM     32  N   UNL     1       3.793  -2.652  -4.989  1.00  0.00    -0.352 N 
ATOM     33  C   UNL     1       4.434  -3.341  -5.990  1.00  0.00     0.251 C 
ATOM     34  H   UNL     1       2.816  -2.772  -4.966  1.00  0.00     0.163 HD
ATOM     35  O   UNL     1       3.772  -3.885  -6.870  1.00  0.00    -0.269 OA
BRANCH  33  36
ATOM     36  C   UNL     1       5.912  -3.424  -6.036  1.00  0.00     0.039 A 
ATOM     37  C   UNL     1       6.552  -3.288  -7.273  1.00  0.00     0.014 A 
ATOM     38  C   UNL     1       6.667  -3.680  -4.888  1.00  0.00     0.014 A 
ATOM     39  C   UNL     1       7.947  -3.341  -7.348  1.00  0.00     0.010 A 
ATOM     40  C   UNL     1       8.061  -3.673  -4.955  1.00  0.00     0.010 A 
ATOM     41  C   UNL     1       8.715  -3.500  -6.184  1.00  0.00    -0.014 A 
BRANCH  41  42
ATOM     42  C   UNL     1      10.200  -3.467  -6.233  1.00  0.00     0.031 A 
ATOM     43  C   UNL     1      11.003  -4.690  -5.888  1.00  0.00     0.074 A 
ATOM     44  C   UNL     1      10.830  -2.315  -6.533  1.00  0.00     0.049 A 
ATOM     45  N   UNL     1      12.302  -4.823  -5.788  1.00  0.00    -0.248 NA
ATOM     46  C   UNL     1      10.248  -5.918  -5.596  1.00  0.00     0.031 C 
ATOM     47  C   UNL     1      10.170  -1.051  -6.859  1.00  0.00     0.029 A 
ATOM     48  N   UNL     1      12.169  -2.019  -6.604  1.00  0.00    -0.354 N 
ATOM     49  C   UNL     1      12.519  -6.142  -5.412  1.00  0.00     0.074 A 
ATOM     50  C   UNL     1      11.218  -6.758  -5.261  1.00  0.00     0.031 C 
ATOM     51  C   UNL     1      11.104  -0.121  -7.116  1.00  0.00     0.029 A 
ATOM     52  C   UNL     1      12.427  -0.712  -6.937  1.00  0.00     0.049 A 
ATOM     53  H   UNL     1      12.877  -2.682  -6.434  1.00  0.00     0.167 HD
ATOM     54  C   UNL     1      13.696  -6.786  -5.230  1.00  0.00     0.037 A 
ATOM     55  C   UNL     1      13.595  -0.056  -7.074  1.00  0.00     0.037 A 
ATOM     56  C   UNL     1      14.992  -6.184  -5.409  1.00  0.00     0.049 A 
ATOM     57  C   UNL     1      14.888  -0.789  -6.855  1.00  0.00     0.074 A 
ATOM     58  C   UNL     1      16.238  -6.775  -5.291  1.00  0.00     0.029 A 
ATOM     59  N   UNL     1      15.209  -4.858  -5.749  1.00  0.00    -0.354 N 
ATOM     60  N   UNL     1      15.077  -2.044  -6.529  1.00  0.00    -0.248 NA
ATOM     61  C   UNL     1      16.128  -0.017  -7.022  1.00  0.00     0.031 C 
ATOM     62  C   UNL     1      17.210  -5.798  -5.526  1.00  0.00     0.029 A 
ATOM     63  C   UNL     1      16.569  -4.609  -5.830  1.00  0.00     0.049 A 
ATOM     64  H   UNL     1      14.501  -4.193  -5.909  1.00  0.00     0.167 HD
ATOM     65  C   UNL     1      16.454  -2.218  -6.470  1.00  0.00     0.074 A 
ATOM     66  C   UNL     1      17.053  -0.943  -6.803  1.00  0.00     0.031 C 
ATOM     67  C   UNL     1      17.155  -3.336  -6.165  1.00  0.00     0.037 A 
BRANCH  54  68
ATOM     68  C   UNL     1      13.643  -8.230  -4.825  1.00  0.00     0.057 A 
ATOM     69  C   UNL     1      14.026  -8.628  -3.538  1.00  0.00     0.134 A 
ATOM     70  C   UNL     1      13.271  -9.232  -5.730  1.00  0.00     0.134 A 
ATOM     71  F   UNL     1      14.400  -7.718  -2.626  1.00  0.00    -0.206 F 
ATOM     72  C   UNL     1      14.048  -9.973  -3.168  1.00  0.00     0.040 A 
ATOM     73  C   UNL     1      13.266 -10.579  -5.364  1.00  0.00     0.040 A 
ATOM     74  F   UNL     1      12.883  -8.915  -6.974  1.00  0.00    -0.206 F 
ATOM     75  C   UNL     1      13.664 -10.953  -4.082  1.00  0.00     0.006 A 
ENDBRANCH  54  68
BRANCH  55  76
ATOM     76  C   UNL     1      13.589   1.374  -7.465  1.00  0.00     0.057 A 
ATOM     77  C   UNL     1      13.183   2.376  -6.575  1.00  0.00     0.134 A 
ATOM     78  C   UNL     1      13.963   1.767  -8.755  1.00  0.00     0.134 A 
ATOM     79  F   UNL     1      12.807   2.060  -5.327  1.00  0.00    -0.206 F 
ATOM     80  C   UNL     1      13.132   3.716  -6.959  1.00  0.00     0.040 A 
ATOM     81  C   UNL     1      13.935   3.106  -9.147  1.00  0.00     0.040 A 
ATOM     82  F   UNL     1      14.378   0.853  -9.644  1.00  0.00    -0.206 F 
ATOM     83  C   UNL     1      13.511   4.084  -8.249  1.00  0.00     0.006 A 
ENDBRANCH  55  76
BRANCH  67  84
ATOM     84  C   UNL     1      18.651  -3.247  -6.194  1.00  0.00     0.057 A 
ATOM     85  C   UNL     1      19.383  -3.862  -7.217  1.00  0.00     0.134 A 
ATOM     86  C   UNL     1      19.368  -2.617  -5.170  1.00  0.00     0.134 A 
ATOM     87  F   UNL     1      18.755  -4.490  -8.222  1.00  0.00    -0.206 F 
ATOM     88  C   UNL     1      20.779  -3.866  -7.213  1.00  0.00     0.040 A 
ATOM     89  C   UNL     1      20.764  -2.596  -5.166  1.00  0.00     0.040 A 
ATOM     90  F   UNL     1      18.724  -2.001  -4.168  1.00  0.00    -0.206 F 
ATOM     91  C   UNL     1      21.473  -3.231  -6.185  1.00  0.00     0.006 A 
ENDBRANCH  67  84
ENDBRANCH  41  42
ENDBRANCH  33  36
ENDBRANCH  31  32
ENDBRANCH  30  31
ENDBRANCH  29  30
ENDBRANCH  28  29
ENDBRANCH   3  28
TORSDOF 17
