REMARK SMILES O=C(NCCCCNC(=O)[C@H]1SC=C[C@@H]1S(=O)(=O)NCCC1=c2ccccc2=NC1)c1ccc(-c2c3nc(c(-c4c(F)cccc4F)c4ccc([nH]4)c(-c4c(F)cccc4F)c4nc(c(-c5c(F)cccc5F)c5ccc2[nH]5)C=C4)C=C3)cc1
REMARK SMILES IDX 7 1 6 2 5 3 4 4 3 5 1 6 2 7 31 9 32 10 84 11 33 12 83 13
REMARK SMILES IDX 34 14 35 15 36 16 77 17 37 18 82 19 76 20 78 21 38 22 81 23
REMARK SMILES IDX 75 24 74 25 39 27 65 28 48 29 64 30 49 31 52 32 63 33 79 34
REMARK SMILES IDX 50 35 51 36 62 38 80 39 53 40 40 41 41 42 46 43 42 44 43 45
REMARK SMILES IDX 45 46 47 47 44 48 66 49 67 50 72 51 68 52 69 53 71 54 73 55
REMARK SMILES IDX 70 56 54 57 55 58 60 59 56 60 57 61 59 62 61 63 58 64 8 65
REMARK SMILES IDX 9 66 10 68 11 69 12 70 15 71 13 72 14 73 16 74 17 75 18 76
REMARK SMILES IDX 19 77 20 79 21 80 22 81 23 82 30 83 24 84 28 85 29 86 25 87
REMARK SMILES IDX 27 88 26 89
REMARK H PARENT 3 8 78 26 52 37 8 67 19 78
REMARK Flexibility Score: inf
ROOT
ATOM      1  C   UNL     1       5.127   1.026   3.895  1.00  0.00     0.116 C 
ENDROOT
BRANCH   1   2
ATOM      2  C   UNL     1       4.607   2.056   2.890  1.00  0.00     0.023 C 
BRANCH   2   3
ATOM      3  C   UNL     1       5.043   1.822   1.448  1.00  0.00     0.023 C 
BRANCH   3   4
ATOM      4  C   UNL     1       4.585   0.490   0.871  1.00  0.00     0.116 C 
BRANCH   4   5
ATOM      5  N   UNL     1       3.137   0.333   0.901  1.00  0.00    -0.352 N 
ATOM      6  O   UNL     1       1.079   0.004   0.049  1.00  0.00    -0.269 OA
ATOM      7  C   UNL     1       2.293  -0.077  -0.100  1.00  0.00     0.251 C 
ATOM      8  H   UNL     1       2.704   0.552   1.758  1.00  0.00     0.163 HD
BRANCH   7   9
ATOM      9  C   UNL     1       2.857  -0.605  -1.357  1.00  0.00     0.039 A 
ATOM     10  C   UNL     1       2.301  -0.203  -2.574  1.00  0.00     0.014 A 
ATOM     11  C   UNL     1       3.928  -1.504  -1.331  1.00  0.00     0.014 A 
ATOM     12  C   UNL     1       2.842  -0.679  -3.768  1.00  0.00     0.010 A 
ATOM     13  C   UNL     1       4.521  -1.905  -2.519  1.00  0.00     0.010 A 
ATOM     14  C   UNL     1       3.965  -1.521  -3.749  1.00  0.00    -0.014 A 
BRANCH  14  15
ATOM     15  C   UNL     1       4.532  -2.090  -4.995  1.00  0.00     0.031 A 
ATOM     16  C   UNL     1       4.496  -3.579  -5.202  1.00  0.00     0.074 A 
ATOM     17  C   UNL     1       5.126  -1.291  -5.899  1.00  0.00     0.049 A 
ATOM     18  N   UNL     1       5.044  -4.300  -6.146  1.00  0.00    -0.248 NA
ATOM     19  C   UNL     1       3.772  -4.365  -4.189  1.00  0.00     0.031 C 
ATOM     20  C   UNL     1       5.239   0.165  -5.801  1.00  0.00     0.029 A 
ATOM     21  N   UNL     1       5.764  -1.598  -7.073  1.00  0.00    -0.354 N 
ATOM     22  C   UNL     1       4.747  -5.620  -5.829  1.00  0.00     0.074 A 
ATOM     23  C   UNL     1       4.029  -5.604  -4.574  1.00  0.00     0.031 C 
ATOM     24  C   UNL     1       5.899   0.625  -6.877  1.00  0.00     0.029 A 
ATOM     25  C   UNL     1       6.297  -0.505  -7.711  1.00  0.00     0.049 A 
ATOM     26  H   UNL     1       5.834  -2.515  -7.425  1.00  0.00     0.167 HD
ATOM     27  C   UNL     1       5.025  -6.743  -6.533  1.00  0.00     0.037 A 
ATOM     28  C   UNL     1       7.046  -0.430  -8.827  1.00  0.00     0.037 A 
ATOM     29  C   UNL     1       5.727  -6.749  -7.788  1.00  0.00     0.049 A 
ATOM     30  C   UNL     1       7.394  -1.696  -9.563  1.00  0.00     0.074 A 
ATOM     31  C   UNL     1       6.014  -7.822  -8.612  1.00  0.00     0.029 A 
ATOM     32  N   UNL     1       6.261  -5.622  -8.396  1.00  0.00    -0.354 N 
ATOM     33  N   UNL     1       7.057  -2.933  -9.288  1.00  0.00    -0.248 NA
ATOM     34  C   UNL     1       8.232  -1.554 -10.762  1.00  0.00     0.031 C 
ATOM     35  C   UNL     1       6.777  -7.354  -9.687  1.00  0.00     0.029 A 
ATOM     36  C   UNL     1       6.915  -5.980  -9.564  1.00  0.00     0.049 A 
ATOM     37  H   UNL     1       6.187  -4.704  -8.049  1.00  0.00     0.167 HD
ATOM     38  C   UNL     1       7.629  -3.715 -10.284  1.00  0.00     0.074 A 
ATOM     39  C   UNL     1       8.311  -2.808 -11.185  1.00  0.00     0.031 C 
ATOM     40  C   UNL     1       7.599  -5.062 -10.439  1.00  0.00     0.037 A 
BRANCH  27  41
ATOM     41  C   UNL     1       4.582  -8.050  -5.940  1.00  0.00     0.057 A 
ATOM     42  C   UNL     1       5.523  -8.981  -5.482  1.00  0.00     0.134 A 
ATOM     43  C   UNL     1       3.227  -8.388  -5.811  1.00  0.00     0.134 A 
ATOM     44  F   UNL     1       6.837  -8.727  -5.580  1.00  0.00    -0.206 F 
ATOM     45  C   UNL     1       5.134 -10.192  -4.907  1.00  0.00     0.040 A 
ATOM     46  C   UNL     1       2.825  -9.581  -5.206  1.00  0.00     0.040 A 
ATOM     47  F   UNL     1       2.272  -7.537  -6.216  1.00  0.00    -0.206 F 
ATOM     48  C   UNL     1       3.781 -10.489  -4.756  1.00  0.00     0.006 A 
ENDBRANCH  27  41
BRANCH  28  49
ATOM     49  C   UNL     1       7.537   0.887  -9.308  1.00  0.00     0.057 A 
ATOM     50  C   UNL     1       8.499   1.613  -8.595  1.00  0.00     0.134 A 
ATOM     51  C   UNL     1       7.067   1.443 -10.504  1.00  0.00     0.134 A 
ATOM     52  F   UNL     1       8.986   1.139  -7.438  1.00  0.00    -0.206 F 
ATOM     53  C   UNL     1       8.971   2.845  -9.048  1.00  0.00     0.040 A 
ATOM     54  C   UNL     1       7.551   2.661 -10.984  1.00  0.00     0.040 A 
ATOM     55  F   UNL     1       6.160   0.786 -11.242  1.00  0.00    -0.206 F 
ATOM     56  C   UNL     1       8.503   3.368 -10.252  1.00  0.00     0.006 A 
ENDBRANCH  28  49
BRANCH  40  57
ATOM     57  C   UNL     1       8.319  -5.630 -11.628  1.00  0.00     0.057 A 
ATOM     58  C   UNL     1       7.607  -6.195 -12.694  1.00  0.00     0.134 A 
ATOM     59  C   UNL     1       9.718  -5.650 -11.703  1.00  0.00     0.134 A 
ATOM     60  F   UNL     1       6.266  -6.217 -12.683  1.00  0.00    -0.206 F 
ATOM     61  C   UNL     1       8.261  -6.764 -13.788  1.00  0.00     0.040 A 
ATOM     62  C   UNL     1      10.382  -6.189 -12.805  1.00  0.00     0.040 A 
ATOM     63  F   UNL     1      10.458  -5.112 -10.722  1.00  0.00    -0.206 F 
ATOM     64  C   UNL     1       9.652  -6.756 -13.848  1.00  0.00     0.006 A 
ENDBRANCH  40  57
ENDBRANCH  14  15
ENDBRANCH   7   9
ENDBRANCH   4   5
ENDBRANCH   3   4
ENDBRANCH   2   3
ENDBRANCH   1   2
BRANCH   1  65
ATOM     65  N   UNL     1       6.547   1.172   4.091  1.00  0.00    -0.355 N 
ATOM     66  C   UNL     1       7.241   1.675   5.153  1.00  0.00     0.235 C 
ATOM     67  H   UNL     1       7.104   0.860   3.342  1.00  0.00     0.163 HD
ATOM     68  O   UNL     1       8.459   1.770   4.988  1.00  0.00    -0.274 OA
BRANCH  66  69
ATOM     69  C   UNL     1       6.503   2.078   6.447  1.00  0.00     0.163 C 
ATOM     70  S   UNL     1       7.750   2.207   7.815  1.00  0.00    -0.119 SA
ATOM     71  C   UNL     1       5.907   3.487   6.340  1.00  0.00     0.170 C 
ATOM     72  C   UNL     1       7.960   3.904   7.538  1.00  0.00     0.038 C 
ATOM     73  C   UNL     1       6.995   4.443   6.785  1.00  0.00     0.002 C 
BRANCH  71  74
ATOM     74  S   UNL     1       4.488   3.708   7.494  1.00  0.00     0.219 S 
ATOM     75  O   UNL     1       4.296   2.531   8.304  1.00  0.00    -0.212 OA
ATOM     76  O   UNL     1       4.571   5.017   8.116  1.00  0.00    -0.212 OA
BRANCH  74  77
ATOM     77  N   UNL     1       3.144   3.870   6.519  1.00  0.00    -0.214 NA
ATOM     78  H   UNL     1       3.390   4.601   5.852  1.00  0.00     0.141 HD
BRANCH  77  79
ATOM     79  C   UNL     1       2.508   2.829   5.718  1.00  0.00     0.103 C 
BRANCH  79  80
ATOM     80  C   UNL     1       2.259   1.478   6.392  1.00  0.00     0.050 C 
BRANCH  80  81
ATOM     81  C   UNL     1       1.115   1.439   7.352  1.00  0.00    -0.038 C 
ATOM     82  C   UNL     1       0.404   0.369   7.702  1.00  0.00     0.001 A 
ATOM     83  C   UNL     1       0.602   2.657   8.059  1.00  0.00     0.174 C 
ATOM     84  C   UNL     1       0.452  -1.025   7.396  1.00  0.00     0.010 A 
ATOM     85  C   UNL     1      -0.613   0.930   8.605  1.00  0.00     0.065 A 
ATOM     86  N   UNL     1      -0.573   2.205   8.841  1.00  0.00    -0.280 NA
ATOM     87  C   UNL     1      -0.471  -1.835   7.942  1.00  0.00     0.001 A 
ATOM     88  C   UNL     1      -1.607  -0.019   9.146  1.00  0.00     0.028 A 
ATOM     89  C   UNL     1      -1.514  -1.318   8.813  1.00  0.00     0.002 A 
ENDBRANCH  80  81
ENDBRANCH  79  80
ENDBRANCH  77  79
ENDBRANCH  74  77
ENDBRANCH  71  74
ENDBRANCH  66  69
ENDBRANCH   1  65
TORSDOF 16
