REMARK SMILES COc1cccc(-c2c(C(=O)NCCCCNC(=O)c3ccc(-c4c5nc(c(-c6c(F)cccc6F)c6ccc([nH]6)c(-c6c(F)cccc6F)c6nc(c(-c7c(F)cccc7F)c7ccc4[nH]7)C=C6)C=C5)cc3)nnn2-c2ccc(OC(F)(F)F)cc2)c1
REMARK SMILES IDX 14 1 13 2 12 3 10 4 11 5 9 7 8 8 76 9 74 10 75 11 7 12 3 13
REMARK SMILES IDX 4 14 88 15 5 16 6 17 2 18 1 19 77 20 78 21 87 22 79 23 86 24
REMARK SMILES IDX 80 25 81 26 82 27 83 28 84 29 85 30 15 31 16 32 17 33 18 34
REMARK SMILES IDX 19 36 20 37 21 38 73 39 22 40 72 41 23 42 24 43 25 44 66 45
REMARK SMILES IDX 26 46 71 47 65 48 67 49 27 50 70 51 64 52 63 53 28 55 54 56
REMARK SMILES IDX 37 57 53 58 38 59 41 60 52 61 68 62 39 63 40 64 51 66 69 67
REMARK SMILES IDX 42 68 29 69 30 70 35 71 31 72 32 73 34 74 36 75 33 76 55 77
REMARK SMILES IDX 56 78 61 79 57 80 58 81 60 82 62 83 59 84 43 85 44 86 49 87
REMARK SMILES IDX 45 88 46 89 48 90 50 91 47 92
REMARK H PARENT 12 6 17 35 67 54 41 65
REMARK Flexibility Score: inf
ROOT
ATOM      1  C   UNL     1       0.959   0.064  -4.702  1.00  0.00     0.023 C 
ENDROOT
BRANCH   1   2
ATOM      2  C   UNL     1       1.504  -1.333  -4.947  1.00  0.00     0.116 C 
BRANCH   2   3
ATOM      3  N   UNL     1       2.590  -1.490  -5.871  1.00  0.00    -0.351 N 
ATOM      4  C   UNL     1       3.808  -2.127  -5.715  1.00  0.00     0.274 C 
ATOM      5  O   UNL     1       4.497  -2.163  -6.740  1.00  0.00    -0.267 OA
ATOM      6  H   UNL     1       2.446  -1.081  -6.755  1.00  0.00     0.163 HD
BRANCH   4   7
ATOM      7  C   UNL     1       4.332  -2.692  -4.452  1.00  0.00     0.178 A 
ATOM      8  C   UNL     1       3.791  -3.208  -3.265  1.00  0.00     0.108 A 
ATOM      9  N   UNL     1       4.914  -3.552  -2.508  1.00  0.00    -0.212 N 
ATOM     10  N   UNL     1       5.714  -2.724  -4.326  1.00  0.00    -0.124 NA
ATOM     11  N   UNL     1       6.038  -3.138  -3.116  1.00  0.00    -0.061 NA
BRANCH   8  12
ATOM     12  C   UNL     1       2.445  -3.244  -2.684  1.00  0.00     0.006 A 
ATOM     13  C   UNL     1       0.832  -2.236  -1.154  1.00  0.00     0.119 A 
ATOM     14  C   UNL     1      -0.160  -3.057  -1.687  1.00  0.00     0.046 A 
ATOM     15  C   UNL     1       2.135  -2.346  -1.634  1.00  0.00     0.056 A 
ATOM     16  C   UNL     1       0.140  -3.968  -2.704  1.00  0.00     0.005 A 
ATOM     17  C   UNL     1       1.441  -4.067  -3.203  1.00  0.00     0.011 A 
BRANCH  13  18
ATOM     18  O   UNL     1       0.439  -1.400  -0.146  1.00  0.00    -0.497 OA
ATOM     19  C   UNL     1       1.040  -0.107  -0.143  1.00  0.00     0.278 C 
ENDBRANCH  13  18
ENDBRANCH   8  12
BRANCH   9  20
ATOM     20  C   UNL     1       4.955  -4.160  -1.228  1.00  0.00     0.067 A 
ATOM     21  C   UNL     1       5.882  -3.718  -0.280  1.00  0.00     0.032 A 
ATOM     22  C   UNL     1       4.035  -5.159  -0.891  1.00  0.00     0.032 A 
ATOM     23  C   UNL     1       5.821  -4.223   1.022  1.00  0.00     0.049 A 
ATOM     24  C   UNL     1       4.000  -5.677   0.404  1.00  0.00     0.049 A 
ATOM     25  C   UNL     1       4.878  -5.198   1.375  1.00  0.00     0.129 A 
BRANCH  25  26
ATOM     26  O   UNL     1       4.919  -5.589   2.683  1.00  0.00    -0.406 OA
BRANCH  26  27
ATOM     27  C   UNL     1       3.996  -6.585   3.095  1.00  0.00     0.573 C 
ATOM     28  F   UNL     1       2.722  -6.171   2.927  1.00  0.00    -0.132 F 
ATOM     29  F   UNL     1       4.189  -7.736   2.417  1.00  0.00    -0.132 F 
ATOM     30  F   UNL     1       4.186  -6.835   4.410  1.00  0.00    -0.132 F 
ENDBRANCH  26  27
ENDBRANCH  25  26
ENDBRANCH   9  20
ENDBRANCH   4   7
ENDBRANCH   2   3
ENDBRANCH   1   2
BRANCH   1  31
ATOM     31  C   UNL     1      -0.018   0.628  -5.723  1.00  0.00     0.023 C 
BRANCH  31  32
ATOM     32  C   UNL     1      -1.198  -0.273  -6.056  1.00  0.00     0.116 C 
BRANCH  32  33
ATOM     33  N   UNL     1      -2.075  -0.564  -4.926  1.00  0.00    -0.352 N 
ATOM     34  C   UNL     1      -3.294  -1.222  -4.974  1.00  0.00     0.251 C 
ATOM     35  H   UNL     1      -1.769  -0.263  -4.040  1.00  0.00     0.163 HD
ATOM     36  O   UNL     1      -4.109  -1.124  -4.076  1.00  0.00    -0.269 OA
BRANCH  34  37
ATOM     37  C   UNL     1      -3.578  -2.064  -6.154  1.00  0.00     0.039 A 
ATOM     38  C   UNL     1      -4.804  -1.987  -6.818  1.00  0.00     0.014 A 
ATOM     39  C   UNL     1      -2.568  -2.912  -6.611  1.00  0.00     0.014 A 
ATOM     40  C   UNL     1      -4.971  -2.708  -7.999  1.00  0.00     0.010 A 
ATOM     41  C   UNL     1      -2.692  -3.534  -7.832  1.00  0.00     0.010 A 
ATOM     42  C   UNL     1      -3.900  -3.459  -8.517  1.00  0.00    -0.014 A 
BRANCH  42  43
ATOM     43  C   UNL     1      -3.985  -4.027  -9.861  1.00  0.00     0.031 A 
ATOM     44  C   UNL     1      -4.313  -3.025 -10.916  1.00  0.00     0.074 A 
ATOM     45  C   UNL     1      -3.610  -5.286 -10.179  1.00  0.00     0.049 A 
ATOM     46  N   UNL     1      -5.404  -2.938 -11.600  1.00  0.00    -0.248 NA
ATOM     47  C   UNL     1      -3.390  -1.897 -11.128  1.00  0.00     0.031 C 
ATOM     48  C   UNL     1      -2.968  -6.289  -9.324  1.00  0.00     0.029 A 
ATOM     49  N   UNL     1      -3.652  -5.915 -11.388  1.00  0.00    -0.354 N 
ATOM     50  C   UNL     1      -5.225  -1.875 -12.484  1.00  0.00     0.074 A 
ATOM     51  C   UNL     1      -4.061  -1.168 -12.024  1.00  0.00     0.031 C 
ATOM     52  C   UNL     1      -2.484  -7.297 -10.086  1.00  0.00     0.029 A 
ATOM     53  C   UNL     1      -2.925  -7.101 -11.455  1.00  0.00     0.049 A 
ATOM     54  H   UNL     1      -4.157  -5.558 -12.154  1.00  0.00     0.167 HD
ATOM     55  C   UNL     1      -5.917  -1.827 -13.658  1.00  0.00     0.037 A 
ATOM     56  C   UNL     1      -2.696  -7.858 -12.560  1.00  0.00     0.037 A 
ATOM     57  C   UNL     1      -7.044  -2.730 -13.616  1.00  0.00     0.049 A 
ATOM     58  C   UNL     1      -3.716  -7.486 -13.568  1.00  0.00     0.074 A 
ATOM     59  C   UNL     1      -8.163  -2.857 -12.816  1.00  0.00     0.029 A 
ATOM     60  N   UNL     1      -6.911  -3.933 -14.264  1.00  0.00    -0.354 N 
ATOM     61  N   UNL     1      -4.985  -7.757 -13.449  1.00  0.00    -0.248 NA
ATOM     62  C   UNL     1      -3.388  -6.407 -14.486  1.00  0.00     0.031 C 
ATOM     63  C   UNL     1      -8.337  -4.264 -12.651  1.00  0.00     0.029 A 
ATOM     64  C   UNL     1      -7.375  -4.911 -13.428  1.00  0.00     0.049 A 
ATOM     65  H   UNL     1      -6.546  -4.068 -15.169  1.00  0.00     0.167 HD
ATOM     66  C   UNL     1      -5.626  -6.613 -13.897  1.00  0.00     0.074 A 
ATOM     67  C   UNL     1      -4.597  -5.852 -14.605  1.00  0.00     0.031 C 
ATOM     68  C   UNL     1      -6.846  -6.254 -13.400  1.00  0.00     0.037 A 
BRANCH  55  69
ATOM     69  C   UNL     1      -5.365  -1.311 -14.971  1.00  0.00     0.057 A 
ATOM     70  C   UNL     1      -6.192  -1.348 -16.113  1.00  0.00     0.134 A 
ATOM     71  C   UNL     1      -4.000  -1.084 -15.240  1.00  0.00     0.134 A 
ATOM     72  F   UNL     1      -7.515  -1.540 -16.002  1.00  0.00    -0.206 F 
ATOM     73  C   UNL     1      -5.684  -1.290 -17.417  1.00  0.00     0.040 A 
ATOM     74  C   UNL     1      -3.490  -0.976 -16.538  1.00  0.00     0.040 A 
ATOM     75  F   UNL     1      -3.069  -1.047 -14.283  1.00  0.00    -0.206 F 
ATOM     76  C   UNL     1      -4.325  -1.120 -17.633  1.00  0.00     0.006 A 
ENDBRANCH  55  69
BRANCH  56  77
ATOM     77  C   UNL     1      -1.517  -8.678 -12.927  1.00  0.00     0.057 A 
ATOM     78  C   UNL     1      -1.579  -9.613 -13.973  1.00  0.00     0.134 A 
ATOM     79  C   UNL     1      -0.229  -8.348 -12.474  1.00  0.00     0.134 A 
ATOM     80  F   UNL     1      -2.760  -9.967 -14.501  1.00  0.00    -0.206 F 
ATOM     81  C   UNL     1      -0.428 -10.157 -14.561  1.00  0.00     0.040 A 
ATOM     82  C   UNL     1       0.929  -8.886 -13.050  1.00  0.00     0.040 A 
ATOM     83  F   UNL     1      -0.048  -7.420 -11.524  1.00  0.00    -0.206 F 
ATOM     84  C   UNL     1       0.833  -9.781 -14.109  1.00  0.00     0.006 A 
ENDBRANCH  56  77
BRANCH  68  85
ATOM     85  C   UNL     1      -7.602  -7.261 -12.575  1.00  0.00     0.057 A 
ATOM     86  C   UNL     1      -7.158  -7.790 -11.353  1.00  0.00     0.134 A 
ATOM     87  C   UNL     1      -8.904  -7.589 -12.968  1.00  0.00     0.134 A 
ATOM     88  F   UNL     1      -5.964  -7.463 -10.844  1.00  0.00    -0.206 F 
ATOM     89  C   UNL     1      -7.963  -8.635 -10.581  1.00  0.00     0.040 A 
ATOM     90  C   UNL     1      -9.730  -8.400 -12.189  1.00  0.00     0.040 A 
ATOM     91  F   UNL     1      -9.416  -7.081 -14.101  1.00  0.00    -0.206 F 
ATOM     92  C   UNL     1      -9.257  -8.935 -10.994  1.00  0.00     0.006 A 
ENDBRANCH  68  85
ENDBRANCH  42  43
ENDBRANCH  34  37
ENDBRANCH  32  33
ENDBRANCH  31  32
ENDBRANCH   1  31
TORSDOF 16
