REMARK SMILES C#CC[C@@H](C(=O)NCCCCNC(=O)c1ccc(-c2c3nc(c(-c4c(F)cccc4F)c4ccc([nH]4)c(-c4c(F)cccc4F)c4nc(c(-c5c(F)cccc5F)c5ccc2[nH]5)C=C4)C=C3)cc1)c1cccc(Br)c1
REMARK SMILES IDX 9 1 8 2 7 3 5 4 6 5 4 7 3 8 2 9 1 10 69 11 70 12 75 13 71 14
REMARK SMILES IDX 73 15 72 16 74 17 10 18 11 19 12 20 13 21 14 23 15 24 16 25
REMARK SMILES IDX 68 26 17 27 67 28 18 29 19 30 20 31 61 32 21 33 66 34 60 35
REMARK SMILES IDX 62 36 22 37 65 38 59 39 58 40 23 42 49 43 32 44 48 45 33 46
REMARK SMILES IDX 36 47 47 48 63 49 34 50 35 51 46 53 64 54 37 55 24 56 25 57
REMARK SMILES IDX 30 58 26 59 27 60 29 61 31 62 28 63 50 64 51 65 56 66 52 67
REMARK SMILES IDX 53 68 55 69 57 70 54 71 38 72 39 73 44 74 40 75 41 76 43 77
REMARK SMILES IDX 45 78 42 79
REMARK H PARENT 7 6 12 22 62 41 36 52
REMARK Flexibility Score: inf
ROOT
ATOM      1  C   UNL     1       1.133   2.161   2.008  1.00  0.00     0.023 C 
ENDROOT
BRANCH   1   2
ATOM      2  C   UNL     1       0.454   1.068   2.855  1.00  0.00     0.116 C 
BRANCH   2   3
ATOM      3  N   UNL     1      -0.933   1.425   3.057  1.00  0.00    -0.356 N 
ATOM      4  C   UNL     1      -2.026   1.267   2.260  1.00  0.00     0.228 C 
ATOM      5  O   UNL     1      -2.841   2.190   2.383  1.00  0.00    -0.274 OA
ATOM      6  H   UNL     1      -1.120   1.859   3.921  1.00  0.00     0.163 HD
BRANCH   4   7
ATOM      7  C   UNL     1      -2.304  -0.009   1.384  1.00  0.00     0.120 C 
BRANCH   7   8
ATOM      8  C   UNL     1      -1.760  -0.027  -0.072  1.00  0.00     0.107 C 
BRANCH   8   9
ATOM      9  C   UNL     1      -0.239  -0.027  -0.072  1.00  0.00    -0.106 C 
ATOM     10  C   UNL     1       1.064  -0.027  -0.072  1.00  0.00     0.004 C 
ENDBRANCH   8   9
ENDBRANCH   7   8
BRANCH   7  11
ATOM     11  C   UNL     1      -3.825  -0.273   1.312  1.00  0.00    -0.034 A 
ATOM     12  C   UNL     1      -4.728   0.751   0.959  1.00  0.00     0.004 A 
ATOM     13  C   UNL     1      -4.349  -1.542   1.595  1.00  0.00     0.020 A 
ATOM     14  C   UNL     1      -6.108   0.549   0.990  1.00  0.00     0.001 A 
ATOM     15  C   UNL     1      -5.734  -1.749   1.584  1.00  0.00     0.018 A 
ATOM     16  C   UNL     1      -6.615  -0.705   1.307  1.00  0.00     0.016 A 
ATOM     17  Br  UNL     1      -6.429  -3.468   1.956  1.00  0.00    -0.051 Br
ENDBRANCH   7  11
ENDBRANCH   4   7
ENDBRANCH   2   3
ENDBRANCH   1   2
BRANCH   1  18
ATOM     18  C   UNL     1       2.177   3.006   2.712  1.00  0.00     0.023 C 
BRANCH  18  19
ATOM     19  C   UNL     1       3.355   2.222   3.270  1.00  0.00     0.116 C 
BRANCH  19  20
ATOM     20  N   UNL     1       4.016   1.299   2.349  1.00  0.00    -0.352 N 
ATOM     21  C   UNL     1       5.342   0.915   2.340  1.00  0.00     0.251 C 
ATOM     22  H   UNL     1       3.446   0.902   1.651  1.00  0.00     0.163 HD
ATOM     23  O   UNL     1       5.771   0.134   1.498  1.00  0.00    -0.269 OA
BRANCH  21  24
ATOM     24  C   UNL     1       6.248   1.521   3.336  1.00  0.00     0.039 A 
ATOM     25  C   UNL     1       7.416   2.156   2.910  1.00  0.00     0.014 A 
ATOM     26  C   UNL     1       5.841   1.603   4.667  1.00  0.00     0.014 A 
ATOM     27  C   UNL     1       8.111   2.974   3.803  1.00  0.00     0.010 A 
ATOM     28  C   UNL     1       6.442   2.530   5.500  1.00  0.00     0.010 A 
ATOM     29  C   UNL     1       7.592   3.218   5.085  1.00  0.00    -0.014 A 
BRANCH  29  30
ATOM     30  C   UNL     1       8.238   4.157   6.037  1.00  0.00     0.031 A 
ATOM     31  C   UNL     1       8.646   3.659   7.399  1.00  0.00     0.074 A 
ATOM     32  C   UNL     1       8.358   5.464   5.730  1.00  0.00     0.049 A 
ATOM     33  N   UNL     1       9.091   4.330   8.430  1.00  0.00    -0.248 NA
ATOM     34  C   UNL     1       8.465   2.220   7.659  1.00  0.00     0.031 C 
ATOM     35  C   UNL     1       7.916   6.095   4.484  1.00  0.00     0.029 A 
ATOM     36  N   UNL     1       8.887   6.502   6.454  1.00  0.00    -0.354 N 
ATOM     37  C   UNL     1       9.181   3.408   9.465  1.00  0.00     0.074 A 
ATOM     38  C   UNL     1       8.677   2.151   8.963  1.00  0.00     0.031 C 
ATOM     39  C   UNL     1       8.239   7.399   4.511  1.00  0.00     0.029 A 
ATOM     40  C   UNL     1       8.881   7.702   5.785  1.00  0.00     0.049 A 
ATOM     41  H   UNL     1       9.239   6.397   7.368  1.00  0.00     0.167 HD
ATOM     42  C   UNL     1       9.681   3.578  10.711  1.00  0.00     0.037 A 
ATOM     43  C   UNL     1       9.359   8.905   6.157  1.00  0.00     0.037 A 
ATOM     44  C   UNL     1      10.276   4.801  11.171  1.00  0.00     0.049 A 
ATOM     45  C   UNL     1      10.019   9.042   7.501  1.00  0.00     0.074 A 
ATOM     46  C   UNL     1      10.903   5.059  12.376  1.00  0.00     0.029 A 
ATOM     47  N   UNL     1      10.341   5.968  10.424  1.00  0.00    -0.354 N 
ATOM     48  N   UNL     1      10.165   8.145   8.446  1.00  0.00    -0.248 NA
ATOM     49  C   UNL     1      10.597  10.354   7.823  1.00  0.00     0.031 C 
ATOM     50  C   UNL     1      11.341   6.388  12.361  1.00  0.00     0.029 A 
ATOM     51  C   UNL     1      11.009   6.947  11.137  1.00  0.00     0.049 A 
ATOM     52  H   UNL     1       9.968   6.082   9.520  1.00  0.00     0.167 HD
ATOM     53  C   UNL     1      10.883   8.770   9.456  1.00  0.00     0.074 A 
ATOM     54  C   UNL     1      11.149  10.121   9.006  1.00  0.00     0.031 C 
ATOM     55  C   UNL     1      11.287   8.272  10.650  1.00  0.00     0.037 A 
BRANCH  42  56
ATOM     56  C   UNL     1       9.632   2.398  11.637  1.00  0.00     0.057 A 
ATOM     57  C   UNL     1      10.420   1.258  11.425  1.00  0.00     0.134 A 
ATOM     58  C   UNL     1       8.776   2.394  12.745  1.00  0.00     0.134 A 
ATOM     59  F   UNL     1      11.247   1.190  10.370  1.00  0.00    -0.206 F 
ATOM     60  C   UNL     1      10.329   0.141  12.256  1.00  0.00     0.040 A 
ATOM     61  C   UNL     1       8.699   1.294  13.602  1.00  0.00     0.040 A 
ATOM     62  F   UNL     1       7.996   3.453  13.008  1.00  0.00    -0.206 F 
ATOM     63  C   UNL     1       9.468   0.159  13.351  1.00  0.00     0.006 A 
ENDBRANCH  42  56
BRANCH  43  64
ATOM     64  C   UNL     1       9.311  10.053   5.217  1.00  0.00     0.057 A 
ATOM     65  C   UNL     1      10.477  10.508   4.588  1.00  0.00     0.134 A 
ATOM     66  C   UNL     1       8.119  10.726   4.931  1.00  0.00     0.134 A 
ATOM     67  F   UNL     1      11.652   9.911   4.835  1.00  0.00    -0.206 F 
ATOM     68  C   UNL     1      10.465  11.607   3.728  1.00  0.00     0.040 A 
ATOM     69  C   UNL     1       8.088  11.814   4.056  1.00  0.00     0.040 A 
ATOM     70  F   UNL     1       6.967  10.332   5.492  1.00  0.00    -0.206 F 
ATOM     71  C   UNL     1       9.266  12.262   3.458  1.00  0.00     0.006 A 
ENDBRANCH  43  64
BRANCH  55  72
ATOM     72  C   UNL     1      12.108   9.172  11.522  1.00  0.00     0.057 A 
ATOM     73  C   UNL     1      11.539  10.238  12.228  1.00  0.00     0.134 A 
ATOM     74  C   UNL     1      13.479   8.939  11.686  1.00  0.00     0.134 A 
ATOM     75  F   UNL     1      10.233  10.517  12.102  1.00  0.00    -0.206 F 
ATOM     76  C   UNL     1      12.312  11.057  13.052  1.00  0.00     0.040 A 
ATOM     77  C   UNL     1      14.257   9.736  12.525  1.00  0.00     0.040 A 
ATOM     78  F   UNL     1      14.080   7.926  11.043  1.00  0.00    -0.206 F 
ATOM     79  C   UNL     1      13.674  10.802  13.207  1.00  0.00     0.006 A 
ENDBRANCH  55  72
ENDBRANCH  29  30
ENDBRANCH  21  24
ENDBRANCH  19  20
ENDBRANCH  18  19
ENDBRANCH   1  18
TORSDOF 14
