REMARK SMILES O=C(NCCCCNC(=O)[C@H]1C[C@](F)(c2cccc(F)c2)C1)c1ccc(-c2c3nc(c(-c4c(F)cccc4F)c4ccc([nH]4)c(-c4c(F)cccc4F)c4nc(c(-c5c(F)cccc5F)c5ccc2[nH]5)C=C4)C=C3)cc1
REMARK SMILES IDX 5 1 4 2 3 3 1 4 2 5 23 7 24 8 76 9 25 10 75 11 26 12 27 13
REMARK SMILES IDX 28 14 69 15 29 16 74 17 68 18 70 19 30 20 73 21 67 22 66 23
REMARK SMILES IDX 31 25 57 26 40 27 56 28 41 29 44 30 55 31 71 32 42 33 43 34
REMARK SMILES IDX 54 36 72 37 45 38 32 39 33 40 38 41 34 42 35 43 37 44 39 45
REMARK SMILES IDX 36 46 58 47 59 48 64 49 60 50 61 51 63 52 65 53 62 54 46 55
REMARK SMILES IDX 47 56 52 57 48 58 49 59 51 60 53 61 50 62 6 63 7 64 8 65
REMARK SMILES IDX 9 66 10 68 11 69 12 70 22 71 13 72 14 73 15 74 16 75 21 76
REMARK SMILES IDX 17 77 19 78 18 79 20 80
REMARK H PARENT 3 6 70 24 44 35 8 67
REMARK Flexibility Score: inf
ROOT
ATOM      1  C   UNL     1       4.810  -1.671   2.040  1.00  0.00     0.023 C 
ENDROOT
BRANCH   1   2
ATOM      2  C   UNL     1       4.515  -0.928   0.742  1.00  0.00     0.116 C 
BRANCH   2   3
ATOM      3  N   UNL     1       3.101  -0.913   0.403  1.00  0.00    -0.352 N 
ATOM      4  O   UNL     1       1.129   0.009  -0.200  1.00  0.00    -0.269 OA
ATOM      5  C   UNL     1       2.345   0.126  -0.083  1.00  0.00     0.251 C 
ATOM      6  H   UNL     1       2.621  -1.762   0.540  1.00  0.00     0.163 HD
BRANCH   5   7
ATOM      7  C   UNL     1       3.005   1.400  -0.433  1.00  0.00     0.039 A 
ATOM      8  C   UNL     1       4.163   1.408  -1.215  1.00  0.00     0.014 A 
ATOM      9  C   UNL     1       2.461   2.596   0.040  1.00  0.00     0.014 A 
ATOM     10  C   UNL     1       4.847   2.601  -1.417  1.00  0.00     0.010 A 
ATOM     11  C   UNL     1       3.112   3.803  -0.224  1.00  0.00     0.010 A 
ATOM     12  C   UNL     1       4.325   3.810  -0.930  1.00  0.00    -0.014 A 
BRANCH  12  13
ATOM     13  C   UNL     1       5.037   5.080  -1.212  1.00  0.00     0.031 A 
ATOM     14  C   UNL     1       5.665   5.877  -0.105  1.00  0.00     0.074 A 
ATOM     15  C   UNL     1       5.129   5.501  -2.487  1.00  0.00     0.049 A 
ATOM     16  N   UNL     1       6.312   7.013  -0.176  1.00  0.00    -0.248 NA
ATOM     17  C   UNL     1       5.553   5.334   1.257  1.00  0.00     0.031 C 
ATOM     18  C   UNL     1       4.559   4.805  -3.644  1.00  0.00     0.029 A 
ATOM     19  N   UNL     1       5.744   6.600  -3.028  1.00  0.00    -0.354 N 
ATOM     20  C   UNL     1       6.669   7.330   1.128  1.00  0.00     0.074 A 
ATOM     21  C   UNL     1       6.149   6.277   1.975  1.00  0.00     0.031 C 
ATOM     22  C   UNL     1       4.887   5.471  -4.760  1.00  0.00     0.029 A 
ATOM     23  C   UNL     1       5.635   6.669  -4.395  1.00  0.00     0.049 A 
ATOM     24  H   UNL     1       6.217   7.274  -2.489  1.00  0.00     0.167 HD
ATOM     25  C   UNL     1       7.373   8.398   1.573  1.00  0.00     0.037 A 
ATOM     26  C   UNL     1       6.075   7.601  -5.260  1.00  0.00     0.037 A 
ATOM     27  C   UNL     1       7.901   9.433   0.722  1.00  0.00     0.049 A 
ATOM     28  C   UNL     1       6.821   8.791  -4.738  1.00  0.00     0.074 A 
ATOM     29  C   UNL     1       8.651  10.540   1.078  1.00  0.00     0.029 A 
ATOM     30  N   UNL     1       7.735   9.488  -0.654  1.00  0.00    -0.354 N 
ATOM     31  N   UNL     1       7.159   9.073  -3.503  1.00  0.00    -0.248 NA
ATOM     32  C   UNL     1       7.240   9.797  -5.723  1.00  0.00     0.031 C 
ATOM     33  C   UNL     1       8.904  11.288  -0.076  1.00  0.00     0.029 A 
ATOM     34  C   UNL     1       8.351  10.622  -1.158  1.00  0.00     0.049 A 
ATOM     35  H   UNL     1       7.252   8.821  -1.192  1.00  0.00     0.167 HD
ATOM     36  C   UNL     1       7.839  10.280  -3.562  1.00  0.00     0.074 A 
ATOM     37  C   UNL     1       7.878  10.672  -4.956  1.00  0.00     0.031 C 
ATOM     38  C   UNL     1       8.380  10.999  -2.549  1.00  0.00     0.037 A 
BRANCH  25  39
ATOM     39  C   UNL     1       7.610   8.514   3.050  1.00  0.00     0.057 A 
ATOM     40  C   UNL     1       6.960   9.502   3.801  1.00  0.00     0.134 A 
ATOM     41  C   UNL     1       8.534   7.699   3.716  1.00  0.00     0.134 A 
ATOM     42  F   UNL     1       6.069  10.322   3.222  1.00  0.00    -0.206 F 
ATOM     43  C   UNL     1       7.228   9.682   5.159  1.00  0.00     0.040 A 
ATOM     44  C   UNL     1       8.794   7.855   5.079  1.00  0.00     0.040 A 
ATOM     45  F   UNL     1       9.182   6.728   3.057  1.00  0.00    -0.206 F 
ATOM     46  C   UNL     1       8.147   8.856   5.802  1.00  0.00     0.006 A 
ENDBRANCH  25  39
BRANCH  26  47
ATOM     47  C   UNL     1       5.815   7.424  -6.709  1.00  0.00     0.057 A 
ATOM     48  C   UNL     1       4.523   7.536  -7.236  1.00  0.00     0.134 A 
ATOM     49  C   UNL     1       6.846   7.077  -7.588  1.00  0.00     0.134 A 
ATOM     50  F   UNL     1       3.492   7.856  -6.440  1.00  0.00    -0.206 F 
ATOM     51  C   UNL     1       4.260   7.284  -8.583  1.00  0.00     0.040 A 
ATOM     52  C   UNL     1       6.601   6.845  -8.942  1.00  0.00     0.040 A 
ATOM     53  F   UNL     1       8.105   6.968  -7.141  1.00  0.00    -0.206 F 
ATOM     54  C   UNL     1       5.302   6.938  -9.440  1.00  0.00     0.006 A 
ENDBRANCH  26  47
BRANCH  38  55
ATOM     55  C   UNL     1       9.078  12.276  -2.906  1.00  0.00     0.057 A 
ATOM     56  C   UNL     1      10.474  12.368  -2.844  1.00  0.00     0.134 A 
ATOM     57  C   UNL     1       8.364  13.433  -3.240  1.00  0.00     0.134 A 
ATOM     58  F   UNL     1      11.213  11.296  -2.521  1.00  0.00    -0.206 F 
ATOM     59  C   UNL     1      11.136  13.571  -3.089  1.00  0.00     0.040 A 
ATOM     60  C   UNL     1       9.017  14.637  -3.508  1.00  0.00     0.040 A 
ATOM     61  F   UNL     1       7.026  13.405  -3.327  1.00  0.00    -0.206 F 
ATOM     62  C   UNL     1      10.407  14.710  -3.423  1.00  0.00     0.006 A 
ENDBRANCH  38  55
ENDBRANCH  12  13
ENDBRANCH   5   7
ENDBRANCH   2   3
ENDBRANCH   1   2
BRANCH   1  63
ATOM     63  C   UNL     1       4.370  -3.139   2.061  1.00  0.00     0.023 C 
BRANCH  63  64
ATOM     64  C   UNL     1       4.988  -3.988   0.950  1.00  0.00     0.116 C 
BRANCH  64  65
ATOM     65  N   UNL     1       6.409  -4.178   1.172  1.00  0.00    -0.356 N 
ATOM     66  C   UNL     1       7.061  -5.285   1.660  1.00  0.00     0.223 C 
ATOM     67  H   UNL     1       6.983  -3.412   0.942  1.00  0.00     0.163 HD
ATOM     68  O   UNL     1       8.279  -5.194   1.839  1.00  0.00    -0.275 OA
BRANCH  66  69
ATOM     69  C   UNL     1       6.237  -6.570   1.913  1.00  0.00     0.085 C 
ATOM     70  C   UNL     1       6.729  -7.605   2.954  1.00  0.00     0.059 C 
ATOM     71  C   UNL     1       6.420  -7.697   0.862  1.00  0.00     0.059 C 
ATOM     72  C   UNL     1       6.157  -8.721   2.009  1.00  0.00     0.137 C 
ATOM     73  F   UNL     1       6.923  -9.839   1.943  1.00  0.00    -0.239 F 
BRANCH  72  74
ATOM     74  C   UNL     1       4.645  -9.197   2.277  1.00  0.00    -0.008 A 
ATOM     75  C   UNL     1       4.282  -9.813   3.495  1.00  0.00     0.007 A 
ATOM     76  C   UNL     1       3.607  -9.048   1.333  1.00  0.00     0.046 A 
ATOM     77  C   UNL     1       2.974 -10.236   3.763  1.00  0.00     0.003 A 
ATOM     78  C   UNL     1       2.305  -9.465   1.601  1.00  0.00     0.123 A 
ATOM     79  C   UNL     1       1.978 -10.057   2.810  1.00  0.00     0.039 A 
ATOM     80  F   UNL     1       1.356  -9.287   0.673  1.00  0.00    -0.207 F 
ENDBRANCH  72  74
ENDBRANCH  66  69
ENDBRANCH  64  65
ENDBRANCH  63  64
ENDBRANCH   1  63
TORSDOF 12
