REMARK SMILES Cc1nsc(NC(=O)CC[C@H](C)CC[NH3+])c1C(=O)NCCCCNC(=O)c1ccc(-c2c3nc(c(-c4c(F)cccc4F)c4ccc([nH]4)c(-c4c(F)cccc4F)c4nc(c(-c5c(F)cccc5F)c5ccc2[nH]5)C=C4)C=C3)cc1
REMARK SMILES IDX 17 1 18 2 19 3 16 5 1 6 2 7 3 8 4 9 5 10 6 11 7 12 8 14 9 15
REMARK SMILES IDX 10 16 11 17 12 18 13 19 14 20 15 21 20 25 21 26 22 27 23 28
REMARK SMILES IDX 24 29 25 30 26 32 27 33 28 34 80 35 29 36 79 37 30 38 31 39
REMARK SMILES IDX 32 40 73 41 33 42 78 43 72 44 74 45 34 46 77 47 71 48 70 49
REMARK SMILES IDX 35 51 61 52 44 53 60 54 45 55 48 56 59 57 75 58 46 59 47 60
REMARK SMILES IDX 58 62 76 63 49 64 36 65 37 66 42 67 38 68 39 69 41 70 43 71
REMARK SMILES IDX 40 72 62 73 63 74 68 75 64 76 65 77 67 78 69 79 66 80 50 81
REMARK SMILES IDX 51 82 56 83 52 84 53 85 55 86 57 87 54 88
REMARK H PARENT 19 4 6 13 15 22 15 23 15 24 24 31 74 50 48 61
REMARK Flexibility Score: inf
ROOT
ATOM      1  C   UNL     1      -3.216  -4.505   5.862  1.00  0.00     0.256 C 
ATOM      2  O   UNL     1      -2.405  -5.078   6.598  1.00  0.00    -0.269 OA
ATOM      3  N   UNL     1      -4.408  -5.177   5.693  1.00  0.00    -0.352 N 
ATOM      4  H   UNL     1      -4.481  -6.009   6.213  1.00  0.00     0.163 HD
ENDROOT
BRANCH   1   5
ATOM      5  C   UNL     1      -2.840  -3.225   5.224  1.00  0.00     0.097 A 
ATOM      6  C   UNL     1      -5.047  -1.900   4.429  1.00  0.00     0.069 C 
ATOM      7  C   UNL     1      -3.589  -2.105   4.647  1.00  0.00     0.066 A 
ATOM      8  N   UNL     1      -2.863  -1.065   4.230  1.00  0.00    -0.195 NA
ATOM      9  S   UNL     1      -1.286  -1.322   4.561  1.00  0.00    -0.017 S 
ATOM     10  C   UNL     1      -1.476  -2.930   5.053  1.00  0.00     0.129 A 
BRANCH  10  11
ATOM     11  N   UNL     1      -0.374  -3.725   5.311  1.00  0.00    -0.316 N 
ATOM     12  C   UNL     1       0.803  -3.857   4.622  1.00  0.00     0.225 C 
ATOM     13  H   UNL     1      -0.447  -4.285   6.118  1.00  0.00     0.170 HD
ATOM     14  O   UNL     1       1.632  -4.665   5.057  1.00  0.00    -0.275 OA
BRANCH  12  15
ATOM     15  C   UNL     1       1.090  -3.149   3.304  1.00  0.00     0.101 C 
BRANCH  15  16
ATOM     16  C   UNL     1       0.548  -3.804   2.020  1.00  0.00     0.013 C 
BRANCH  16  17
ATOM     17  C   UNL     1      -0.934  -4.236   2.017  1.00  0.00    -0.008 C 
ATOM     18  C   UNL     1      -1.105  -5.628   2.648  1.00  0.00     0.008 C 
BRANCH  17  19
ATOM     19  C   UNL     1      -1.542  -4.226   0.595  1.00  0.00     0.064 C 
BRANCH  19  20
ATOM     20  C   UNL     1      -3.081  -4.149   0.610  1.00  0.00     0.259 C 
BRANCH  20  21
ATOM     21  N   UNL     1      -3.558  -2.797   0.874  1.00  0.00    -0.358 N 
ATOM     22  H   UNL     1      -3.232  -2.494   1.792  1.00  0.00     0.344 HD
ATOM     23  H   UNL     1      -4.578  -2.786   0.855  1.00  0.00     0.344 HD
ATOM     24  H   UNL     1      -3.198  -2.164   0.160  1.00  0.00     0.344 HD
ENDBRANCH  20  21
ENDBRANCH  19  20
ENDBRANCH  17  19
ENDBRANCH  16  17
ENDBRANCH  15  16
ENDBRANCH  12  15
ENDBRANCH  10  11
ENDBRANCH   1   5
BRANCH   3  25
ATOM     25  C   UNL     1      -5.564  -4.874   4.889  1.00  0.00     0.116 C 
BRANCH  25  26
ATOM     26  C   UNL     1      -6.424  -6.054   4.425  1.00  0.00     0.023 C 
BRANCH  26  27
ATOM     27  C   UNL     1      -7.173  -6.884   5.473  1.00  0.00     0.023 C 
BRANCH  27  28
ATOM     28  C   UNL     1      -8.072  -6.101   6.417  1.00  0.00     0.116 C 
BRANCH  28  29
ATOM     29  N   UNL     1      -9.227  -5.460   5.784  1.00  0.00    -0.352 N 
ATOM     30  C   UNL     1     -10.300  -4.835   6.419  1.00  0.00     0.251 C 
ATOM     31  H   UNL     1      -9.249  -5.473   4.799  1.00  0.00     0.163 HD
ATOM     32  O   UNL     1     -11.352  -4.631   5.843  1.00  0.00    -0.269 OA
BRANCH  30  33
ATOM     33  C   UNL     1     -10.117  -4.403   7.821  1.00  0.00     0.039 A 
ATOM     34  C   UNL     1     -11.110  -4.538   8.797  1.00  0.00     0.014 A 
ATOM     35  C   UNL     1      -8.867  -3.894   8.149  1.00  0.00     0.014 A 
ATOM     36  C   UNL     1     -10.792  -4.228  10.121  1.00  0.00     0.010 A 
ATOM     37  C   UNL     1      -8.494  -3.817   9.457  1.00  0.00     0.010 A 
ATOM     38  C   UNL     1      -9.470  -3.882  10.441  1.00  0.00    -0.014 A 
BRANCH  38  39
ATOM     39  C   UNL     1      -9.011  -3.700  11.813  1.00  0.00     0.031 A 
ATOM     40  C   UNL     1      -9.195  -4.911  12.654  1.00  0.00     0.074 A 
ATOM     41  C   UNL     1      -8.234  -2.646  12.162  1.00  0.00     0.049 A 
ATOM     42  N   UNL     1     -10.012  -5.069  13.640  1.00  0.00    -0.248 NA
ATOM     43  C   UNL     1      -8.530  -6.160  12.236  1.00  0.00     0.031 C 
ATOM     44  C   UNL     1      -7.730  -1.578  11.281  1.00  0.00     0.029 A 
ATOM     45  N   UNL     1      -7.617  -2.361  13.344  1.00  0.00    -0.354 N 
ATOM     46  C   UNL     1      -9.755  -6.347  14.135  1.00  0.00     0.074 A 
ATOM     47  C   UNL     1      -9.047  -7.040  13.096  1.00  0.00     0.031 C 
ATOM     48  C   UNL     1      -6.716  -0.921  11.884  1.00  0.00     0.029 A 
ATOM     49  C   UNL     1      -6.616  -1.390  13.251  1.00  0.00     0.049 A 
ATOM     50  H   UNL     1      -7.856  -2.801  14.192  1.00  0.00     0.167 HD
ATOM     51  C   UNL     1      -9.829  -6.589  15.474  1.00  0.00     0.037 A 
ATOM     52  C   UNL     1      -5.763  -1.002  14.230  1.00  0.00     0.037 A 
ATOM     53  C   UNL     1     -10.485  -5.485  16.135  1.00  0.00     0.049 A 
ATOM     54  C   UNL     1      -6.360  -1.421  15.515  1.00  0.00     0.074 A 
ATOM     55  C   UNL     1     -11.756  -4.960  16.191  1.00  0.00     0.029 A 
ATOM     56  N   UNL     1      -9.617  -4.507  16.547  1.00  0.00    -0.354 N 
ATOM     57  N   UNL     1      -7.459  -0.909  15.995  1.00  0.00    -0.248 NA
ATOM     58  C   UNL     1      -5.961  -2.698  16.092  1.00  0.00     0.031 C 
ATOM     59  C   UNL     1     -11.589  -3.563  16.433  1.00  0.00     0.029 A 
ATOM     60  C   UNL     1     -10.230  -3.287  16.583  1.00  0.00     0.049 A 
ATOM     61  H   UNL     1      -8.675  -4.663  16.785  1.00  0.00     0.167 HD
ATOM     62  C   UNL     1      -8.107  -1.980  16.582  1.00  0.00     0.074 A 
ATOM     63  C   UNL     1      -7.075  -2.995  16.767  1.00  0.00     0.031 C 
ATOM     64  C   UNL     1      -9.470  -2.057  16.555  1.00  0.00     0.037 A 
BRANCH  51  65
ATOM     65  C   UNL     1      -8.875  -7.481  16.257  1.00  0.00     0.057 A 
ATOM     66  C   UNL     1      -9.077  -7.617  17.646  1.00  0.00     0.134 A 
ATOM     67  C   UNL     1      -7.618  -7.929  15.801  1.00  0.00     0.134 A 
ATOM     68  F   UNL     1     -10.230  -7.234  18.216  1.00  0.00    -0.206 F 
ATOM     69  C   UNL     1      -8.074  -8.065  18.517  1.00  0.00     0.040 A 
ATOM     70  C   UNL     1      -6.626  -8.420  16.658  1.00  0.00     0.040 A 
ATOM     71  F   UNL     1      -7.229  -7.832  14.527  1.00  0.00    -0.206 F 
ATOM     72  C   UNL     1      -6.837  -8.456  18.025  1.00  0.00     0.006 A 
ENDBRANCH  51  65
BRANCH  52  73
ATOM     73  C   UNL     1      -4.371  -0.506  14.136  1.00  0.00     0.057 A 
ATOM     74  C   UNL     1      -3.772   0.216  15.179  1.00  0.00     0.134 A 
ATOM     75  C   UNL     1      -3.502  -0.984  13.140  1.00  0.00     0.134 A 
ATOM     76  F   UNL     1      -4.513   0.681  16.196  1.00  0.00    -0.206 F 
ATOM     77  C   UNL     1      -2.387   0.427  15.244  1.00  0.00     0.040 A 
ATOM     78  C   UNL     1      -2.118  -0.781  13.192  1.00  0.00     0.040 A 
ATOM     79  F   UNL     1      -3.962  -1.742  12.134  1.00  0.00    -0.206 F 
ATOM     80  C   UNL     1      -1.553  -0.086  14.255  1.00  0.00     0.006 A 
ENDBRANCH  52  73
BRANCH  64  81
ATOM     81  C   UNL     1     -10.227  -0.784  16.315  1.00  0.00     0.057 A 
ATOM     82  C   UNL     1     -10.231  -0.066  15.111  1.00  0.00     0.134 A 
ATOM     83  C   UNL     1     -11.071  -0.324  17.331  1.00  0.00     0.134 A 
ATOM     84  F   UNL     1      -9.515  -0.473  14.056  1.00  0.00    -0.206 F 
ATOM     85  C   UNL     1     -11.014   1.081  14.943  1.00  0.00     0.040 A 
ATOM     86  C   UNL     1     -11.883   0.797  17.165  1.00  0.00     0.040 A 
ATOM     87  F   UNL     1     -11.150  -0.990  18.495  1.00  0.00    -0.206 F 
ATOM     88  C   UNL     1     -11.849   1.510  15.970  1.00  0.00     0.006 A 
ENDBRANCH  64  81
ENDBRANCH  38  39
ENDBRANCH  30  33
ENDBRANCH  28  29
ENDBRANCH  27  28
ENDBRANCH  26  27
ENDBRANCH  25  26
ENDBRANCH   3  25
TORSDOF 18
