REMARK SMILES CC(C)(C)c1cc2c(cc1Cl)C=C(C(=O)NCCCCNC(=O)c1ccc(-c3c4nc(c(-c5c(F)cccc5F)c5ccc([nH]5)c(-c5c(F)cccc5F)c5nc(c(-c6c(F)cccc6F)c6ccc3[nH]6)C=C5)C=C4)cc1)[C@@H](C(F)(F)F)O2
REMARK SMILES IDX 19 1 18 2 17 3 16 4 14 5 15 6 13 8 5 9 6 10 10 11 7 12 9 13
REMARK SMILES IDX 11 14 8 15 83 16 12 17 78 18 2 19 1 20 3 21 4 22 79 23 80 24
REMARK SMILES IDX 81 25 82 26 20 27 21 28 22 29 23 31 24 32 25 33 77 34 26 35
REMARK SMILES IDX 76 36 27 37 28 38 29 39 70 40 30 41 75 42 69 43 71 44 31 45
REMARK SMILES IDX 74 46 68 47 67 48 32 50 58 51 41 52 57 53 42 54 45 55 56 56
REMARK SMILES IDX 72 57 43 58 44 59 55 61 73 62 46 63 33 64 34 65 39 66 35 67
REMARK SMILES IDX 36 68 38 69 40 70 37 71 59 72 60 73 65 74 61 75 62 76 64 77
REMARK SMILES IDX 66 78 63 79 47 80 48 81 53 82 49 83 50 84 52 85 54 86 51 87
REMARK H PARENT 16 7 21 30 71 49 45 60
REMARK Flexibility Score: inf
ROOT
ATOM      1  C   UNL     1      -0.588  10.275   6.266  1.00  0.00     0.023 C 
ENDROOT
BRANCH   1   2
ATOM      2  C   UNL     1      -0.348   9.270   5.135  1.00  0.00     0.023 C 
BRANCH   2   3
ATOM      3  C   UNL     1       1.122   8.932   4.892  1.00  0.00     0.116 C 
BRANCH   3   4
ATOM      4  N   UNL     1       1.592   7.863   5.756  1.00  0.00    -0.352 N 
ATOM      5  C   UNL     1       1.815   6.531   5.649  1.00  0.00     0.251 C 
ATOM      6  O   UNL     1       2.244   5.987   6.671  1.00  0.00    -0.270 OA
ATOM      7  H   UNL     1       1.805   8.195   6.659  1.00  0.00     0.163 HD
BRANCH   5   8
ATOM      8  C   UNL     1       1.576   5.712   4.424  1.00  0.00     0.067 C 
ATOM      9  C   UNL     1       0.876   1.851   1.163  1.00  0.00    -0.020 A 
ATOM     10  C   UNL     1       0.584   3.239   1.194  1.00  0.00     0.053 A 
ATOM     11  C   UNL     1       1.500   1.333   2.319  1.00  0.00     0.045 A 
ATOM     12  C   UNL     1       0.897   4.054   2.281  1.00  0.00     0.128 A 
ATOM     13  C   UNL     1       1.799   2.163   3.423  1.00  0.00     0.032 A 
ATOM     14  Cl  UNL     1       1.944  -0.319   2.559  1.00  0.00    -0.084 Cl
ATOM     15  C   UNL     1       1.495   3.522   3.411  1.00  0.00     0.019 A 
ATOM     16  O   UNL     1       0.535   5.365   2.184  1.00  0.00    -0.475 OA
ATOM     17  C   UNL     1       1.726   4.381   4.566  1.00  0.00     0.025 C 
ATOM     18  C   UNL     1       1.220   6.283   3.079  1.00  0.00     0.314 C 
BRANCH   9  19
ATOM     19  C   UNL     1       0.434   1.089  -0.112  1.00  0.00    -0.012 C 
ATOM     20  C   UNL     1       0.843  -0.391  -0.248  1.00  0.00     0.016 C 
ATOM     21  C   UNL     1       1.008   1.789  -1.373  1.00  0.00     0.016 C 
ATOM     22  C   UNL     1      -1.113   1.121  -0.184  1.00  0.00     0.016 C 
ENDBRANCH   9  19
BRANCH  18  23
ATOM     23  C   UNL     1       2.440   6.887   2.358  1.00  0.00     0.429 C 
ATOM     24  F   UNL     1       2.039   7.664   1.320  1.00  0.00    -0.167 F 
ATOM     25  F   UNL     1       3.178   7.683   3.168  1.00  0.00    -0.167 F 
ATOM     26  F   UNL     1       3.275   5.947   1.863  1.00  0.00    -0.167 F 
ENDBRANCH  18  23
ENDBRANCH   5   8
ENDBRANCH   3   4
ENDBRANCH   2   3
ENDBRANCH   1   2
BRANCH   1  27
ATOM     27  C   UNL     1       0.155  11.602   6.132  1.00  0.00     0.116 C 
BRANCH  27  28
ATOM     28  N   UNL     1      -0.052  12.289   4.864  1.00  0.00    -0.352 N 
ATOM     29  C   UNL     1       0.146  13.625   4.590  1.00  0.00     0.251 C 
ATOM     30  H   UNL     1      -0.370  11.733   4.116  1.00  0.00     0.163 HD
ATOM     31  O   UNL     1      -0.145  14.095   3.496  1.00  0.00    -0.269 OA
BRANCH  29  32
ATOM     32  C   UNL     1       0.657  14.496   5.668  1.00  0.00     0.039 A 
ATOM     33  C   UNL     1       1.800  14.131   6.378  1.00  0.00     0.014 A 
ATOM     34  C   UNL     1      -0.080  15.625   6.038  1.00  0.00     0.014 A 
ATOM     35  C   UNL     1       2.092  14.775   7.573  1.00  0.00     0.010 A 
ATOM     36  C   UNL     1       0.269  16.325   7.197  1.00  0.00     0.010 A 
ATOM     37  C   UNL     1       1.315  15.862   8.010  1.00  0.00    -0.014 A 
BRANCH  37  38
ATOM     38  C   UNL     1       1.601  16.455   9.342  1.00  0.00     0.031 A 
ATOM     39  C   UNL     1       0.607  16.337  10.468  1.00  0.00     0.074 A 
ATOM     40  C   UNL     1       2.806  17.012   9.566  1.00  0.00     0.049 A 
ATOM     41  N   UNL     1       0.730  16.706  11.720  1.00  0.00    -0.248 NA
ATOM     42  C   UNL     1      -0.697  15.734  10.151  1.00  0.00     0.031 C 
ATOM     43  C   UNL     1       3.855  17.182   8.558  1.00  0.00     0.029 A 
ATOM     44  N   UNL     1       3.369  17.495  10.718  1.00  0.00    -0.354 N 
ATOM     45  C   UNL     1      -0.480  16.399  12.330  1.00  0.00     0.074 A 
ATOM     46  C   UNL     1      -1.336  15.839  11.307  1.00  0.00     0.031 C 
ATOM     47  C   UNL     1       4.957  17.664   9.150  1.00  0.00     0.029 A 
ATOM     48  C   UNL     1       4.677  17.882  10.566  1.00  0.00     0.049 A 
ATOM     49  H   UNL     1       2.882  17.559  11.572  1.00  0.00     0.167 HD
ATOM     50  C   UNL     1      -0.843  16.559  13.626  1.00  0.00     0.037 A 
ATOM     51  C   UNL     1       5.557  18.354  11.466  1.00  0.00     0.037 A 
ATOM     52  C   UNL     1       0.015  17.091  14.653  1.00  0.00     0.049 A 
ATOM     53  C   UNL     1       5.129  18.520  12.895  1.00  0.00     0.074 A 
ATOM     54  C   UNL     1      -0.257  17.277  15.998  1.00  0.00     0.029 A 
ATOM     55  N   UNL     1       1.318  17.518  14.448  1.00  0.00    -0.354 N 
ATOM     56  N   UNL     1       3.983  18.220  13.454  1.00  0.00    -0.248 NA
ATOM     57  C   UNL     1       6.119  19.098  13.814  1.00  0.00     0.031 C 
ATOM     58  C   UNL     1       0.873  17.842  16.601  1.00  0.00     0.029 A 
ATOM     59  C   UNL     1       1.859  17.977  15.638  1.00  0.00     0.049 A 
ATOM     60  H   UNL     1       1.790  17.497  13.584  1.00  0.00     0.167 HD
ATOM     61  C   UNL     1       4.114  18.567  14.792  1.00  0.00     0.074 A 
ATOM     62  C   UNL     1       5.461  19.072  14.964  1.00  0.00     0.031 C 
ATOM     63  C   UNL     1       3.198  18.484  15.787  1.00  0.00     0.037 A 
BRANCH  50  64
ATOM     64  C   UNL     1      -2.240  16.162  14.004  1.00  0.00     0.057 A 
ATOM     65  C   UNL     1      -3.207  17.136  14.285  1.00  0.00     0.134 A 
ATOM     66  C   UNL     1      -2.624  14.820  14.113  1.00  0.00     0.134 A 
ATOM     67  F   UNL     1      -2.904  18.440  14.203  1.00  0.00    -0.206 F 
ATOM     68  C   UNL     1      -4.506  16.789  14.661  1.00  0.00     0.040 A 
ATOM     69  C   UNL     1      -3.926  14.460  14.468  1.00  0.00     0.040 A 
ATOM     70  F   UNL     1      -1.751  13.839  13.841  1.00  0.00    -0.206 F 
ATOM     71  C   UNL     1      -4.870  15.447  14.748  1.00  0.00     0.006 A 
ENDBRANCH  50  64
BRANCH  51  72
ATOM     72  C   UNL     1       6.937  18.693  11.044  1.00  0.00     0.057 A 
ATOM     73  C   UNL     1       7.199  19.802  10.232  1.00  0.00     0.134 A 
ATOM     74  C   UNL     1       8.027  17.913  11.447  1.00  0.00     0.134 A 
ATOM     75  F   UNL     1       6.194  20.584   9.810  1.00  0.00    -0.206 F 
ATOM     76  C   UNL     1       8.495  20.120   9.827  1.00  0.00     0.040 A 
ATOM     77  C   UNL     1       9.331  18.232  11.069  1.00  0.00     0.040 A 
ATOM     78  F   UNL     1       7.838  16.848  12.241  1.00  0.00    -0.206 F 
ATOM     79  C   UNL     1       9.567  19.337  10.251  1.00  0.00     0.006 A 
ENDBRANCH  51  72
BRANCH  63  80
ATOM     80  C   UNL     1       3.639  18.944  17.144  1.00  0.00     0.057 A 
ATOM     81  C   UNL     1       3.921  18.020  18.157  1.00  0.00     0.134 A 
ATOM     82  C   UNL     1       3.794  20.304  17.442  1.00  0.00     0.134 A 
ATOM     83  F   UNL     1       3.787  16.704  17.936  1.00  0.00    -0.206 F 
ATOM     84  C   UNL     1       4.351  18.433  19.419  1.00  0.00     0.040 A 
ATOM     85  C   UNL     1       4.244  20.728  18.692  1.00  0.00     0.040 A 
ATOM     86  F   UNL     1       3.556  21.236  16.506  1.00  0.00    -0.206 F 
ATOM     87  C   UNL     1       4.522  19.791  19.686  1.00  0.00     0.006 A 
ENDBRANCH  63  80
ENDBRANCH  37  38
ENDBRANCH  29  32
ENDBRANCH  27  28
ENDBRANCH   1  27
TORSDOF 13
