REMARK SMILES C=C(C)C[N@@H+]1CC[C@H](C(=O)NCCCCNC(=O)c2ccc(-c3c4nc(c(-c5c(F)cccc5F)c5ccc([nH]5)c(-c5c(F)cccc5F)c5nc(c(-c6c(F)cccc6F)c6ccc3[nH]6)C=C5)C=C4)cc2)[C@H]1C
REMARK SMILES IDX 13 1 12 2 11 3 9 4 10 5 8 7 5 8 6 9 73 10 7 12 74 13 4 14
REMARK SMILES IDX 2 15 1 16 3 17 14 18 15 19 16 20 17 21 18 23 19 24 20 25
REMARK SMILES IDX 72 26 21 27 71 28 22 29 23 30 24 31 65 32 25 33 70 34 64 35
REMARK SMILES IDX 66 36 26 37 69 38 63 39 62 40 27 42 53 43 36 44 52 45 37 46
REMARK SMILES IDX 40 47 51 48 67 49 38 50 39 51 50 53 68 54 41 55 28 56 29 57
REMARK SMILES IDX 34 58 30 59 31 60 33 61 35 62 32 63 54 64 55 65 60 66 56 67
REMARK SMILES IDX 57 68 59 69 61 70 58 71 42 72 43 73 48 74 44 75 45 76 47 77
REMARK SMILES IDX 49 78 46 79
REMARK H PARENT 11 6 5 11 16 22 66 41 40 52
REMARK Flexibility Score: inf
ROOT
ATOM      1  C   UNL     1       5.316  -1.238   1.928  1.00  0.00     0.023 C 
ENDROOT
BRANCH   1   2
ATOM      2  C   UNL     1       4.425  -1.470   3.147  1.00  0.00     0.116 C 
BRANCH   2   3
ATOM      3  N   UNL     1       4.389  -0.301   3.998  1.00  0.00    -0.356 N 
ATOM      4  C   UNL     1       3.380   0.575   4.253  1.00  0.00     0.229 C 
ATOM      5  O   UNL     1       3.661   1.538   4.970  1.00  0.00    -0.275 OA
ATOM      6  H   UNL     1       5.231  -0.108   4.468  1.00  0.00     0.163 HD
BRANCH   4   7
ATOM      7  C   UNL     1       1.962   0.322   3.730  1.00  0.00     0.142 C 
ATOM      8  N   UNL     1       0.910   1.531   1.964  1.00  0.00    -0.329 N 
ATOM      9  C   UNL     1       1.036   2.433   3.099  1.00  0.00     0.263 C 
ATOM     10  C   UNL     1       1.845   0.416   2.192  1.00  0.00     0.193 C 
ATOM     11  H   UNL     1      -0.038   1.158   1.919  1.00  0.00     0.348 HD
ATOM     12  C   UNL     1       1.014   1.421   4.230  1.00  0.00     0.081 C 
ATOM     13  C   UNL     1       1.259  -0.862   1.578  1.00  0.00     0.076 C 
BRANCH   8  14
ATOM     14  C   UNL     1       0.974   2.171   0.656  1.00  0.00     0.293 C 
BRANCH  14  15
ATOM     15  C   UNL     1       0.097   1.424  -0.326  1.00  0.00    -0.026 C 
ATOM     16  C   UNL     1       0.586   0.818  -1.421  1.00  0.00     0.013 C 
ATOM     17  C   UNL     1      -1.371   1.359   0.007  1.00  0.00     0.045 C 
ENDBRANCH  14  15
ENDBRANCH   8  14
ENDBRANCH   4   7
ENDBRANCH   2   3
ENDBRANCH   1   2
BRANCH   1  18
ATOM     18  C   UNL     1       6.805  -1.114   2.261  1.00  0.00     0.023 C 
BRANCH  18  19
ATOM     19  C   UNL     1       7.396  -2.309   2.999  1.00  0.00     0.116 C 
BRANCH  19  20
ATOM     20  N   UNL     1       7.309  -3.544   2.236  1.00  0.00    -0.352 N 
ATOM     21  C   UNL     1       8.263  -4.522   2.074  1.00  0.00     0.251 C 
ATOM     22  H   UNL     1       6.454  -3.702   1.775  1.00  0.00     0.163 HD
ATOM     23  O   UNL     1       8.085  -5.436   1.283  1.00  0.00    -0.269 OA
BRANCH  21  24
ATOM     24  C   UNL     1       9.524  -4.436   2.842  1.00  0.00     0.039 A 
ATOM     25  C   UNL     1      10.735  -4.629   2.175  1.00  0.00     0.014 A 
ATOM     26  C   UNL     1       9.510  -4.141   4.208  1.00  0.00     0.014 A 
ATOM     27  C   UNL     1      11.937  -4.468   2.867  1.00  0.00     0.010 A 
ATOM     28  C   UNL     1      10.706  -3.899   4.875  1.00  0.00     0.010 A 
ATOM     29  C   UNL     1      11.932  -4.070   4.215  1.00  0.00    -0.014 A 
BRANCH  29  30
ATOM     30  C   UNL     1      13.199  -3.848   4.957  1.00  0.00     0.031 A 
ATOM     31  C   UNL     1      13.535  -4.707   6.144  1.00  0.00     0.074 A 
ATOM     32  C   UNL     1      14.017  -2.839   4.601  1.00  0.00     0.049 A 
ATOM     33  N   UNL     1      14.560  -4.636   6.954  1.00  0.00    -0.248 NA
ATOM     34  C   UNL     1      12.577  -5.772   6.482  1.00  0.00     0.031 C 
ATOM     35  C   UNL     1      13.783  -1.906   3.498  1.00  0.00     0.029 A 
ATOM     36  N   UNL     1      15.211  -2.426   5.136  1.00  0.00    -0.354 N 
ATOM     37  C   UNL     1      14.363  -5.632   7.902  1.00  0.00     0.074 A 
ATOM     38  C   UNL     1      13.089  -6.251   7.605  1.00  0.00     0.031 C 
ATOM     39  C   UNL     1      14.814  -1.049   3.420  1.00  0.00     0.029 A 
ATOM     40  C   UNL     1      15.762  -1.346   4.490  1.00  0.00     0.049 A 
ATOM     41  H   UNL     1      15.634  -2.863   5.911  1.00  0.00     0.167 HD
ATOM     42  C   UNL     1      15.179  -6.018   8.911  1.00  0.00     0.037 A 
ATOM     43  C   UNL     1      16.900  -0.670   4.735  1.00  0.00     0.037 A 
ATOM     44  C   UNL     1      16.454  -5.412   9.194  1.00  0.00     0.049 A 
ATOM     45  C   UNL     1      17.782  -1.104   5.873  1.00  0.00     0.074 A 
ATOM     46  C   UNL     1      17.379  -5.761  10.161  1.00  0.00     0.029 A 
ATOM     47  N   UNL     1      16.980  -4.325   8.511  1.00  0.00    -0.354 N 
ATOM     48  N   UNL     1      17.616  -2.091   6.720  1.00  0.00    -0.248 NA
ATOM     49  C   UNL     1      19.015  -0.333   6.085  1.00  0.00     0.031 C 
ATOM     50  C   UNL     1      18.443  -4.855  10.096  1.00  0.00     0.029 A 
ATOM     51  C   UNL     1      18.207  -3.977   9.051  1.00  0.00     0.049 A 
ATOM     52  H   UNL     1      16.545  -3.869   7.754  1.00  0.00     0.167 HD
ATOM     53  C   UNL     1      18.737  -2.082   7.541  1.00  0.00     0.074 A 
ATOM     54  C   UNL     1      19.580  -0.997   7.083  1.00  0.00     0.031 C 
ATOM     55  C   UNL     1      19.041  -2.899   8.579  1.00  0.00     0.037 A 
BRANCH  42  56
ATOM     56  C   UNL     1      14.711  -7.149   9.782  1.00  0.00     0.057 A 
ATOM     57  C   UNL     1      14.604  -8.461   9.299  1.00  0.00     0.134 A 
ATOM     58  C   UNL     1      14.375  -6.928  11.123  1.00  0.00     0.134 A 
ATOM     59  F   UNL     1      14.898  -8.740   8.020  1.00  0.00    -0.206 F 
ATOM     60  C   UNL     1      14.146  -9.503  10.106  1.00  0.00     0.040 A 
ATOM     61  C   UNL     1      13.947  -7.969  11.950  1.00  0.00     0.040 A 
ATOM     62  F   UNL     1      14.460  -5.699  11.655  1.00  0.00    -0.206 F 
ATOM     63  C   UNL     1      13.822  -9.259  11.439  1.00  0.00     0.006 A 
ENDBRANCH  42  56
BRANCH  43  64
ATOM     64  C   UNL     1      17.288   0.471   3.866  1.00  0.00     0.057 A 
ATOM     65  C   UNL     1      18.384   0.376   3.000  1.00  0.00     0.134 A 
ATOM     66  C   UNL     1      16.583   1.680   3.884  1.00  0.00     0.134 A 
ATOM     67  F   UNL     1      19.110  -0.751   2.951  1.00  0.00    -0.206 F 
ATOM     68  C   UNL     1      18.777   1.448   2.197  1.00  0.00     0.040 A 
ATOM     69  C   UNL     1      16.949   2.751   3.067  1.00  0.00     0.040 A 
ATOM     70  F   UNL     1      15.519   1.833   4.686  1.00  0.00    -0.206 F 
ATOM     71  C   UNL     1      18.054   2.639   2.225  1.00  0.00     0.006 A 
ENDBRANCH  43  64
BRANCH  55  72
ATOM     72  C   UNL     1      20.361  -2.684   9.262  1.00  0.00     0.057 A 
ATOM     73  C   UNL     1      20.604  -1.570  10.076  1.00  0.00     0.134 A 
ATOM     74  C   UNL     1      21.389  -3.627   9.133  1.00  0.00     0.134 A 
ATOM     75  F   UNL     1      19.667  -0.623  10.232  1.00  0.00    -0.206 F 
ATOM     76  C   UNL     1      21.832  -1.389  10.715  1.00  0.00     0.040 A 
ATOM     77  C   UNL     1      22.609  -3.472   9.791  1.00  0.00     0.040 A 
ATOM     78  F   UNL     1      21.219  -4.722   8.377  1.00  0.00    -0.206 F 
ATOM     79  C   UNL     1      22.836  -2.346  10.579  1.00  0.00     0.006 A 
ENDBRANCH  55  72
ENDBRANCH  29  30
ENDBRANCH  21  24
ENDBRANCH  19  20
ENDBRANCH  18  19
ENDBRANCH   1  18
TORSDOF 13
