REMARK SMILES Cc1ccccc1/C=C1\SC(=S)N(CCC(=O)N[C@@H](C)C(=O)NCCCCNC(=O)c2ccc(-c3c4nc(c(-c5c(F)cccc5F)c5ccc([nH]5)c(-c5c(F)cccc5F)c5nc(c(-c6c(F)cccc6F)c6ccc3[nH]6)C=C5)C=C4)cc2)C1=O
REMARK SMILES IDX 24 1 23 2 21 3 22 4 19 6 20 7 18 8 16 9 17 10 15 12 14 13
REMARK SMILES IDX 13 14 8 15 9 16 10 17 85 18 11 19 86 20 12 21 7 22 1 23 2 24
REMARK SMILES IDX 3 25 4 26 6 27 5 28 25 29 26 30 27 31 28 32 29 33 30 35
REMARK SMILES IDX 31 36 32 37 84 38 33 39 83 40 34 41 35 42 36 43 77 44 37 45
REMARK SMILES IDX 82 46 76 47 78 48 38 49 81 50 75 51 74 52 39 54 65 55 48 56
REMARK SMILES IDX 64 57 49 58 52 59 63 60 79 61 50 62 51 63 62 65 80 66 53 67
REMARK SMILES IDX 40 68 41 69 46 70 42 71 43 72 45 73 47 74 44 75 66 76 67 77
REMARK SMILES IDX 72 78 68 79 69 80 71 81 73 82 70 83 54 84 55 85 60 86 56 87
REMARK SMILES IDX 57 88 59 89 61 90 58 91
REMARK H PARENT 23 5 18 11 28 34 78 53 52 64
REMARK Flexibility Score: inf
ROOT
ATOM      1  C   UNL     1      -1.038   5.858   0.661  1.00  0.00     0.116 C 
ENDROOT
BRANCH   1   2
ATOM      2  N   UNL     1      -1.406   5.656  -0.730  1.00  0.00    -0.354 N 
ATOM      3  C   UNL     1      -0.641   5.511  -1.846  1.00  0.00     0.242 C 
ATOM      4  O   UNL     1      -1.229   5.357  -2.920  1.00  0.00    -0.273 OA
ATOM      5  H   UNL     1      -2.376   5.616  -0.893  1.00  0.00     0.163 HD
BRANCH   3   6
ATOM      6  C   UNL     1       0.888   5.423  -1.771  1.00  0.00     0.168 C 
ATOM      7  C   UNL     1       1.262   4.277  -0.856  1.00  0.00     0.041 C 
BRANCH   6   8
ATOM      8  N   UNL     1       1.620   6.613  -1.367  1.00  0.00    -0.345 N 
ATOM      9  C   UNL     1       2.949   6.862  -1.591  1.00  0.00     0.222 C 
ATOM     10  O   UNL     1       3.510   7.716  -0.905  1.00  0.00    -0.275 OA
ATOM     11  H   UNL     1       1.112   7.306  -0.885  1.00  0.00     0.164 HD
BRANCH   9  12
ATOM     12  C   UNL     1       3.689   6.147  -2.716  1.00  0.00     0.122 C 
BRANCH  12  13
ATOM     13  C   UNL     1       4.686   5.051  -2.292  1.00  0.00     0.137 C 
BRANCH  13  14
ATOM     14  N   UNL     1       4.149   3.673  -2.268  1.00  0.00    -0.292 N 
ATOM     15  C   UNL     1       2.531   1.330  -0.155  1.00  0.00     0.029 C 
ATOM     16  C   UNL     1       3.237   1.779  -1.206  1.00  0.00     0.081 C 
ATOM     17  S   UNL     1       3.036   1.412  -2.869  1.00  0.00    -0.054 SA
ATOM     18  C   UNL     1       4.117   2.978  -1.062  1.00  0.00     0.266 C 
ATOM     19  C   UNL     1       3.741   2.952  -3.376  1.00  0.00     0.148 C 
ATOM     20  O   UNL     1       4.624   3.321  -0.013  1.00  0.00    -0.268 OA
ATOM     21  S   UNL     1       3.833   3.389  -4.983  1.00  0.00    -0.052 S 
BRANCH  15  22
ATOM     22  C   UNL     1       1.405   0.382  -0.202  1.00  0.00    -0.021 A 
ATOM     23  C   UNL     1       2.968  -1.595   0.103  1.00  0.00     0.045 C 
ATOM     24  C   UNL     1       1.603  -1.002  -0.092  1.00  0.00    -0.044 A 
ATOM     25  C   UNL     1       0.496  -1.861  -0.204  1.00  0.00     0.004 A 
ATOM     26  C   UNL     1      -0.793  -1.356  -0.380  1.00  0.00     0.000 A 
ATOM     27  C   UNL     1       0.093   0.877  -0.334  1.00  0.00     0.008 A 
ATOM     28  C   UNL     1      -0.999   0.015  -0.423  1.00  0.00     0.001 A 
ENDBRANCH  15  22
ENDBRANCH  13  14
ENDBRANCH  12  13
ENDBRANCH   9  12
ENDBRANCH   6   8
ENDBRANCH   3   6
ENDBRANCH   1   2
BRANCH   1  29
ATOM     29  C   UNL     1      -1.761   7.054   1.271  1.00  0.00     0.023 C 
BRANCH  29  30
ATOM     30  C   UNL     1      -3.285   7.018   1.156  1.00  0.00     0.023 C 
BRANCH  30  31
ATOM     31  C   UNL     1      -3.930   5.820   1.829  1.00  0.00     0.116 C 
BRANCH  31  32
ATOM     32  N   UNL     1      -3.948   5.902   3.274  1.00  0.00    -0.352 N 
ATOM     33  C   UNL     1      -4.546   5.092   4.220  1.00  0.00     0.251 C 
ATOM     34  H   UNL     1      -3.448   6.665   3.646  1.00  0.00     0.163 HD
ATOM     35  O   UNL     1      -4.555   5.476   5.377  1.00  0.00    -0.269 OA
BRANCH  33  36
ATOM     36  C   UNL     1      -5.028   3.715   3.897  1.00  0.00     0.039 A 
ATOM     37  C   UNL     1      -5.199   2.828   4.977  1.00  0.00     0.014 A 
ATOM     38  C   UNL     1      -5.093   3.214   2.602  1.00  0.00     0.014 A 
ATOM     39  C   UNL     1      -5.175   1.452   4.763  1.00  0.00     0.010 A 
ATOM     40  C   UNL     1      -4.965   1.864   2.389  1.00  0.00     0.010 A 
ATOM     41  C   UNL     1      -4.939   0.994   3.475  1.00  0.00    -0.014 A 
BRANCH  41  42
ATOM     42  C   UNL     1      -4.580  -0.365   3.130  1.00  0.00     0.031 A 
ATOM     43  C   UNL     1      -5.590  -1.263   2.552  1.00  0.00     0.074 A 
ATOM     44  C   UNL     1      -3.267  -0.679   3.120  1.00  0.00     0.049 A 
ATOM     45  N   UNL     1      -5.481  -2.544   2.523  1.00  0.00    -0.248 NA
ATOM     46  C   UNL     1      -6.825  -0.772   1.950  1.00  0.00     0.031 C 
ATOM     47  C   UNL     1      -2.629  -1.820   2.478  1.00  0.00     0.029 A 
ATOM     48  N   UNL     1      -2.236  -0.068   3.845  1.00  0.00    -0.354 N 
ATOM     49  C   UNL     1      -6.444  -3.020   1.664  1.00  0.00     0.074 A 
ATOM     50  C   UNL     1      -7.300  -1.889   1.390  1.00  0.00     0.031 C 
ATOM     51  C   UNL     1      -1.417  -2.005   3.028  1.00  0.00     0.029 A 
ATOM     52  C   UNL     1      -1.323  -1.098   4.158  1.00  0.00     0.049 A 
ATOM     53  H   UNL     1      -2.163   0.884   4.087  1.00  0.00     0.167 HD
ATOM     54  C   UNL     1      -6.316  -4.282   1.164  1.00  0.00     0.037 A 
ATOM     55  C   UNL     1      -1.151  -1.500   5.453  1.00  0.00     0.037 A 
ATOM     56  C   UNL     1      -5.109  -4.923   1.686  1.00  0.00     0.049 A 
ATOM     57  C   UNL     1      -1.549  -2.940   5.683  1.00  0.00     0.074 A 
ATOM     58  C   UNL     1      -3.834  -5.067   1.161  1.00  0.00     0.029 A 
ATOM     59  N   UNL     1      -5.009  -5.202   3.045  1.00  0.00    -0.354 N 
ATOM     60  N   UNL     1      -2.373  -3.599   4.915  1.00  0.00    -0.248 NA
ATOM     61  C   UNL     1      -1.042  -3.755   6.783  1.00  0.00     0.031 C 
ATOM     62  C   UNL     1      -2.953  -5.381   2.225  1.00  0.00     0.029 A 
ATOM     63  C   UNL     1      -3.694  -5.449   3.392  1.00  0.00     0.049 A 
ATOM     64  H   UNL     1      -5.768  -5.222   3.671  1.00  0.00     0.167 HD
ATOM     65  C   UNL     1      -2.516  -4.879   5.381  1.00  0.00     0.074 A 
ATOM     66  C   UNL     1      -1.656  -4.929   6.549  1.00  0.00     0.031 C 
ATOM     67  C   UNL     1      -3.332  -5.784   4.762  1.00  0.00     0.037 A 
BRANCH  54  68
ATOM     68  C   UNL     1      -7.103  -4.803  -0.015  1.00  0.00     0.057 A 
ATOM     69  C   UNL     1      -6.544  -5.744  -0.903  1.00  0.00     0.134 A 
ATOM     70  C   UNL     1      -8.406  -4.396  -0.350  1.00  0.00     0.134 A 
ATOM     71  F   UNL     1      -5.353  -6.312  -0.673  1.00  0.00    -0.206 F 
ATOM     72  C   UNL     1      -7.179  -6.155  -2.082  1.00  0.00     0.040 A 
ATOM     73  C   UNL     1      -9.034  -4.758  -1.552  1.00  0.00     0.040 A 
ATOM     74  F   UNL     1      -9.150  -3.670   0.494  1.00  0.00    -0.206 F 
ATOM     75  C   UNL     1      -8.414  -5.634  -2.431  1.00  0.00     0.006 A 
ENDBRANCH  54  68
BRANCH  55  76
ATOM     76  C   UNL     1      -1.335  -0.383   6.422  1.00  0.00     0.057 A 
ATOM     77  C   UNL     1      -0.422   0.688   6.381  1.00  0.00     0.134 A 
ATOM     78  C   UNL     1      -2.571  -0.140   7.030  1.00  0.00     0.134 A 
ATOM     79  F   UNL     1       0.783   0.522   5.811  1.00  0.00    -0.206 F 
ATOM     80  C   UNL     1      -0.771   1.975   6.798  1.00  0.00     0.040 A 
ATOM     81  C   UNL     1      -2.925   1.143   7.466  1.00  0.00     0.040 A 
ATOM     82  F   UNL     1      -3.502  -1.103   7.095  1.00  0.00    -0.206 F 
ATOM     83  C   UNL     1      -2.044   2.213   7.307  1.00  0.00     0.006 A 
ENDBRANCH  55  76
BRANCH  67  84
ATOM     84  C   UNL     1      -3.800  -7.105   5.328  1.00  0.00     0.057 A 
ATOM     85  C   UNL     1      -3.886  -7.392   6.697  1.00  0.00     0.134 A 
ATOM     86  C   UNL     1      -4.351  -8.094   4.478  1.00  0.00     0.134 A 
ATOM     87  F   UNL     1      -3.506  -6.508   7.629  1.00  0.00    -0.206 F 
ATOM     88  C   UNL     1      -4.431  -8.589   7.183  1.00  0.00     0.040 A 
ATOM     89  C   UNL     1      -4.952  -9.262   4.954  1.00  0.00     0.040 A 
ATOM     90  F   UNL     1      -4.360  -7.959   3.144  1.00  0.00    -0.206 F 
ATOM     91  C   UNL     1      -4.981  -9.521   6.313  1.00  0.00     0.006 A 
ENDBRANCH  67  84
ENDBRANCH  41  42
ENDBRANCH  33  36
ENDBRANCH  31  32
ENDBRANCH  30  31
ENDBRANCH  29  30
ENDBRANCH   1  29
TORSDOF 16
