REMARK SMILES C[C@@H](C(=O)NCCCCNC(=O)c1ccc(-c2c3nc(c(-c4c(F)cccc4F)c4ccc([nH]4)c(-c4c(F)cccc4F)c4nc(c(-c5c(F)cccc5F)c5ccc2[nH]5)C=C4)C=C3)cc1)c1ccn(C(F)F)c(=O)c1
REMARK SMILES IDX 7 1 6 2 5 3 3 4 4 5 2 7 1 8 67 9 68 10 76 11 69 12 74 13
REMARK SMILES IDX 70 14 75 15 71 16 72 17 73 18 8 19 9 20 10 21 11 22 12 24
REMARK SMILES IDX 13 25 14 26 66 27 15 28 65 29 16 30 17 31 18 32 59 33 19 34
REMARK SMILES IDX 64 35 58 36 60 37 20 38 63 39 57 40 56 41 21 43 47 44 30 45
REMARK SMILES IDX 46 46 31 47 34 48 45 49 61 50 32 51 33 52 44 54 62 55 35 56
REMARK SMILES IDX 22 57 23 58 28 59 24 60 25 61 27 62 29 63 26 64 48 65 49 66
REMARK SMILES IDX 54 67 50 68 51 69 53 70 55 71 52 72 36 73 37 74 42 75 38 76
REMARK SMILES IDX 39 77 41 78 43 79 40 80
REMARK H PARENT 5 6 10 23 60 42 34 53
REMARK Flexibility Score: inf
ROOT
ATOM      1  C   UNL     1       4.244   0.209   1.156  1.00  0.00     0.023 C 
ENDROOT
BRANCH   1   2
ATOM      2  C   UNL     1       3.455  -1.042   1.548  1.00  0.00     0.116 C 
BRANCH   2   3
ATOM      3  N   UNL     1       2.392  -0.720   2.477  1.00  0.00    -0.356 N 
ATOM      4  C   UNL     1       1.055  -0.546   2.259  1.00  0.00     0.227 C 
ATOM      5  O   UNL     1       0.377  -0.198   3.227  1.00  0.00    -0.274 OA
ATOM      6  H   UNL     1       2.678  -0.608   3.412  1.00  0.00     0.163 HD
BRANCH   4   7
ATOM      7  C   UNL     1       0.454  -0.833   0.868  1.00  0.00     0.105 C 
ATOM      8  C   UNL     1       0.941   0.143  -0.210  1.00  0.00     0.023 C 
BRANCH   7   9
ATOM      9  C   UNL     1      -1.070  -0.825   0.921  1.00  0.00    -0.029 A 
ATOM     10  C   UNL     1      -1.766  -2.096   0.861  1.00  0.00     0.023 A 
ATOM     11  C   UNL     1      -1.796   0.309   0.947  1.00  0.00     0.076 A 
ATOM     12  C   UNL     1      -3.101  -2.133   0.757  1.00  0.00     0.095 A 
ATOM     13  C   UNL     1      -3.278   0.286   0.835  1.00  0.00     0.255 A 
ATOM     14  N   UNL     1      -3.850  -0.970   0.724  1.00  0.00    -0.258 N 
ATOM     15  O   UNL     1      -3.880   1.355   0.809  1.00  0.00    -0.269 OA
BRANCH  14  16
ATOM     16  C   UNL     1      -5.272  -1.018   0.516  1.00  0.00     0.451 C 
ATOM     17  F   UNL     1      -5.943  -0.363   1.494  1.00  0.00    -0.185 F 
ATOM     18  F   UNL     1      -5.601  -0.449  -0.671  1.00  0.00    -0.185 F 
ENDBRANCH  14  16
ENDBRANCH   7   9
ENDBRANCH   4   7
ENDBRANCH   2   3
ENDBRANCH   1   2
BRANCH   1  19
ATOM     19  C   UNL     1       5.046   0.842   2.297  1.00  0.00     0.023 C 
BRANCH  19  20
ATOM     20  C   UNL     1       6.058  -0.080   2.965  1.00  0.00     0.116 C 
BRANCH  20  21
ATOM     21  N   UNL     1       7.046  -0.604   2.037  1.00  0.00    -0.352 N 
ATOM     22  C   UNL     1       8.398  -0.764   2.212  1.00  0.00     0.251 C 
ATOM     23  H   UNL     1       6.697  -0.884   1.160  1.00  0.00     0.163 HD
ATOM     24  O   UNL     1       9.104  -1.098   1.264  1.00  0.00    -0.269 OA
BRANCH  22  25
ATOM     25  C   UNL     1       9.008  -0.503   3.533  1.00  0.00     0.039 A 
ATOM     26  C   UNL     1      10.200   0.223   3.591  1.00  0.00     0.014 A 
ATOM     27  C   UNL     1       8.413  -0.970   4.708  1.00  0.00     0.014 A 
ATOM     28  C   UNL     1      10.766   0.526   4.830  1.00  0.00     0.010 A 
ATOM     29  C   UNL     1       8.934  -0.599   5.944  1.00  0.00     0.010 A 
ATOM     30  C   UNL     1      10.122   0.144   6.019  1.00  0.00    -0.014 A 
BRANCH  30  31
ATOM     31  C   UNL     1      10.686   0.501   7.345  1.00  0.00     0.031 A 
ATOM     32  C   UNL     1      11.141  -0.577   8.290  1.00  0.00     0.074 A 
ATOM     33  C   UNL     1      10.745   1.794   7.718  1.00  0.00     0.049 A 
ATOM     34  N   UNL     1      11.630  -0.465   9.499  1.00  0.00    -0.248 NA
ATOM     35  C   UNL     1      11.001  -1.966   7.826  1.00  0.00     0.031 C 
ATOM     36  C   UNL     1      10.293   2.930   6.912  1.00  0.00     0.029 A 
ATOM     37  N   UNL     1      11.209   2.371   8.874  1.00  0.00    -0.354 N 
ATOM     38  C   UNL     1      11.845  -1.764   9.942  1.00  0.00     0.074 A 
ATOM     39  C   UNL     1      11.375  -2.649   8.898  1.00  0.00     0.031 C 
ATOM     40  C   UNL     1      10.533   4.068   7.584  1.00  0.00     0.029 A 
ATOM     41  C   UNL     1      11.119   3.742   8.880  1.00  0.00     0.049 A 
ATOM     42  H   UNL     1      11.571   1.852   9.628  1.00  0.00     0.167 HD
ATOM     43  C   UNL     1      12.406  -2.184  11.101  1.00  0.00     0.037 A 
ATOM     44  C   UNL     1      11.470   4.635   9.825  1.00  0.00     0.037 A 
ATOM     45  C   UNL     1      12.890  -1.301  12.130  1.00  0.00     0.049 A 
ATOM     46  C   UNL     1      12.077   4.143  11.110  1.00  0.00     0.074 A 
ATOM     47  C   UNL     1      13.527  -1.625  13.315  1.00  0.00     0.029 A 
ATOM     48  N   UNL     1      12.784   0.082  12.098  1.00  0.00    -0.354 N 
ATOM     49  N   UNL     1      12.344   2.915  11.484  1.00  0.00    -0.248 NA
ATOM     50  C   UNL     1      12.439   5.165  12.102  1.00  0.00     0.031 C 
ATOM     51  C   UNL     1      13.760  -0.441  14.024  1.00  0.00     0.029 A 
ATOM     52  C   UNL     1      13.322   0.624  13.254  1.00  0.00     0.049 A 
ATOM     53  H   UNL     1      12.386   0.601  11.362  1.00  0.00     0.167 HD
ATOM     54  C   UNL     1      12.936   3.018  12.736  1.00  0.00     0.074 A 
ATOM     55  C   UNL     1      13.001   4.430  13.051  1.00  0.00     0.031 C 
ATOM     56  C   UNL     1      13.387   2.033  13.551  1.00  0.00     0.037 A 
BRANCH  43  57
ATOM     57  C   UNL     1      12.523  -3.667  11.315  1.00  0.00     0.057 A 
ATOM     58  C   UNL     1      13.395  -4.459  10.555  1.00  0.00     0.134 A 
ATOM     59  C   UNL     1      11.771  -4.308  12.307  1.00  0.00     0.134 A 
ATOM     60  F   UNL     1      14.137  -3.911   9.581  1.00  0.00    -0.206 F 
ATOM     61  C   UNL     1      13.489  -5.838  10.751  1.00  0.00     0.040 A 
ATOM     62  C   UNL     1      11.879  -5.682  12.533  1.00  0.00     0.040 A 
ATOM     63  F   UNL     1      10.921  -3.611  13.076  1.00  0.00    -0.206 F 
ATOM     64  C   UNL     1      12.734  -6.452  11.747  1.00  0.00     0.006 A 
ENDBRANCH  43  57
BRANCH  44  65
ATOM     65  C   UNL     1      11.289   6.089   9.581  1.00  0.00     0.057 A 
ATOM     66  C   UNL     1      12.393   6.933   9.415  1.00  0.00     0.134 A 
ATOM     67  C   UNL     1      10.018   6.671   9.524  1.00  0.00     0.134 A 
ATOM     68  F   UNL     1      13.638   6.437   9.478  1.00  0.00    -0.206 F 
ATOM     69  C   UNL     1      12.242   8.307   9.223  1.00  0.00     0.040 A 
ATOM     70  C   UNL     1       9.851   8.040   9.305  1.00  0.00     0.040 A 
ATOM     71  F   UNL     1       8.919   5.916   9.667  1.00  0.00    -0.206 F 
ATOM     72  C   UNL     1      10.966   8.864   9.164  1.00  0.00     0.006 A 
ENDBRANCH  44  65
BRANCH  56  73
ATOM     73  C   UNL     1      14.032   2.451  14.841  1.00  0.00     0.057 A 
ATOM     74  C   UNL     1      13.295   2.995  15.900  1.00  0.00     0.134 A 
ATOM     75  C   UNL     1      15.410   2.281  15.034  1.00  0.00     0.134 A 
ATOM     76  F   UNL     1      11.974   3.196  15.777  1.00  0.00    -0.206 F 
ATOM     77  C   UNL     1      13.908   3.383  17.093  1.00  0.00     0.040 A 
ATOM     78  C   UNL     1      16.029   2.636  16.233  1.00  0.00     0.040 A 
ATOM     79  F   UNL     1      16.174   1.757  14.065  1.00  0.00    -0.206 F 
ATOM     80  C   UNL     1      15.279   3.197  17.264  1.00  0.00     0.006 A 
ENDBRANCH  56  73
ENDBRANCH  30  31
ENDBRANCH  22  25
ENDBRANCH  20  21
ENDBRANCH  19  20
ENDBRANCH   1  19
TORSDOF 13
