REMARK SMILES CC(C)C(=O)Nc1ccc(NC(=O)[C@@H]2[C@@H](C(=O)NCCCCNC(=O)c3ccc(-c4c5nc(c(-c6c(F)cccc6F)c6ccc([nH]6)c(-c6c(F)cccc6F)c6nc(c(-c7c(F)cccc7F)c7ccc4[nH]7)C=C6)C=C5)cc3)C2(C)C)cc1Cl
REMARK SMILES IDX 19 1 18 2 16 3 17 4 15 6 14 7 80 8 81 9 82 10 12 11 11 12
REMARK SMILES IDX 13 14 10 15 7 16 8 17 84 18 9 19 83 20 85 21 6 22 4 23 5 24
REMARK SMILES IDX 2 26 1 27 3 28 20 29 21 30 22 31 23 32 24 33 25 35 26 36
REMARK SMILES IDX 27 37 79 38 28 39 78 40 29 41 30 42 31 43 72 44 32 45 77 46
REMARK SMILES IDX 71 47 73 48 33 49 76 50 70 51 69 52 34 54 60 55 43 56 59 57
REMARK SMILES IDX 44 58 47 59 58 60 74 61 45 62 46 63 57 65 75 66 48 67 35 68
REMARK SMILES IDX 36 69 41 70 37 71 38 72 40 73 42 74 39 75 61 76 62 77 67 78
REMARK SMILES IDX 63 79 64 80 66 81 68 82 65 83 49 84 50 85 55 86 51 87 52 88
REMARK SMILES IDX 54 89 56 90 53 91
REMARK H PARENT 18 5 11 13 6 25 23 34 73 53 47 64
REMARK Flexibility Score: inf
ROOT
ATOM      1  C   UNL     1      -0.186  -1.042   7.689  1.00  0.00     0.116 C 
ENDROOT
BRANCH   1   2
ATOM      2  N   UNL     1      -1.002  -1.939   8.479  1.00  0.00    -0.356 N 
ATOM      3  C   UNL     1      -1.627  -3.133   8.255  1.00  0.00     0.224 C 
ATOM      4  O   UNL     1      -2.343  -3.550   9.165  1.00  0.00    -0.275 OA
ATOM      5  H   UNL     1      -1.141  -1.609   9.396  1.00  0.00     0.163 HD
BRANCH   3   6
ATOM      6  C   UNL     1      -1.523  -3.971   7.033  1.00  0.00     0.098 C 
ATOM      7  C   UNL     1      -0.602  -3.846   5.853  1.00  0.00     0.098 C 
ATOM      8  C   UNL     1      -2.104  -3.530   5.695  1.00  0.00    -0.011 C 
ATOM      9  C   UNL     1      -2.518  -2.090   5.487  1.00  0.00     0.013 C 
ATOM     10  C   UNL     1      -3.030  -4.510   5.009  1.00  0.00     0.013 C 
BRANCH   7  11
ATOM     11  C   UNL     1       0.053  -5.055   5.286  1.00  0.00     0.228 C 
ATOM     12  N   UNL     1       0.326  -5.147   3.936  1.00  0.00    -0.326 N 
ATOM     13  H   UNL     1       0.883  -5.919   3.686  1.00  0.00     0.169 HD
ATOM     14  O   UNL     1       0.394  -5.963   6.034  1.00  0.00    -0.274 OA
BRANCH  12  15
ATOM     15  C   UNL     1      -0.053  -4.331   2.857  1.00  0.00     0.042 A 
ATOM     16  C   UNL     1      -1.505  -3.145   0.786  1.00  0.00     0.060 A 
ATOM     17  C   UNL     1      -1.284  -2.449   1.970  1.00  0.00     0.030 A 
ATOM     18  C   UNL     1      -0.693  -4.250   0.531  1.00  0.00     0.066 A 
ATOM     19  C   UNL     1      -0.518  -3.028   2.981  1.00  0.00     0.028 A 
ATOM     20  C   UNL     1      -0.019  -4.885   1.579  1.00  0.00     0.048 A 
ATOM     21  Cl  UNL     1      -0.243  -4.677  -1.082  1.00  0.00    -0.082 Cl
BRANCH  16  22
ATOM     22  N   UNL     1      -2.492  -2.635  -0.065  1.00  0.00    -0.325 N 
ATOM     23  C   UNL     1      -3.551  -3.227  -0.690  1.00  0.00     0.226 C 
ATOM     24  O   UNL     1      -4.249  -2.474  -1.385  1.00  0.00    -0.274 OA
ATOM     25  H   UNL     1      -2.405  -1.672  -0.248  1.00  0.00     0.169 HD
BRANCH  23  26
ATOM     26  C   UNL     1      -4.024  -4.675  -0.485  1.00  0.00     0.072 C 
ATOM     27  C   UNL     1      -3.194  -5.760  -1.146  1.00  0.00     0.018 C 
ATOM     28  C   UNL     1      -4.366  -5.022   0.961  1.00  0.00     0.018 C 
ENDBRANCH  23  26
ENDBRANCH  16  22
ENDBRANCH  12  15
ENDBRANCH   7  11
ENDBRANCH   3   6
ENDBRANCH   1   2
BRANCH   1  29
ATOM     29  C   UNL     1      -0.888   0.291   7.435  1.00  0.00     0.023 C 
BRANCH  29  30
ATOM     30  C   UNL     1      -1.004   1.192   8.658  1.00  0.00     0.023 C 
BRANCH  30  31
ATOM     31  C   UNL     1       0.321   1.515   9.330  1.00  0.00     0.116 C 
BRANCH  31  32
ATOM     32  N   UNL     1       1.288   2.115   8.421  1.00  0.00    -0.352 N 
ATOM     33  C   UNL     1       2.100   3.202   8.625  1.00  0.00     0.251 C 
ATOM     34  H   UNL     1       1.371   1.681   7.541  1.00  0.00     0.163 HD
ATOM     35  O   UNL     1       2.757   3.669   7.701  1.00  0.00    -0.269 OA
BRANCH  33  36
ATOM     36  C   UNL     1       2.148   3.822   9.964  1.00  0.00     0.039 A 
ATOM     37  C   UNL     1       2.068   5.211  10.071  1.00  0.00     0.014 A 
ATOM     38  C   UNL     1       2.231   3.026  11.110  1.00  0.00     0.014 A 
ATOM     39  C   UNL     1       2.009   5.798  11.335  1.00  0.00     0.010 A 
ATOM     40  C   UNL     1       2.069   3.604  12.362  1.00  0.00     0.010 A 
ATOM     41  C   UNL     1       1.973   4.997  12.489  1.00  0.00    -0.014 A 
BRANCH  41  42
ATOM     42  C   UNL     1       1.860   5.599  13.839  1.00  0.00     0.031 A 
ATOM     43  C   UNL     1       2.963   5.400  14.843  1.00  0.00     0.074 A 
ATOM     44  C   UNL     1       0.746   6.277  14.178  1.00  0.00     0.049 A 
ATOM     45  N   UNL     1       3.035   5.809  16.084  1.00  0.00    -0.248 NA
ATOM     46  C   UNL     1       4.125   4.610  14.405  1.00  0.00     0.031 C 
ATOM     47  C   UNL     1      -0.415   6.488  13.311  1.00  0.00     0.029 A 
ATOM     48  N   UNL     1       0.407   6.911  15.346  1.00  0.00    -0.354 N 
ATOM     49  C   UNL     1       4.238   5.317  16.573  1.00  0.00     0.074 A 
ATOM     50  C   UNL     1       4.830   4.521  15.522  1.00  0.00     0.031 C 
ATOM     51  C   UNL     1      -1.322   7.232  13.964  1.00  0.00     0.029 A 
ATOM     52  C   UNL     1      -0.826   7.516  15.307  1.00  0.00     0.049 A 
ATOM     53  H   UNL     1       0.992   6.931  16.138  1.00  0.00     0.167 HD
ATOM     54  C   UNL     1       4.813   5.534  17.779  1.00  0.00     0.037 A 
ATOM     55  C   UNL     1      -1.482   8.219  16.250  1.00  0.00     0.037 A 
ATOM     56  C   UNL     1       4.229   6.346  18.813  1.00  0.00     0.049 A 
ATOM     57  C   UNL     1      -0.825   8.440  17.585  1.00  0.00     0.074 A 
ATOM     58  C   UNL     1       4.755   6.675  20.050  1.00  0.00     0.029 A 
ATOM     59  N   UNL     1       2.985   6.953  18.731  1.00  0.00    -0.354 N 
ATOM     60  N   UNL     1       0.347   8.031  18.008  1.00  0.00    -0.248 NA
ATOM     61  C   UNL     1      -1.578   9.227  18.570  1.00  0.00     0.031 C 
ATOM     62  C   UNL     1       3.806   7.439  20.736  1.00  0.00     0.029 A 
ATOM     63  C   UNL     1       2.715   7.637  19.904  1.00  0.00     0.049 A 
ATOM     64  H   UNL     1       2.383   6.905  17.953  1.00  0.00     0.167 HD
ATOM     65  C   UNL     1       0.487   8.540  19.293  1.00  0.00     0.074 A 
ATOM     66  C   UNL     1      -0.716   9.296  19.574  1.00  0.00     0.031 C 
ATOM     67  C   UNL     1       1.517   8.395  20.162  1.00  0.00     0.037 A 
BRANCH  54  68
ATOM     68  C   UNL     1       6.144   4.886  18.038  1.00  0.00     0.057 A 
ATOM     69  C   UNL     1       7.305   5.283  17.359  1.00  0.00     0.134 A 
ATOM     70  C   UNL     1       6.272   3.872  18.995  1.00  0.00     0.134 A 
ATOM     71  F   UNL     1       7.251   6.239  16.420  1.00  0.00    -0.206 F 
ATOM     72  C   UNL     1       8.537   4.673  17.601  1.00  0.00     0.040 A 
ATOM     73  C   UNL     1       7.505   3.277  19.267  1.00  0.00     0.040 A 
ATOM     74  F   UNL     1       5.204   3.446  19.685  1.00  0.00    -0.206 F 
ATOM     75  C   UNL     1       8.641   3.671  18.563  1.00  0.00     0.006 A 
ENDBRANCH  54  68
BRANCH  55  76
ATOM     76  C   UNL     1      -2.821   8.791  15.957  1.00  0.00     0.057 A 
ATOM     77  C   UNL     1      -3.007  10.175  15.847  1.00  0.00     0.134 A 
ATOM     78  C   UNL     1      -3.946   7.975  15.789  1.00  0.00     0.134 A 
ATOM     79  F   UNL     1      -1.971  11.010  16.013  1.00  0.00    -0.206 F 
ATOM     80  C   UNL     1      -4.266  10.727  15.606  1.00  0.00     0.040 A 
ATOM     81  C   UNL     1      -5.206   8.513  15.519  1.00  0.00     0.040 A 
ATOM     82  F   UNL     1      -3.834   6.641  15.871  1.00  0.00    -0.206 F 
ATOM     83  C   UNL     1      -5.370   9.894  15.436  1.00  0.00     0.006 A 
ENDBRANCH  55  76
BRANCH  67  84
ATOM     84  C   UNL     1       1.411   9.106  21.480  1.00  0.00     0.057 A 
ATOM     85  C   UNL     1       0.518   8.696  22.477  1.00  0.00     0.134 A 
ATOM     86  C   UNL     1       2.248  10.193  21.768  1.00  0.00     0.134 A 
ATOM     87  F   UNL     1      -0.319   7.670  22.261  1.00  0.00    -0.206 F 
ATOM     88  C   UNL     1       0.442   9.358  23.704  1.00  0.00     0.040 A 
ATOM     89  C   UNL     1       2.204  10.842  23.002  1.00  0.00     0.040 A 
ATOM     90  F   UNL     1       3.135  10.629  20.861  1.00  0.00    -0.206 F 
ATOM     91  C   UNL     1       1.293  10.430  23.971  1.00  0.00     0.006 A 
ENDBRANCH  67  84
ENDBRANCH  41  42
ENDBRANCH  33  36
ENDBRANCH  31  32
ENDBRANCH  30  31
ENDBRANCH  29  30
ENDBRANCH   1  29
TORSDOF 15
