REMARK SMILES O=C(NCCCCNC(=O)[C@@H](Cc1ccccc1)N1C(=O)/C(=C/c2ccncc2)SC1=S)c1ccc(-c2c3nc(c(-c4c(F)cccc4F)c4ccc([nH]4)c(-c4c(F)cccc4F)c4nc(c(-c5c(F)cccc5F)c5ccc2[nH]5)C=C4)C=C3)cc1
REMARK SMILES IDX 5 1 4 2 3 3 1 4 2 5 33 7 34 8 86 9 35 10 85 11 36 12 37 13
REMARK SMILES IDX 38 14 79 15 39 16 84 17 78 18 80 19 40 20 83 21 77 22 76 23
REMARK SMILES IDX 41 25 67 26 50 27 66 28 51 29 54 30 65 31 81 32 52 33 53 34
REMARK SMILES IDX 64 36 82 37 55 38 42 39 43 40 48 41 44 42 45 43 47 44 49 45
REMARK SMILES IDX 46 46 68 47 69 48 74 49 70 50 71 51 73 52 75 53 72 54 56 55
REMARK SMILES IDX 57 56 62 57 58 58 59 59 61 60 63 61 60 62 6 63 7 64 8 65
REMARK SMILES IDX 9 66 10 68 11 69 12 70 13 71 14 72 18 73 15 74 17 75 16 76
REMARK SMILES IDX 19 77 20 78 31 79 21 80 22 81 30 82 32 83 23 84 24 85 25 86
REMARK SMILES IDX 29 87 26 88 28 89 27 90
REMARK H PARENT 3 6 80 24 54 35 8 67
REMARK Flexibility Score: inf
ROOT
ATOM      1  C   UNL     1       5.595  -2.168  -0.579  1.00  0.00     0.023 C 
ENDROOT
BRANCH   1   2
ATOM      2  C   UNL     1       4.940  -0.804  -0.418  1.00  0.00     0.116 C 
BRANCH   2   3
ATOM      3  N   UNL     1       3.490  -0.805  -0.575  1.00  0.00    -0.352 N 
ATOM      4  O   UNL     1       1.354  -0.264  -0.039  1.00  0.00    -0.269 OA
ATOM      5  C   UNL     1       2.542  -0.141   0.185  1.00  0.00     0.251 C 
ATOM      6  H   UNL     1       3.139  -1.348  -1.317  1.00  0.00     0.163 HD
BRANCH   5   7
ATOM      7  C   UNL     1       3.016   0.673   1.331  1.00  0.00     0.039 A 
ATOM      8  C   UNL     1       4.067   1.571   1.160  1.00  0.00     0.014 A 
ATOM      9  C   UNL     1       2.507   0.411   2.606  1.00  0.00     0.014 A 
ATOM     10  C   UNL     1       4.768   2.009   2.276  1.00  0.00     0.010 A 
ATOM     11  C   UNL     1       3.146   0.954   3.726  1.00  0.00     0.010 A 
ATOM     12  C   UNL     1       4.329   1.693   3.574  1.00  0.00    -0.014 A 
BRANCH  12  13
ATOM     13  C   UNL     1       5.149   2.127   4.738  1.00  0.00     0.031 A 
ATOM     14  C   UNL     1       5.766   1.125   5.683  1.00  0.00     0.074 A 
ATOM     15  C   UNL     1       5.415   3.439   4.893  1.00  0.00     0.049 A 
ATOM     16  N   UNL     1       6.543   1.339   6.718  1.00  0.00    -0.248 NA
ATOM     17  C   UNL     1       5.468  -0.297   5.450  1.00  0.00     0.031 C 
ATOM     18  C   UNL     1       4.883   4.510   4.046  1.00  0.00     0.029 A 
ATOM     19  N   UNL     1       6.231   4.092   5.779  1.00  0.00    -0.354 N 
ATOM     20  C   UNL     1       6.782   0.092   7.284  1.00  0.00     0.074 A 
ATOM     21  C   UNL     1       6.068  -0.877   6.481  1.00  0.00     0.031 C 
ATOM     22  C   UNL     1       5.457   5.670   4.393  1.00  0.00     0.029 A 
ATOM     23  C   UNL     1       6.335   5.440   5.534  1.00  0.00     0.049 A 
ATOM     24  H   UNL     1       6.697   3.640   6.519  1.00  0.00     0.167 HD
ATOM     25  C   UNL     1       7.530  -0.217   8.371  1.00  0.00     0.037 A 
ATOM     26  C   UNL     1       7.053   6.391   6.157  1.00  0.00     0.037 A 
ATOM     27  C   UNL     1       8.291   0.737   9.136  1.00  0.00     0.049 A 
ATOM     28  C   UNL     1       7.895   6.017   7.339  1.00  0.00     0.074 A 
ATOM     29  C   UNL     1       9.112   0.511  10.228  1.00  0.00     0.029 A 
ATOM     30  N   UNL     1       8.334   2.099   8.881  1.00  0.00    -0.354 N 
ATOM     31  N   UNL     1       8.100   4.835   7.864  1.00  0.00    -0.248 NA
ATOM     32  C   UNL     1       8.589   7.114   8.026  1.00  0.00     0.031 C 
ATOM     33  C   UNL     1       9.630   1.740  10.651  1.00  0.00     0.029 A 
ATOM     34  C   UNL     1       9.156   2.727   9.803  1.00  0.00     0.049 A 
ATOM     35  H   UNL     1       7.851   2.553   8.153  1.00  0.00     0.167 HD
ATOM     36  C   UNL     1       8.946   5.043   8.943  1.00  0.00     0.074 A 
ATOM     37  C   UNL     1       9.237   6.462   8.981  1.00  0.00     0.031 C 
ATOM     38  C   UNL     1       9.430   4.140   9.829  1.00  0.00     0.037 A 
BRANCH  25  39
ATOM     39  C   UNL     1       7.548  -1.649   8.821  1.00  0.00     0.057 A 
ATOM     40  C   UNL     1       8.280  -2.634   8.146  1.00  0.00     0.134 A 
ATOM     41  C   UNL     1       6.861  -2.035   9.980  1.00  0.00     0.134 A 
ATOM     42  F   UNL     1       8.950  -2.333   7.023  1.00  0.00    -0.206 F 
ATOM     43  C   UNL     1       8.315  -3.955   8.599  1.00  0.00     0.040 A 
ATOM     44  C   UNL     1       6.905  -3.348  10.453  1.00  0.00     0.040 A 
ATOM     45  F   UNL     1       6.147  -1.139  10.677  1.00  0.00    -0.206 F 
ATOM     46  C   UNL     1       7.631  -4.313   9.759  1.00  0.00     0.006 A 
ENDBRANCH  25  39
BRANCH  26  47
ATOM     47  C   UNL     1       7.003   7.787   5.663  1.00  0.00     0.057 A 
ATOM     48  C   UNL     1       8.100   8.358   5.010  1.00  0.00     0.134 A 
ATOM     49  C   UNL     1       5.850   8.568   5.799  1.00  0.00     0.134 A 
ATOM     50  F   UNL     1       9.237   7.662   4.864  1.00  0.00    -0.206 F 
ATOM     51  C   UNL     1       8.053   9.660   4.510  1.00  0.00     0.040 A 
ATOM     52  C   UNL     1       5.781   9.862   5.284  1.00  0.00     0.040 A 
ATOM     53  F   UNL     1       4.764   8.071   6.410  1.00  0.00    -0.206 F 
ATOM     54  C   UNL     1       6.887  10.412   4.639  1.00  0.00     0.006 A 
ENDBRANCH  26  47
BRANCH  38  55
ATOM     55  C   UNL     1      10.330   4.667  10.903  1.00  0.00     0.057 A 
ATOM     56  C   UNL     1       9.823   5.375  12.000  1.00  0.00     0.134 A 
ATOM     57  C   UNL     1      11.713   4.461  10.844  1.00  0.00     0.134 A 
ATOM     58  F   UNL     1       8.508   5.618  12.104  1.00  0.00    -0.206 F 
ATOM     59  C   UNL     1      10.666   5.880  12.991  1.00  0.00     0.040 A 
ATOM     60  C   UNL     1      12.564   4.945  11.838  1.00  0.00     0.040 A 
ATOM     61  F   UNL     1      12.258   3.787   9.819  1.00  0.00    -0.206 F 
ATOM     62  C   UNL     1      12.040   5.663  12.912  1.00  0.00     0.006 A 
ENDBRANCH  38  55
ENDBRANCH  12  13
ENDBRANCH   5   7
ENDBRANCH   2   3
ENDBRANCH   1   2
BRANCH   1  63
ATOM     63  C   UNL     1       5.462  -2.763  -1.971  1.00  0.00     0.023 C 
BRANCH  63  64
ATOM     64  C   UNL     1       6.115  -1.939  -3.080  1.00  0.00     0.116 C 
BRANCH  64  65
ATOM     65  N   UNL     1       7.199  -2.671  -3.695  1.00  0.00    -0.354 N 
ATOM     66  C   UNL     1       7.311  -3.263  -4.909  1.00  0.00     0.243 C 
ATOM     67  H   UNL     1       8.000  -2.755  -3.130  1.00  0.00     0.163 HD
ATOM     68  O   UNL     1       8.392  -3.818  -5.148  1.00  0.00    -0.273 OA
BRANCH  66  69
ATOM     69  C   UNL     1       6.169  -3.353  -5.949  1.00  0.00     0.185 C 
BRANCH  69  70
ATOM     70  C   UNL     1       5.124  -4.412  -5.440  1.00  0.00     0.071 C 
BRANCH  70  71
ATOM     71  C   UNL     1       3.911  -4.071  -4.587  1.00  0.00    -0.045 A 
ATOM     72  C   UNL     1       3.151  -2.897  -4.697  1.00  0.00     0.004 A 
ATOM     73  C   UNL     1       3.461  -5.045  -3.674  1.00  0.00     0.004 A 
ATOM     74  C   UNL     1       2.027  -2.678  -3.889  1.00  0.00     0.000 A 
ATOM     75  C   UNL     1       2.338  -4.829  -2.867  1.00  0.00     0.000 A 
ATOM     76  C   UNL     1       1.626  -3.640  -2.969  1.00  0.00     0.000 A 
ENDBRANCH  70  71
ENDBRANCH  69  70
BRANCH  69  77
ATOM     77  N   UNL     1       5.615  -2.154  -6.627  1.00  0.00    -0.280 N 
ATOM     78  C   UNL     1       4.659  -2.386  -7.611  1.00  0.00     0.266 C 
ATOM     79  C   UNL     1       6.158  -0.884  -6.684  1.00  0.00     0.149 C 
ATOM     80  O   UNL     1       4.295  -3.476  -8.030  1.00  0.00    -0.268 OA
ATOM     81  C   UNL     1       4.144  -1.114  -8.171  1.00  0.00     0.081 C 
ATOM     82  S   UNL     1       5.088   0.186  -7.599  1.00  0.00    -0.054 SA
ATOM     83  S   UNL     1       7.577  -0.273  -6.061  1.00  0.00    -0.052 S 
ATOM     84  C   UNL     1       3.065  -1.091  -8.964  1.00  0.00     0.029 C 
BRANCH  84  85
ATOM     85  C   UNL     1       2.431   0.099  -9.538  1.00  0.00    -0.021 A 
ATOM     86  C   UNL     1       3.116   0.952 -10.402  1.00  0.00     0.028 A 
ATOM     87  C   UNL     1       1.092   0.364  -9.247  1.00  0.00     0.028 A 
ATOM     88  C   UNL     1       2.441   2.047 -10.916  1.00  0.00     0.111 A 
ATOM     89  C   UNL     1       0.505   1.484  -9.812  1.00  0.00     0.111 A 
ATOM     90  N   UNL     1       1.151   2.333 -10.638  1.00  0.00    -0.265 NA
ENDBRANCH  84  85
ENDBRANCH  69  77
ENDBRANCH  66  69
ENDBRANCH  64  65
ENDBRANCH  63  64
ENDBRANCH   1  63
TORSDOF 15
