REMARK SMILES O=C(NCCCCNC(=O)[C@]1(CCc2cccnc2)CCC[NH2+]C1)c1ccc(-c2c3nc(c(-c4c(F)cccc4F)c4ccc([nH]4)c(-c4c(F)cccc4F)c4nc(c(-c5c(F)cccc5F)c5ccc2[nH]5)C=C4)C=C3)cc1
REMARK SMILES IDX 6 1 5 2 4 3 3 4 1 5 2 6 25 8 26 9 78 10 27 11 77 12 28 13
REMARK SMILES IDX 29 14 30 15 71 16 31 17 76 18 70 19 72 20 32 21 75 22 69 23
REMARK SMILES IDX 68 24 33 26 59 27 42 28 58 29 43 30 46 31 57 32 73 33 44 34
REMARK SMILES IDX 45 35 56 37 74 38 47 39 34 40 35 41 40 42 36 43 37 44 39 45
REMARK SMILES IDX 41 46 38 47 60 48 61 49 66 50 62 51 63 52 65 53 67 54 64 55
REMARK SMILES IDX 48 56 49 57 54 58 50 59 51 60 53 61 55 62 52 63 7 64 8 65
REMARK SMILES IDX 9 66 10 68 11 69 20 70 24 71 21 72 23 73 22 74 12 77 13 78
REMARK SMILES IDX 14 79 15 80 19 81 16 82 18 83 17 84
REMARK H PARENT 3 7 72 25 46 36 8 67 23 75 23 76
REMARK Flexibility Score: inf
ROOT
ATOM      1  C   UNL     1       4.497   0.274  -3.674  1.00  0.00     0.023 C 
ENDROOT
BRANCH   1   2
ATOM      2  C   UNL     1       4.836  -0.768  -2.612  1.00  0.00     0.023 C 
BRANCH   2   3
ATOM      3  C   UNL     1       4.431  -0.396  -1.190  1.00  0.00     0.116 C 
BRANCH   3   4
ATOM      4  N   UNL     1       3.027  -0.041  -1.031  1.00  0.00    -0.352 N 
ATOM      5  O   UNL     1       1.076   0.112   0.123  1.00  0.00    -0.269 OA
ATOM      6  C   UNL     1       2.265  -0.161   0.113  1.00  0.00     0.251 C 
ATOM      7  H   UNL     1       2.574   0.324  -1.825  1.00  0.00     0.163 HD
BRANCH   6   8
ATOM      8  C   UNL     1       2.933  -0.680   1.322  1.00  0.00     0.039 A 
ATOM      9  C   UNL     1       4.100  -0.065   1.778  1.00  0.00     0.014 A 
ATOM     10  C   UNL     1       2.467  -1.859   1.908  1.00  0.00     0.014 A 
ATOM     11  C   UNL     1       4.890  -0.720   2.709  1.00  0.00     0.010 A 
ATOM     12  C   UNL     1       3.221  -2.470   2.912  1.00  0.00     0.010 A 
ATOM     13  C   UNL     1       4.460  -1.928   3.288  1.00  0.00    -0.014 A 
BRANCH  13  14
ATOM     14  C   UNL     1       5.319  -2.567   4.315  1.00  0.00     0.031 A 
ATOM     15  C   UNL     1       5.975  -3.898   4.075  1.00  0.00     0.074 A 
ATOM     16  C   UNL     1       5.562  -1.884   5.449  1.00  0.00     0.049 A 
ATOM     17  N   UNL     1       6.800  -4.558   4.849  1.00  0.00    -0.248 NA
ATOM     18  C   UNL     1       5.664  -4.585   2.811  1.00  0.00     0.031 C 
ATOM     19  C   UNL     1       4.968  -0.589   5.792  1.00  0.00     0.029 A 
ATOM     20  N   UNL     1       6.394  -2.158   6.502  1.00  0.00    -0.354 N 
ATOM     21  C   UNL     1       7.092  -5.739   4.180  1.00  0.00     0.074 A 
ATOM     22  C   UNL     1       6.341  -5.718   2.943  1.00  0.00     0.031 C 
ATOM     23  C   UNL     1       5.503  -0.151   6.939  1.00  0.00     0.029 A 
ATOM     24  C   UNL     1       6.429  -1.158   7.442  1.00  0.00     0.049 A 
ATOM     25  H   UNL     1       6.916  -2.989   6.577  1.00  0.00     0.167 HD
ATOM     26  C   UNL     1       7.916  -6.745   4.564  1.00  0.00     0.037 A 
ATOM     27  C   UNL     1       7.123  -1.063   8.590  1.00  0.00     0.037 A 
ATOM     28  C   UNL     1       8.673  -6.752   5.790  1.00  0.00     0.049 A 
ATOM     29  C   UNL     1       8.042  -2.181   8.976  1.00  0.00     0.074 A 
ATOM     30  C   UNL     1       9.533  -7.725   6.270  1.00  0.00     0.029 A 
ATOM     31  N   UNL     1       8.667  -5.729   6.728  1.00  0.00    -0.354 N 
ATOM     32  N   UNL     1       8.301  -3.294   8.334  1.00  0.00    -0.248 NA
ATOM     33  C   UNL     1       8.761  -2.034  10.248  1.00  0.00     0.031 C 
ATOM     34  C   UNL     1      10.028  -7.303   7.510  1.00  0.00     0.029 A 
ATOM     35  C   UNL     1       9.504  -6.051   7.785  1.00  0.00     0.049 A 
ATOM     36  H   UNL     1       8.146  -4.898   6.653  1.00  0.00     0.167 HD
ATOM     37  C   UNL     1       9.207  -3.984   9.125  1.00  0.00     0.074 A 
ATOM     38  C   UNL     1       9.482  -3.146  10.275  1.00  0.00     0.031 C 
ATOM     39  C   UNL     1       9.752  -5.208   8.925  1.00  0.00     0.037 A 
BRANCH  26  40
ATOM     40  C   UNL     1       8.039  -7.932   3.654  1.00  0.00     0.057 A 
ATOM     41  C   UNL     1       8.773  -7.875   2.463  1.00  0.00     0.134 A 
ATOM     42  C   UNL     1       7.468  -9.163   4.003  1.00  0.00     0.134 A 
ATOM     43  F   UNL     1       9.335  -6.724   2.065  1.00  0.00    -0.206 F 
ATOM     44  C   UNL     1       8.927  -8.998   1.646  1.00  0.00     0.040 A 
ATOM     45  C   UNL     1       7.631 -10.297   3.204  1.00  0.00     0.040 A 
ATOM     46  F   UNL     1       6.757  -9.288   5.133  1.00  0.00    -0.206 F 
ATOM     47  C   UNL     1       8.361 -10.215   2.021  1.00  0.00     0.006 A 
ENDBRANCH  26  40
BRANCH  27  48
ATOM     48  C   UNL     1       6.960   0.135   9.446  1.00  0.00     0.057 A 
ATOM     49  C   UNL     1       7.984   1.078   9.579  1.00  0.00     0.134 A 
ATOM     50  C   UNL     1       5.761   0.379  10.128  1.00  0.00     0.134 A 
ATOM     51  F   UNL     1       9.159   0.891   8.961  1.00  0.00    -0.206 F 
ATOM     52  C   UNL     1       7.826   2.219  10.367  1.00  0.00     0.040 A 
ATOM     53  C   UNL     1       5.580   1.528  10.897  1.00  0.00     0.040 A 
ATOM     54  F   UNL     1       4.739  -0.483  10.029  1.00  0.00    -0.206 F 
ATOM     55  C   UNL     1       6.617   2.449  11.023  1.00  0.00     0.006 A 
ENDBRANCH  27  48
BRANCH  39  56
ATOM     56  C   UNL     1      10.694  -5.700   9.981  1.00  0.00     0.057 A 
ATOM     57  C   UNL     1      10.230  -6.146  11.225  1.00  0.00     0.134 A 
ATOM     58  C   UNL     1      12.075  -5.726   9.753  1.00  0.00     0.134 A 
ATOM     59  F   UNL     1       8.918  -6.129  11.507  1.00  0.00    -0.206 F 
ATOM     60  C   UNL     1      11.110  -6.575  12.218  1.00  0.00     0.040 A 
ATOM     61  C   UNL     1      12.963  -6.173  10.732  1.00  0.00     0.040 A 
ATOM     62  F   UNL     1      12.580  -5.316   8.581  1.00  0.00    -0.206 F 
ATOM     63  C   UNL     1      12.482  -6.592  11.971  1.00  0.00     0.006 A 
ENDBRANCH  39  56
ENDBRANCH  13  14
ENDBRANCH   6   8
ENDBRANCH   3   4
ENDBRANCH   2   3
ENDBRANCH   1   2
BRANCH   1  64
ATOM     64  C   UNL     1       5.081   1.651  -3.391  1.00  0.00     0.116 C 
BRANCH  64  65
ATOM     65  N   UNL     1       6.311   1.898  -4.114  1.00  0.00    -0.355 N 
ATOM     66  C   UNL     1       6.537   3.190  -4.506  1.00  0.00     0.231 C 
ATOM     67  H   UNL     1       6.950   1.176  -4.314  1.00  0.00     0.163 HD
ATOM     68  O   UNL     1       7.141   3.934  -3.732  1.00  0.00    -0.274 OA
BRANCH  66  69
ATOM     69  C   UNL     1       6.059   3.647  -5.900  1.00  0.00     0.098 C 
ATOM     70  C   UNL     1       5.540   5.095  -5.766  1.00  0.00     0.028 C 
ATOM     71  C   UNL     1       4.933   2.786  -6.550  1.00  0.00     0.277 C 
ATOM     72  C   UNL     1       4.213   5.111  -5.008  1.00  0.00     0.063 C 
ATOM     73  N   UNL     1       3.560   2.928  -6.069  1.00  0.00    -0.345 N 
ATOM     74  C   UNL     1       3.155   4.286  -5.734  1.00  0.00     0.260 C 
ATOM     75  H   UNL     1       2.934   2.583  -6.797  1.00  0.00     0.346 HD
ATOM     76  H   UNL     1       3.508   2.396  -5.200  1.00  0.00     0.346 HD
BRANCH  69  77
ATOM     77  C   UNL     1       7.272   3.566  -6.889  1.00  0.00     0.028 C 
BRANCH  77  78
ATOM     78  C   UNL     1       8.562   4.340  -6.560  1.00  0.00     0.038 C 
BRANCH  78  79
ATOM     79  C   UNL     1       9.500   3.716  -5.560  1.00  0.00    -0.030 A 
ATOM     80  C   UNL     1      10.127   4.509  -4.593  1.00  0.00     0.007 A 
ATOM     81  C   UNL     1       9.817   2.360  -5.561  1.00  0.00     0.114 A 
ATOM     82  C   UNL     1      10.976   3.926  -3.657  1.00  0.00     0.020 A 
ATOM     83  N   UNL     1      10.632   1.762  -4.661  1.00  0.00    -0.264 NA
ATOM     84  C   UNL     1      11.187   2.561  -3.725  1.00  0.00     0.111 A 
ENDBRANCH  78  79
ENDBRANCH  77  78
ENDBRANCH  69  77
ENDBRANCH  66  69
ENDBRANCH  64  65
ENDBRANCH   1  64
TORSDOF 14
