REMARK SMILES O=C(NCCCCNC(=O)[C@H]1CC(=O)N(CCc2ccc3c(c2)OCO3)C1)c1ccc(-c2c3nc(c(-c4c(F)cccc4F)c4ccc([nH]4)c(-c4c(F)cccc4F)c4nc(c(-c5c(F)cccc5F)c5ccc2[nH]5)C=C4)C=C3)cc1
REMARK SMILES IDX 6 1 5 2 4 3 3 4 1 5 2 6 28 8 29 9 81 10 30 11 80 12 31 13
REMARK SMILES IDX 32 14 33 15 74 16 34 17 79 18 73 19 75 20 35 21 78 22 72 23
REMARK SMILES IDX 71 24 36 26 62 27 45 28 61 29 46 30 49 31 60 32 76 33 47 34
REMARK SMILES IDX 48 35 59 37 77 38 50 39 37 40 38 41 43 42 39 43 40 44 42 45
REMARK SMILES IDX 44 46 41 47 63 48 64 49 69 50 65 51 66 52 68 53 70 54 67 55
REMARK SMILES IDX 51 56 52 57 57 58 53 59 54 60 56 61 58 62 55 63 7 64 8 65
REMARK SMILES IDX 9 66 10 68 11 69 12 70 27 71 13 72 15 73 14 74 16 75 17 76
REMARK SMILES IDX 18 77 19 78 23 79 20 80 22 81 21 82 24 83 26 84 25 85
REMARK H PARENT 3 7 75 25 49 36 8 67
REMARK Flexibility Score: inf
ROOT
ATOM      1  C   UNL     1       6.014   3.608  -3.820  1.00  0.00     0.023 C 
ENDROOT
BRANCH   1   2
ATOM      2  C   UNL     1       4.686   4.117  -3.259  1.00  0.00     0.023 C 
BRANCH   2   3
ATOM      3  C   UNL     1       4.218   3.429  -1.984  1.00  0.00     0.116 C 
BRANCH   3   4
ATOM      4  N   UNL     1       5.136   3.611  -0.869  1.00  0.00    -0.352 N 
ATOM      5  O   UNL     1       5.806   4.305   1.172  1.00  0.00    -0.269 OA
ATOM      6  C   UNL     1       4.881   4.085   0.396  1.00  0.00     0.251 C 
ATOM      7  H   UNL     1       6.071   3.358  -1.046  1.00  0.00     0.163 HD
BRANCH   6   8
ATOM      8  C   UNL     1       3.487   4.357   0.806  1.00  0.00     0.039 A 
ATOM      9  C   UNL     1       2.474   3.443   0.512  1.00  0.00     0.014 A 
ATOM     10  C   UNL     1       3.189   5.546   1.477  1.00  0.00     0.014 A 
ATOM     11  C   UNL     1       1.149   3.790   0.738  1.00  0.00     0.010 A 
ATOM     12  C   UNL     1       1.861   5.846   1.799  1.00  0.00     0.010 A 
ATOM     13  C   UNL     1       0.827   4.984   1.404  1.00  0.00    -0.014 A 
BRANCH  13  14
ATOM     14  C   UNL     1      -0.594   5.264   1.734  1.00  0.00     0.031 A 
ATOM     15  C   UNL     1      -1.315   6.452   1.160  1.00  0.00     0.074 A 
ATOM     16  C   UNL     1      -1.244   4.403   2.542  1.00  0.00     0.049 A 
ATOM     17  N   UNL     1      -2.558   6.824   1.339  1.00  0.00    -0.248 NA
ATOM     18  C   UNL     1      -0.545   7.340   0.277  1.00  0.00     0.031 C 
ATOM     19  C   UNL     1      -0.646   3.219   3.166  1.00  0.00     0.029 A 
ATOM     20  N   UNL     1      -2.548   4.375   2.964  1.00  0.00    -0.354 N 
ATOM     21  C   UNL     1      -2.719   7.989   0.598  1.00  0.00     0.074 A 
ATOM     22  C   UNL     1      -1.435   8.284  -0.001  1.00  0.00     0.031 C 
ATOM     23  C   UNL     1      -1.589   2.557   3.850  1.00  0.00     0.029 A 
ATOM     24  C   UNL     1      -2.837   3.306   3.777  1.00  0.00     0.049 A 
ATOM     25  H   UNL     1      -3.213   5.055   2.709  1.00  0.00     0.167 HD
ATOM     26  C   UNL     1      -3.839   8.734   0.426  1.00  0.00     0.037 A 
ATOM     27  C   UNL     1      -3.973   2.976   4.417  1.00  0.00     0.037 A 
ATOM     28  C   UNL     1      -5.113   8.435   1.032  1.00  0.00     0.049 A 
ATOM     29  C   UNL     1      -5.179   3.854   4.254  1.00  0.00     0.074 A 
ATOM     30  C   UNL     1      -6.309   9.122   0.909  1.00  0.00     0.029 A 
ATOM     31  N   UNL     1      -5.356   7.364   1.880  1.00  0.00    -0.354 N 
ATOM     32  N   UNL     1      -5.323   4.934   3.525  1.00  0.00    -0.248 NA
ATOM     33  C   UNL     1      -6.380   3.467   5.004  1.00  0.00     0.031 C 
ATOM     34  C   UNL     1      -7.260   8.499   1.724  1.00  0.00     0.029 A 
ATOM     35  C   UNL     1      -6.675   7.386   2.306  1.00  0.00     0.049 A 
ATOM     36  H   UNL     1      -4.690   6.688   2.141  1.00  0.00     0.167 HD
ATOM     37  C   UNL     1      -6.637   5.341   3.708  1.00  0.00     0.074 A 
ATOM     38  C   UNL     1      -7.253   4.378   4.598  1.00  0.00     0.031 C 
ATOM     39  C   UNL     1      -7.276   6.417   3.188  1.00  0.00     0.037 A 
BRANCH  26  40
ATOM     40  C   UNL     1      -3.737   9.956  -0.444  1.00  0.00     0.057 A 
ATOM     41  C   UNL     1      -3.571   9.865  -1.832  1.00  0.00     0.134 A 
ATOM     42  C   UNL     1      -3.859  11.239   0.106  1.00  0.00     0.134 A 
ATOM     43  F   UNL     1      -3.438   8.669  -2.425  1.00  0.00    -0.206 F 
ATOM     44  C   UNL     1      -3.508  11.005  -2.638  1.00  0.00     0.040 A 
ATOM     45  C   UNL     1      -3.826  12.384  -0.692  1.00  0.00     0.040 A 
ATOM     46  F   UNL     1      -4.030  11.402   1.427  1.00  0.00    -0.206 F 
ATOM     47  C   UNL     1      -3.644  12.269  -2.069  1.00  0.00     0.006 A 
ENDBRANCH  26  40
BRANCH  27  48
ATOM     48  C   UNL     1      -4.014   1.773   5.286  1.00  0.00     0.057 A 
ATOM     49  C   UNL     1      -4.811   0.669   4.963  1.00  0.00     0.134 A 
ATOM     50  C   UNL     1      -3.268   1.704   6.470  1.00  0.00     0.134 A 
ATOM     51  F   UNL     1      -5.560   0.680   3.850  1.00  0.00    -0.206 F 
ATOM     52  C   UNL     1      -4.888  -0.446   5.798  1.00  0.00     0.040 A 
ATOM     53  C   UNL     1      -3.308   0.582   7.296  1.00  0.00     0.040 A 
ATOM     54  F   UNL     1      -2.474   2.723   6.831  1.00  0.00    -0.206 F 
ATOM     55  C   UNL     1      -4.130  -0.493   6.967  1.00  0.00     0.006 A 
ENDBRANCH  27  48
BRANCH  39  56
ATOM     56  C   UNL     1      -8.728   6.581   3.537  1.00  0.00     0.057 A 
ATOM     57  C   UNL     1      -9.148   6.933   4.826  1.00  0.00     0.134 A 
ATOM     58  C   UNL     1      -9.718   6.399   2.562  1.00  0.00     0.134 A 
ATOM     59  F   UNL     1      -8.252   7.106   5.810  1.00  0.00    -0.206 F 
ATOM     60  C   UNL     1     -10.501   7.066   5.141  1.00  0.00     0.040 A 
ATOM     61  C   UNL     1     -11.072   6.560   2.858  1.00  0.00     0.040 A 
ATOM     62  F   UNL     1      -9.385   6.068   1.305  1.00  0.00    -0.206 F 
ATOM     63  C   UNL     1     -11.467   6.886   4.153  1.00  0.00     0.006 A 
ENDBRANCH  39  56
ENDBRANCH  13  14
ENDBRANCH   6   8
ENDBRANCH   3   4
ENDBRANCH   2   3
ENDBRANCH   1   2
BRANCH   1  64
ATOM     64  C   UNL     1       6.080   2.099  -4.045  1.00  0.00     0.116 C 
BRANCH  64  65
ATOM     65  N   UNL     1       5.104   1.648  -5.017  1.00  0.00    -0.356 N 
ATOM     66  C   UNL     1       5.283   0.879  -6.130  1.00  0.00     0.225 C 
ATOM     67  H   UNL     1       4.178   1.938  -4.850  1.00  0.00     0.163 HD
ATOM     68  O   UNL     1       4.283   0.539  -6.760  1.00  0.00    -0.275 OA
BRANCH  66  69
ATOM     69  C   UNL     1       6.693   0.487  -6.536  1.00  0.00     0.107 C 
ATOM     70  C   UNL     1       6.724  -0.538  -7.672  1.00  0.00     0.115 C 
ATOM     71  C   UNL     1       7.428   1.704  -7.078  1.00  0.00     0.133 C 
ATOM     72  C   UNL     1       7.776  -0.032  -8.620  1.00  0.00     0.223 C 
ATOM     73  N   UNL     1       8.108   1.259  -8.266  1.00  0.00    -0.342 N 
ATOM     74  O   UNL     1       8.233  -0.663  -9.562  1.00  0.00    -0.275 OA
BRANCH  73  75
ATOM     75  C   UNL     1       9.022   2.103  -9.033  1.00  0.00     0.124 C 
BRANCH  75  76
ATOM     76  C   UNL     1       8.352   2.927 -10.153  1.00  0.00     0.057 C 
BRANCH  76  77
ATOM     77  C   UNL     1       7.630   4.148  -9.622  1.00  0.00    -0.042 A 
ATOM     78  C   UNL     1       8.322   5.369  -9.448  1.00  0.00     0.008 A 
ATOM     79  C   UNL     1       6.304   4.036  -9.181  1.00  0.00     0.054 A 
ATOM     80  C   UNL     1       7.735   6.435  -8.758  1.00  0.00     0.051 A 
ATOM     81  C   UNL     1       5.784   5.071  -8.435  1.00  0.00     0.166 A 
ATOM     82  C   UNL     1       6.483   6.234  -8.221  1.00  0.00     0.165 A 
ATOM     83  O   UNL     1       4.602   5.044  -7.762  1.00  0.00    -0.454 OA
ATOM     84  O   UNL     1       5.817   7.093  -7.403  1.00  0.00    -0.454 OA
ATOM     85  C   UNL     1       4.701   6.268  -7.007  1.00  0.00     0.468 C 
ENDBRANCH  76  77
ENDBRANCH  75  76
ENDBRANCH  73  75
ENDBRANCH  66  69
ENDBRANCH  64  65
ENDBRANCH   1  64
TORSDOF 14
