REMARK SMILES Cc1cccc(NC(=O)C[C@@H]2CCCCO2)c1C(=O)NCCCCNC(=O)c1ccc(-c2c3nc(c(-c4c(F)cccc4F)c4ccc([nH]4)c(-c4c(F)cccc4F)c4nc(c(-c5c(F)cccc5F)c5ccc2[nH]5)C=C4)C=C3)cc1
REMARK SMILES IDX 22 1 21 2 20 3 18 4 19 5 17 7 1 8 2 9 3 10 4 11 6 12 5 13
REMARK SMILES IDX 7 14 8 15 9 17 10 18 11 19 12 20 16 21 13 22 15 23 14 24
REMARK SMILES IDX 23 25 24 26 25 27 26 28 27 30 28 31 29 32 81 33 30 34 80 35
REMARK SMILES IDX 31 36 32 37 33 38 74 39 34 40 79 41 73 42 75 43 35 44 78 45
REMARK SMILES IDX 72 46 71 47 36 49 62 50 45 51 61 52 46 53 49 54 60 55 76 56
REMARK SMILES IDX 47 57 48 58 59 60 77 61 50 62 37 63 38 64 43 65 39 66 40 67
REMARK SMILES IDX 42 68 44 69 41 70 63 71 64 72 69 73 65 74 66 75 68 76 70 77
REMARK SMILES IDX 67 78 51 79 52 80 57 81 53 82 54 83 56 84 58 85 55 86
REMARK H PARENT 20 6 7 16 25 29 75 48 49 59
REMARK Flexibility Score: inf
ROOT
ATOM      1  C   UNL     1       4.258   1.257  -1.199  1.00  0.00     0.023 C 
ENDROOT
BRANCH   1   2
ATOM      2  C   UNL     1       3.522   1.779   0.050  1.00  0.00     0.116 C 
BRANCH   2   3
ATOM      3  N   UNL     1       2.335   2.516  -0.344  1.00  0.00    -0.352 N 
ATOM      4  C   UNL     1       0.988   2.257  -0.303  1.00  0.00     0.253 C 
ATOM      5  O   UNL     1       0.266   3.140  -0.770  1.00  0.00    -0.269 OA
ATOM      6  H   UNL     1       2.543   3.400  -0.724  1.00  0.00     0.163 HD
BRANCH   4   7
ATOM      7  C   UNL     1       0.374   1.075   0.391  1.00  0.00     0.066 A 
ATOM      8  C   UNL     1       1.772  -0.752  -0.741  1.00  0.00     0.045 C 
ATOM      9  C   UNL     1       0.880  -0.241   0.352  1.00  0.00    -0.036 A 
ATOM     10  C   UNL     1       0.380  -1.211   1.244  1.00  0.00     0.004 A 
ATOM     11  C   UNL     1      -0.693  -0.922   2.075  1.00  0.00     0.002 A 
ATOM     12  C   UNL     1      -0.883   1.255   1.027  1.00  0.00     0.054 A 
ATOM     13  C   UNL     1      -1.345   0.298   1.939  1.00  0.00     0.027 A 
BRANCH  12  14
ATOM     14  N   UNL     1      -1.721   2.326   0.632  1.00  0.00    -0.325 N 
ATOM     15  C   UNL     1      -3.036   2.317   0.229  1.00  0.00     0.227 C 
ATOM     16  H   UNL     1      -1.297   3.215   0.648  1.00  0.00     0.169 HD
ATOM     17  O   UNL     1      -3.551   3.379  -0.136  1.00  0.00    -0.275 OA
BRANCH  15  18
ATOM     18  C   UNL     1      -3.851   1.037   0.178  1.00  0.00     0.132 C 
BRANCH  18  19
ATOM     19  C   UNL     1      -4.158   0.528  -1.244  1.00  0.00     0.127 C 
ATOM     20  C   UNL     1      -4.911  -0.814  -1.201  1.00  0.00     0.033 C 
ATOM     21  O   UNL     1      -3.022   0.386  -2.103  1.00  0.00    -0.378 OA
ATOM     22  C   UNL     1      -4.004  -1.961  -0.754  1.00  0.00     0.005 C 
ATOM     23  C   UNL     1      -2.109  -0.644  -1.757  1.00  0.00     0.160 C 
ATOM     24  C   UNL     1      -2.749  -2.014  -1.615  1.00  0.00     0.029 C 
ENDBRANCH  18  19
ENDBRANCH  15  18
ENDBRANCH  12  14
ENDBRANCH   4   7
ENDBRANCH   2   3
ENDBRANCH   1   2
BRANCH   1  25
ATOM     25  C   UNL     1       5.014   2.330  -1.985  1.00  0.00     0.023 C 
BRANCH  25  26
ATOM     26  C   UNL     1       6.374   2.634  -1.384  1.00  0.00     0.116 C 
BRANCH  26  27
ATOM     27  N   UNL     1       7.434   1.714  -1.788  1.00  0.00    -0.352 N 
ATOM     28  C   UNL     1       8.711   1.557  -1.278  1.00  0.00     0.251 C 
ATOM     29  H   UNL     1       7.205   1.115  -2.535  1.00  0.00     0.163 HD
ATOM     30  O   UNL     1       9.486   0.762  -1.808  1.00  0.00    -0.269 OA
BRANCH  28  31
ATOM     31  C   UNL     1       9.086   2.211   0.003  1.00  0.00     0.039 A 
ATOM     32  C   UNL     1       9.741   1.422   0.956  1.00  0.00     0.014 A 
ATOM     33  C   UNL     1       8.526   3.427   0.373  1.00  0.00     0.014 A 
ATOM     34  C   UNL     1       9.536   1.684   2.306  1.00  0.00     0.010 A 
ATOM     35  C   UNL     1       8.199   3.607   1.700  1.00  0.00     0.010 A 
ATOM     36  C   UNL     1       8.633   2.683   2.656  1.00  0.00    -0.014 A 
BRANCH  36  37
ATOM     37  C   UNL     1       7.961   2.731   3.950  1.00  0.00     0.031 A 
ATOM     38  C   UNL     1       8.213   3.847   4.880  1.00  0.00     0.074 A 
ATOM     39  C   UNL     1       7.015   1.807   4.232  1.00  0.00     0.049 A 
ATOM     40  N   UNL     1       7.961   3.818   6.144  1.00  0.00    -0.248 NA
ATOM     41  C   UNL     1       8.842   5.089   4.453  1.00  0.00     0.031 C 
ATOM     42  C   UNL     1       6.020   1.850   5.300  1.00  0.00     0.029 A 
ATOM     43  N   UNL     1       6.897   0.514   3.701  1.00  0.00    -0.354 N 
ATOM     44  C   UNL     1       8.106   5.098   6.634  1.00  0.00     0.074 A 
ATOM     45  C   UNL     1       8.752   5.820   5.566  1.00  0.00     0.031 C 
ATOM     46  C   UNL     1       5.591   0.602   5.545  1.00  0.00     0.029 A 
ATOM     47  C   UNL     1       6.405  -0.298   4.746  1.00  0.00     0.049 A 
ATOM     48  H   UNL     1       7.113   0.229   2.784  1.00  0.00     0.167 HD
ATOM     49  C   UNL     1       7.526   5.414   7.830  1.00  0.00     0.037 A 
ATOM     50  C   UNL     1       7.150  -1.325   5.250  1.00  0.00     0.037 A 
ATOM     51  C   UNL     1       7.011   4.206   8.486  1.00  0.00     0.049 A 
ATOM     52  C   UNL     1       7.504  -1.168   6.713  1.00  0.00     0.074 A 
ATOM     53  C   UNL     1       5.740   3.664   8.602  1.00  0.00     0.029 A 
ATOM     54  N   UNL     1       7.898   3.208   8.882  1.00  0.00    -0.354 N 
ATOM     55  N   UNL     1       7.395  -0.047   7.371  1.00  0.00    -0.248 NA
ATOM     56  C   UNL     1       8.039  -2.247   7.540  1.00  0.00     0.031 C 
ATOM     57  C   UNL     1       5.874   2.307   8.993  1.00  0.00     0.029 A 
ATOM     58  C   UNL     1       7.222   2.030   9.140  1.00  0.00     0.049 A 
ATOM     59  H   UNL     1       8.872   3.325   8.966  1.00  0.00     0.167 HD
ATOM     60  C   UNL     1       7.870  -0.214   8.645  1.00  0.00     0.074 A 
ATOM     61  C   UNL     1       8.232  -1.617   8.713  1.00  0.00     0.031 C 
ATOM     62  C   UNL     1       7.944   0.826   9.528  1.00  0.00     0.037 A 
BRANCH  49  63
ATOM     63  C   UNL     1       7.143   6.825   8.260  1.00  0.00     0.057 A 
ATOM     64  C   UNL     1       6.132   7.028   9.223  1.00  0.00     0.134 A 
ATOM     65  C   UNL     1       7.642   8.022   7.715  1.00  0.00     0.134 A 
ATOM     66  F   UNL     1       5.623   6.016   9.937  1.00  0.00    -0.206 F 
ATOM     67  C   UNL     1       5.582   8.288   9.512  1.00  0.00     0.040 A 
ATOM     68  C   UNL     1       7.080   9.284   7.966  1.00  0.00     0.040 A 
ATOM     69  F   UNL     1       8.740   8.060   6.959  1.00  0.00    -0.206 F 
ATOM     70  C   UNL     1       6.030   9.420   8.854  1.00  0.00     0.006 A 
ENDBRANCH  49  63
BRANCH  50  71
ATOM     71  C   UNL     1       8.002  -1.987   4.228  1.00  0.00     0.057 A 
ATOM     72  C   UNL     1       7.372  -2.688   3.184  1.00  0.00     0.134 A 
ATOM     73  C   UNL     1       9.339  -1.629   4.038  1.00  0.00     0.134 A 
ATOM     74  F   UNL     1       6.088  -3.061   3.303  1.00  0.00    -0.206 F 
ATOM     75  C   UNL     1       8.005  -2.918   1.961  1.00  0.00     0.040 A 
ATOM     76  C   UNL     1       9.988  -1.864   2.818  1.00  0.00     0.040 A 
ATOM     77  F   UNL     1      10.000  -0.936   4.976  1.00  0.00    -0.206 F 
ATOM     78  C   UNL     1       9.308  -2.472   1.764  1.00  0.00     0.006 A 
ENDBRANCH  50  71
BRANCH  62  79
ATOM     79  C   UNL     1       8.642   0.794  10.864  1.00  0.00     0.057 A 
ATOM     80  C   UNL     1       9.783   0.027  11.140  1.00  0.00     0.134 A 
ATOM     81  C   UNL     1       8.253   1.684  11.890  1.00  0.00     0.134 A 
ATOM     82  F   UNL     1      10.320  -0.785  10.219  1.00  0.00    -0.206 F 
ATOM     83  C   UNL     1      10.460   0.103  12.364  1.00  0.00     0.040 A 
ATOM     84  C   UNL     1       8.952   1.806  13.094  1.00  0.00     0.040 A 
ATOM     85  F   UNL     1       7.190   2.490  11.755  1.00  0.00    -0.206 F 
ATOM     86  C   UNL     1      10.055   1.004  13.341  1.00  0.00     0.006 A 
ENDBRANCH  62  79
ENDBRANCH  36  37
ENDBRANCH  28  31
ENDBRANCH  26  27
ENDBRANCH  25  26
ENDBRANCH   1  25
TORSDOF 14
