REMARK SMILES C[C@]12C(=O)N(c3ccc(C(=O)NCCCCNC(=O)c4ccc(-c5c6nc(c(-c7c(F)cccc7F)c7ccc([nH]7)c(-c7c(F)cccc7F)c7nc(c(-c8c(F)cccc8F)c8ccc5[nH]8)C=C7)C=C6)cc4)cc3)C(=O)[C@@H]1[C@H]1c3ccccc3[C@@H]2c2ccccc21
REMARK SMILES IDX 15 1 14 2 13 3 12 4 10 5 11 6 9 8 6 9 7 10 75 11 8 12 74 13
REMARK SMILES IDX 5 14 1 15 2 16 3 17 78 18 86 19 4 20 76 21 79 22 85 23 87 24
REMARK SMILES IDX 77 25 80 26 92 27 84 28 88 29 81 30 91 31 83 32 89 33 82 34
REMARK SMILES IDX 90 35 16 36 17 37 18 38 19 40 20 41 21 42 73 43 22 44 72 45
REMARK SMILES IDX 23 46 24 47 25 48 66 49 26 50 71 51 65 52 67 53 27 54 70 55
REMARK SMILES IDX 64 56 63 57 28 59 54 60 37 61 53 62 38 63 41 64 52 65 68 66
REMARK SMILES IDX 39 67 40 68 51 70 69 71 42 72 29 73 30 74 35 75 31 76 32 77
REMARK SMILES IDX 34 78 36 79 33 80 55 81 56 82 61 83 57 84 58 85 60 86 62 87
REMARK SMILES IDX 59 88 43 89 44 90 49 91 45 92 46 93 48 94 50 95 47 96
REMARK H PARENT 12 7 17 39 67 58 41 69
REMARK Flexibility Score: inf
ROOT
ATOM      1  C   UNL     1       1.130  11.763   3.197  1.00  0.00     0.023 C 
ENDROOT
BRANCH   1   2
ATOM      2  C   UNL     1       1.595  10.343   2.897  1.00  0.00     0.023 C 
BRANCH   2   3
ATOM      3  C   UNL     1       0.960   9.249   3.744  1.00  0.00     0.116 C 
BRANCH   3   4
ATOM      4  N   UNL     1      -0.475   9.146   3.559  1.00  0.00    -0.352 N 
ATOM      5  C   UNL     1      -1.213   8.148   2.977  1.00  0.00     0.251 C 
ATOM      6  O   UNL     1      -2.423   8.291   2.826  1.00  0.00    -0.269 OA
ATOM      7  H   UNL     1      -0.997   9.906   3.904  1.00  0.00     0.163 HD
BRANCH   5   8
ATOM      8  C   UNL     1      -0.556   6.912   2.500  1.00  0.00     0.039 A 
ATOM      9  C   UNL     1       0.576   4.497   1.554  1.00  0.00     0.052 A 
ATOM     10  C   UNL     1      -0.307   5.253   0.760  1.00  0.00     0.027 A 
ATOM     11  C   UNL     1       0.921   5.016   2.814  1.00  0.00     0.027 A 
ATOM     12  C   UNL     1      -0.878   6.441   1.231  1.00  0.00     0.016 A 
ATOM     13  C   UNL     1       0.323   6.184   3.301  1.00  0.00     0.016 A 
BRANCH   9  14
ATOM     14  N   UNL     1       0.880   3.127   1.237  1.00  0.00    -0.250 N 
ATOM     15  C   UNL     1       0.927   0.152   0.138  1.00  0.00     0.024 C 
ATOM     16  C   UNL     1      -0.033   0.980   1.024  1.00  0.00     0.071 C 
ATOM     17  C   UNL     1      -0.014   2.378   0.457  1.00  0.00     0.241 C 
ATOM     18  C   UNL     1       0.514   1.262   2.435  1.00  0.00     0.107 C 
ATOM     19  C   UNL     1      -1.441   0.334   1.231  1.00  0.00     0.066 C 
ATOM     20  O   UNL     1      -0.664   2.705  -0.525  1.00  0.00    -0.273 OA
ATOM     21  C   UNL     1       1.568   2.290   2.166  1.00  0.00     0.238 C 
ATOM     22  C   UNL     1      -0.023   0.273   3.497  1.00  0.00     0.063 C 
ATOM     23  C   UNL     1      -2.146   1.036   2.419  1.00  0.00    -0.036 A 
ATOM     24  C   UNL     1      -1.133  -1.081   1.738  1.00  0.00    -0.036 A 
ATOM     25  O   UNL     1       2.628   2.422   2.715  1.00  0.00    -0.274 OA
ATOM     26  C   UNL     1      -1.458   0.895   3.680  1.00  0.00    -0.036 A 
ATOM     27  C   UNL     1      -0.319  -1.107   2.910  1.00  0.00    -0.036 A 
ATOM     28  C   UNL     1      -3.205   1.923   2.305  1.00  0.00     0.005 A 
ATOM     29  C   UNL     1      -1.626  -2.251   1.179  1.00  0.00     0.005 A 
ATOM     30  C   UNL     1      -1.858   1.607   4.804  1.00  0.00     0.004 A 
ATOM     31  C   UNL     1      -0.017  -2.319   3.516  1.00  0.00     0.004 A 
ATOM     32  C   UNL     1      -3.585   2.654   3.435  1.00  0.00     0.000 A 
ATOM     33  C   UNL     1      -1.315  -3.462   1.795  1.00  0.00     0.000 A 
ATOM     34  C   UNL     1      -2.928   2.491   4.669  1.00  0.00     0.000 A 
ATOM     35  C   UNL     1      -0.519  -3.496   2.951  1.00  0.00     0.000 A 
ENDBRANCH   9  14
ENDBRANCH   5   8
ENDBRANCH   3   4
ENDBRANCH   2   3
ENDBRANCH   1   2
BRANCH   1  36
ATOM     36  C   UNL     1       1.047  12.142   4.672  1.00  0.00     0.116 C 
BRANCH  36  37
ATOM     37  N   UNL     1       2.271  11.897   5.423  1.00  0.00    -0.352 N 
ATOM     38  C   UNL     1       2.949  12.722   6.290  1.00  0.00     0.251 C 
ATOM     39  H   UNL     1       2.674  11.008   5.290  1.00  0.00     0.163 HD
ATOM     40  O   UNL     1       3.989  12.347   6.820  1.00  0.00    -0.269 OA
BRANCH  38  41
ATOM     41  C   UNL     1       2.454  14.094   6.514  1.00  0.00     0.039 A 
ATOM     42  C   UNL     1       1.115  14.329   6.832  1.00  0.00     0.014 A 
ATOM     43  C   UNL     1       3.328  15.159   6.285  1.00  0.00     0.014 A 
ATOM     44  C   UNL     1       0.602  15.616   6.705  1.00  0.00     0.010 A 
ATOM     45  C   UNL     1       2.826  16.459   6.236  1.00  0.00     0.010 A 
ATOM     46  C   UNL     1       1.446  16.685   6.365  1.00  0.00    -0.014 A 
BRANCH  46  47
ATOM     47  C   UNL     1       0.866  18.011   6.039  1.00  0.00     0.031 A 
ATOM     48  C   UNL     1       0.951  18.542   4.630  1.00  0.00     0.074 A 
ATOM     49  C   UNL     1       0.213  18.714   6.982  1.00  0.00     0.049 A 
ATOM     50  N   UNL     1       0.566  19.700   4.156  1.00  0.00    -0.248 NA
ATOM     51  C   UNL     1       1.551  17.653   3.620  1.00  0.00     0.031 C 
ATOM     52  C   UNL     1       0.020  18.291   8.369  1.00  0.00     0.029 A 
ATOM     53  N   UNL     1      -0.424  19.925   6.908  1.00  0.00    -0.354 N 
ATOM     54  C   UNL     1       0.907  19.693   2.809  1.00  0.00     0.074 A 
ATOM     55  C   UNL     1       1.542  18.421   2.540  1.00  0.00     0.031 C 
ATOM     56  C   UNL     1      -0.722  19.210   9.006  1.00  0.00     0.029 A 
ATOM     57  C   UNL     1      -1.003  20.311   8.090  1.00  0.00     0.049 A 
ATOM     58  H   UNL     1      -0.462  20.466   6.086  1.00  0.00     0.167 HD
ATOM     59  C   UNL     1       0.704  20.654   1.877  1.00  0.00     0.037 A 
ATOM     60  C   UNL     1      -1.670  21.437   8.405  1.00  0.00     0.037 A 
ATOM     61  C   UNL     1       0.037  21.903   2.131  1.00  0.00     0.049 A 
ATOM     62  C   UNL     1      -1.849  22.504   7.365  1.00  0.00     0.074 A 
ATOM     63  C   UNL     1      -0.218  22.942   1.252  1.00  0.00     0.029 A 
ATOM     64  N   UNL     1      -0.497  22.274   3.355  1.00  0.00    -0.354 N 
ATOM     65  N   UNL     1      -1.481  22.502   6.107  1.00  0.00    -0.248 NA
ATOM     66  C   UNL     1      -2.521  23.738   7.795  1.00  0.00     0.031 C 
ATOM     67  C   UNL     1      -0.890  23.951   1.952  1.00  0.00     0.029 A 
ATOM     68  C   UNL     1      -1.075  23.528   3.258  1.00  0.00     0.049 A 
ATOM     69  H   UNL     1      -0.468  21.727   4.173  1.00  0.00     0.167 HD
ATOM     70  C   UNL     1      -1.887  23.725   5.592  1.00  0.00     0.074 A 
ATOM     71  C   UNL     1      -2.541  24.438   6.670  1.00  0.00     0.031 C 
ATOM     72  C   UNL     1      -1.727  24.216   4.340  1.00  0.00     0.037 A 
BRANCH  59  73
ATOM     73  C   UNL     1       1.226  20.398   0.496  1.00  0.00     0.057 A 
ATOM     74  C   UNL     1       2.376  21.053   0.037  1.00  0.00     0.134 A 
ATOM     75  C   UNL     1       0.579  19.527  -0.389  1.00  0.00     0.134 A 
ATOM     76  F   UNL     1       3.041  21.901   0.836  1.00  0.00    -0.206 F 
ATOM     77  C   UNL     1       2.863  20.852  -1.256  1.00  0.00     0.040 A 
ATOM     78  C   UNL     1       1.067  19.304  -1.678  1.00  0.00     0.040 A 
ATOM     79  F   UNL     1      -0.517  18.857  -0.003  1.00  0.00    -0.206 F 
ATOM     80  C   UNL     1       2.209  19.972  -2.116  1.00  0.00     0.006 A 
ENDBRANCH  59  73
BRANCH  60  81
ATOM     81  C   UNL     1      -2.204  21.617   9.775  1.00  0.00     0.057 A 
ATOM     82  C   UNL     1      -1.355  21.852  10.863  1.00  0.00     0.134 A 
ATOM     83  C   UNL     1      -3.579  21.556  10.025  1.00  0.00     0.134 A 
ATOM     84  F   UNL     1      -0.028  21.918  10.684  1.00  0.00    -0.206 F 
ATOM     85  C   UNL     1      -1.854  22.008  12.156  1.00  0.00     0.040 A 
ATOM     86  C   UNL     1      -4.093  21.731  11.310  1.00  0.00     0.040 A 
ATOM     87  F   UNL     1      -4.440  21.353   9.017  1.00  0.00    -0.206 F 
ATOM     88  C   UNL     1      -3.228  21.953  12.381  1.00  0.00     0.006 A 
ENDBRANCH  60  81
BRANCH  72  89
ATOM     89  C   UNL     1      -2.292  25.575   4.067  1.00  0.00     0.057 A 
ATOM     90  C   UNL     1      -3.486  25.721   3.352  1.00  0.00     0.134 A 
ATOM     91  C   UNL     1      -1.638  26.738   4.492  1.00  0.00     0.134 A 
ATOM     92  F   UNL     1      -4.155  24.643   2.917  1.00  0.00    -0.206 F 
ATOM     93  C   UNL     1      -4.012  26.981   3.066  1.00  0.00     0.040 A 
ATOM     94  C   UNL     1      -2.163  28.003   4.226  1.00  0.00     0.040 A 
ATOM     95  F   UNL     1      -0.498  26.659   5.194  1.00  0.00    -0.206 F 
ATOM     96  C   UNL     1      -3.351  28.127   3.507  1.00  0.00     0.006 A 
ENDBRANCH  72  89
ENDBRANCH  46  47
ENDBRANCH  38  41
ENDBRANCH  36  37
ENDBRANCH   1  36
TORSDOF 12
