REMARK SMILES CC(C)(C)c1cc(NC(=O)CSC[C@H]([NH3+])C(=O)NCCCCNC(=O)c2ccc(-c3c4nc(c(-c5c(F)cccc5F)c5ccc([nH]5)c(-c5c(F)cccc5F)c5nc(c(-c6c(F)cccc6F)c6ccc3[nH]6)C=C5)C=C4)cc2)on1
REMARK SMILES IDX 16 1 17 2 18 3 14 5 13 6 12 7 11 8 9 9 8 10 10 12 7 13 5 14
REMARK SMILES IDX 6 15 81 16 80 17 2 18 1 19 3 20 4 21 15 22 19 26 20 27 21 28
REMARK SMILES IDX 22 29 23 30 24 31 25 33 26 34 27 35 79 36 28 37 78 38 29 39
REMARK SMILES IDX 30 40 31 41 72 42 32 43 77 44 71 45 73 46 33 47 76 48 70 49
REMARK SMILES IDX 69 50 34 52 60 53 43 54 59 55 44 56 47 57 58 58 74 59 45 60
REMARK SMILES IDX 46 61 57 63 75 64 48 65 35 66 36 67 41 68 37 69 38 70 40 71
REMARK SMILES IDX 42 72 39 73 61 74 62 75 67 76 63 77 64 78 66 79 68 80 65 81
REMARK SMILES IDX 49 82 50 83 55 84 51 85 52 86 54 87 56 88 53 89
REMARK H PARENT 18 4 8 11 15 23 15 24 15 25 23 32 73 51 47 62
REMARK Flexibility Score: inf
ROOT
ATOM      1  C   UNL     1      -1.170  -1.157   9.964  1.00  0.00     0.279 C 
ATOM      2  O   UNL     1      -1.926  -1.769  10.723  1.00  0.00    -0.268 OA
ATOM      3  N   UNL     1      -0.910   0.153  10.245  1.00  0.00    -0.351 N 
ATOM      4  H   UNL     1      -1.307   0.489  11.082  1.00  0.00     0.163 HD
ENDROOT
BRANCH   1   5
ATOM      5  C   UNL     1      -0.511  -1.862   8.767  1.00  0.00     0.280 C 
BRANCH   5   6
ATOM      6  C   UNL     1       0.998  -1.999   9.018  1.00  0.00     0.145 C 
BRANCH   6   7
ATOM      7  S   UNL     1       1.883  -2.784   7.624  1.00  0.00    -0.145 SA
BRANCH   7   8
ATOM      8  C   UNL     1       1.678  -4.552   8.024  1.00  0.00     0.170 C 
BRANCH   8   9
ATOM      9  C   UNL     1       2.032  -4.891   9.461  1.00  0.00     0.236 C 
ATOM     10  N   UNL     1       3.302  -4.835   9.954  1.00  0.00    -0.294 N 
ATOM     11  H   UNL     1       3.401  -5.059  10.908  1.00  0.00     0.173 HD
ATOM     12  O   UNL     1       1.134  -5.208  10.252  1.00  0.00    -0.274 OA
BRANCH  10  13
ATOM     13  C   UNL     1       4.456  -4.507   9.297  1.00  0.00     0.231 A 
ATOM     14  C   UNL     1       6.487  -3.905   8.661  1.00  0.00     0.091 A 
ATOM     15  C   UNL     1       5.711  -4.262   9.796  1.00  0.00     0.097 A 
ATOM     16  N   UNL     1       5.746  -3.983   7.547  1.00  0.00    -0.082 NA
ATOM     17  O   UNL     1       4.489  -4.377   7.950  1.00  0.00    -0.338 OA
BRANCH  14  18
ATOM     18  C   UNL     1       7.927  -3.435   8.596  1.00  0.00     0.008 C 
ATOM     19  C   UNL     1       8.590  -3.849   7.265  1.00  0.00     0.018 C 
ATOM     20  C   UNL     1       8.761  -4.039   9.744  1.00  0.00     0.018 C 
ATOM     21  C   UNL     1       7.973  -1.898   8.711  1.00  0.00     0.018 C 
ENDBRANCH  14  18
ENDBRANCH  10  13
ENDBRANCH   8   9
ENDBRANCH   7   8
ENDBRANCH   6   7
ENDBRANCH   5   6
BRANCH   5  22
ATOM     22  N   UNL     1      -0.859  -1.168   7.505  1.00  0.00    -0.347 N 
ATOM     23  H   UNL     1      -0.523  -0.205   7.543  1.00  0.00     0.345 HD
ATOM     24  H   UNL     1      -1.872  -1.169   7.384  1.00  0.00     0.345 HD
ATOM     25  H   UNL     1      -0.422  -1.650   6.720  1.00  0.00     0.345 HD
ENDBRANCH   5  22
ENDBRANCH   1   5
BRANCH   3  26
ATOM     26  C   UNL     1      -0.136   1.126   9.495  1.00  0.00     0.116 C 
BRANCH  26  27
ATOM     27  C   UNL     1      -1.008   2.233   8.913  1.00  0.00     0.023 C 
BRANCH  27  28
ATOM     28  C   UNL     1      -1.750   3.074   9.951  1.00  0.00     0.023 C 
BRANCH  28  29
ATOM     29  C   UNL     1      -0.882   3.653  11.062  1.00  0.00     0.116 C 
BRANCH  29  30
ATOM     30  N   UNL     1       0.193   4.497  10.566  1.00  0.00    -0.352 N 
ATOM     31  C   UNL     1       0.571   5.754  10.967  1.00  0.00     0.251 C 
ATOM     32  H   UNL     1       0.728   4.110   9.835  1.00  0.00     0.163 HD
ATOM     33  O   UNL     1       1.429   6.369  10.338  1.00  0.00    -0.269 OA
BRANCH  31  34
ATOM     34  C   UNL     1      -0.078   6.386  12.135  1.00  0.00     0.039 A 
ATOM     35  C   UNL     1      -0.474   7.722  12.038  1.00  0.00     0.014 A 
ATOM     36  C   UNL     1      -0.305   5.672  13.315  1.00  0.00     0.014 A 
ATOM     37  C   UNL     1      -1.157   8.319  13.099  1.00  0.00     0.010 A 
ATOM     38  C   UNL     1      -1.059   6.242  14.337  1.00  0.00     0.010 A 
ATOM     39  C   UNL     1      -1.492   7.573  14.242  1.00  0.00    -0.014 A 
BRANCH  39  40
ATOM     40  C   UNL     1      -2.305   8.175  15.329  1.00  0.00     0.031 A 
ATOM     41  C   UNL     1      -1.735   8.343  16.711  1.00  0.00     0.074 A 
ATOM     42  C   UNL     1      -3.578   8.539  15.079  1.00  0.00     0.049 A 
ATOM     43  N   UNL     1      -2.295   8.854  17.779  1.00  0.00    -0.248 NA
ATOM     44  C   UNL     1      -0.366   7.851  16.930  1.00  0.00     0.031 C 
ATOM     45  C   UNL     1      -4.270   8.371  13.799  1.00  0.00     0.029 A 
ATOM     46  N   UNL     1      -4.518   9.127  15.888  1.00  0.00    -0.354 N 
ATOM     47  C   UNL     1      -1.352   8.739  18.793  1.00  0.00     0.074 A 
ATOM     48  C   UNL     1      -0.209   8.055  18.229  1.00  0.00     0.031 C 
ATOM     49  C   UNL     1      -5.508   8.879  13.898  1.00  0.00     0.029 A 
ATOM     50  C   UNL     1      -5.712   9.375  15.255  1.00  0.00     0.049 A 
ATOM     51  H   UNL     1      -4.352   9.349  16.833  1.00  0.00     0.167 HD
ATOM     52  C   UNL     1      -1.420   9.188  20.069  1.00  0.00     0.037 A 
ATOM     53  C   UNL     1      -6.843   9.942  15.715  1.00  0.00     0.037 A 
ATOM     54  C   UNL     1      -2.554   9.881  20.625  1.00  0.00     0.049 A 
ATOM     55  C   UNL     1      -6.893  10.431  17.136  1.00  0.00     0.074 A 
ATOM     56  C   UNL     1      -2.698  10.424  21.890  1.00  0.00     0.029 A 
ATOM     57  N   UNL     1      -3.743  10.120  19.951  1.00  0.00    -0.354 N 
ATOM     58  N   UNL     1      -5.963  10.389  18.060  1.00  0.00    -0.248 NA
ATOM     59  C   UNL     1      -8.147  11.058  17.573  1.00  0.00     0.031 C 
ATOM     60  C   UNL     1      -3.992  10.946  21.998  1.00  0.00     0.029 A 
ATOM     61  C   UNL     1      -4.634  10.781  20.782  1.00  0.00     0.049 A 
ATOM     62  H   UNL     1      -3.926   9.858  19.020  1.00  0.00     0.167 HD
ATOM     63  C   UNL     1      -6.510  11.005  19.178  1.00  0.00     0.074 A 
ATOM     64  C   UNL     1      -7.843  11.433  18.807  1.00  0.00     0.031 C 
ATOM     65  C   UNL     1      -5.960  11.197  20.402  1.00  0.00     0.037 A 
BRANCH  52  66
ATOM     66  C   UNL     1      -0.229   8.944  20.953  1.00  0.00     0.057 A 
ATOM     67  C   UNL     1       0.992   9.601  20.747  1.00  0.00     0.134 A 
ATOM     68  C   UNL     1      -0.311   8.066  22.041  1.00  0.00     0.134 A 
ATOM     69  F   UNL     1       1.144  10.447  19.716  1.00  0.00    -0.206 F 
ATOM     70  C   UNL     1       2.095   9.372  21.572  1.00  0.00     0.040 A 
ATOM     71  C   UNL     1       0.776   7.852  22.891  1.00  0.00     0.040 A 
ATOM     72  F   UNL     1      -1.450   7.407  22.301  1.00  0.00    -0.206 F 
ATOM     73  C   UNL     1       1.986   8.500  22.653  1.00  0.00     0.006 A 
ENDBRANCH  52  66
BRANCH  53  74
ATOM     74  C   UNL     1      -8.013  10.107  14.815  1.00  0.00     0.057 A 
ATOM     75  C   UNL     1      -8.424  11.376  14.388  1.00  0.00     0.134 A 
ATOM     76  C   UNL     1      -8.755   9.006  14.370  1.00  0.00     0.134 A 
ATOM     77  F   UNL     1      -7.765  12.471  14.795  1.00  0.00    -0.206 F 
ATOM     78  C   UNL     1      -9.543  11.546  13.572  1.00  0.00     0.040 A 
ATOM     79  C   UNL     1      -9.859   9.160  13.531  1.00  0.00     0.040 A 
ATOM     80  F   UNL     1      -8.408   7.763  14.736  1.00  0.00    -0.206 F 
ATOM     81  C   UNL     1     -10.262  10.435  13.138  1.00  0.00     0.006 A 
ENDBRANCH  53  74
BRANCH  65  82
ATOM     82  C   UNL     1      -6.794  11.928  21.416  1.00  0.00     0.057 A 
ATOM     83  C   UNL     1      -7.940  11.357  21.986  1.00  0.00     0.134 A 
ATOM     84  C   UNL     1      -6.443  13.219  21.831  1.00  0.00     0.134 A 
ATOM     85  F   UNL     1      -8.340  10.128  21.624  1.00  0.00    -0.206 F 
ATOM     86  C   UNL     1      -8.728  12.058  22.901  1.00  0.00     0.040 A 
ATOM     87  C   UNL     1      -7.204  13.917  22.770  1.00  0.00     0.040 A 
ATOM     88  F   UNL     1      -5.352  13.822  21.335  1.00  0.00    -0.206 F 
ATOM     89  C   UNL     1      -8.357  13.341  23.298  1.00  0.00     0.006 A 
ENDBRANCH  65  82
ENDBRANCH  39  40
ENDBRANCH  31  34
ENDBRANCH  29  30
ENDBRANCH  28  29
ENDBRANCH  27  28
ENDBRANCH  26  27
ENDBRANCH   3  26
TORSDOF 18
