REMARK SMILES C[C@@]1(O)N(CC(=O)NCCCCNC(=O)c2ccc(-c3c4nc(c(-c5c(F)cccc5F)c5ccc([nH]5)c(-c5c(F)cccc5F)c5nc(c(-c6c(F)cccc6F)c6ccc3[nH]6)C=C5)C=C4)cc2)C(=O)OC12CCCCC2
REMARK SMILES IDX 10 1 9 2 8 3 6 4 7 5 5 7 4 8 1 9 2 10 73 11 70 12 72 13
REMARK SMILES IDX 74 14 78 15 71 16 75 17 77 18 76 19 3 20 11 22 12 23 13 24
REMARK SMILES IDX 14 25 15 27 16 28 17 29 69 30 18 31 68 32 19 33 20 34 21 35
REMARK SMILES IDX 62 36 22 37 67 38 61 39 63 40 23 41 66 42 60 43 59 44 24 46
REMARK SMILES IDX 50 47 33 48 49 49 34 50 37 51 48 52 64 53 35 54 36 55 47 57
REMARK SMILES IDX 65 58 38 59 25 60 26 61 31 62 27 63 28 64 30 65 32 66 29 67
REMARK SMILES IDX 51 68 52 69 57 70 53 71 54 72 56 73 58 74 55 75 39 76 40 77
REMARK SMILES IDX 45 78 41 79 42 80 44 81 46 82 43 83
REMARK H PARENT 8 6 3 21 13 26 63 45 37 56
REMARK Flexibility Score: inf
ROOT
ATOM      1  C   UNL     1       1.297   5.332  -0.149  1.00  0.00     0.023 C 
ENDROOT
BRANCH   1   2
ATOM      2  C   UNL     1       1.189   4.870  -1.600  1.00  0.00     0.116 C 
BRANCH   2   3
ATOM      3  N   UNL     1       2.193   3.879  -1.935  1.00  0.00    -0.355 N 
ATOM      4  C   UNL     1       2.024   2.558  -2.234  1.00  0.00     0.239 C 
ATOM      5  O   UNL     1       3.002   1.904  -2.599  1.00  0.00    -0.273 OA
ATOM      6  H   UNL     1       3.123   4.203  -1.948  1.00  0.00     0.163 HD
BRANCH   4   7
ATOM      7  C   UNL     1       0.631   1.943  -2.175  1.00  0.00     0.226 C 
BRANCH   7   8
ATOM      8  N   UNL     1       0.059   1.851  -0.838  1.00  0.00    -0.267 N 
ATOM      9  C   UNL     1       1.109  -0.295  -0.206  1.00  0.00     0.072 C 
ATOM     10  C   UNL     1       0.620   1.082   0.238  1.00  0.00     0.181 C 
ATOM     11  C   UNL     1      -0.529   1.096   1.304  1.00  0.00     0.161 C 
ATOM     12  C   UNL     1      -1.201   2.294  -0.554  1.00  0.00     0.413 C 
ATOM     13  O   UNL     1      -1.570   1.903   0.691  1.00  0.00    -0.438 OA
ATOM     14  C   UNL     1      -1.139  -0.290   1.585  1.00  0.00     0.054 C 
ATOM     15  C   UNL     1      -0.173   1.820   2.620  1.00  0.00     0.054 C 
ATOM     16  O   UNL     1      -1.918   2.952  -1.291  1.00  0.00    -0.224 OA
ATOM     17  C   UNL     1      -2.277  -0.258   2.605  1.00  0.00     0.004 C 
ATOM     18  C   UNL     1      -1.333   1.833   3.622  1.00  0.00     0.004 C 
ATOM     19  C   UNL     1      -1.850   0.428   3.895  1.00  0.00     0.000 C 
BRANCH  10  20
ATOM     20  O   UNL     1       1.776   1.766   0.693  1.00  0.00    -0.367 OA
ATOM     21  H   UNL     1       2.461   1.734   0.007  1.00  0.00     0.213 HD
ENDBRANCH  10  20
ENDBRANCH   7   8
ENDBRANCH   4   7
ENDBRANCH   2   3
ENDBRANCH   1   2
BRANCH   1  22
ATOM     22  C   UNL     1       2.639   5.973   0.207  1.00  0.00     0.023 C 
BRANCH  22  23
ATOM     23  C   UNL     1       2.961   7.218  -0.607  1.00  0.00     0.116 C 
BRANCH  23  24
ATOM     24  N   UNL     1       1.949   8.252  -0.450  1.00  0.00    -0.352 N 
ATOM     25  C   UNL     1       2.112   9.582  -0.156  1.00  0.00     0.251 C 
ATOM     26  H   UNL     1       1.018   7.956  -0.571  1.00  0.00     0.163 HD
ATOM     27  O   UNL     1       1.145  10.277   0.135  1.00  0.00    -0.269 OA
BRANCH  25  28
ATOM     28  C   UNL     1       3.469  10.160  -0.170  1.00  0.00     0.039 A 
ATOM     29  C   UNL     1       3.865  10.982   0.886  1.00  0.00     0.014 A 
ATOM     30  C   UNL     1       4.353   9.864  -1.211  1.00  0.00     0.014 A 
ATOM     31  C   UNL     1       5.174  11.460   0.927  1.00  0.00     0.010 A 
ATOM     32  C   UNL     1       5.679  10.267  -1.122  1.00  0.00     0.010 A 
ATOM     33  C   UNL     1       6.102  11.074  -0.055  1.00  0.00    -0.014 A 
BRANCH  33  34
ATOM     34  C   UNL     1       7.518  11.511   0.011  1.00  0.00     0.031 A 
ATOM     35  C   UNL     1       8.091  12.369  -1.083  1.00  0.00     0.074 A 
ATOM     36  C   UNL     1       8.298  11.091   1.026  1.00  0.00     0.049 A 
ATOM     37  N   UNL     1       9.319  12.791  -1.243  1.00  0.00    -0.248 NA
ATOM     38  C   UNL     1       7.169  12.784  -2.154  1.00  0.00     0.031 C 
ATOM     39  C   UNL     1       7.869  10.216   2.120  1.00  0.00     0.029 A 
ATOM     40  N   UNL     1       9.621  11.334   1.296  1.00  0.00    -0.354 N 
ATOM     41  C   UNL     1       9.315  13.518  -2.427  1.00  0.00     0.074 A 
ATOM     42  C   UNL     1       7.983  13.422  -2.981  1.00  0.00     0.031 C 
ATOM     43  C   UNL     1       8.903  10.014   2.953  1.00  0.00     0.029 A 
ATOM     44  C   UNL     1      10.077  10.706   2.430  1.00  0.00     0.049 A 
ATOM     45  H   UNL     1      10.190  11.905   0.731  1.00  0.00     0.167 HD
ATOM     46  C   UNL     1      10.323  14.228  -2.986  1.00  0.00     0.037 A 
ATOM     47  C   UNL     1      11.306  10.679   2.978  1.00  0.00     0.037 A 
ATOM     48  C   UNL     1      11.644  14.332  -2.425  1.00  0.00     0.049 A 
ATOM     49  C   UNL     1      12.415  11.455   2.320  1.00  0.00     0.074 A 
ATOM     50  C   UNL     1      12.726  15.053  -2.897  1.00  0.00     0.029 A 
ATOM     51  N   UNL     1      12.061  13.697  -1.265  1.00  0.00    -0.354 N 
ATOM     52  N   UNL     1      12.381  12.188   1.233  1.00  0.00    -0.248 NA
ATOM     53  C   UNL     1      13.733  11.408   2.970  1.00  0.00     0.031 C 
ATOM     54  C   UNL     1      13.812  14.818  -2.049  1.00  0.00     0.029 A 
ATOM     55  C   UNL     1      13.390  13.996  -1.016  1.00  0.00     0.049 A 
ATOM     56  H   UNL     1      11.497  13.119  -0.703  1.00  0.00     0.167 HD
ATOM     57  C   UNL     1      13.659  12.713   1.088  1.00  0.00     0.074 A 
ATOM     58  C   UNL     1      14.439  12.231   2.208  1.00  0.00     0.031 C 
ATOM     59  C   UNL     1      14.146  13.520   0.114  1.00  0.00     0.037 A 
BRANCH  46  60
ATOM     60  C   UNL     1      10.032  14.963  -4.262  1.00  0.00     0.057 A 
ATOM     61  C   UNL     1       9.194  16.086  -4.288  1.00  0.00     0.134 A 
ATOM     62  C   UNL     1      10.635  14.581  -5.467  1.00  0.00     0.134 A 
ATOM     63  F   UNL     1       8.574  16.498  -3.171  1.00  0.00    -0.206 F 
ATOM     64  C   UNL     1       8.951  16.791  -5.468  1.00  0.00     0.040 A 
ATOM     65  C   UNL     1      10.424  15.294  -6.647  1.00  0.00     0.040 A 
ATOM     66  F   UNL     1      11.452  13.518  -5.513  1.00  0.00    -0.206 F 
ATOM     67  C   UNL     1       9.576  16.401  -6.651  1.00  0.00     0.006 A 
ENDBRANCH  46  60
BRANCH  47  68
ATOM     68  C   UNL     1      11.563   9.894   4.214  1.00  0.00     0.057 A 
ATOM     69  C   UNL     1      11.897  10.523   5.419  1.00  0.00     0.134 A 
ATOM     70  C   UNL     1      11.521   8.494   4.210  1.00  0.00     0.134 A 
ATOM     71  F   UNL     1      11.971  11.861   5.485  1.00  0.00    -0.206 F 
ATOM     72  C   UNL     1      12.216   9.791   6.564  1.00  0.00     0.040 A 
ATOM     73  C   UNL     1      11.805   7.750   5.356  1.00  0.00     0.040 A 
ATOM     74  F   UNL     1      11.197   7.829   3.092  1.00  0.00    -0.206 F 
ATOM     75  C   UNL     1      12.168   8.399   6.535  1.00  0.00     0.006 A 
ENDBRANCH  47  68
BRANCH  59  76
ATOM     76  C   UNL     1      15.572  13.971   0.242  1.00  0.00     0.057 A 
ATOM     77  C   UNL     1      16.648  13.094   0.055  1.00  0.00     0.134 A 
ATOM     78  C   UNL     1      15.871  15.312   0.518  1.00  0.00     0.134 A 
ATOM     79  F   UNL     1      16.431  11.795  -0.200  1.00  0.00    -0.206 F 
ATOM     80  C   UNL     1      17.970  13.529   0.165  1.00  0.00     0.040 A 
ATOM     81  C   UNL     1      17.188  15.765   0.599  1.00  0.00     0.040 A 
ATOM     82  F   UNL     1      14.887  16.207   0.697  1.00  0.00    -0.206 F 
ATOM     83  C   UNL     1      18.242  14.870   0.431  1.00  0.00     0.006 A 
ENDBRANCH  59  76
ENDBRANCH  33  34
ENDBRANCH  25  28
ENDBRANCH  23  24
ENDBRANCH  22  23
ENDBRANCH   1  22
TORSDOF 13
