REMARK SMILES O=C(NCCCCNC(=O)[C@H]1C[C@@H](O)CN1C(=O)CCc1ccc(Cl)cc1Cl)c1ccc(-c2c3nc(c(-c4c(F)cccc4F)c4ccc([nH]4)c(-c4c(F)cccc4F)c4nc(c(-c5c(F)cccc5F)c5ccc2[nH]5)C=C4)C=C3)cc1
REMARK SMILES IDX 6 1 5 2 4 3 3 4 1 5 2 6 29 8 30 9 82 10 31 11 81 12 32 13
REMARK SMILES IDX 33 14 34 15 75 16 35 17 80 18 74 19 76 20 36 21 79 22 73 23
REMARK SMILES IDX 72 24 37 26 63 27 46 28 62 29 47 30 50 31 61 32 77 33 48 34
REMARK SMILES IDX 49 35 60 37 78 38 51 39 38 40 39 41 44 42 40 43 41 44 43 45
REMARK SMILES IDX 45 46 42 47 64 48 65 49 70 50 66 51 67 52 69 53 71 54 68 55
REMARK SMILES IDX 52 56 53 57 58 58 54 59 55 60 57 61 59 62 56 63 7 64 8 65
REMARK SMILES IDX 9 66 10 68 11 69 12 70 16 71 13 72 15 73 17 74 18 75 19 76
REMARK SMILES IDX 20 77 21 78 22 79 27 80 23 81 26 82 28 83 24 84 25 85 14 86
REMARK H PARENT 3 7 76 25 50 36 8 67 14 87
REMARK Flexibility Score: inf
ROOT
ATOM      1  C   UNL     1       4.513  -3.662   0.960  1.00  0.00     0.023 C 
ENDROOT
BRANCH   1   2
ATOM      2  C   UNL     1       5.014  -2.236   1.177  1.00  0.00     0.023 C 
BRANCH   2   3
ATOM      3  C   UNL     1       4.689  -1.249   0.060  1.00  0.00     0.116 C 
BRANCH   3   4
ATOM      4  N   UNL     1       3.259  -1.094  -0.179  1.00  0.00    -0.352 N 
ATOM      5  O   UNL     1       1.231  -0.101  -0.107  1.00  0.00    -0.269 OA
ATOM      6  C   UNL     1       2.440  -0.006   0.034  1.00  0.00     0.251 C 
ATOM      7  H   UNL     1       2.810  -1.888  -0.549  1.00  0.00     0.163 HD
BRANCH   6   8
ATOM      8  C   UNL     1       3.041   1.268   0.476  1.00  0.00     0.039 A 
ATOM      9  C   UNL     1       4.161   1.779  -0.179  1.00  0.00     0.014 A 
ATOM     10  C   UNL     1       2.513   1.923   1.592  1.00  0.00     0.014 A 
ATOM     11  C   UNL     1       4.874   2.819   0.401  1.00  0.00     0.010 A 
ATOM     12  C   UNL     1       3.175   3.038   2.112  1.00  0.00     0.010 A 
ATOM     13  C   UNL     1       4.392   3.460   1.554  1.00  0.00    -0.014 A 
BRANCH  13  14
ATOM     14  C   UNL     1       5.175   4.576   2.142  1.00  0.00     0.031 A 
ATOM     15  C   UNL     1       5.762   4.474   3.524  1.00  0.00     0.074 A 
ATOM     16  C   UNL     1       5.396   5.674   1.394  1.00  0.00     0.049 A 
ATOM     17  N   UNL     1       6.493   5.345   4.175  1.00  0.00    -0.248 NA
ATOM     18  C   UNL     1       5.488   3.242   4.279  1.00  0.00     0.031 C 
ATOM     19  C   UNL     1       4.880   5.887   0.040  1.00  0.00     0.029 A 
ATOM     20  N   UNL     1       6.132   6.801   1.651  1.00  0.00    -0.354 N 
ATOM     21  C   UNL     1       6.738   4.783   5.422  1.00  0.00     0.074 A 
ATOM     22  C   UNL     1       6.061   3.503   5.445  1.00  0.00     0.031 C 
ATOM     23  C   UNL     1       5.365   7.040  -0.439  1.00  0.00     0.029 A 
ATOM     24  C   UNL     1       6.168   7.680   0.597  1.00  0.00     0.049 A 
ATOM     25  H   UNL     1       6.591   6.964   2.506  1.00  0.00     0.167 HD
ATOM     26  C   UNL     1       7.463   5.287   6.451  1.00  0.00     0.037 A 
ATOM     27  C   UNL     1       6.770   8.877   0.478  1.00  0.00     0.037 A 
ATOM     28  C   UNL     1       8.158   6.549   6.411  1.00  0.00     0.049 A 
ATOM     29  C   UNL     1       7.555   9.416   1.635  1.00  0.00     0.074 A 
ATOM     30  C   UNL     1       8.953   7.128   7.385  1.00  0.00     0.029 A 
ATOM     31  N   UNL     1       8.138   7.429   5.338  1.00  0.00    -0.354 N 
ATOM     32  N   UNL     1       7.794   8.864   2.800  1.00  0.00    -0.248 NA
ATOM     33  C   UNL     1       8.148  10.748   1.464  1.00  0.00     0.031 C 
ATOM     34  C   UNL     1       9.378   8.378   6.919  1.00  0.00     0.029 A 
ATOM     35  C   UNL     1       8.889   8.556   5.635  1.00  0.00     0.049 A 
ATOM     36  H   UNL     1       7.661   7.276   4.491  1.00  0.00     0.167 HD
ATOM     37  C   UNL     1       8.584   9.770   3.493  1.00  0.00     0.074 A 
ATOM     38  C   UNL     1       8.794  10.901   2.611  1.00  0.00     0.031 C 
ATOM     39  C   UNL     1       9.091   9.672   4.746  1.00  0.00     0.037 A 
BRANCH  26  40
ATOM     40  C   UNL     1       7.518   4.485   7.720  1.00  0.00     0.057 A 
ATOM     41  C   UNL     1       8.241   3.289   7.818  1.00  0.00     0.134 A 
ATOM     42  C   UNL     1       6.860   4.935   8.873  1.00  0.00     0.134 A 
ATOM     43  F   UNL     1       8.885   2.795   6.750  1.00  0.00    -0.206 F 
ATOM     44  C   UNL     1       8.283   2.555   9.006  1.00  0.00     0.040 A 
ATOM     45  C   UNL     1       6.916   4.224  10.073  1.00  0.00     0.040 A 
ATOM     46  F   UNL     1       6.156   6.077   8.854  1.00  0.00    -0.206 F 
ATOM     47  C   UNL     1       7.624   3.026  10.140  1.00  0.00     0.006 A 
ENDBRANCH  26  40
BRANCH  27  48
ATOM     48  C   UNL     1       6.655   9.631  -0.793  1.00  0.00     0.057 A 
ATOM     49  C   UNL     1       7.757   9.784  -1.642  1.00  0.00     0.134 A 
ATOM     50  C   UNL     1       5.439  10.188  -1.206  1.00  0.00     0.134 A 
ATOM     51  F   UNL     1       8.952   9.284  -1.293  1.00  0.00    -0.206 F 
ATOM     52  C   UNL     1       7.656  10.470  -2.852  1.00  0.00     0.040 A 
ATOM     53  C   UNL     1       5.317  10.854  -2.425  1.00  0.00     0.040 A 
ATOM     54  F   UNL     1       4.344  10.065  -0.440  1.00  0.00    -0.206 F 
ATOM     55  C   UNL     1       6.430  11.001  -3.250  1.00  0.00     0.006 A 
ENDBRANCH  27  48
BRANCH  39  56
ATOM     56  C   UNL     1       9.954  10.804   5.218  1.00  0.00     0.057 A 
ATOM     57  C   UNL     1       9.420  12.053   5.556  1.00  0.00     0.134 A 
ATOM     58  C   UNL     1      11.339  10.634   5.348  1.00  0.00     0.134 A 
ATOM     59  F   UNL     1       8.103  12.284   5.438  1.00  0.00    -0.206 F 
ATOM     60  C   UNL     1      10.235  13.103   5.981  1.00  0.00     0.040 A 
ATOM     61  C   UNL     1      12.161  11.668   5.796  1.00  0.00     0.040 A 
ATOM     62  F   UNL     1      11.913   9.460   5.045  1.00  0.00    -0.206 F 
ATOM     63  C   UNL     1      11.610  12.910   6.107  1.00  0.00     0.006 A 
ENDBRANCH  39  56
ENDBRANCH  13  14
ENDBRANCH   6   8
ENDBRANCH   3   4
ENDBRANCH   2   3
ENDBRANCH   1   2
BRANCH   1  64
ATOM     64  C   UNL     1       4.852  -4.265  -0.394  1.00  0.00     0.116 C 
BRANCH  64  65
ATOM     65  N   UNL     1       6.270  -4.477  -0.610  1.00  0.00    -0.354 N 
ATOM     66  C   UNL     1       6.834  -5.364  -1.496  1.00  0.00     0.242 C 
ATOM     67  H   UNL     1       6.888  -3.933  -0.071  1.00  0.00     0.163 HD
ATOM     68  O   UNL     1       8.044  -5.292  -1.726  1.00  0.00    -0.273 OA
BRANCH  66  69
ATOM     69  C   UNL     1       5.897  -6.318  -2.272  1.00  0.00     0.177 C 
ATOM     70  C   UNL     1       5.166  -5.526  -3.362  1.00  0.00     0.069 C 
ATOM     71  N   UNL     1       6.617  -7.347  -3.028  1.00  0.00    -0.328 N 
ATOM     72  C   UNL     1       6.144  -5.567  -4.531  1.00  0.00     0.136 C 
ATOM     73  C   UNL     1       6.713  -6.972  -4.427  1.00  0.00     0.152 C 
BRANCH  71  74
ATOM     74  C   UNL     1       6.950  -8.565  -2.478  1.00  0.00     0.223 C 
ATOM     75  O   UNL     1       6.638  -8.851  -1.320  1.00  0.00    -0.275 OA
BRANCH  74  76
ATOM     76  C   UNL     1       7.727  -9.565  -3.331  1.00  0.00     0.105 C 
BRANCH  76  77
ATOM     77  C   UNL     1       6.875 -10.575  -4.123  1.00  0.00     0.047 C 
BRANCH  77  78
ATOM     78  C   UNL     1       6.205 -10.053  -5.382  1.00  0.00    -0.029 A 
ATOM     79  C   UNL     1       4.798  -9.997  -5.417  1.00  0.00     0.007 A 
ATOM     80  C   UNL     1       6.918  -9.542  -6.486  1.00  0.00     0.045 A 
ATOM     81  C   UNL     1       4.134  -9.334  -6.454  1.00  0.00     0.021 A 
ATOM     82  C   UNL     1       6.254  -8.847  -7.504  1.00  0.00     0.041 A 
ATOM     83  Cl  UNL     1       8.635  -9.669  -6.612  1.00  0.00    -0.084 Cl
ATOM     84  C   UNL     1       4.868  -8.725  -7.468  1.00  0.00     0.042 A 
ATOM     85  Cl  UNL     1       4.061  -7.777  -8.654  1.00  0.00    -0.084 Cl
ENDBRANCH  77  78
ENDBRANCH  76  77
ENDBRANCH  74  76
ENDBRANCH  71  74
BRANCH  72  86
ATOM     86  O   UNL     1       7.150  -4.572  -4.400  1.00  0.00    -0.391 OA
ATOM     87  H   UNL     1       7.611  -4.688  -3.554  1.00  0.00     0.211 HD
ENDBRANCH  72  86
ENDBRANCH  66  69
ENDBRANCH  64  65
ENDBRANCH   1  64
TORSDOF 16
