REMARK SMILES COc1cccc([C@@H]2[NH2+][C@@](C)(C(=O)NCCCCNC(=O)c3ccc(-c4c5nc(c(-c6c(F)cccc6F)c6ccc([nH]6)c(-c6c(F)cccc6F)c6nc(c(-c7c(F)cccc7F)c7ccc4[nH]7)C=C6)C=C5)cc3)[C@@H]3C(=O)N(C)C(=O)[C@@H]32)c1O
REMARK SMILES IDX 16 1 15 2 14 3 12 4 13 5 10 7 8 8 9 9 83 10 76 13 81 14
REMARK SMILES IDX 11 15 77 16 79 17 82 18 78 19 80 20 7 21 3 22 4 23 84 24
REMARK SMILES IDX 5 25 6 26 2 27 1 28 85 29 17 31 18 32 19 33 20 34 21 36
REMARK SMILES IDX 22 37 23 38 75 39 24 40 74 41 25 42 26 43 27 44 68 45 28 46
REMARK SMILES IDX 73 47 67 48 69 49 29 50 72 51 66 52 65 53 30 55 56 56 39 57
REMARK SMILES IDX 55 58 40 59 43 60 54 61 70 62 41 63 42 64 53 66 71 67 44 68
REMARK SMILES IDX 31 69 32 70 37 71 33 72 34 73 36 74 38 75 35 76 57 77 58 78
REMARK SMILES IDX 63 79 59 80 60 81 62 82 64 83 61 84 45 85 46 86 51 87 47 88
REMARK SMILES IDX 48 89 50 90 52 91 49 92
REMARK H PARENT 14 6 9 11 9 12 85 30 19 35 69 54 43 65
REMARK Flexibility Score: inf
ROOT
ATOM      1  C   UNL     1      -7.382  -1.700  -1.602  1.00  0.00     0.023 C 
ENDROOT
BRANCH   1   2
ATOM      2  C   UNL     1      -6.314  -2.784  -1.509  1.00  0.00     0.116 C 
BRANCH   2   3
ATOM      3  N   UNL     1      -5.911  -3.274  -2.816  1.00  0.00    -0.351 N 
ATOM      4  C   UNL     1      -4.671  -3.319  -3.392  1.00  0.00     0.281 C 
ATOM      5  O   UNL     1      -4.609  -3.735  -4.553  1.00  0.00    -0.268 OA
ATOM      6  H   UNL     1      -6.642  -3.627  -3.373  1.00  0.00     0.163 HD
BRANCH   4   7
ATOM      7  C   UNL     1      -3.397  -2.881  -2.602  1.00  0.00     0.185 C 
ATOM      8  C   UNL     1      -2.993  -0.580  -3.174  1.00  0.00     0.232 C 
ATOM      9  N   UNL     1      -3.591  -1.477  -2.158  1.00  0.00    -0.326 N 
ATOM     10  C   UNL     1      -2.204  -1.450  -4.158  1.00  0.00     0.161 C 
ATOM     11  H   UNL     1      -4.587  -1.279  -2.065  1.00  0.00     0.347 HD
ATOM     12  H   UNL     1      -3.143  -1.331  -1.253  1.00  0.00     0.347 HD
ATOM     13  C   UNL     1      -2.193  -2.844  -3.547  1.00  0.00     0.169 C 
ATOM     14  C   UNL     1      -0.746  -1.121  -4.306  1.00  0.00     0.239 C 
ATOM     15  C   UNL     1      -3.200  -3.843  -1.421  1.00  0.00     0.091 C 
ATOM     16  C   UNL     1      -0.806  -2.952  -2.957  1.00  0.00     0.240 C 
ATOM     17  N   UNL     1      -0.032  -1.971  -3.509  1.00  0.00    -0.285 N 
ATOM     18  O   UNL     1      -0.298  -0.233  -5.010  1.00  0.00    -0.274 OA
ATOM     19  O   UNL     1      -0.419  -3.833  -2.203  1.00  0.00    -0.274 OA
ATOM     20  C   UNL     1       1.389  -1.849  -3.301  1.00  0.00     0.156 C 
BRANCH   8  21
ATOM     21  C   UNL     1      -2.248   0.586  -2.540  1.00  0.00     0.056 A 
ATOM     22  C   UNL     1      -0.645   1.520  -0.935  1.00  0.00     0.161 A 
ATOM     23  C   UNL     1      -0.836   2.787  -1.482  1.00  0.00     0.050 A 
ATOM     24  C   UNL     1      -1.384   0.443  -1.437  1.00  0.00     0.166 A 
ATOM     25  C   UNL     1      -1.719   2.965  -2.547  1.00  0.00     0.005 A 
ATOM     26  C   UNL     1      -2.406   1.872  -3.082  1.00  0.00     0.014 A 
BRANCH  22  27
ATOM     27  O   UNL     1       0.203   1.443   0.137  1.00  0.00    -0.493 OA
ATOM     28  C   UNL     1       1.160   0.383   0.091  1.00  0.00     0.278 C 
ENDBRANCH  22  27
BRANCH  24  29
ATOM     29  O   UNL     1      -1.335  -0.774  -0.805  1.00  0.00    -0.504 OA
ATOM     30  H   UNL     1      -0.769  -0.897  -0.069  1.00  0.00     0.293 HD
ENDBRANCH  24  29
ENDBRANCH   8  21
ENDBRANCH   4   7
ENDBRANCH   2   3
ENDBRANCH   1   2
BRANCH   1  31
ATOM     31  C   UNL     1      -8.711  -2.164  -2.196  1.00  0.00     0.023 C 
BRANCH  31  32
ATOM     32  C   UNL     1      -9.317  -3.399  -1.540  1.00  0.00     0.116 C 
BRANCH  32  33
ATOM     33  N   UNL     1      -9.597  -3.213  -0.124  1.00  0.00    -0.352 N 
ATOM     34  C   UNL     1     -10.769  -3.428   0.562  1.00  0.00     0.251 C 
ATOM     35  H   UNL     1      -8.842  -2.888   0.418  1.00  0.00     0.163 HD
ATOM     36  O   UNL     1     -10.875  -3.089   1.736  1.00  0.00    -0.269 OA
BRANCH  34  37
ATOM     37  C   UNL     1     -11.915  -4.040  -0.139  1.00  0.00     0.039 A 
ATOM     38  C   UNL     1     -13.171  -3.438  -0.041  1.00  0.00     0.014 A 
ATOM     39  C   UNL     1     -11.738  -5.181  -0.926  1.00  0.00     0.014 A 
ATOM     40  C   UNL     1     -14.234  -3.933  -0.799  1.00  0.00     0.010 A 
ATOM     41  C   UNL     1     -12.773  -5.620  -1.743  1.00  0.00     0.010 A 
ATOM     42  C   UNL     1     -14.032  -5.000  -1.690  1.00  0.00    -0.014 A 
BRANCH  42  43
ATOM     43  C   UNL     1     -15.118  -5.487  -2.579  1.00  0.00     0.031 A 
ATOM     44  C   UNL     1     -15.616  -6.900  -2.449  1.00  0.00     0.074 A 
ATOM     45  C   UNL     1     -15.598  -4.689  -3.553  1.00  0.00     0.049 A 
ATOM     46  N   UNL     1     -16.480  -7.545  -3.192  1.00  0.00    -0.248 NA
ATOM     47  C   UNL     1     -15.045  -7.705  -1.357  1.00  0.00     0.031 C 
ATOM     48  C   UNL     1     -15.171  -3.312  -3.808  1.00  0.00     0.029 A 
ATOM     49  N   UNL     1     -16.543  -4.927  -4.520  1.00  0.00    -0.354 N 
ATOM     50  C   UNL     1     -16.539  -8.831  -2.670  1.00  0.00     0.074 A 
ATOM     51  C   UNL     1     -15.587  -8.892  -1.583  1.00  0.00     0.031 C 
ATOM     52  C   UNL     1     -15.868  -2.821  -4.846  1.00  0.00     0.029 A 
ATOM     53  C   UNL     1     -16.755  -3.860  -5.359  1.00  0.00     0.049 A 
ATOM     54  H   UNL     1     -17.024  -5.782  -4.604  1.00  0.00     0.167 HD
ATOM     55  C   UNL     1     -17.332  -9.861  -3.048  1.00  0.00     0.037 A 
ATOM     56  C   UNL     1     -17.563  -3.737  -6.430  1.00  0.00     0.037 A 
ATOM     57  C   UNL     1     -18.296  -9.789  -4.114  1.00  0.00     0.049 A 
ATOM     58  C   UNL     1     -18.415  -4.906  -6.846  1.00  0.00     0.074 A 
ATOM     59  C   UNL     1     -19.190 -10.759  -4.532  1.00  0.00     0.029 A 
ATOM     60  N   UNL     1     -18.487  -8.687  -4.934  1.00  0.00    -0.354 N 
ATOM     61  N   UNL     1     -18.512  -6.094  -6.301  1.00  0.00    -0.248 NA
ATOM     62  C   UNL     1     -19.272  -4.716  -8.025  1.00  0.00     0.031 C 
ATOM     63  C   UNL     1     -19.883 -10.264  -5.641  1.00  0.00     0.029 A 
ATOM     64  C   UNL     1     -19.465  -8.964  -5.875  1.00  0.00     0.049 A 
ATOM     65  H   UNL     1     -17.999  -7.835  -4.859  1.00  0.00     0.167 HD
ATOM     66  C   UNL     1     -19.465  -6.779  -7.045  1.00  0.00     0.074 A 
ATOM     67  C   UNL     1     -19.921  -5.870  -8.076  1.00  0.00     0.031 C 
ATOM     68  C   UNL     1     -19.923  -8.044  -6.885  1.00  0.00     0.037 A 
BRANCH  55  69
ATOM     69  C   UNL     1     -17.186 -11.159  -2.306  1.00  0.00     0.057 A 
ATOM     70  C   UNL     1     -17.587 -11.299  -0.971  1.00  0.00     0.134 A 
ATOM     71  C   UNL     1     -16.669 -12.292  -2.946  1.00  0.00     0.134 A 
ATOM     72  F   UNL     1     -18.081 -10.250  -0.295  1.00  0.00    -0.206 F 
ATOM     73  C   UNL     1     -17.453 -12.511  -0.291  1.00  0.00     0.040 A 
ATOM     74  C   UNL     1     -16.559 -13.518  -2.286  1.00  0.00     0.040 A 
ATOM     75  F   UNL     1     -16.271 -12.231  -4.226  1.00  0.00    -0.206 F 
ATOM     76  C   UNL     1     -16.945 -13.627  -0.952  1.00  0.00     0.006 A 
ENDBRANCH  55  69
BRANCH  56  77
ATOM     77  C   UNL     1     -17.624  -2.455  -7.178  1.00  0.00     0.057 A 
ATOM     78  C   UNL     1     -18.776  -1.659  -7.150  1.00  0.00     0.134 A 
ATOM     79  C   UNL     1     -16.547  -2.001  -7.949  1.00  0.00     0.134 A 
ATOM     80  F   UNL     1     -19.848  -2.049  -6.445  1.00  0.00    -0.206 F 
ATOM     81  C   UNL     1     -18.863  -0.471  -7.878  1.00  0.00     0.040 A 
ATOM     82  C   UNL     1     -16.611  -0.802  -8.660  1.00  0.00     0.040 A 
ATOM     83  F   UNL     1     -15.412  -2.713  -8.013  1.00  0.00    -0.206 F 
ATOM     84  C   UNL     1     -17.776  -0.037  -8.633  1.00  0.00     0.006 A 
ENDBRANCH  56  77
BRANCH  68  85
ATOM     85  C   UNL     1     -21.009  -8.511  -7.810  1.00  0.00     0.057 A 
ATOM     86  C   UNL     1     -20.767  -8.794  -9.160  1.00  0.00     0.134 A 
ATOM     87  C   UNL     1     -22.305  -8.734  -7.325  1.00  0.00     0.134 A 
ATOM     88  F   UNL     1     -19.552  -8.590  -9.691  1.00  0.00    -0.206 F 
ATOM     89  C   UNL     1     -21.780  -9.266  -9.998  1.00  0.00     0.040 A 
ATOM     90  C   UNL     1     -23.317  -9.233  -8.145  1.00  0.00     0.040 A 
ATOM     91  F   UNL     1     -22.602  -8.491  -6.039  1.00  0.00    -0.206 F 
ATOM     92  C   UNL     1     -23.056  -9.496  -9.488  1.00  0.00     0.006 A 
ENDBRANCH  68  85
ENDBRANCH  42  43
ENDBRANCH  34  37
ENDBRANCH  32  33
ENDBRANCH  31  32
ENDBRANCH   1  31
TORSDOF 14
