REMARK SMILES Cc1ccc2c(c1)OCCN2c1sc(C(=O)NCCCCNC(=O)c2ccc(-c3c4nc(c(-c5c(F)cccc5F)c5ccc([nH]5)c(-c5c(F)cccc5F)c5nc(c(-c6c(F)cccc6F)c6ccc3[nH]6)C=C5)C=C4)cc2)cc1C
REMARK SMILES IDX 20 1 19 2 18 3 17 4 15 5 16 6 14 8 12 9 13 10 80 11 79 12
REMARK SMILES IDX 81 13 11 14 1 15 2 16 3 17 7 18 4 19 6 20 5 21 8 22 9 23
REMARK SMILES IDX 10 24 21 25 22 26 23 27 24 29 25 30 26 31 78 32 27 33 77 34
REMARK SMILES IDX 28 35 29 36 30 37 71 38 31 39 76 40 70 41 72 42 32 43 75 44
REMARK SMILES IDX 69 45 68 46 33 48 59 49 42 50 58 51 43 52 46 53 57 54 73 55
REMARK SMILES IDX 44 56 45 57 56 59 74 60 47 61 34 62 35 63 40 64 36 65 37 66
REMARK SMILES IDX 39 67 41 68 38 69 60 70 61 71 66 72 62 73 63 74 65 75 67 76
REMARK SMILES IDX 64 77 48 78 49 79 54 80 50 81 51 82 53 83 55 84 52 85
REMARK H PARENT 17 7 22 28 72 47 46 58
REMARK Flexibility Score: inf
ROOT
ATOM      1  C   UNL     1      -0.884   1.635  10.172  1.00  0.00     0.023 C 
ENDROOT
BRANCH   1   2
ATOM      2  C   UNL     1      -0.705   2.012   8.696  1.00  0.00     0.023 C 
BRANCH   2   3
ATOM      3  C   UNL     1      -1.920   1.704   7.822  1.00  0.00     0.116 C 
BRANCH   3   4
ATOM      4  N   UNL     1      -3.000   2.635   8.085  1.00  0.00    -0.351 N 
ATOM      5  C   UNL     1      -3.417   3.783   7.456  1.00  0.00     0.261 C 
ATOM      6  O   UNL     1      -4.420   4.304   7.955  1.00  0.00    -0.268 OA
ATOM      7  H   UNL     1      -3.543   2.396   8.871  1.00  0.00     0.163 HD
BRANCH   5   8
ATOM      8  C   UNL     1      -2.797   4.334   6.258  1.00  0.00     0.094 A 
ATOM      9  C   UNL     1      -1.449   4.837   4.227  1.00  0.00     0.099 A 
ATOM     10  S   UNL     1      -1.197   4.066   5.741  1.00  0.00    -0.112 S 
ATOM     11  C   UNL     1      -2.640   5.547   4.238  1.00  0.00    -0.015 A 
ATOM     12  C   UNL     1      -3.407   5.244   5.411  1.00  0.00     0.031 A 
ATOM     13  C   UNL     1      -3.138   6.457   3.164  1.00  0.00     0.047 C 
BRANCH   9  14
ATOM     14  N   UNL     1      -0.535   4.783   3.217  1.00  0.00    -0.327 N 
ATOM     15  C   UNL     1       0.946   0.175   0.078  1.00  0.00     0.044 C 
ATOM     16  C   UNL     1       0.555   1.364   0.903  1.00  0.00    -0.047 A 
ATOM     17  C   UNL     1      -0.350   1.244   1.959  1.00  0.00     0.006 A 
ATOM     18  C   UNL     1       1.070   2.628   0.602  1.00  0.00     0.052 A 
ATOM     19  C   UNL     1      -0.722   2.365   2.713  1.00  0.00     0.030 A 
ATOM     20  C   UNL     1       0.696   3.746   1.356  1.00  0.00     0.143 A 
ATOM     21  C   UNL     1      -0.189   3.638   2.452  1.00  0.00     0.085 A 
ATOM     22  O   UNL     1       1.255   4.937   0.945  1.00  0.00    -0.490 OA
ATOM     23  C   UNL     1       0.551   6.071   1.462  1.00  0.00     0.251 C 
ATOM     24  C   UNL     1       0.322   5.941   2.962  1.00  0.00     0.165 C 
ENDBRANCH   9  14
ENDBRANCH   5   8
ENDBRANCH   3   4
ENDBRANCH   2   3
ENDBRANCH   1   2
BRANCH   1  25
ATOM     25  C   UNL     1      -1.160   0.158  10.436  1.00  0.00     0.116 C 
BRANCH  25  26
ATOM     26  N   UNL     1      -0.130  -0.734   9.924  1.00  0.00    -0.352 N 
ATOM     27  C   UNL     1       0.249  -1.965  10.408  1.00  0.00     0.251 C 
ATOM     28  H   UNL     1       0.357  -0.416   9.130  1.00  0.00     0.163 HD
ATOM     29  O   UNL     1       1.203  -2.562   9.920  1.00  0.00    -0.269 OA
BRANCH  27  30
ATOM     30  C   UNL     1      -0.473  -2.536  11.563  1.00  0.00     0.039 A 
ATOM     31  C   UNL     1      -1.868  -2.561  11.585  1.00  0.00     0.014 A 
ATOM     32  C   UNL     1       0.259  -2.993  12.663  1.00  0.00     0.014 A 
ATOM     33  C   UNL     1      -2.529  -2.876  12.766  1.00  0.00     0.010 A 
ATOM     34  C   UNL     1      -0.411  -3.385  13.824  1.00  0.00     0.010 A 
ATOM     35  C   UNL     1      -1.808  -3.275  13.903  1.00  0.00    -0.014 A 
BRANCH  35  36
ATOM     36  C   UNL     1      -2.539  -3.541  15.168  1.00  0.00     0.031 A 
ATOM     37  C   UNL     1      -2.341  -2.659  16.372  1.00  0.00     0.074 A 
ATOM     38  C   UNL     1      -3.433  -4.546  15.211  1.00  0.00     0.049 A 
ATOM     39  N   UNL     1      -2.928  -2.716  17.542  1.00  0.00    -0.248 NA
ATOM     40  C   UNL     1      -1.350  -1.579  16.252  1.00  0.00     0.031 C 
ATOM     41  C   UNL     1      -3.710  -5.474  14.113  1.00  0.00     0.029 A 
ATOM     42  N   UNL     1      -4.286  -4.942  16.208  1.00  0.00    -0.354 N 
ATOM     43  C   UNL     1      -2.361  -1.700  18.302  1.00  0.00     0.074 A 
ATOM     44  C   UNL     1      -1.366  -1.058  17.470  1.00  0.00     0.031 C 
ATOM     45  C   UNL     1      -4.699  -6.303  14.480  1.00  0.00     0.029 A 
ATOM     46  C   UNL     1      -5.089  -5.998  15.852  1.00  0.00     0.049 A 
ATOM     47  H   UNL     1      -4.321  -4.512  17.092  1.00  0.00     0.167 HD
ATOM     48  C   UNL     1      -2.651  -1.328  19.572  1.00  0.00     0.037 A 
ATOM     49  C   UNL     1      -6.029  -6.655  16.556  1.00  0.00     0.037 A 
ATOM     50  C   UNL     1      -3.660  -1.948  20.391  1.00  0.00     0.049 A 
ATOM     51  C   UNL     1      -6.326  -6.228  17.963  1.00  0.00     0.074 A 
ATOM     52  C   UNL     1      -4.061  -1.611  21.673  1.00  0.00     0.029 A 
ATOM     53  N   UNL     1      -4.427  -3.038  20.008  1.00  0.00    -0.354 N 
ATOM     54  N   UNL     1      -5.804  -5.245  18.655  1.00  0.00    -0.248 NA
ATOM     55  C   UNL     1      -7.339  -7.006  18.687  1.00  0.00     0.031 C 
ATOM     56  C   UNL     1      -5.044  -2.522  22.079  1.00  0.00     0.029 A 
ATOM     57  C   UNL     1      -5.282  -3.402  21.036  1.00  0.00     0.049 A 
ATOM     58  H   UNL     1      -4.373  -3.487  19.133  1.00  0.00     0.167 HD
ATOM     59  C   UNL     1      -6.425  -5.284  19.896  1.00  0.00     0.074 A 
ATOM     60  C   UNL     1      -7.384  -6.370  19.849  1.00  0.00     0.031 C 
ATOM     61  C   UNL     1      -6.217  -4.496  20.979  1.00  0.00     0.037 A 
BRANCH  48  62
ATOM     62  C   UNL     1      -1.844  -0.207  20.161  1.00  0.00     0.057 A 
ATOM     63  C   UNL     1      -0.890  -0.463  21.154  1.00  0.00     0.134 A 
ATOM     64  C   UNL     1      -2.018   1.124  19.760  1.00  0.00     0.134 A 
ATOM     65  F   UNL     1      -0.678  -1.714  21.589  1.00  0.00    -0.206 F 
ATOM     66  C   UNL     1      -0.133   0.564  21.723  1.00  0.00     0.040 A 
ATOM     67  C   UNL     1      -1.250   2.156  20.304  1.00  0.00     0.040 A 
ATOM     68  F   UNL     1      -2.905   1.435  18.803  1.00  0.00    -0.206 F 
ATOM     69  C   UNL     1      -0.307   1.877  21.292  1.00  0.00     0.006 A 
ENDBRANCH  48  62
BRANCH  49  70
ATOM     70  C   UNL     1      -6.748  -7.792  15.933  1.00  0.00     0.057 A 
ATOM     71  C   UNL     1      -6.098  -9.005  15.674  1.00  0.00     0.134 A 
ATOM     72  C   UNL     1      -8.094  -7.686  15.569  1.00  0.00     0.134 A 
ATOM     73  F   UNL     1      -4.806  -9.163  15.995  1.00  0.00    -0.206 F 
ATOM     74  C   UNL     1      -6.758 -10.069  15.059  1.00  0.00     0.040 A 
ATOM     75  C   UNL     1      -8.773  -8.751  14.975  1.00  0.00     0.040 A 
ATOM     76  F   UNL     1      -8.772  -6.555  15.809  1.00  0.00    -0.206 F 
ATOM     77  C   UNL     1      -8.101  -9.944  14.712  1.00  0.00     0.006 A 
ENDBRANCH  49  70
BRANCH  61  78
ATOM     78  C   UNL     1      -7.045  -4.788  22.194  1.00  0.00     0.057 A 
ATOM     79  C   UNL     1      -8.095  -3.942  22.567  1.00  0.00     0.134 A 
ATOM     80  C   UNL     1      -6.797  -5.909  22.997  1.00  0.00     0.134 A 
ATOM     81  F   UNL     1      -8.381  -2.850  21.842  1.00  0.00    -0.206 F 
ATOM     82  C   UNL     1      -8.874  -4.202  23.695  1.00  0.00     0.040 A 
ATOM     83  C   UNL     1      -7.583  -6.192  24.115  1.00  0.00     0.040 A 
ATOM     84  F   UNL     1      -5.815  -6.768  22.683  1.00  0.00    -0.206 F 
ATOM     85  C   UNL     1      -8.623  -5.334  24.469  1.00  0.00     0.006 A 
ENDBRANCH  61  78
ENDBRANCH  35  36
ENDBRANCH  27  30
ENDBRANCH  25  26
ENDBRANCH   1  25
TORSDOF 12
