REMARK SMILES C=CCN1C(=O)/C(=C/c2ccc(OCc3cccc(C(=O)NCCCCNC(=O)c4ccc(-c5c6nc(c(-c7c(F)cccc7F)c7ccc([nH]7)c(-c7c(F)cccc7F)c7nc(c(-c8c(F)cccc8F)c8ccc5[nH]8)C=C7)C=C6)cc4)c3)cc2)C(=O)NC1=S
REMARK SMILES IDX 20 1 21 2 22 3 19 5 15 6 16 7 84 8 17 9 18 10 14 11 13 12
REMARK SMILES IDX 12 13 9 14 10 15 86 16 11 17 85 18 8 19 4 20 5 21 90 22 6 23
REMARK SMILES IDX 7 24 89 25 91 26 87 27 88 29 3 30 2 31 1 32 23 33 24 34
REMARK SMILES IDX 25 35 26 36 27 37 28 38 29 40 30 41 31 42 83 43 32 44 82 45
REMARK SMILES IDX 33 46 34 47 35 48 76 49 36 50 81 51 75 52 77 53 37 54 80 55
REMARK SMILES IDX 74 56 73 57 38 59 64 60 47 61 63 62 48 63 51 64 62 65 78 66
REMARK SMILES IDX 49 67 50 68 61 70 79 71 52 72 39 73 40 74 45 75 41 76 42 77
REMARK SMILES IDX 44 78 46 79 43 80 65 81 66 82 71 83 67 84 68 85 70 86 72 87
REMARK SMILES IDX 69 88 53 89 54 90 59 91 55 92 56 93 58 94 60 95 57 96
REMARK H PARENT 22 4 89 28 27 39 77 58 51 69
REMARK Flexibility Score: inf
ROOT
ATOM      1  C   UNL     1      -1.889   3.290 -10.662  1.00  0.00     0.251 C 
ATOM      2  O   UNL     1      -2.174   2.487 -11.552  1.00  0.00    -0.269 OA
ATOM      3  N   UNL     1      -2.933   3.902 -10.008  1.00  0.00    -0.352 N 
ATOM      4  H   UNL     1      -3.821   3.668 -10.364  1.00  0.00     0.163 HD
ENDROOT
BRANCH   1   5
ATOM      5  C   UNL     1      -0.453   3.512 -10.319  1.00  0.00     0.040 A 
ATOM      6  C   UNL     1       1.399   4.787  -9.356  1.00  0.00    -0.010 A 
ATOM      7  C   UNL     1       2.266   3.722  -9.623  1.00  0.00     0.007 A 
ATOM      8  C   UNL     1       0.058   4.692  -9.771  1.00  0.00     0.021 A 
ATOM      9  C   UNL     1       1.792   2.574 -10.255  1.00  0.00     0.001 A 
ATOM     10  C   UNL     1       0.438   2.463 -10.584  1.00  0.00     0.014 A 
BRANCH   6  11
ATOM     11  C   UNL     1       1.872   6.001  -8.583  1.00  0.00     0.265 C 
BRANCH  11  12
ATOM     12  O   UNL     1       2.408   5.684  -7.291  1.00  0.00    -0.489 OA
BRANCH  12  13
ATOM     13  C   UNL     1       1.573   5.159  -6.343  1.00  0.00     0.119 A 
ATOM     14  C   UNL     1       0.081   3.819  -4.373  1.00  0.00    -0.024 A 
ATOM     15  C   UNL     1       1.477   3.866  -4.295  1.00  0.00     0.012 A 
ATOM     16  C   UNL     1      -0.567   4.507  -5.396  1.00  0.00     0.012 A 
ATOM     17  C   UNL     1       2.216   4.530  -5.276  1.00  0.00     0.047 A 
ATOM     18  C   UNL     1       0.179   5.190  -6.365  1.00  0.00     0.047 A 
BRANCH  14  19
ATOM     19  C   UNL     1      -0.646   3.042  -3.368  1.00  0.00     0.027 C 
ATOM     20  N   UNL     1      -1.361  -0.282  -2.309  1.00  0.00    -0.281 N 
ATOM     21  C   UNL     1      -1.535   1.104  -2.280  1.00  0.00     0.265 C 
ATOM     22  C   UNL     1      -1.295  -1.015  -3.488  1.00  0.00     0.183 C 
ATOM     23  O   UNL     1      -1.923   1.730  -1.296  1.00  0.00    -0.268 OA
ATOM     24  C   UNL     1      -1.154   1.804  -3.531  1.00  0.00     0.106 C 
ATOM     25  N   UNL     1      -1.279  -0.296  -4.655  1.00  0.00    -0.298 N 
ATOM     26  S   UNL     1      -1.238  -2.684  -3.641  1.00  0.00    -0.040 S 
ATOM     27  C   UNL     1      -1.202   1.063  -4.806  1.00  0.00     0.263 C 
ATOM     28  H   UNL     1      -1.329  -0.821  -5.486  1.00  0.00     0.172 HD
ATOM     29  O   UNL     1      -1.207   1.574  -5.912  1.00  0.00    -0.269 OA
BRANCH  20  30
ATOM     30  C   UNL     1      -1.231  -0.911  -0.992  1.00  0.00     0.155 C 
BRANCH  30  31
ATOM     31  C   UNL     1       0.240  -0.935  -0.656  1.00  0.00    -0.013 C 
ATOM     32  C   UNL     1       0.851  -0.053   0.148  1.00  0.00     0.006 C 
ENDBRANCH  30  31
ENDBRANCH  20  30
ENDBRANCH  14  19
ENDBRANCH  12  13
ENDBRANCH  11  12
ENDBRANCH   6  11
ENDBRANCH   1   5
BRANCH   3  33
ATOM     33  C   UNL     1      -2.967   4.826  -8.894  1.00  0.00     0.116 C 
BRANCH  33  34
ATOM     34  C   UNL     1      -3.110   6.269  -9.387  1.00  0.00     0.023 C 
BRANCH  34  35
ATOM     35  C   UNL     1      -4.551   6.684  -9.692  1.00  0.00     0.023 C 
BRANCH  35  36
ATOM     36  C   UNL     1      -5.462   6.765  -8.471  1.00  0.00     0.116 C 
BRANCH  36  37
ATOM     37  N   UNL     1      -5.014   7.730  -7.478  1.00  0.00    -0.352 N 
ATOM     38  C   UNL     1      -5.777   8.486  -6.620  1.00  0.00     0.251 C 
ATOM     39  H   UNL     1      -4.040   7.858  -7.412  1.00  0.00     0.163 HD
ATOM     40  O   UNL     1      -5.255   9.330  -5.900  1.00  0.00    -0.269 OA
BRANCH  38  41
ATOM     41  C   UNL     1      -7.243   8.305  -6.610  1.00  0.00     0.039 A 
ATOM     42  C   UNL     1      -8.059   9.430  -6.744  1.00  0.00     0.014 A 
ATOM     43  C   UNL     1      -7.803   7.029  -6.521  1.00  0.00     0.014 A 
ATOM     44  C   UNL     1      -9.440   9.268  -6.867  1.00  0.00     0.010 A 
ATOM     45  C   UNL     1      -9.171   6.864  -6.709  1.00  0.00     0.010 A 
ATOM     46  C   UNL     1     -10.001   7.981  -6.892  1.00  0.00    -0.014 A 
BRANCH  46  47
ATOM     47  C   UNL     1     -11.451   7.780  -7.127  1.00  0.00     0.031 A 
ATOM     48  C   UNL     1     -12.314   7.181  -6.053  1.00  0.00     0.074 A 
ATOM     49  C   UNL     1     -11.974   8.065  -8.335  1.00  0.00     0.049 A 
ATOM     50  N   UNL     1     -13.581   6.856  -6.097  1.00  0.00    -0.248 NA
ATOM     51  C   UNL     1     -11.660   6.882  -4.770  1.00  0.00     0.031 C 
ATOM     52  C   UNL     1     -11.229   8.599  -9.477  1.00  0.00     0.029 A 
ATOM     53  N   UNL     1     -13.255   7.933  -8.808  1.00  0.00    -0.354 N 
ATOM     54  C   UNL     1     -13.870   6.301  -4.858  1.00  0.00     0.074 A 
ATOM     55  C   UNL     1     -12.637   6.288  -4.101  1.00  0.00     0.031 C 
ATOM     56  C   UNL     1     -12.069   8.767 -10.511  1.00  0.00     0.029 A 
ATOM     57  C   UNL     1     -13.402   8.324 -10.117  1.00  0.00     0.049 A 
ATOM     58  H   UNL     1     -13.999   7.590  -8.262  1.00  0.00     0.167 HD
ATOM     59  C   UNL     1     -15.061   5.861  -4.386  1.00  0.00     0.037 A 
ATOM     60  C   UNL     1     -14.489   8.321 -10.911  1.00  0.00     0.037 A 
ATOM     61  C   UNL     1     -16.292   5.902  -5.129  1.00  0.00     0.049 A 
ATOM     62  C   UNL     1     -15.802   7.840 -10.359  1.00  0.00     0.074 A 
ATOM     63  C   UNL     1     -17.562   5.540  -4.715  1.00  0.00     0.029 A 
ATOM     64  N   UNL     1     -16.407   6.334  -6.442  1.00  0.00    -0.354 N 
ATOM     65  N   UNL     1     -16.075   7.379  -9.162  1.00  0.00    -0.248 NA
ATOM     66  C   UNL     1     -16.958   7.883 -11.265  1.00  0.00     0.031 C 
ATOM     67  C   UNL     1     -18.440   5.722  -5.789  1.00  0.00     0.029 A 
ATOM     68  C   UNL     1     -17.723   6.234  -6.859  1.00  0.00     0.049 A 
ATOM     69  H   UNL     1     -15.662   6.664  -6.995  1.00  0.00     0.167 HD
ATOM     70  C   UNL     1     -17.436   7.104  -9.163  1.00  0.00     0.074 A 
ATOM     71  C   UNL     1     -17.935   7.460 -10.475  1.00  0.00     0.031 C 
ATOM     72  C   UNL     1     -18.204   6.602  -8.165  1.00  0.00     0.037 A 
BRANCH  59  73
ATOM     73  C   UNL     1     -15.087   5.304  -2.993  1.00  0.00     0.057 A 
ATOM     74  C   UNL     1     -14.946   6.128  -1.869  1.00  0.00     0.134 A 
ATOM     75  C   UNL     1     -15.283   3.936  -2.772  1.00  0.00     0.134 A 
ATOM     76  F   UNL     1     -14.741   7.446  -2.013  1.00  0.00    -0.206 F 
ATOM     77  C   UNL     1     -14.974   5.607  -0.574  1.00  0.00     0.040 A 
ATOM     78  C   UNL     1     -15.339   3.406  -1.482  1.00  0.00     0.040 A 
ATOM     79  F   UNL     1     -15.430   3.092  -3.805  1.00  0.00    -0.206 F 
ATOM     80  C   UNL     1     -15.178   4.242  -0.378  1.00  0.00     0.006 A 
ENDBRANCH  59  73
BRANCH  60  81
ATOM     81  C   UNL     1     -14.392   8.816 -12.306  1.00  0.00     0.057 A 
ATOM     82  C   UNL     1     -14.970  10.035 -12.678  1.00  0.00     0.134 A 
ATOM     83  C   UNL     1     -13.727   8.087 -13.298  1.00  0.00     0.134 A 
ATOM     84  F   UNL     1     -15.636  10.769 -11.774  1.00  0.00    -0.206 F 
ATOM     85  C   UNL     1     -14.908  10.504 -13.991  1.00  0.00     0.040 A 
ATOM     86  C   UNL     1     -13.637   8.554 -14.611  1.00  0.00     0.040 A 
ATOM     87  F   UNL     1     -13.145   6.915 -13.002  1.00  0.00    -0.206 F 
ATOM     88  C   UNL     1     -14.235   9.763 -14.961  1.00  0.00     0.006 A 
ENDBRANCH  60  81
BRANCH  72  89
ATOM     89  C   UNL     1     -19.668   6.440  -8.444  1.00  0.00     0.057 A 
ATOM     90  C   UNL     1     -20.154   5.416  -9.265  1.00  0.00     0.134 A 
ATOM     91  C   UNL     1     -20.604   7.296  -7.850  1.00  0.00     0.134 A 
ATOM     92  F   UNL     1     -19.306   4.572  -9.874  1.00  0.00    -0.206 F 
ATOM     93  C   UNL     1     -21.520   5.260  -9.502  1.00  0.00     0.040 A 
ATOM     94  C   UNL     1     -21.974   7.136  -8.061  1.00  0.00     0.040 A 
ATOM     95  F   UNL     1     -20.203   8.293  -7.047  1.00  0.00    -0.206 F 
ATOM     96  C   UNL     1     -22.435   6.118  -8.893  1.00  0.00     0.006 A 
ENDBRANCH  72  89
ENDBRANCH  46  47
ENDBRANCH  38  41
ENDBRANCH  36  37
ENDBRANCH  35  36
ENDBRANCH  34  35
ENDBRANCH  33  34
ENDBRANCH   3  33
TORSDOF 17
