REMARK SMILES O=C(NCCCCNC(=O)c1cccnc1NC[C@H](c1ccccc1)[NH+]1CCOCC1)c1ccc(-c2c3nc(c(-c4c(F)cccc4F)c4ccc([nH]4)c(-c4c(F)cccc4F)c4nc(c(-c5c(F)cccc5F)c5ccc2[nH]5)C=C4)C=C3)cc1
REMARK SMILES IDX 6 1 5 2 4 3 3 4 1 5 2 6 32 8 33 9 85 10 34 11 84 12 35 13
REMARK SMILES IDX 36 14 37 15 78 16 38 17 83 18 77 19 79 20 39 21 82 22 76 23
REMARK SMILES IDX 75 24 40 26 66 27 49 28 65 29 50 30 53 31 64 32 80 33 51 34
REMARK SMILES IDX 52 35 63 37 81 38 54 39 41 40 42 41 47 42 43 43 44 44 46 45
REMARK SMILES IDX 48 46 45 47 67 48 68 49 73 50 69 51 70 52 72 53 74 54 71 55
REMARK SMILES IDX 55 56 56 57 61 58 57 59 58 60 60 61 62 62 59 63 7 64 8 65
REMARK SMILES IDX 9 66 10 68 11 69 12 70 16 71 13 72 15 73 14 74 17 75 18 77
REMARK SMILES IDX 19 78 26 79 27 80 31 81 28 83 30 84 29 85 20 86 21 87 25 88
REMARK SMILES IDX 22 89 24 90 23 91
REMARK H PARENT 3 7 79 25 53 36 8 67 17 76 26 82
REMARK Flexibility Score: inf
ROOT
ATOM      1  C   UNL     1      11.441   2.015  -1.029  1.00  0.00     0.023 C 
ENDROOT
BRANCH   1   2
ATOM      2  C   UNL     1      11.722   3.136  -0.032  1.00  0.00     0.023 C 
BRANCH   2   3
ATOM      3  C   UNL     1      10.980   3.029   1.293  1.00  0.00     0.116 C 
BRANCH   3   4
ATOM      4  N   UNL     1      11.272   1.808   2.030  1.00  0.00    -0.352 N 
ATOM      5  O   UNL     1      11.829   0.569   3.837  1.00  0.00    -0.269 OA
ATOM      6  C   UNL     1      11.510   1.656   3.379  1.00  0.00     0.251 C 
ATOM      7  H   UNL     1      11.303   0.983   1.495  1.00  0.00     0.163 HD
BRANCH   6   8
ATOM      8  C   UNL     1      11.412   2.839   4.262  1.00  0.00     0.039 A 
ATOM      9  C   UNL     1      10.323   3.705   4.160  1.00  0.00     0.014 A 
ATOM     10  C   UNL     1      12.443   3.105   5.168  1.00  0.00     0.014 A 
ATOM     11  C   UNL     1      10.347   4.916   4.835  1.00  0.00     0.010 A 
ATOM     12  C   UNL     1      12.415   4.282   5.923  1.00  0.00     0.010 A 
ATOM     13  C   UNL     1      11.385   5.215   5.735  1.00  0.00    -0.014 A 
BRANCH  13  14
ATOM     14  C   UNL     1      11.313   6.486   6.500  1.00  0.00     0.031 A 
ATOM     15  C   UNL     1      12.324   7.582   6.310  1.00  0.00     0.074 A 
ATOM     16  C   UNL     1      10.262   6.669   7.323  1.00  0.00     0.049 A 
ATOM     17  N   UNL     1      12.342   8.780   6.839  1.00  0.00    -0.248 NA
ATOM     18  C   UNL     1      13.463   7.302   5.423  1.00  0.00     0.031 C 
ATOM     19  C   UNL     1       9.232   5.665   7.604  1.00  0.00     0.029 A 
ATOM     20  N   UNL     1       9.860   7.766   8.039  1.00  0.00    -0.354 N 
ATOM     21  C   UNL     1      13.495   9.392   6.361  1.00  0.00     0.074 A 
ATOM     22  C   UNL     1      14.165   8.424   5.519  1.00  0.00     0.031 C 
ATOM     23  C   UNL     1       8.282   6.213   8.374  1.00  0.00     0.029 A 
ATOM     24  C   UNL     1       8.664   7.584   8.690  1.00  0.00     0.049 A 
ATOM     25  H   UNL     1      10.378   8.602   8.082  1.00  0.00     0.167 HD
ATOM     26  C   UNL     1      13.944  10.648   6.598  1.00  0.00     0.037 A 
ATOM     27  C   UNL     1       7.952   8.425   9.461  1.00  0.00     0.037 A 
ATOM     28  C   UNL     1      13.266  11.613   7.427  1.00  0.00     0.049 A 
ATOM     29  C   UNL     1       8.468   9.813   9.690  1.00  0.00     0.074 A 
ATOM     30  C   UNL     1      13.641  12.913   7.723  1.00  0.00     0.029 A 
ATOM     31  N   UNL     1      12.070  11.384   8.090  1.00  0.00    -0.354 N 
ATOM     32  N   UNL     1       9.553  10.377   9.220  1.00  0.00    -0.248 NA
ATOM     33  C   UNL     1       7.662  10.680  10.559  1.00  0.00     0.031 C 
ATOM     34  C   UNL     1      12.686  13.460   8.587  1.00  0.00     0.029 A 
ATOM     35  C   UNL     1      11.697  12.514   8.800  1.00  0.00     0.049 A 
ATOM     36  H   UNL     1      11.560  10.542   8.060  1.00  0.00     0.167 HD
ATOM     37  C   UNL     1       9.565  11.663   9.739  1.00  0.00     0.074 A 
ATOM     38  C   UNL     1       8.357  11.808  10.526  1.00  0.00     0.031 C 
ATOM     39  C   UNL     1      10.499  12.634   9.589  1.00  0.00     0.037 A 
BRANCH  26  40
ATOM     40  C   UNL     1      15.237  11.060   5.955  1.00  0.00     0.057 A 
ATOM     41  C   UNL     1      15.319  11.353   4.588  1.00  0.00     0.134 A 
ATOM     42  C   UNL     1      16.397  11.229   6.723  1.00  0.00     0.134 A 
ATOM     43  F   UNL     1      14.248  11.201   3.795  1.00  0.00    -0.206 F 
ATOM     44  C   UNL     1      16.511  11.790   4.005  1.00  0.00     0.040 A 
ATOM     45  C   UNL     1      17.588  11.684   6.156  1.00  0.00     0.040 A 
ATOM     46  F   UNL     1      16.385  10.972   8.040  1.00  0.00    -0.206 F 
ATOM     47  C   UNL     1      17.648  11.965   4.792  1.00  0.00     0.006 A 
ENDBRANCH  26  40
BRANCH  27  48
ATOM     48  C   UNL     1       6.683   7.965  10.074  1.00  0.00     0.057 A 
ATOM     49  C   UNL     1       5.448   8.469   9.655  1.00  0.00     0.134 A 
ATOM     50  C   UNL     1       6.677   6.995  11.084  1.00  0.00     0.134 A 
ATOM     51  F   UNL     1       5.391   9.410   8.701  1.00  0.00    -0.206 F 
ATOM     52  C   UNL     1       4.251   8.037  10.229  1.00  0.00     0.040 A 
ATOM     53  C   UNL     1       5.488   6.534  11.647  1.00  0.00     0.040 A 
ATOM     54  F   UNL     1       7.829   6.465  11.521  1.00  0.00    -0.206 F 
ATOM     55  C   UNL     1       4.270   7.061  11.224  1.00  0.00     0.006 A 
ENDBRANCH  27  48
BRANCH  39  56
ATOM     56  C   UNL     1      10.239  13.928  10.298  1.00  0.00     0.057 A 
ATOM     57  C   UNL     1      10.370  14.040  11.688  1.00  0.00     0.134 A 
ATOM     58  C   UNL     1       9.851  15.070   9.587  1.00  0.00     0.134 A 
ATOM     59  F   UNL     1      10.723  12.977  12.426  1.00  0.00    -0.206 F 
ATOM     60  C   UNL     1      10.093  15.236  12.351  1.00  0.00     0.040 A 
ATOM     61  C   UNL     1       9.594  16.277  10.236  1.00  0.00     0.040 A 
ATOM     62  F   UNL     1       9.713  15.028   8.253  1.00  0.00    -0.206 F 
ATOM     63  C   UNL     1       9.706  16.361  11.623  1.00  0.00     0.006 A 
ENDBRANCH  39  56
ENDBRANCH  13  14
ENDBRANCH   6   8
ENDBRANCH   3   4
ENDBRANCH   2   3
ENDBRANCH   1   2
BRANCH   1  64
ATOM     64  C   UNL     1       9.962   1.726  -1.271  1.00  0.00     0.116 C 
BRANCH  64  65
ATOM     65  N   UNL     1       9.263   2.872  -1.832  1.00  0.00    -0.352 N 
ATOM     66  C   UNL     1       8.923   3.106  -3.143  1.00  0.00     0.255 C 
ATOM     67  H   UNL     1       8.999   3.569  -1.189  1.00  0.00     0.163 HD
ATOM     68  O   UNL     1       8.565   4.226  -3.496  1.00  0.00    -0.269 OA
BRANCH  66  69
ATOM     69  C   UNL     1       9.012   2.005  -4.119  1.00  0.00     0.082 A 
ATOM     70  C   UNL     1       8.320   0.812  -3.872  1.00  0.00     0.019 A 
ATOM     71  C   UNL     1       9.742   2.150  -5.302  1.00  0.00     0.139 A 
ATOM     72  C   UNL     1       8.473  -0.256  -4.742  1.00  0.00     0.021 A 
ATOM     73  N   UNL     1       9.916   1.088  -6.128  1.00  0.00    -0.239 NA
ATOM     74  C   UNL     1       9.297  -0.077  -5.834  1.00  0.00     0.113 A 
BRANCH  71  75
ATOM     75  N   UNL     1      10.332   3.364  -5.647  1.00  0.00    -0.363 N 
ATOM     76  H   UNL     1      10.552   4.033  -4.959  1.00  0.00     0.162 HD
BRANCH  75  77
ATOM     77  C   UNL     1      10.618   3.621  -7.062  1.00  0.00     0.184 C 
BRANCH  77  78
ATOM     78  C   UNL     1       9.543   4.552  -7.737  1.00  0.00     0.234 C 
BRANCH  78  79
ATOM     79  N   UNL     1       9.944   4.868  -9.129  1.00  0.00    -0.323 N 
ATOM     80  C   UNL     1       9.524   6.185  -9.630  1.00  0.00     0.291 C 
ATOM     81  C   UNL     1       9.727   3.829 -10.149  1.00  0.00     0.291 C 
ATOM     82  H   UNL     1      10.954   4.901  -8.994  1.00  0.00     0.348 HD
ATOM     83  C   UNL     1       8.193   6.202 -10.395  1.00  0.00     0.221 C 
ATOM     84  C   UNL     1       8.394   3.928 -10.919  1.00  0.00     0.221 C 
ATOM     85  O   UNL     1       8.197   5.241 -11.457  1.00  0.00    -0.370 OA
ENDBRANCH  78  79
BRANCH  78  86
ATOM     86  C   UNL     1       8.093   4.111  -7.554  1.00  0.00     0.011 A 
ATOM     87  C   UNL     1       7.674   2.790  -7.779  1.00  0.00     0.010 A 
ATOM     88  C   UNL     1       7.129   5.042  -7.131  1.00  0.00     0.010 A 
ATOM     89  C   UNL     1       6.341   2.413  -7.601  1.00  0.00     0.001 A 
ATOM     90  C   UNL     1       5.794   4.669  -6.960  1.00  0.00     0.001 A 
ATOM     91  C   UNL     1       5.400   3.355  -7.198  1.00  0.00     0.000 A 
ENDBRANCH  78  86
ENDBRANCH  77  78
ENDBRANCH  75  77
ENDBRANCH  71  75
ENDBRANCH  66  69
ENDBRANCH  64  65
ENDBRANCH   1  64
TORSDOF 16
