REMARK SMILES O=C(NCCCCNC(=O)c1sccc1NS(=O)(=O)N1CCCC1)c1ccc(-c2c3nc(c(-c4c(F)cccc4F)c4ccc([nH]4)c(-c4c(F)cccc4F)c4nc(c(-c5c(F)cccc5F)c5ccc2[nH]5)C=C4)C=C3)cc1
REMARK SMILES IDX 6 1 5 2 4 3 3 4 1 5 2 6 25 8 26 9 78 10 27 11 77 12 28 13
REMARK SMILES IDX 29 14 30 15 71 16 31 17 76 18 70 19 72 20 32 21 75 22 69 23
REMARK SMILES IDX 68 24 33 26 59 27 42 28 58 29 43 30 46 31 57 32 73 33 44 34
REMARK SMILES IDX 45 35 56 37 74 38 47 39 34 40 35 41 40 42 36 43 37 44 39 45
REMARK SMILES IDX 41 46 38 47 60 48 61 49 66 50 62 51 63 52 65 53 67 54 64 55
REMARK SMILES IDX 48 56 49 57 54 58 50 59 51 60 53 61 55 62 52 63 7 64 8 65
REMARK SMILES IDX 9 66 10 68 11 69 12 70 15 71 13 72 14 73 16 74 17 76 18 77
REMARK SMILES IDX 19 78 20 79 21 80 24 81 22 82 23 83
REMARK H PARENT 3 7 72 25 46 36 8 67 16 75
REMARK Flexibility Score: inf
ROOT
ATOM      1  C   UNL     1       4.371   0.372  -3.916  1.00  0.00     0.023 C 
ENDROOT
BRANCH   1   2
ATOM      2  C   UNL     1       4.832  -0.344  -2.655  1.00  0.00     0.023 C 
BRANCH   2   3
ATOM      3  C   UNL     1       4.460   0.346  -1.352  1.00  0.00     0.116 C 
BRANCH   3   4
ATOM      4  N   UNL     1       3.024   0.436  -1.126  1.00  0.00    -0.352 N 
ATOM      5  O   UNL     1       1.059   0.022  -0.075  1.00  0.00    -0.269 OA
ATOM      6  C   UNL     1       2.284  -0.026  -0.059  1.00  0.00     0.251 C 
ATOM      7  H   UNL     1       2.511   0.891  -1.832  1.00  0.00     0.163 HD
BRANCH   6   8
ATOM      8  C   UNL     1       2.987  -0.617   1.100  1.00  0.00     0.039 A 
ATOM      9  C   UNL     1       4.123   0.006   1.613  1.00  0.00     0.014 A 
ATOM     10  C   UNL     1       2.544  -1.827   1.641  1.00  0.00     0.014 A 
ATOM     11  C   UNL     1       4.932  -0.678   2.506  1.00  0.00     0.010 A 
ATOM     12  C   UNL     1       3.292  -2.450   2.647  1.00  0.00     0.010 A 
ATOM     13  C   UNL     1       4.516  -1.901   3.059  1.00  0.00    -0.014 A 
BRANCH  13  14
ATOM     14  C   UNL     1       5.358  -2.517   4.118  1.00  0.00     0.031 A 
ATOM     15  C   UNL     1       5.984  -3.874   3.950  1.00  0.00     0.074 A 
ATOM     16  C   UNL     1       5.611  -1.788   5.224  1.00  0.00     0.049 A 
ATOM     17  N   UNL     1       6.795  -4.508   4.761  1.00  0.00    -0.248 NA
ATOM     18  C   UNL     1       5.659  -4.622   2.727  1.00  0.00     0.031 C 
ATOM     19  C   UNL     1       5.042  -0.466   5.508  1.00  0.00     0.029 A 
ATOM     20  N   UNL     1       6.430  -2.029   6.295  1.00  0.00    -0.354 N 
ATOM     21  C   UNL     1       7.074  -5.725   4.152  1.00  0.00     0.074 A 
ATOM     22  C   UNL     1       6.312  -5.760   2.921  1.00  0.00     0.031 C 
ATOM     23  C   UNL     1       5.578   0.013   6.636  1.00  0.00     0.029 A 
ATOM     24  C   UNL     1       6.460  -0.998   7.203  1.00  0.00     0.049 A 
ATOM     25  H   UNL     1       6.947  -2.860   6.404  1.00  0.00     0.167 HD
ATOM     26  C   UNL     1       7.900  -6.714   4.574  1.00  0.00     0.037 A 
ATOM     27  C   UNL     1       7.103  -0.883   8.378  1.00  0.00     0.037 A 
ATOM     28  C   UNL     1       8.653  -6.673   5.805  1.00  0.00     0.049 A 
ATOM     29  C   UNL     1       7.978  -2.011   8.836  1.00  0.00     0.074 A 
ATOM     30  C   UNL     1       9.519  -7.624   6.319  1.00  0.00     0.029 A 
ATOM     31  N   UNL     1       8.626  -5.628   6.717  1.00  0.00    -0.354 N 
ATOM     32  N   UNL     1       8.250  -3.143   8.233  1.00  0.00    -0.248 NA
ATOM     33  C   UNL     1       8.638  -1.845  10.136  1.00  0.00     0.031 C 
ATOM     34  C   UNL     1       9.977  -7.176   7.562  1.00  0.00     0.029 A 
ATOM     35  C   UNL     1       9.446  -5.919   7.797  1.00  0.00     0.049 A 
ATOM     36  H   UNL     1       8.103  -4.801   6.613  1.00  0.00     0.167 HD
ATOM     37  C   UNL     1       9.124  -3.818   9.073  1.00  0.00     0.074 A 
ATOM     38  C   UNL     1       9.363  -2.951  10.209  1.00  0.00     0.031 C 
ATOM     39  C   UNL     1       9.673  -5.048   8.923  1.00  0.00     0.037 A 
BRANCH  26  40
ATOM     40  C   UNL     1       8.035  -7.934   3.705  1.00  0.00     0.057 A 
ATOM     41  C   UNL     1       8.705  -7.893   2.474  1.00  0.00     0.134 A 
ATOM     42  C   UNL     1       7.548  -9.177   4.130  1.00  0.00     0.134 A 
ATOM     43  F   UNL     1       9.190  -6.735   2.002  1.00  0.00    -0.206 F 
ATOM     44  C   UNL     1       8.868  -9.039   1.692  1.00  0.00     0.040 A 
ATOM     45  C   UNL     1       7.729 -10.334   3.369  1.00  0.00     0.040 A 
ATOM     46  F   UNL     1       6.905  -9.293   5.302  1.00  0.00    -0.206 F 
ATOM     47  C   UNL     1       8.387 -10.266   2.143  1.00  0.00     0.006 A 
ENDBRANCH  26  40
BRANCH  27  48
ATOM     48  C   UNL     1       6.910   0.329   9.214  1.00  0.00     0.057 A 
ATOM     49  C   UNL     1       7.961   1.214   9.475  1.00  0.00     0.134 A 
ATOM     50  C   UNL     1       5.663   0.623   9.783  1.00  0.00     0.134 A 
ATOM     51  F   UNL     1       9.181   0.982   8.969  1.00  0.00    -0.206 F 
ATOM     52  C   UNL     1       7.789   2.330  10.296  1.00  0.00     0.040 A 
ATOM     53  C   UNL     1       5.468   1.754  10.575  1.00  0.00     0.040 A 
ATOM     54  F   UNL     1       4.610  -0.177   9.561  1.00  0.00    -0.206 F 
ATOM     55  C   UNL     1       6.537   2.605  10.844  1.00  0.00     0.006 A 
ENDBRANCH  27  48
BRANCH  39  56
ATOM     56  C   UNL     1      10.611  -5.505  10.003  1.00  0.00     0.057 A 
ATOM     57  C   UNL     1      10.162  -5.818  11.293  1.00  0.00     0.134 A 
ATOM     58  C   UNL     1      11.983  -5.630   9.749  1.00  0.00     0.134 A 
ATOM     59  F   UNL     1       8.862  -5.705  11.607  1.00  0.00    -0.206 F 
ATOM     60  C   UNL     1      11.048  -6.198  12.302  1.00  0.00     0.040 A 
ATOM     61  C   UNL     1      12.874  -6.042  10.741  1.00  0.00     0.040 A 
ATOM     62  F   UNL     1      12.480  -5.354   8.534  1.00  0.00    -0.206 F 
ATOM     63  C   UNL     1      12.409  -6.315  12.025  1.00  0.00     0.006 A 
ENDBRANCH  39  56
ENDBRANCH  13  14
ENDBRANCH   6   8
ENDBRANCH   3   4
ENDBRANCH   2   3
ENDBRANCH   1   2
BRANCH   1  64
ATOM     64  C   UNL     1       4.753   1.844  -3.989  1.00  0.00     0.116 C 
BRANCH  64  65
ATOM     65  N   UNL     1       6.189   2.071  -3.971  1.00  0.00    -0.351 N 
ATOM     66  C   UNL     1       6.969   2.663  -4.938  1.00  0.00     0.263 C 
ATOM     67  H   UNL     1       6.663   1.762  -3.165  1.00  0.00     0.163 HD
ATOM     68  O   UNL     1       8.187   2.675  -4.769  1.00  0.00    -0.268 OA
BRANCH  66  69
ATOM     69  C   UNL     1       6.307   3.226  -6.093  1.00  0.00     0.116 A 
ATOM     70  S   UNL     1       6.657   2.523  -7.615  1.00  0.00    -0.136 S 
ATOM     71  C   UNL     1       5.383   4.258  -6.177  1.00  0.00     0.073 A 
ATOM     72  C   UNL     1       5.510   3.510  -8.396  1.00  0.00     0.068 A 
ATOM     73  C   UNL     1       4.907   4.384  -7.519  1.00  0.00     0.039 A 
BRANCH  71  74
ATOM     74  N   UNL     1       5.000   5.109  -5.109  1.00  0.00    -0.269 N 
ATOM     75  H   UNL     1       5.712   5.560  -4.600  1.00  0.00     0.181 HD
BRANCH  74  76
ATOM     76  S   UNL     1       3.404   5.395  -4.658  1.00  0.00     0.301 S 
ATOM     77  O   UNL     1       2.825   4.126  -4.288  1.00  0.00    -0.189 OA
ATOM     78  O   UNL     1       3.423   6.491  -3.715  1.00  0.00    -0.189 OA
BRANCH  76  79
ATOM     79  N   UNL     1       2.675   5.919  -6.078  1.00  0.00    -0.185 NA
ATOM     80  C   UNL     1       2.944   7.318  -6.489  1.00  0.00     0.104 C 
ATOM     81  C   UNL     1       1.204   5.697  -6.152  1.00  0.00     0.104 C 
ATOM     82  C   UNL     1       1.663   8.056  -6.147  1.00  0.00     0.018 C 
ATOM     83  C   UNL     1       0.588   7.046  -6.497  1.00  0.00     0.018 C 
ENDBRANCH  76  79
ENDBRANCH  74  76
ENDBRANCH  71  74
ENDBRANCH  66  69
ENDBRANCH  64  65
ENDBRANCH   1  64
TORSDOF 14
