REMARK SMILES O=C(NCCCCNC(=O)[C@@H]1CCCN1S(=O)(=O)c1ccc2[nH]c(=O)c(=O)[nH]c2c1)c1ccc(-c2c3nc(c(-c4c(F)cccc4F)c4ccc([nH]4)c(-c4c(F)cccc4F)c4nc(c(-c5c(F)cccc5F)c5ccc2[nH]5)C=C4)C=C3)cc1
REMARK SMILES IDX 5 1 4 2 3 3 1 4 2 5 31 7 32 8 84 9 33 10 83 11 34 12 35 13
REMARK SMILES IDX 36 14 77 15 37 16 82 17 76 18 78 19 38 20 81 21 75 22 74 23
REMARK SMILES IDX 39 25 65 26 48 27 64 28 49 29 52 30 63 31 79 32 50 33 51 34
REMARK SMILES IDX 62 36 80 37 53 38 40 39 41 40 46 41 42 42 43 43 45 44 47 45
REMARK SMILES IDX 44 46 66 47 67 48 72 49 68 50 69 51 71 52 73 53 70 54 54 55
REMARK SMILES IDX 55 56 60 57 56 58 57 59 59 60 61 61 58 62 6 63 7 64 8 65
REMARK SMILES IDX 9 66 10 68 11 69 12 70 15 71 13 72 14 73 16 74 17 75 18 76
REMARK SMILES IDX 19 77 20 78 30 79 21 80 29 81 22 82 28 83 23 84 26 85 24 87
REMARK SMILES IDX 27 89 25 90
REMARK H PARENT 3 6 78 24 52 35 8 67 28 86 23 88
REMARK Flexibility Score: inf
ROOT
ATOM      1  C   UNL     1       4.941   1.800  -1.380  1.00  0.00     0.023 C 
ENDROOT
BRANCH   1   2
ATOM      2  C   UNL     1       4.172   1.326  -0.178  1.00  0.00     0.116 C 
BRANCH   2   3
ATOM      3  N   UNL     1       2.821   0.839  -0.367  1.00  0.00    -0.352 N 
ATOM      4  O   UNL     1       0.934  -0.270   0.207  1.00  0.00    -0.269 OA
ATOM      5  C   UNL     1       2.111  -0.026   0.453  1.00  0.00     0.251 C 
ATOM      6  H   UNL     1       2.351   1.160  -1.171  1.00  0.00     0.163 HD
BRANCH   5   7
ATOM      7  C   UNL     1       2.801  -0.715   1.579  1.00  0.00     0.039 A 
ATOM      8  C   UNL     1       3.831  -0.087   2.264  1.00  0.00     0.014 A 
ATOM      9  C   UNL     1       2.498  -2.043   1.890  1.00  0.00     0.014 A 
ATOM     10  C   UNL     1       4.754  -0.843   2.956  1.00  0.00     0.010 A 
ATOM     11  C   UNL     1       3.292  -2.744   2.813  1.00  0.00     0.010 A 
ATOM     12  C   UNL     1       4.459  -2.160   3.322  1.00  0.00    -0.014 A 
BRANCH  12  13
ATOM     13  C   UNL     1       5.365  -2.804   4.312  1.00  0.00     0.031 A 
ATOM     14  C   UNL     1       6.046  -4.115   4.040  1.00  0.00     0.074 A 
ATOM     15  C   UNL     1       5.644  -2.115   5.442  1.00  0.00     0.049 A 
ATOM     16  N   UNL     1       6.894  -4.765   4.800  1.00  0.00    -0.248 NA
ATOM     17  C   UNL     1       5.734  -4.795   2.775  1.00  0.00     0.031 C 
ATOM     18  C   UNL     1       5.029  -0.834   5.822  1.00  0.00     0.029 A 
ATOM     19  N   UNL     1       6.547  -2.344   6.447  1.00  0.00    -0.354 N 
ATOM     20  C   UNL     1       7.202  -5.933   4.113  1.00  0.00     0.074 A 
ATOM     21  C   UNL     1       6.430  -5.918   2.890  1.00  0.00     0.031 C 
ATOM     22  C   UNL     1       5.651  -0.340   6.897  1.00  0.00     0.029 A 
ATOM     23  C   UNL     1       6.600  -1.331   7.375  1.00  0.00     0.049 A 
ATOM     24  H   UNL     1       7.104  -3.154   6.499  1.00  0.00     0.167 HD
ATOM     25  C   UNL     1       8.056  -6.921   4.472  1.00  0.00     0.037 A 
ATOM     26  C   UNL     1       7.295  -1.220   8.521  1.00  0.00     0.037 A 
ATOM     27  C   UNL     1       8.821  -6.922   5.695  1.00  0.00     0.049 A 
ATOM     28  C   UNL     1       8.192  -2.352   8.911  1.00  0.00     0.074 A 
ATOM     29  C   UNL     1       9.695  -7.886   6.167  1.00  0.00     0.029 A 
ATOM     30  N   UNL     1       8.801  -5.905   6.640  1.00  0.00    -0.354 N 
ATOM     31  N   UNL     1       8.456  -3.456   8.258  1.00  0.00    -0.248 NA
ATOM     32  C   UNL     1       8.875  -2.232  10.203  1.00  0.00     0.031 C 
ATOM     33  C   UNL     1      10.168  -7.473   7.418  1.00  0.00     0.029 A 
ATOM     34  C   UNL     1       9.636  -6.226   7.700  1.00  0.00     0.049 A 
ATOM     35  H   UNL     1       8.273  -5.078   6.568  1.00  0.00     0.167 HD
ATOM     36  C   UNL     1       9.337  -4.166   9.056  1.00  0.00     0.074 A 
ATOM     37  C   UNL     1       9.595  -3.344  10.222  1.00  0.00     0.031 C 
ATOM     38  C   UNL     1       9.874  -5.393   8.852  1.00  0.00     0.037 A 
BRANCH  25  39
ATOM     39  C   UNL     1       8.190  -8.098   3.547  1.00  0.00     0.057 A 
ATOM     40  C   UNL     1       8.852  -8.002   2.316  1.00  0.00     0.134 A 
ATOM     41  C   UNL     1       7.689  -9.355   3.911  1.00  0.00     0.134 A 
ATOM     42  F   UNL     1       9.355  -6.829   1.903  1.00  0.00    -0.206 F 
ATOM     43  C   UNL     1       8.991  -9.107   1.472  1.00  0.00     0.040 A 
ATOM     44  C   UNL     1       7.846 -10.473   3.089  1.00  0.00     0.040 A 
ATOM     45  F   UNL     1       7.054  -9.523   5.081  1.00  0.00    -0.206 F 
ATOM     46  C   UNL     1       8.494 -10.349   1.862  1.00  0.00     0.006 A 
ENDBRANCH  25  39
BRANCH  26  47
ATOM     47  C   UNL     1       7.104  -0.036   9.398  1.00  0.00     0.057 A 
ATOM     48  C   UNL     1       8.144   0.862   9.656  1.00  0.00     0.134 A 
ATOM     49  C   UNL     1       5.865   0.227  10.001  1.00  0.00     0.134 A 
ATOM     50  F   UNL     1       9.358   0.662   9.121  1.00  0.00    -0.206 F 
ATOM     51  C   UNL     1       7.967   1.964  10.495  1.00  0.00     0.040 A 
ATOM     52  C   UNL     1       5.663   1.345  10.808  1.00  0.00     0.040 A 
ATOM     53  F   UNL     1       4.820  -0.587   9.787  1.00  0.00    -0.206 F 
ATOM     54  C   UNL     1       6.721   2.211  11.068  1.00  0.00     0.006 A 
ENDBRANCH  26  47
BRANCH  38  55
ATOM     55  C   UNL     1      10.817  -5.890   9.906  1.00  0.00     0.057 A 
ATOM     56  C   UNL     1      10.371  -6.265  11.180  1.00  0.00     0.134 A 
ATOM     57  C   UNL     1      12.189  -5.984   9.645  1.00  0.00     0.134 A 
ATOM     58  F   UNL     1       9.070  -6.178  11.499  1.00  0.00    -0.206 F 
ATOM     59  C   UNL     1      11.262  -6.678  12.171  1.00  0.00     0.040 A 
ATOM     60  C   UNL     1      13.086  -6.428  10.617  1.00  0.00     0.040 A 
ATOM     61  F   UNL     1      12.680  -5.646   8.444  1.00  0.00    -0.206 F 
ATOM     62  C   UNL     1      12.624  -6.765  11.888  1.00  0.00     0.006 A 
ENDBRANCH  38  55
ENDBRANCH  12  13
ENDBRANCH   5   7
ENDBRANCH   2   3
ENDBRANCH   1   2
BRANCH   1  63
ATOM     63  C   UNL     1       4.201   2.772  -2.276  1.00  0.00     0.023 C 
BRANCH  63  64
ATOM     64  C   UNL     1       5.120   3.840  -2.863  1.00  0.00     0.116 C 
BRANCH  64  65
ATOM     65  N   UNL     1       6.468   3.373  -3.157  1.00  0.00    -0.355 N 
ATOM     66  C   UNL     1       7.123   3.213  -4.336  1.00  0.00     0.238 C 
ATOM     67  H   UNL     1       6.996   3.132  -2.362  1.00  0.00     0.163 HD
ATOM     68  O   UNL     1       8.320   2.916  -4.291  1.00  0.00    -0.273 OA
BRANCH  66  69
ATOM     69  C   UNL     1       6.432   3.446  -5.660  1.00  0.00     0.162 C 
ATOM     70  C   UNL     1       6.314   4.961  -5.858  1.00  0.00     0.032 C 
ATOM     71  N   UNL     1       5.033   2.961  -5.767  1.00  0.00    -0.185 NA
ATOM     72  C   UNL     1       5.280   5.082  -6.948  1.00  0.00     0.019 C 
ATOM     73  C   UNL     1       4.344   3.896  -6.728  1.00  0.00     0.103 C 
BRANCH  71  74
ATOM     74  S   UNL     1       4.650   1.329  -6.070  1.00  0.00     0.243 S 
ATOM     75  O   UNL     1       3.212   1.252  -5.877  1.00  0.00    -0.207 OA
ATOM     76  O   UNL     1       5.241   0.961  -7.336  1.00  0.00    -0.207 OA
BRANCH  74  77
ATOM     77  C   UNL     1       5.370   0.262  -4.835  1.00  0.00     0.084 A 
ATOM     78  C   UNL     1       6.755   0.187  -4.679  1.00  0.00     0.024 A 
ATOM     79  C   UNL     1       4.541  -0.601  -4.094  1.00  0.00     0.050 A 
ATOM     80  C   UNL     1       7.311  -0.617  -3.677  1.00  0.00     0.030 A 
ATOM     81  C   UNL     1       5.103  -1.441  -3.127  1.00  0.00     0.066 A 
ATOM     82  C   UNL     1       6.482  -1.417  -2.892  1.00  0.00     0.065 A 
ATOM     83  N   UNL     1       4.284  -2.277  -2.359  1.00  0.00    -0.316 N 
ATOM     84  N   UNL     1       7.028  -2.174  -1.853  1.00  0.00    -0.316 N 
ATOM     85  C   UNL     1       4.761  -3.075  -1.339  1.00  0.00     0.314 A 
ATOM     86  H   UNL     1       3.320  -2.297  -2.556  1.00  0.00     0.170 HD
ATOM     87  C   UNL     1       6.275  -2.984  -1.033  1.00  0.00     0.314 A 
ATOM     88  H   UNL     1       8.000  -2.126  -1.700  1.00  0.00     0.170 HD
ATOM     89  O   UNL     1       4.032  -3.816  -0.694  1.00  0.00    -0.263 OA
ATOM     90  O   UNL     1       6.772  -3.601  -0.102  1.00  0.00    -0.263 OA
ENDBRANCH  74  77
ENDBRANCH  71  74
ENDBRANCH  66  69
ENDBRANCH  64  65
ENDBRANCH  63  64
ENDBRANCH   1  63
TORSDOF 13
