REMARK SMILES COc1cccc(NC(=O)[C@@H]2[C@@H](C(=O)NCCCCNC(=O)c3ccc(-c4c5nc(c(-c6c(F)cccc6F)c6ccc([nH]6)c(-c6c(F)cccc6F)c6nc(c(-c7c(F)cccc7F)c7ccc4[nH]7)C=C6)C=C5)cc3)[C@H]3C=C[C@@H]2C3)c1
REMARK SMILES IDX 17 1 16 2 15 3 13 4 14 5 12 7 11 8 80 9 77 10 79 11 81 12
REMARK SMILES IDX 78 13 9 14 8 15 10 17 7 18 3 19 4 20 82 21 5 22 6 23 2 24
REMARK SMILES IDX 1 25 18 26 19 27 20 28 21 29 22 31 23 32 24 33 76 34 25 35
REMARK SMILES IDX 75 36 26 37 27 38 28 39 69 40 29 41 74 42 68 43 70 44 30 45
REMARK SMILES IDX 73 46 67 47 66 48 31 50 57 51 40 52 56 53 41 54 44 55 55 56
REMARK SMILES IDX 71 57 42 58 43 59 54 61 72 62 45 63 32 64 33 65 38 66 34 67
REMARK SMILES IDX 35 68 37 69 39 70 36 71 58 72 59 73 64 74 60 75 61 76 63 77
REMARK SMILES IDX 65 78 62 79 46 80 47 81 52 82 48 83 49 84 51 85 53 86 50 87
REMARK H PARENT 15 6 8 16 20 30 70 49 44 60
REMARK Flexibility Score: inf
ROOT
ATOM      1  C   UNL     1       6.106   1.706  -8.366  1.00  0.00     0.023 C 
ENDROOT
BRANCH   1   2
ATOM      2  C   UNL     1       6.122   3.075  -7.694  1.00  0.00     0.116 C 
BRANCH   2   3
ATOM      3  N   UNL     1       5.226   4.007  -8.328  1.00  0.00    -0.356 N 
ATOM      4  C   UNL     1       4.078   4.570  -7.888  1.00  0.00     0.224 C 
ATOM      5  O   UNL     1       3.686   5.539  -8.550  1.00  0.00    -0.275 OA
ATOM      6  H   UNL     1       5.494   4.280  -9.235  1.00  0.00     0.163 HD
BRANCH   4   7
ATOM      7  C   UNL     1       3.349   4.130  -6.609  1.00  0.00     0.098 C 
ATOM      8  C   UNL     1       3.122   2.586  -6.320  1.00  0.00     0.099 C 
ATOM      9  C   UNL     1       1.618   2.446  -6.494  1.00  0.00     0.025 C 
ATOM     10  C   UNL     1       1.870   4.652  -6.693  1.00  0.00     0.025 C 
ATOM     11  C   UNL     1       1.163   2.819  -7.882  1.00  0.00    -0.027 C 
ATOM     12  C   UNL     1       1.151   3.707  -5.742  1.00  0.00     0.017 C 
ATOM     13  C   UNL     1       1.238   4.151  -7.975  1.00  0.00    -0.027 C 
BRANCH   8  14
ATOM     14  C   UNL     1       3.709   2.205  -4.937  1.00  0.00     0.228 C 
ATOM     15  N   UNL     1       3.216   1.449  -3.925  1.00  0.00    -0.326 N 
ATOM     16  H   UNL     1       3.953   1.238  -3.308  1.00  0.00     0.169 HD
ATOM     17  O   UNL     1       4.878   2.569  -4.704  1.00  0.00    -0.274 OA
BRANCH  15  18
ATOM     18  C   UNL     1       2.036   0.852  -3.431  1.00  0.00     0.044 A 
ATOM     19  C   UNL     1       1.064  -0.551  -1.687  1.00  0.00     0.120 A 
ATOM     20  C   UNL     1      -0.201  -0.457  -2.248  1.00  0.00     0.046 A 
ATOM     21  C   UNL     1       2.180   0.042  -2.293  1.00  0.00     0.072 A 
ATOM     22  C   UNL     1      -0.367   0.366  -3.341  1.00  0.00     0.006 A 
ATOM     23  C   UNL     1       0.733   1.050  -3.871  1.00  0.00     0.026 A 
BRANCH  19  24
ATOM     24  O   UNL     1       1.191  -1.189  -0.484  1.00  0.00    -0.497 OA
ATOM     25  C   UNL     1       1.109  -0.214   0.564  1.00  0.00     0.278 C 
ENDBRANCH  19  24
ENDBRANCH  15  18
ENDBRANCH   8  14
ENDBRANCH   4   7
ENDBRANCH   2   3
ENDBRANCH   1   2
BRANCH   1  26
ATOM     26  C   UNL     1       6.550   1.711  -9.829  1.00  0.00     0.023 C 
BRANCH  26  27
ATOM     27  C   UNL     1       7.889   2.384 -10.084  1.00  0.00     0.116 C 
BRANCH  27  28
ATOM     28  N   UNL     1       8.970   1.801  -9.306  1.00  0.00    -0.352 N 
ATOM     29  C   UNL     1      10.257   1.528  -9.703  1.00  0.00     0.251 C 
ATOM     30  H   UNL     1       8.752   1.571  -8.374  1.00  0.00     0.163 HD
ATOM     31  O   UNL     1      11.015   0.902  -8.978  1.00  0.00    -0.269 OA
BRANCH  29  32
ATOM     32  C   UNL     1      10.702   1.980 -11.037  1.00  0.00     0.039 A 
ATOM     33  C   UNL     1      11.383   1.082 -11.860  1.00  0.00     0.014 A 
ATOM     34  C   UNL     1      10.420   3.275 -11.479  1.00  0.00     0.014 A 
ATOM     35  C   UNL     1      11.747   1.475 -13.148  1.00  0.00     0.010 A 
ATOM     36  C   UNL     1      10.698   3.631 -12.792  1.00  0.00     0.010 A 
ATOM     37  C   UNL     1      11.386   2.744 -13.632  1.00  0.00    -0.014 A 
BRANCH  37  38
ATOM     38  C   UNL     1      11.766   3.178 -14.999  1.00  0.00     0.031 A 
ATOM     39  C   UNL     1      12.693   4.349 -15.179  1.00  0.00     0.074 A 
ATOM     40  C   UNL     1      11.249   2.549 -16.071  1.00  0.00     0.049 A 
ATOM     41  N   UNL     1      13.121   4.904 -16.285  1.00  0.00    -0.248 NA
ATOM     42  C   UNL     1      13.181   5.004 -13.954  1.00  0.00     0.031 C 
ATOM     43  C   UNL     1      10.301   1.434 -16.026  1.00  0.00     0.029 A 
ATOM     44  N   UNL     1      11.449   2.761 -17.412  1.00  0.00    -0.354 N 
ATOM     45  C   UNL     1      13.912   5.974 -15.888  1.00  0.00     0.074 A 
ATOM     46  C   UNL     1      13.849   6.036 -14.445  1.00  0.00     0.031 C 
ATOM     47  C   UNL     1      10.027   1.039 -17.280  1.00  0.00     0.029 A 
ATOM     48  C   UNL     1      10.751   1.894 -18.216  1.00  0.00     0.049 A 
ATOM     49  H   UNL     1      12.037   3.467 -17.763  1.00  0.00     0.167 HD
ATOM     50  C   UNL     1      14.650   6.812 -16.653  1.00  0.00     0.037 A 
ATOM     51  C   UNL     1      10.702   1.801 -19.558  1.00  0.00     0.037 A 
ATOM     52  C   UNL     1      14.727   6.733 -18.087  1.00  0.00     0.049 A 
ATOM     53  C   UNL     1      11.532   2.744 -20.387  1.00  0.00     0.074 A 
ATOM     54  C   UNL     1      15.481   7.503 -18.954  1.00  0.00     0.029 A 
ATOM     55  N   UNL     1      14.021   5.828 -18.865  1.00  0.00    -0.354 N 
ATOM     56  N   UNL     1      12.329   3.709 -19.997  1.00  0.00    -0.248 NA
ATOM     57  C   UNL     1      11.466   2.572 -21.845  1.00  0.00     0.031 C 
ATOM     58  C   UNL     1      15.194   7.096 -20.261  1.00  0.00     0.029 A 
ATOM     59  C   UNL     1      14.311   6.030 -20.205  1.00  0.00     0.049 A 
ATOM     60  H   UNL     1      13.406   5.143 -18.517  1.00  0.00     0.167 HD
ATOM     61  C   UNL     1      12.890   4.232 -21.155  1.00  0.00     0.074 A 
ATOM     62  C   UNL     1      12.350   3.468 -22.260  1.00  0.00     0.031 C 
ATOM     63  C   UNL     1      13.776   5.250 -21.292  1.00  0.00     0.037 A 
BRANCH  50  64
ATOM     64  C   UNL     1      15.434   7.882 -15.947  1.00  0.00     0.057 A 
ATOM     65  C   UNL     1      16.532   7.579 -15.128  1.00  0.00     0.134 A 
ATOM     66  C   UNL     1      15.101   9.233 -16.101  1.00  0.00     0.134 A 
ATOM     67  F   UNL     1      16.897   6.304 -14.924  1.00  0.00    -0.206 F 
ATOM     68  C   UNL     1      17.247   8.577 -14.464  1.00  0.00     0.040 A 
ATOM     69  C   UNL     1      15.830  10.243 -15.469  1.00  0.00     0.040 A 
ATOM     70  F   UNL     1      14.066   9.597 -16.873  1.00  0.00    -0.206 F 
ATOM     71  C   UNL     1      16.901   9.915 -14.640  1.00  0.00     0.006 A 
ENDBRANCH  50  64
BRANCH  51  72
ATOM     72  C   UNL     1       9.868   0.756 -20.205  1.00  0.00     0.057 A 
ATOM     73  C   UNL     1      10.453  -0.314 -20.893  1.00  0.00     0.134 A 
ATOM     74  C   UNL     1       8.470   0.809 -20.169  1.00  0.00     0.134 A 
ATOM     75  F   UNL     1      11.788  -0.413 -20.978  1.00  0.00    -0.206 F 
ATOM     76  C   UNL     1       9.680  -1.276 -21.545  1.00  0.00     0.040 A 
ATOM     77  C   UNL     1       7.684  -0.162 -20.792  1.00  0.00     0.040 A 
ATOM     78  F   UNL     1       7.846   1.803 -19.518  1.00  0.00    -0.206 F 
ATOM     79  C   UNL     1       8.290  -1.203 -21.492  1.00  0.00     0.006 A 
ENDBRANCH  51  72
BRANCH  63  80
ATOM     80  C   UNL     1      14.264   5.553 -22.680  1.00  0.00     0.057 A 
ATOM     81  C   UNL     1      13.437   6.121 -23.657  1.00  0.00     0.134 A 
ATOM     82  C   UNL     1      15.594   5.290 -23.033  1.00  0.00     0.134 A 
ATOM     83  F   UNL     1      12.150   6.388 -23.388  1.00  0.00    -0.206 F 
ATOM     84  C   UNL     1      13.905   6.381 -24.946  1.00  0.00     0.040 A 
ATOM     85  C   UNL     1      16.083   5.577 -24.308  1.00  0.00     0.040 A 
ATOM     86  F   UNL     1      16.445   4.758 -22.142  1.00  0.00    -0.206 F 
ATOM     87  C   UNL     1      15.233   6.115 -25.273  1.00  0.00     0.006 A 
ENDBRANCH  63  80
ENDBRANCH  37  38
ENDBRANCH  29  32
ENDBRANCH  27  28
ENDBRANCH  26  27
ENDBRANCH   1  26
TORSDOF 14
