REMARK SMILES COc1cccc2cc(/C=C/c3cc(C(=O)NCCCCNC(=O)c4ccc(-c5c6nc(c(-c7c(F)cccc7F)c7ccc([nH]7)c(-c7c(F)cccc7F)c7nc(c(-c8c(F)cccc8F)c8ccc5[nH]8)C=C7)C=C6)cc4)ncn3)oc12
REMARK SMILES IDX 19 1 18 2 17 3 15 4 16 5 14 7 12 8 13 9 81 10 80 11 79 12
REMARK SMILES IDX 11 13 10 14 9 15 3 16 4 17 83 18 5 19 7 20 82 21 6 22 8 23
REMARK SMILES IDX 2 24 1 25 20 26 21 27 22 28 23 29 24 31 25 32 26 33 78 34
REMARK SMILES IDX 27 35 77 36 28 37 29 38 30 39 71 40 31 41 76 42 70 43 72 44
REMARK SMILES IDX 32 45 75 46 69 47 68 48 33 50 59 51 42 52 58 53 43 54 46 55
REMARK SMILES IDX 57 56 73 57 44 58 45 59 56 61 74 62 47 63 34 64 35 65 40 66
REMARK SMILES IDX 36 67 37 68 39 69 41 70 38 71 60 72 61 73 66 74 62 75 63 76
REMARK SMILES IDX 65 77 67 78 64 79 48 80 49 81 54 82 50 83 51 84 53 85 55 86
REMARK SMILES IDX 52 87
REMARK H PARENT 17 6 22 30 72 49 46 60
REMARK Flexibility Score: inf
ROOT
ATOM      1  C   UNL     1      -6.275   3.785  -1.152  1.00  0.00     0.023 C 
ENDROOT
BRANCH   1   2
ATOM      2  C   UNL     1      -7.011   2.679  -1.915  1.00  0.00     0.116 C 
BRANCH   2   3
ATOM      3  N   UNL     1      -8.173   3.214  -2.599  1.00  0.00    -0.351 N 
ATOM      4  C   UNL     1      -8.374   3.645  -3.894  1.00  0.00     0.270 C 
ATOM      5  O   UNL     1      -9.507   4.036  -4.177  1.00  0.00    -0.268 OA
ATOM      6  H   UNL     1      -8.973   3.284  -2.029  1.00  0.00     0.163 HD
BRANCH   4   7
ATOM      7  C   UNL     1      -7.303   3.621  -4.951  1.00  0.00     0.132 A 
ATOM      8  C   UNL     1      -5.094   3.538  -5.718  1.00  0.00     0.067 A 
ATOM      9  C   UNL     1      -5.964   3.719  -4.665  1.00  0.00     0.062 A 
ATOM     10  N   UNL     1      -5.501   3.430  -6.991  1.00  0.00    -0.237 NA
ATOM     11  C   UNL     1      -6.827   3.430  -7.178  1.00  0.00     0.223 A 
ATOM     12  N   UNL     1      -7.756   3.493  -6.218  1.00  0.00    -0.231 NA
BRANCH   8  13
ATOM     13  C   UNL     1      -3.651   3.440  -5.484  1.00  0.00     0.032 C 
ATOM     14  C   UNL     1      -3.153   2.607  -4.554  1.00  0.00     0.049 C 
BRANCH  14  15
ATOM     15  C   UNL     1      -1.769   2.498  -4.254  1.00  0.00     0.128 A 
ATOM     16  C   UNL     1       0.865   0.982  -2.348  1.00  0.00     0.162 A 
ATOM     17  C   UNL     1       2.232   1.287  -2.399  1.00  0.00     0.050 A 
ATOM     18  C   UNL     1       0.036   1.718  -3.202  1.00  0.00     0.176 A 
ATOM     19  C   UNL     1       2.719   2.295  -3.238  1.00  0.00     0.005 A 
ATOM     20  C   UNL     1       0.487   2.717  -4.050  1.00  0.00     0.025 A 
ATOM     21  O   UNL     1      -1.314   1.588  -3.323  1.00  0.00    -0.453 OA
ATOM     22  C   UNL     1       1.858   3.023  -4.069  1.00  0.00     0.012 A 
ATOM     23  C   UNL     1      -0.665   3.200  -4.723  1.00  0.00     0.059 A 
BRANCH  16  24
ATOM     24  O   UNL     1       0.341  -0.019  -1.574  1.00  0.00    -0.493 OA
ATOM     25  C   UNL     1       0.808  -0.002  -0.227  1.00  0.00     0.278 C 
ENDBRANCH  16  24
ENDBRANCH  14  15
ENDBRANCH   8  13
ENDBRANCH   4   7
ENDBRANCH   2   3
ENDBRANCH   1   2
BRANCH   1  26
ATOM     26  C   UNL     1      -6.880   4.114   0.214  1.00  0.00     0.023 C 
BRANCH  26  27
ATOM     27  C   UNL     1      -6.789   2.989   1.239  1.00  0.00     0.116 C 
BRANCH  27  28
ATOM     28  N   UNL     1      -5.423   2.572   1.518  1.00  0.00    -0.352 N 
ATOM     29  C   UNL     1      -4.912   2.051   2.684  1.00  0.00     0.251 C 
ATOM     30  H   UNL     1      -4.784   2.675   0.777  1.00  0.00     0.163 HD
ATOM     31  O   UNL     1      -3.713   1.839   2.799  1.00  0.00    -0.269 OA
BRANCH  29  32
ATOM     32  C   UNL     1      -5.824   1.797   3.818  1.00  0.00     0.039 A 
ATOM     33  C   UNL     1      -5.484   2.301   5.075  1.00  0.00     0.014 A 
ATOM     34  C   UNL     1      -7.022   1.101   3.633  1.00  0.00     0.014 A 
ATOM     35  C   UNL     1      -6.381   2.168   6.136  1.00  0.00     0.010 A 
ATOM     36  C   UNL     1      -7.943   1.028   4.673  1.00  0.00     0.010 A 
ATOM     37  C   UNL     1      -7.633   1.563   5.932  1.00  0.00    -0.014 A 
BRANCH  37  38
ATOM     38  C   UNL     1      -8.636   1.495   7.021  1.00  0.00     0.031 A 
ATOM     39  C   UNL     1      -9.061   0.165   7.575  1.00  0.00     0.074 A 
ATOM     40  C   UNL     1      -9.217   2.628   7.460  1.00  0.00     0.049 A 
ATOM     41  N   UNL     1      -9.972  -0.101   8.476  1.00  0.00    -0.248 NA
ATOM     42  C   UNL     1      -8.393  -1.025   7.024  1.00  0.00     0.031 C 
ATOM     43  C   UNL     1      -8.932   3.975   6.960  1.00  0.00     0.029 A 
ATOM     44  N   UNL     1     -10.180   2.827   8.417  1.00  0.00    -0.354 N 
ATOM     45  C   UNL     1     -10.002  -1.485   8.585  1.00  0.00     0.074 A 
ATOM     46  C   UNL     1      -9.049  -2.006   7.628  1.00  0.00     0.031 C 
ATOM     47  C   UNL     1      -9.688   4.861   7.627  1.00  0.00     0.029 A 
ATOM     48  C   UNL     1     -10.533   4.144   8.578  1.00  0.00     0.049 A 
ATOM     49  H   UNL     1     -10.579   2.094   8.939  1.00  0.00     0.167 HD
ATOM     50  C   UNL     1     -10.741  -2.250   9.421  1.00  0.00     0.037 A 
ATOM     51  C   UNL     1     -11.438   4.710   9.397  1.00  0.00     0.037 A 
ATOM     52  C   UNL     1     -11.662  -1.728  10.395  1.00  0.00     0.049 A 
ATOM     53  C   UNL     1     -12.227   3.841  10.335  1.00  0.00     0.074 A 
ATOM     54  C   UNL     1     -12.404  -2.420  11.337  1.00  0.00     0.029 A 
ATOM     55  N   UNL     1     -11.966  -0.385  10.553  1.00  0.00    -0.354 N 
ATOM     56  N   UNL     1     -12.195   2.538  10.476  1.00  0.00    -0.248 NA
ATOM     57  C   UNL     1     -13.171   4.520  11.234  1.00  0.00     0.031 C 
ATOM     58  C   UNL     1     -13.185  -1.497  12.041  1.00  0.00     0.029 A 
ATOM     59  C   UNL     1     -12.897  -0.228  11.566  1.00  0.00     0.049 A 
ATOM     60  H   UNL     1     -11.578   0.349  10.023  1.00  0.00     0.167 HD
ATOM     61  C   UNL     1     -13.095   2.243  11.491  1.00  0.00     0.074 A 
ATOM     62  C   UNL     1     -13.647   3.504  11.941  1.00  0.00     0.031 C 
ATOM     63  C   UNL     1     -13.433   1.035  12.004  1.00  0.00     0.037 A 
BRANCH  50  64
ATOM     64  C   UNL     1     -10.577  -3.738   9.324  1.00  0.00     0.057 A 
ATOM     65  C   UNL     1      -9.416  -4.383   9.773  1.00  0.00     0.134 A 
ATOM     66  C   UNL     1     -11.605  -4.539   8.812  1.00  0.00     0.134 A 
ATOM     67  F   UNL     1      -8.389  -3.671  10.261  1.00  0.00    -0.206 F 
ATOM     68  C   UNL     1      -9.276  -5.769   9.695  1.00  0.00     0.040 A 
ATOM     69  C   UNL     1     -11.486  -5.929   8.753  1.00  0.00     0.040 A 
ATOM     70  F   UNL     1     -12.744  -3.986   8.370  1.00  0.00    -0.206 F 
ATOM     71  C   UNL     1     -10.316  -6.547   9.191  1.00  0.00     0.006 A 
ENDBRANCH  50  64
BRANCH  51  72
ATOM     72  C   UNL     1     -11.626   6.182   9.386  1.00  0.00     0.057 A 
ATOM     73  C   UNL     1     -11.169   6.974  10.446  1.00  0.00     0.134 A 
ATOM     74  C   UNL     1     -12.255   6.831   8.318  1.00  0.00     0.134 A 
ATOM     75  F   UNL     1     -10.574   6.406  11.505  1.00  0.00    -0.206 F 
ATOM     76  C   UNL     1     -11.345   8.359  10.451  1.00  0.00     0.040 A 
ATOM     77  C   UNL     1     -12.418   8.217   8.300  1.00  0.00     0.040 A 
ATOM     78  F   UNL     1     -12.706   6.127   7.269  1.00  0.00    -0.206 F 
ATOM     79  C   UNL     1     -11.967   8.984   9.372  1.00  0.00     0.006 A 
ENDBRANCH  51  72
BRANCH  63  80
ATOM     80  C   UNL     1     -14.426   1.021  13.128  1.00  0.00     0.057 A 
ATOM     81  C   UNL     1     -15.789   1.259  12.911  1.00  0.00     0.134 A 
ATOM     82  C   UNL     1     -14.020   0.721  14.434  1.00  0.00     0.134 A 
ATOM     83  F   UNL     1     -16.238   1.564  11.684  1.00  0.00    -0.206 F 
ATOM     84  C   UNL     1     -16.710   1.217  13.958  1.00  0.00     0.040 A 
ATOM     85  C   UNL     1     -14.935   0.653  15.484  1.00  0.00     0.040 A 
ATOM     86  F   UNL     1     -12.729   0.475  14.707  1.00  0.00    -0.206 F 
ATOM     87  C   UNL     1     -16.285   0.906  15.248  1.00  0.00     0.006 A 
ENDBRANCH  63  80
ENDBRANCH  37  38
ENDBRANCH  29  32
ENDBRANCH  27  28
ENDBRANCH  26  27
ENDBRANCH   1  26
TORSDOF 14
