REMARK SMILES CC1(C)[C@H](C(=O)Nc2ccccc2C(N)=O)[C@@H]1C(=O)NCCCCNC(=O)c1ccc(-c2c3nc(c(-c4c(F)cccc4F)c4ccc([nH]4)c(-c4c(F)cccc4F)c4nc(c(-c5c(F)cccc5F)c5ccc2[nH]5)C=C4)C=C3)cc1
REMARK SMILES IDX 22 1 21 2 20 3 18 4 19 5 17 7 1 8 2 9 3 10 4 11 5 12 6 13
REMARK SMILES IDX 7 14 8 16 9 17 13 18 10 19 12 20 11 21 14 22 15 23 16 24
REMARK SMILES IDX 23 27 24 28 25 29 26 30 27 32 28 33 29 34 81 35 30 36 80 37
REMARK SMILES IDX 31 38 32 39 33 40 74 41 34 42 79 43 73 44 75 45 35 46 78 47
REMARK SMILES IDX 72 48 71 49 36 51 62 52 45 53 61 54 46 55 49 56 60 57 76 58
REMARK SMILES IDX 47 59 48 60 59 62 77 63 50 64 37 65 38 66 43 67 39 68 40 69
REMARK SMILES IDX 42 70 44 71 41 72 63 73 64 74 69 75 65 76 66 77 68 78 70 79
REMARK SMILES IDX 67 80 51 81 52 82 57 83 53 84 54 85 56 86 58 87 55 88
REMARK H PARENT 20 6 7 15 15 25 15 26 25 31 75 50 49 61
REMARK Flexibility Score: inf
ROOT
ATOM      1  C   UNL     1      -5.537   0.779   0.572  1.00  0.00     0.023 C 
ENDROOT
BRANCH   1   2
ATOM      2  C   UNL     1      -4.078   0.844   0.146  1.00  0.00     0.116 C 
BRANCH   2   3
ATOM      3  N   UNL     1      -3.209   1.163   1.253  1.00  0.00    -0.356 N 
ATOM      4  C   UNL     1      -2.034   0.569   1.605  1.00  0.00     0.224 C 
ATOM      5  O   UNL     1      -1.558   0.825   2.706  1.00  0.00    -0.275 OA
ATOM      6  H   UNL     1      -3.502   1.906   1.828  1.00  0.00     0.163 HD
BRANCH   4   7
ATOM      7  C   UNL     1      -1.381  -0.424   0.697  1.00  0.00     0.098 C 
ATOM      8  C   UNL     1       0.941  -1.606   0.333  1.00  0.00     0.013 C 
ATOM      9  C   UNL     1       0.135  -0.318   0.460  1.00  0.00    -0.011 C 
ATOM     10  C   UNL     1       0.869   0.691   1.299  1.00  0.00     0.013 C 
ATOM     11  C   UNL     1      -0.830  -0.122  -0.692  1.00  0.00     0.098 C 
BRANCH  11  12
ATOM     12  C   UNL     1      -1.475   0.917  -1.533  1.00  0.00     0.228 C 
ATOM     13  O   UNL     1      -2.307   0.505  -2.350  1.00  0.00    -0.274 OA
ATOM     14  N   UNL     1      -1.395   2.271  -1.407  1.00  0.00    -0.325 N 
ATOM     15  H   UNL     1      -2.083   2.760  -1.914  1.00  0.00     0.169 HD
BRANCH  14  16
ATOM     16  C   UNL     1      -0.527   3.093  -0.702  1.00  0.00     0.053 A 
ATOM     17  C   UNL     1      -1.154   4.074   0.079  1.00  0.00     0.027 A 
ATOM     18  C   UNL     1       0.872   3.010  -0.748  1.00  0.00     0.063 A 
ATOM     19  C   UNL     1      -0.407   4.867   0.942  1.00  0.00     0.002 A 
ATOM     20  C   UNL     1       1.618   3.830   0.115  1.00  0.00     0.016 A 
ATOM     21  C   UNL     1       0.976   4.725   0.980  1.00  0.00     0.001 A 
BRANCH  18  22
ATOM     22  C   UNL     1       1.558   2.145  -1.752  1.00  0.00     0.250 C 
ATOM     23  N   UNL     1       2.785   1.635  -1.427  1.00  0.00    -0.366 N 
ATOM     24  O   UNL     1       1.064   1.884  -2.841  1.00  0.00    -0.269 OA
ATOM     25  H   UNL     1       3.188   1.841  -0.553  1.00  0.00     0.159 HD
ATOM     26  H   UNL     1       3.265   1.062  -2.068  1.00  0.00     0.159 HD
ENDBRANCH  18  22
ENDBRANCH  14  16
ENDBRANCH  11  12
ENDBRANCH   4   7
ENDBRANCH   2   3
ENDBRANCH   1   2
BRANCH   1  27
ATOM     27  C   UNL     1      -6.099   2.084   1.139  1.00  0.00     0.023 C 
BRANCH  27  28
ATOM     28  C   UNL     1      -5.855   3.326   0.291  1.00  0.00     0.116 C 
BRANCH  28  29
ATOM     29  N   UNL     1      -6.397   3.211  -1.053  1.00  0.00    -0.352 N 
ATOM     30  C   UNL     1      -7.340   3.983  -1.685  1.00  0.00     0.251 C 
ATOM     31  H   UNL     1      -6.035   2.468  -1.589  1.00  0.00     0.163 HD
ATOM     32  O   UNL     1      -7.803   3.631  -2.764  1.00  0.00    -0.269 OA
BRANCH  30  33
ATOM     33  C   UNL     1      -7.812   5.234  -1.055  1.00  0.00     0.039 A 
ATOM     34  C   UNL     1      -9.179   5.523  -1.070  1.00  0.00     0.014 A 
ATOM     35  C   UNL     1      -6.913   6.127  -0.466  1.00  0.00     0.014 A 
ATOM     36  C   UNL     1      -9.646   6.687  -0.457  1.00  0.00     0.010 A 
ATOM     37  C   UNL     1      -7.389   7.233   0.229  1.00  0.00     0.010 A 
ATOM     38  C   UNL     1      -8.757   7.541   0.218  1.00  0.00    -0.014 A 
BRANCH  38  39
ATOM     39  C   UNL     1      -9.237   8.791   0.860  1.00  0.00     0.031 A 
ATOM     40  C   UNL     1      -8.745  10.125   0.363  1.00  0.00     0.074 A 
ATOM     41  C   UNL     1     -10.085   8.732   1.905  1.00  0.00     0.049 A 
ATOM     42  N   UNL     1      -9.022  11.327   0.802  1.00  0.00    -0.248 NA
ATOM     43  C   UNL     1      -7.790  10.105  -0.757  1.00  0.00     0.031 C 
ATOM     44  C   UNL     1     -10.598   7.502   2.512  1.00  0.00     0.029 A 
ATOM     45  N   UNL     1     -10.666   9.733   2.642  1.00  0.00    -0.354 N 
ATOM     46  C   UNL     1      -8.269  12.197   0.023  1.00  0.00     0.074 A 
ATOM     47  C   UNL     1      -7.469  11.385  -0.866  1.00  0.00     0.031 C 
ATOM     48  C   UNL     1     -11.443   7.822   3.506  1.00  0.00     0.029 A 
ATOM     49  C   UNL     1     -11.505   9.275   3.630  1.00  0.00     0.049 A 
ATOM     50  H   UNL     1     -10.497  10.689   2.479  1.00  0.00     0.167 HD
ATOM     51  C   UNL     1      -8.267  13.551   0.022  1.00  0.00     0.037 A 
ATOM     52  C   UNL     1     -12.242   9.953   4.530  1.00  0.00     0.037 A 
ATOM     53  C   UNL     1      -9.083  14.358   0.889  1.00  0.00     0.049 A 
ATOM     54  C   UNL     1     -12.222  11.458   4.510  1.00  0.00     0.074 A 
ATOM     55  C   UNL     1      -9.190  15.737   0.937  1.00  0.00     0.029 A 
ATOM     56  N   UNL     1      -9.934  13.856   1.862  1.00  0.00    -0.354 N 
ATOM     57  N   UNL     1     -11.554  12.268   3.724  1.00  0.00    -0.248 NA
ATOM     58  C   UNL     1     -13.073  12.143   5.493  1.00  0.00     0.031 C 
ATOM     59  C   UNL     1     -10.069  16.071   1.972  1.00  0.00     0.029 A 
ATOM     60  C   UNL     1     -10.559  14.899   2.526  1.00  0.00     0.049 A 
ATOM     61  H   UNL     1     -10.074  12.900   2.052  1.00  0.00     0.167 HD
ATOM     62  C   UNL     1     -11.937  13.553   4.088  1.00  0.00     0.074 A 
ATOM     63  C   UNL     1     -12.901  13.413   5.159  1.00  0.00     0.031 C 
ATOM     64  C   UNL     1     -11.530  14.743   3.579  1.00  0.00     0.037 A 
BRANCH  51  65
ATOM     65  C   UNL     1      -7.354  14.240  -0.953  1.00  0.00     0.057 A 
ATOM     66  C   UNL     1      -7.571  14.188  -2.337  1.00  0.00     0.134 A 
ATOM     67  C   UNL     1      -6.255  14.983  -0.502  1.00  0.00     0.134 A 
ATOM     68  F   UNL     1      -8.597  13.483  -2.839  1.00  0.00    -0.206 F 
ATOM     69  C   UNL     1      -6.711  14.820  -3.238  1.00  0.00     0.040 A 
ATOM     70  C   UNL     1      -5.408  15.647  -1.391  1.00  0.00     0.040 A 
ATOM     71  F   UNL     1      -5.989  15.081   0.809  1.00  0.00    -0.206 F 
ATOM     72  C   UNL     1      -5.630  15.559  -2.764  1.00  0.00     0.006 A 
ENDBRANCH  51  65
BRANCH  52  73
ATOM     73  C   UNL     1     -13.091   9.220   5.505  1.00  0.00     0.057 A 
ATOM     74  C   UNL     1     -14.488   9.272   5.430  1.00  0.00     0.134 A 
ATOM     75  C   UNL     1     -12.530   8.468   6.544  1.00  0.00     0.134 A 
ATOM     76  F   UNL     1     -15.087   9.989   4.468  1.00  0.00    -0.206 F 
ATOM     77  C   UNL     1     -15.297   8.629   6.369  1.00  0.00     0.040 A 
ATOM     78  C   UNL     1     -13.326   7.796   7.472  1.00  0.00     0.040 A 
ATOM     79  F   UNL     1     -11.198   8.369   6.665  1.00  0.00    -0.206 F 
ATOM     80  C   UNL     1     -14.714   7.884   7.393  1.00  0.00     0.006 A 
ENDBRANCH  52  73
BRANCH  64  81
ATOM     81  C   UNL     1     -12.176  15.984   4.127  1.00  0.00     0.057 A 
ATOM     82  C   UNL     1     -11.932  16.444   5.426  1.00  0.00     0.134 A 
ATOM     83  C   UNL     1     -13.038  16.744   3.324  1.00  0.00     0.134 A 
ATOM     84  F   UNL     1     -11.125  15.759   6.251  1.00  0.00    -0.206 F 
ATOM     85  C   UNL     1     -12.548  17.595   5.920  1.00  0.00     0.040 A 
ATOM     86  C   UNL     1     -13.633  17.914   3.795  1.00  0.00     0.040 A 
ATOM     87  F   UNL     1     -13.306  16.368   2.064  1.00  0.00    -0.206 F 
ATOM     88  C   UNL     1     -13.397  18.337   5.101  1.00  0.00     0.006 A 
ENDBRANCH  64  81
ENDBRANCH  38  39
ENDBRANCH  30  33
ENDBRANCH  28  29
ENDBRANCH  27  28
ENDBRANCH   1  27
TORSDOF 14
