REMARK SMILES CCc1ccc(OCC(=O)Nc2cc(C)c(O)c(C(=O)NCCCCNC(=O)c3ccc(-c4c5nc(c(-c6c(F)cccc6F)c6ccc([nH]6)c(-c6c(F)cccc6F)c6nc(c(-c7c(F)cccc7F)c7ccc4[nH]7)C=C6)C=C5)cc3)c2)cc1
REMARK SMILES IDX 22 1 21 2 19 3 20 4 18 6 12 7 13 8 83 9 14 10 15 11 16 12
REMARK SMILES IDX 11 13 9 14 10 15 8 17 7 18 6 19 3 20 4 21 85 22 5 23 84 24
REMARK SMILES IDX 2 25 1 26 17 27 23 29 24 30 25 31 26 32 27 33 28 35 29 36
REMARK SMILES IDX 30 37 82 38 31 39 81 40 32 41 33 42 34 43 75 44 35 45 80 46
REMARK SMILES IDX 74 47 76 48 36 49 79 50 73 51 72 52 37 54 63 55 46 56 62 57
REMARK SMILES IDX 47 58 50 59 61 60 77 61 48 62 49 63 60 65 78 66 51 67 38 68
REMARK SMILES IDX 39 69 44 70 40 71 41 72 43 73 45 74 42 75 64 76 65 77 70 78
REMARK SMILES IDX 66 79 67 80 69 81 71 82 68 83 52 84 53 85 58 86 54 87 55 88
REMARK SMILES IDX 57 89 59 90 56 91
REMARK H PARENT 21 5 11 16 17 28 26 34 76 53 50 64
REMARK Flexibility Score: inf
ROOT
ATOM      1  C   UNL     1      -0.140  -4.818  -2.996  1.00  0.00     0.116 C 
ENDROOT
BRANCH   1   2
ATOM      2  N   UNL     1      -0.601  -6.138  -3.325  1.00  0.00    -0.352 N 
ATOM      3  C   UNL     1      -0.783  -6.704  -4.566  1.00  0.00     0.255 C 
ATOM      4  O   UNL     1      -1.197  -7.866  -4.603  1.00  0.00    -0.269 OA
ATOM      5  H   UNL     1      -0.815  -6.716  -2.559  1.00  0.00     0.163 HD
BRANCH   3   6
ATOM      6  C   UNL     1      -0.620  -5.972  -5.871  1.00  0.00     0.083 A 
ATOM      7  C   UNL     1       0.345  -4.261  -7.329  1.00  0.00     0.042 A 
ATOM      8  C   UNL     1      -0.588  -4.623  -8.316  1.00  0.00     0.033 A 
ATOM      9  C   UNL     1       0.359  -4.976  -6.124  1.00  0.00     0.043 A 
ATOM     10  C   UNL     1      -1.507  -5.662  -8.133  1.00  0.00    -0.006 A 
ATOM     11  C   UNL     1      -2.421  -6.025  -9.270  1.00  0.00     0.048 C 
ATOM     12  C   UNL     1      -1.521  -6.323  -6.904  1.00  0.00     0.131 A 
BRANCH   7  13
ATOM     13  N   UNL     1       1.112  -3.128  -7.658  1.00  0.00    -0.323 N 
ATOM     14  C   UNL     1       2.212  -2.485  -7.181  1.00  0.00     0.262 C 
ATOM     15  O   UNL     1       2.467  -1.381  -7.678  1.00  0.00    -0.271 OA
ATOM     16  H   UNL     1       0.753  -2.674  -8.454  1.00  0.00     0.170 HD
BRANCH  14  17
ATOM     17  C   UNL     1       3.184  -3.115  -6.192  1.00  0.00     0.329 C 
BRANCH  17  18
ATOM     18  O   UNL     1       3.270  -2.765  -4.829  1.00  0.00    -0.484 OA
BRANCH  18  19
ATOM     19  C   UNL     1       2.568  -1.676  -4.408  1.00  0.00     0.120 A 
ATOM     20  C   UNL     1       1.399   0.313  -2.792  1.00  0.00    -0.048 A 
ATOM     21  C   UNL     1       0.900  -0.982  -2.789  1.00  0.00     0.007 A 
ATOM     22  C   UNL     1       2.425   0.625  -3.699  1.00  0.00     0.007 A 
ATOM     23  C   UNL     1       1.492  -1.949  -3.589  1.00  0.00     0.047 A 
ATOM     24  C   UNL     1       3.018  -0.371  -4.503  1.00  0.00     0.047 A 
BRANCH  20  25
ATOM     25  C   UNL     1       0.856   1.301  -1.787  1.00  0.00     0.032 C 
ATOM     26  C   UNL     1       1.092   0.870  -0.336  1.00  0.00     0.009 C 
ENDBRANCH  20  25
ENDBRANCH  18  19
ENDBRANCH  17  18
ENDBRANCH  14  17
ENDBRANCH   7  13
BRANCH  12  27
ATOM     27  O   UNL     1      -2.462  -7.314  -6.754  1.00  0.00    -0.507 OA
ATOM     28  H   UNL     1      -3.042  -7.520  -7.460  1.00  0.00     0.293 HD
ENDBRANCH  12  27
ENDBRANCH   3   6
ENDBRANCH   1   2
BRANCH   1  29
ATOM     29  C   UNL     1      -0.826  -4.132  -1.820  1.00  0.00     0.023 C 
BRANCH  29  30
ATOM     30  C   UNL     1      -0.093  -3.981  -0.476  1.00  0.00     0.023 C 
BRANCH  30  31
ATOM     31  C   UNL     1       1.410  -4.236  -0.336  1.00  0.00     0.116 C 
BRANCH  31  32
ATOM     32  N   UNL     1       2.306  -3.136  -0.693  1.00  0.00    -0.352 N 
ATOM     33  C   UNL     1       3.155  -2.354   0.058  1.00  0.00     0.251 C 
ATOM     34  H   UNL     1       2.301  -2.913  -1.652  1.00  0.00     0.163 HD
ATOM     35  O   UNL     1       3.781  -1.431  -0.462  1.00  0.00    -0.269 OA
BRANCH  33  36
ATOM     36  C   UNL     1       3.334  -2.605   1.496  1.00  0.00     0.039 A 
ATOM     37  C   UNL     1       3.392  -1.533   2.393  1.00  0.00     0.014 A 
ATOM     38  C   UNL     1       3.455  -3.913   1.958  1.00  0.00     0.014 A 
ATOM     39  C   UNL     1       3.453  -1.787   3.764  1.00  0.00     0.010 A 
ATOM     40  C   UNL     1       3.380  -4.167   3.314  1.00  0.00     0.010 A 
ATOM     41  C   UNL     1       3.385  -3.108   4.232  1.00  0.00    -0.014 A 
BRANCH  41  42
ATOM     42  C   UNL     1       3.324  -3.433   5.674  1.00  0.00     0.031 A 
ATOM     43  C   UNL     1       4.391  -4.300   6.283  1.00  0.00     0.074 A 
ATOM     44  C   UNL     1       2.250  -3.050   6.391  1.00  0.00     0.049 A 
ATOM     45  N   UNL     1       4.452  -4.818   7.481  1.00  0.00    -0.248 NA
ATOM     46  C   UNL     1       5.517  -4.675   5.409  1.00  0.00     0.031 C 
ATOM     47  C   UNL     1       1.123  -2.266   5.878  1.00  0.00     0.029 A 
ATOM     48  N   UNL     1       1.921  -3.283   7.700  1.00  0.00    -0.354 N 
ATOM     49  C   UNL     1       5.604  -5.595   7.494  1.00  0.00     0.074 A 
ATOM     50  C   UNL     1       6.171  -5.541   6.166  1.00  0.00     0.031 C 
ATOM     51  C   UNL     1       0.243  -2.058   6.869  1.00  0.00     0.029 A 
ATOM     52  C   UNL     1       0.719  -2.730   8.072  1.00  0.00     0.049 A 
ATOM     53  H   UNL     1       2.491  -3.797   8.316  1.00  0.00     0.167 HD
ATOM     54  C   UNL     1       6.154  -6.268   8.531  1.00  0.00     0.037 A 
ATOM     55  C   UNL     1       0.074  -2.772   9.253  1.00  0.00     0.037 A 
ATOM     56  C   UNL     1       5.590  -6.284   9.854  1.00  0.00     0.049 A 
ATOM     57  C   UNL     1       0.713  -3.514  10.393  1.00  0.00     0.074 A 
ATOM     58  C   UNL     1       6.092  -6.873  10.999  1.00  0.00     0.029 A 
ATOM     59  N   UNL     1       4.392  -5.678  10.204  1.00  0.00    -0.354 N 
ATOM     60  N   UNL     1       1.842  -4.183  10.416  1.00  0.00    -0.248 NA
ATOM     61  C   UNL     1      -0.006  -3.504  11.673  1.00  0.00     0.031 C 
ATOM     62  C   UNL     1       5.172  -6.667  12.032  1.00  0.00     0.029 A 
ATOM     63  C   UNL     1       4.125  -5.899  11.544  1.00  0.00     0.049 A 
ATOM     64  H   UNL     1       3.816  -5.167   9.591  1.00  0.00     0.167 HD
ATOM     65  C   UNL     1       1.983  -4.648  11.716  1.00  0.00     0.074 A 
ATOM     66  C   UNL     1       0.833  -4.167  12.455  1.00  0.00     0.031 C 
ATOM     67  C   UNL     1       2.972  -5.404  12.253  1.00  0.00     0.037 A 
BRANCH  54  68
ATOM     68  C   UNL     1       7.426  -7.025   8.271  1.00  0.00     0.057 A 
ATOM     69  C   UNL     1       8.630  -6.372   7.971  1.00  0.00     0.134 A 
ATOM     70  C   UNL     1       7.452  -8.424   8.333  1.00  0.00     0.134 A 
ATOM     71  F   UNL     1       8.674  -5.034   7.880  1.00  0.00    -0.206 F 
ATOM     72  C   UNL     1       9.803  -7.082   7.711  1.00  0.00     0.040 A 
ATOM     73  C   UNL     1       8.627  -9.144   8.107  1.00  0.00     0.040 A 
ATOM     74  F   UNL     1       6.338  -9.115   8.617  1.00  0.00    -0.206 F 
ATOM     75  C   UNL     1       9.805  -8.473   7.786  1.00  0.00     0.006 A 
ENDBRANCH  54  68
BRANCH  55  76
ATOM     76  C   UNL     1      -1.221  -2.065   9.423  1.00  0.00     0.057 A 
ATOM     77  C   UNL     1      -1.321  -0.931  10.238  1.00  0.00     0.134 A 
ATOM     78  C   UNL     1      -2.386  -2.496   8.777  1.00  0.00     0.134 A 
ATOM     79  F   UNL     1      -0.244  -0.475  10.894  1.00  0.00    -0.206 F 
ATOM     80  C   UNL     1      -2.535  -0.267  10.425  1.00  0.00     0.040 A 
ATOM     81  C   UNL     1      -3.601  -1.825   8.932  1.00  0.00     0.040 A 
ATOM     82  F   UNL     1      -2.357  -3.567   7.970  1.00  0.00    -0.206 F 
ATOM     83  C   UNL     1      -3.679  -0.711   9.766  1.00  0.00     0.006 A 
ENDBRANCH  55  76
BRANCH  67  84
ATOM     84  C   UNL     1       2.864  -5.726  13.715  1.00  0.00     0.057 A 
ATOM     85  C   UNL     1       1.907  -6.621  14.207  1.00  0.00     0.134 A 
ATOM     86  C   UNL     1       3.757  -5.160  14.634  1.00  0.00     0.134 A 
ATOM     87  F   UNL     1       1.015  -7.188  13.379  1.00  0.00    -0.206 F 
ATOM     88  C   UNL     1       1.822  -6.920  15.567  1.00  0.00     0.040 A 
ATOM     89  C   UNL     1       3.703  -5.476  15.991  1.00  0.00     0.040 A 
ATOM     90  F   UNL     1       4.705  -4.304  14.225  1.00  0.00    -0.206 F 
ATOM     91  C   UNL     1       2.727  -6.352  16.462  1.00  0.00     0.006 A 
ENDBRANCH  67  84
ENDBRANCH  41  42
ENDBRANCH  33  36
ENDBRANCH  31  32
ENDBRANCH  30  31
ENDBRANCH  29  30
ENDBRANCH   1  29
TORSDOF 17
