REMARK SMILES CCc1ccc2[nH]c(C(=O)c3cc(C)ccn3)c(CC(=O)NCCCCNC(=O)c3ccc(-c4c5nc(c(-c6c(F)cccc6F)c6ccc([nH]6)c(-c6c(F)cccc6F)c6nc(c(-c7c(F)cccc7F)c7ccc4[nH]7)C=C6)C=C5)cc3)c2c1
REMARK SMILES IDX 24 1 23 2 22 3 20 4 21 5 19 7 18 8 3 9 4 10 85 11 5 12 84 13
REMARK SMILES IDX 6 14 7 15 8 16 2 18 1 19 9 20 10 21 11 22 12 23 17 24 13 25
REMARK SMILES IDX 16 26 14 27 15 28 25 29 26 30 27 31 28 32 29 34 30 35 31 36
REMARK SMILES IDX 83 37 32 38 82 39 33 40 34 41 35 42 76 43 36 44 81 45 75 46
REMARK SMILES IDX 77 47 37 48 80 49 74 50 73 51 38 53 64 54 47 55 63 56 48 57
REMARK SMILES IDX 51 58 62 59 78 60 49 61 50 62 61 64 79 65 52 66 39 67 40 68
REMARK SMILES IDX 45 69 41 70 42 71 44 72 46 73 43 74 65 75 66 76 71 77 67 78
REMARK SMILES IDX 68 79 70 80 72 81 69 82 53 83 54 84 59 85 55 86 56 87 58 88
REMARK SMILES IDX 60 89 57 90
REMARK H PARENT 22 6 7 17 27 33 77 52 51 63
REMARK Flexibility Score: inf
ROOT
ATOM      1  C   UNL     1       4.351  -3.896   1.271  1.00  0.00     0.023 C 
ENDROOT
BRANCH   1   2
ATOM      2  C   UNL     1       5.127  -2.827   0.504  1.00  0.00     0.116 C 
BRANCH   2   3
ATOM      3  N   UNL     1       6.288  -3.359  -0.175  1.00  0.00    -0.356 N 
ATOM      4  C   UNL     1       6.479  -3.615  -1.504  1.00  0.00     0.224 C 
ATOM      5  O   UNL     1       7.636  -3.868  -1.855  1.00  0.00    -0.275 OA
ATOM      6  H   UNL     1       7.054  -3.568   0.406  1.00  0.00     0.163 HD
BRANCH   4   7
ATOM      7  C   UNL     1       5.355  -3.454  -2.523  1.00  0.00     0.138 C 
BRANCH   7   8
ATOM      8  C   UNL     1       4.111  -4.258  -2.245  1.00  0.00    -0.002 A 
ATOM      9  C   UNL     1       0.982  -2.176  -1.437  1.00  0.00    -0.048 A 
ATOM     10  C   UNL     1       0.171  -3.271  -1.128  1.00  0.00     0.006 A 
ATOM     11  C   UNL     1       2.304  -2.394  -1.862  1.00  0.00     0.014 A 
ATOM     12  C   UNL     1       0.645  -4.584  -1.236  1.00  0.00     0.027 A 
ATOM     13  C   UNL     1       2.817  -3.707  -1.949  1.00  0.00     0.004 A 
ATOM     14  C   UNL     1       1.971  -4.766  -1.645  1.00  0.00     0.046 A 
ATOM     15  N   UNL     1       2.697  -5.919  -1.809  1.00  0.00    -0.352 N 
ATOM     16  C   UNL     1       3.980  -5.648  -2.241  1.00  0.00     0.093 A 
ATOM     17  H   UNL     1       2.348  -6.824  -1.639  1.00  0.00     0.167 HD
BRANCH   9  18
ATOM     18  C   UNL     1       0.470  -0.766  -1.274  1.00  0.00     0.032 C 
ATOM     19  C   UNL     1       0.973  -0.127   0.014  1.00  0.00     0.009 C 
ENDBRANCH   9  18
BRANCH  16  20
ATOM     20  C   UNL     1       4.983  -6.652  -2.580  1.00  0.00     0.227 C 
ATOM     21  O   UNL     1       6.112  -6.370  -2.981  1.00  0.00    -0.285 OA
BRANCH  20  22
ATOM     22  C   UNL     1       4.627  -8.094  -2.497  1.00  0.00     0.113 A 
ATOM     23  C   UNL     1       3.652  -8.616  -3.342  1.00  0.00     0.036 A 
ATOM     24  N   UNL     1       5.311  -8.830  -1.585  1.00  0.00    -0.253 NA
ATOM     25  C   UNL     1       3.356  -9.977  -3.250  1.00  0.00    -0.047 A 
ATOM     26  C   UNL     1       5.032 -10.147  -1.543  1.00  0.00     0.112 A 
ATOM     27  C   UNL     1       2.316 -10.609  -4.126  1.00  0.00     0.044 C 
ATOM     28  C   UNL     1       4.073 -10.757  -2.338  1.00  0.00     0.023 A 
ENDBRANCH  20  22
ENDBRANCH  16  20
ENDBRANCH   7   8
ENDBRANCH   4   7
ENDBRANCH   2   3
ENDBRANCH   1   2
BRANCH   1  29
ATOM     29  C   UNL     1       5.077  -4.478   2.486  1.00  0.00     0.023 C 
BRANCH  29  30
ATOM     30  C   UNL     1       5.536  -3.464   3.528  1.00  0.00     0.116 C 
BRANCH  30  31
ATOM     31  N   UNL     1       4.454  -2.651   4.060  1.00  0.00    -0.352 N 
ATOM     32  C   UNL     1       4.279  -2.175   5.336  1.00  0.00     0.251 C 
ATOM     33  H   UNL     1       3.749  -2.409   3.417  1.00  0.00     0.163 HD
ATOM     34  O   UNL     1       3.247  -1.577   5.636  1.00  0.00    -0.269 OA
BRANCH  32  35
ATOM     35  C   UNL     1       5.313  -2.417   6.366  1.00  0.00     0.039 A 
ATOM     36  C   UNL     1       4.909  -2.872   7.625  1.00  0.00     0.014 A 
ATOM     37  C   UNL     1       6.668  -2.210   6.097  1.00  0.00     0.014 A 
ATOM     38  C   UNL     1       5.868  -3.185   8.590  1.00  0.00     0.010 A 
ATOM     39  C   UNL     1       7.626  -2.581   7.038  1.00  0.00     0.010 A 
ATOM     40  C   UNL     1       7.236  -3.076   8.291  1.00  0.00    -0.014 A 
BRANCH  40  41
ATOM     41  C   UNL     1       8.269  -3.489   9.274  1.00  0.00     0.031 A 
ATOM     42  C   UNL     1       9.199  -2.472   9.872  1.00  0.00     0.074 A 
ATOM     43  C   UNL     1       8.412  -4.794   9.578  1.00  0.00     0.049 A 
ATOM     44  N   UNL     1      10.197  -2.651  10.700  1.00  0.00    -0.248 NA
ATOM     45  C   UNL     1       8.995  -1.072   9.470  1.00  0.00     0.031 C 
ATOM     46  C   UNL     1       7.606  -5.885   9.027  1.00  0.00     0.029 A 
ATOM     47  N   UNL     1       9.293  -5.424  10.421  1.00  0.00    -0.354 N 
ATOM     48  C   UNL     1      10.749  -1.393  10.904  1.00  0.00     0.074 A 
ATOM     49  C   UNL     1      10.003  -0.466  10.081  1.00  0.00     0.031 C 
ATOM     50  C   UNL     1       8.017  -7.047   9.561  1.00  0.00     0.029 A 
ATOM     51  C   UNL     1       9.131  -6.787  10.467  1.00  0.00     0.049 A 
ATOM     52  H   UNL     1       9.976  -4.944  10.942  1.00  0.00     0.167 HD
ATOM     53  C   UNL     1      11.771  -1.040  11.720  1.00  0.00     0.037 A 
ATOM     54  C   UNL     1       9.807  -7.722  11.160  1.00  0.00     0.037 A 
ATOM     55  C   UNL     1      12.496  -1.956  12.559  1.00  0.00     0.049 A 
ATOM     56  C   UNL     1      10.930  -7.302  12.065  1.00  0.00     0.074 A 
ATOM     57  C   UNL     1      13.507  -1.683  13.464  1.00  0.00     0.029 A 
ATOM     58  N   UNL     1      12.287  -3.326  12.595  1.00  0.00    -0.354 N 
ATOM     59  N   UNL     1      11.398  -6.100  12.299  1.00  0.00    -0.248 NA
ATOM     60  C   UNL     1      11.615  -8.369  12.809  1.00  0.00     0.031 C 
ATOM     61  C   UNL     1      13.932  -2.892  14.025  1.00  0.00     0.029 A 
ATOM     62  C   UNL     1      13.160  -3.914  13.497  1.00  0.00     0.049 A 
ATOM     63  H   UNL     1      11.618  -3.810  12.060  1.00  0.00     0.167 HD
ATOM     64  C   UNL     1      12.413  -6.262  13.232  1.00  0.00     0.074 A 
ATOM     65  C   UNL     1      12.485  -7.677  13.532  1.00  0.00     0.031 C 
ATOM     66  C   UNL     1      13.214  -5.323  13.790  1.00  0.00     0.037 A 
BRANCH  53  67
ATOM     67  C   UNL     1      12.159   0.409  11.747  1.00  0.00     0.057 A 
ATOM     68  C   UNL     1      11.350   1.376  12.359  1.00  0.00     0.134 A 
ATOM     69  C   UNL     1      13.367   0.838  11.184  1.00  0.00     0.134 A 
ATOM     70  F   UNL     1      10.175   1.031  12.906  1.00  0.00    -0.206 F 
ATOM     71  C   UNL     1      11.717   2.722  12.388  1.00  0.00     0.040 A 
ATOM     72  C   UNL     1      13.756   2.178  11.227  1.00  0.00     0.040 A 
ATOM     73  F   UNL     1      14.190  -0.037  10.587  1.00  0.00    -0.206 F 
ATOM     74  C   UNL     1      12.927   3.125  11.826  1.00  0.00     0.006 A 
ENDBRANCH  53  67
BRANCH  54  75
ATOM     75  C   UNL     1       9.420  -9.150  11.050  1.00  0.00     0.057 A 
ATOM     76  C   UNL     1       8.776  -9.803  12.107  1.00  0.00     0.134 A 
ATOM     77  C   UNL     1       9.688  -9.895   9.896  1.00  0.00     0.134 A 
ATOM     78  F   UNL     1       8.510  -9.145  13.245  1.00  0.00    -0.206 F 
ATOM     79  C   UNL     1       8.426 -11.152  12.027  1.00  0.00     0.040 A 
ATOM     80  C   UNL     1       9.325 -11.238   9.795  1.00  0.00     0.040 A 
ATOM     81  F   UNL     1      10.298  -9.323   8.847  1.00  0.00    -0.206 F 
ATOM     82  C   UNL     1       8.698 -11.872  10.866  1.00  0.00     0.006 A 
ENDBRANCH  54  75
BRANCH  66  83
ATOM     83  C   UNL     1      14.214  -5.792  14.803  1.00  0.00     0.057 A 
ATOM     84  C   UNL     1      15.371  -6.487  14.430  1.00  0.00     0.134 A 
ATOM     85  C   UNL     1      14.031  -5.519  16.164  1.00  0.00     0.134 A 
ATOM     86  F   UNL     1      15.597  -6.791  13.143  1.00  0.00    -0.206 F 
ATOM     87  C   UNL     1      16.302  -6.912  15.379  1.00  0.00     0.040 A 
ATOM     88  C   UNL     1      14.966  -5.919  17.120  1.00  0.00     0.040 A 
ATOM     89  F   UNL     1      12.947  -4.851  16.586  1.00  0.00    -0.206 F 
ATOM     90  C   UNL     1      16.103  -6.623  16.728  1.00  0.00     0.006 A 
ENDBRANCH  66  83
ENDBRANCH  40  41
ENDBRANCH  32  35
ENDBRANCH  30  31
ENDBRANCH  29  30
ENDBRANCH   1  29
TORSDOF 15
