REMARK SMILES C[C@@H]1CN(S(=O)(=O)c2ccc(Cl)c(C(=O)NCCCCNC(=O)c3ccc(-c4c5nc(c(-c6c(F)cccc6F)c6ccc([nH]6)c(-c6c(F)cccc6F)c6nc(c(-c7c(F)cccc7F)c7ccc4[nH]7)C=C6)C=C5)cc3)c2Cl)C[C@H]1C
REMARK SMILES IDX 18 1 17 2 16 3 14 4 15 5 13 7 8 8 9 9 78 10 10 11 79 12
REMARK SMILES IDX 11 13 12 14 5 15 6 16 7 17 4 18 1 19 2 20 3 21 81 22 80 23
REMARK SMILES IDX 82 24 19 25 20 26 21 27 22 28 23 30 24 31 25 32 77 33 26 34
REMARK SMILES IDX 76 35 27 36 28 37 29 38 70 39 30 40 75 41 69 42 71 43 31 44
REMARK SMILES IDX 74 45 68 46 67 47 32 49 58 50 41 51 57 52 42 53 45 54 56 55
REMARK SMILES IDX 72 56 43 57 44 58 55 60 73 61 46 62 33 63 34 64 39 65 35 66
REMARK SMILES IDX 36 67 38 68 40 69 37 70 59 71 60 72 65 73 61 74 62 75 64 76
REMARK SMILES IDX 66 77 63 78 47 79 48 80 53 81 49 82 50 83 52 84 54 85 51 86
REMARK H PARENT 16 6 21 29 71 48 45 59
REMARK Flexibility Score: inf
ROOT
ATOM      1  C   UNL     1      -7.740   4.817  -4.940  1.00  0.00     0.023 C 
ENDROOT
BRANCH   1   2
ATOM      2  C   UNL     1      -7.758   3.564  -4.051  1.00  0.00     0.116 C 
BRANCH   2   3
ATOM      3  N   UNL     1      -7.387   2.412  -4.844  1.00  0.00    -0.352 N 
ATOM      4  C   UNL     1      -6.175   1.856  -5.168  1.00  0.00     0.254 C 
ATOM      5  O   UNL     1      -6.154   1.178  -6.198  1.00  0.00    -0.269 OA
ATOM      6  H   UNL     1      -8.156   1.932  -5.228  1.00  0.00     0.163 HD
BRANCH   4   7
ATOM      7  C   UNL     1      -4.906   1.948  -4.383  1.00  0.00     0.078 A 
ATOM      8  C   UNL     1      -2.827   0.737  -3.871  1.00  0.00     0.102 A 
ATOM      9  C   UNL     1      -2.199   1.958  -3.606  1.00  0.00     0.025 A 
ATOM     10  C   UNL     1      -4.196   0.718  -4.192  1.00  0.00     0.075 A 
ATOM     11  C   UNL     1      -2.913   3.137  -3.637  1.00  0.00     0.023 A 
ATOM     12  Cl  UNL     1      -5.069  -0.788  -4.224  1.00  0.00    -0.082 Cl
ATOM     13  C   UNL     1      -4.232   3.149  -4.095  1.00  0.00     0.055 A 
ATOM     14  Cl  UNL     1      -4.775   4.750  -4.373  1.00  0.00    -0.083 Cl
BRANCH   8  15
ATOM     15  S   UNL     1      -1.716  -0.645  -4.079  1.00  0.00     0.244 S 
ATOM     16  O   UNL     1      -0.460  -0.092  -4.551  1.00  0.00    -0.207 OA
ATOM     17  O   UNL     1      -2.355  -1.697  -4.836  1.00  0.00    -0.207 OA
BRANCH  15  18
ATOM     18  N   UNL     1      -1.419  -1.238  -2.504  1.00  0.00    -0.197 NA
ATOM     19  C   UNL     1       1.148  -0.302   0.069  1.00  0.00     0.009 C 
ATOM     20  C   UNL     1       0.587  -0.809  -1.250  1.00  0.00     0.005 C 
ATOM     21  C   UNL     1      -0.828  -0.306  -1.504  1.00  0.00     0.106 C 
ATOM     22  C   UNL     1       0.395  -2.320  -1.321  1.00  0.00     0.005 C 
ATOM     23  C   UNL     1      -0.550  -2.469  -2.519  1.00  0.00     0.106 C 
ATOM     24  C   UNL     1       1.701  -3.081  -1.498  1.00  0.00     0.009 C 
ENDBRANCH  15  18
ENDBRANCH   8  15
ENDBRANCH   4   7
ENDBRANCH   2   3
ENDBRANCH   1   2
BRANCH   1  25
ATOM     25  C   UNL     1      -9.022   5.150  -5.690  1.00  0.00     0.023 C 
BRANCH  25  26
ATOM     26  C   UNL     1     -10.174   5.592  -4.808  1.00  0.00     0.116 C 
BRANCH  26  27
ATOM     27  N   UNL     1      -9.854   6.709  -3.928  1.00  0.00    -0.352 N 
ATOM     28  C   UNL     1     -10.692   7.698  -3.470  1.00  0.00     0.251 C 
ATOM     29  H   UNL     1      -8.920   6.761  -3.622  1.00  0.00     0.163 HD
ATOM     30  O   UNL     1     -10.267   8.613  -2.775  1.00  0.00    -0.269 OA
BRANCH  28  31
ATOM     31  C   UNL     1     -12.107   7.666  -3.881  1.00  0.00     0.039 A 
ATOM     32  C   UNL     1     -12.664   8.804  -4.467  1.00  0.00     0.014 A 
ATOM     33  C   UNL     1     -12.844   6.484  -3.774  1.00  0.00     0.014 A 
ATOM     34  C   UNL     1     -13.940   8.732  -5.021  1.00  0.00     0.010 A 
ATOM     35  C   UNL     1     -14.076   6.389  -4.403  1.00  0.00     0.010 A 
ATOM     36  C   UNL     1     -14.635   7.512  -5.032  1.00  0.00    -0.014 A 
BRANCH  36  37
ATOM     37  C   UNL     1     -15.956   7.383  -5.689  1.00  0.00     0.031 A 
ATOM     38  C   UNL     1     -17.166   7.046  -4.867  1.00  0.00     0.074 A 
ATOM     39  C   UNL     1     -16.047   7.487  -7.028  1.00  0.00     0.049 A 
ATOM     40  N   UNL     1     -18.391   6.810  -5.258  1.00  0.00    -0.248 NA
ATOM     41  C   UNL     1     -16.964   6.922  -3.414  1.00  0.00     0.031 C 
ATOM     42  C   UNL     1     -14.929   7.748  -7.938  1.00  0.00     0.029 A 
ATOM     43  N   UNL     1     -17.132   7.373  -7.859  1.00  0.00    -0.354 N 
ATOM     44  C   UNL     1     -19.097   6.490  -4.107  1.00  0.00     0.074 A 
ATOM     45  C   UNL     1     -18.154   6.507  -3.010  1.00  0.00     0.031 C 
ATOM     46  C   UNL     1     -15.391   7.799  -9.198  1.00  0.00     0.029 A 
ATOM     47  C   UNL     1     -16.828   7.542  -9.188  1.00  0.00     0.049 A 
ATOM     48  H   UNL     1     -18.042   7.187  -7.534  1.00  0.00     0.167 HD
ATOM     49  C   UNL     1     -20.419   6.233  -3.971  1.00  0.00     0.037 A 
ATOM     50  C   UNL     1     -17.621   7.494 -10.274  1.00  0.00     0.037 A 
ATOM     51  C   UNL     1     -21.358   6.254  -5.059  1.00  0.00     0.049 A 
ATOM     52  C   UNL     1     -19.090   7.230 -10.095  1.00  0.00     0.074 A 
ATOM     53  C   UNL     1     -22.730   6.080  -5.019  1.00  0.00     0.029 A 
ATOM     54  N   UNL     1     -21.019   6.465  -6.388  1.00  0.00    -0.354 N 
ATOM     55  N   UNL     1     -19.760   7.003  -8.992  1.00  0.00    -0.248 NA
ATOM     56  C   UNL     1     -19.913   7.222 -11.312  1.00  0.00     0.031 C 
ATOM     57  C   UNL     1     -23.217   6.152  -6.328  1.00  0.00     0.029 A 
ATOM     58  C   UNL     1     -22.153   6.409  -7.179  1.00  0.00     0.049 A 
ATOM     59  H   UNL     1     -20.106   6.630  -6.718  1.00  0.00     0.167 HD
ATOM     60  C   UNL     1     -21.085   6.850  -9.376  1.00  0.00     0.074 A 
ATOM     61  C   UNL     1     -21.126   7.022 -10.814  1.00  0.00     0.031 C 
ATOM     62  C   UNL     1     -22.171   6.590  -8.608  1.00  0.00     0.037 A 
BRANCH  49  63
ATOM     63  C   UNL     1     -20.918   5.916  -2.593  1.00  0.00     0.057 A 
ATOM     64  C   UNL     1     -20.985   6.893  -1.590  1.00  0.00     0.134 A 
ATOM     65  C   UNL     1     -21.345   4.623  -2.266  1.00  0.00     0.134 A 
ATOM     66  F   UNL     1     -20.575   8.147  -1.834  1.00  0.00    -0.206 F 
ATOM     67  C   UNL     1     -21.431   6.588  -0.303  1.00  0.00     0.040 A 
ATOM     68  C   UNL     1     -21.818   4.313  -0.990  1.00  0.00     0.040 A 
ATOM     69  F   UNL     1     -21.309   3.642  -3.179  1.00  0.00    -0.206 F 
ATOM     70  C   UNL     1     -21.854   5.296  -0.002  1.00  0.00     0.006 A 
ENDBRANCH  49  63
BRANCH  50  71
ATOM     71  C   UNL     1     -17.049   7.738 -11.620  1.00  0.00     0.057 A 
ATOM     72  C   UNL     1     -17.314   8.927 -12.309  1.00  0.00     0.134 A 
ATOM     73  C   UNL     1     -16.223   6.799 -12.247  1.00  0.00     0.134 A 
ATOM     74  F   UNL     1     -18.113   9.858 -11.766  1.00  0.00    -0.206 F 
ATOM     75  C   UNL     1     -16.791   9.168 -13.580  1.00  0.00     0.040 A 
ATOM     76  C   UNL     1     -15.675   7.035 -13.509  1.00  0.00     0.040 A 
ATOM     77  F   UNL     1     -15.925   5.644 -11.635  1.00  0.00    -0.206 F 
ATOM     78  C   UNL     1     -15.964   8.221 -14.182  1.00  0.00     0.006 A 
ENDBRANCH  50  71
BRANCH  62  79
ATOM     79  C   UNL     1     -23.496   6.505  -9.304  1.00  0.00     0.057 A 
ATOM     80  C   UNL     1     -23.847   5.399 -10.088  1.00  0.00     0.134 A 
ATOM     81  C   UNL     1     -24.447   7.522  -9.151  1.00  0.00     0.134 A 
ATOM     82  F   UNL     1     -22.974   4.399 -10.283  1.00  0.00    -0.206 F 
ATOM     83  C   UNL     1     -25.093   5.316 -10.711  1.00  0.00     0.040 A 
ATOM     84  C   UNL     1     -25.704   7.439  -9.750  1.00  0.00     0.040 A 
ATOM     85  F   UNL     1     -24.174   8.603  -8.406  1.00  0.00    -0.206 F 
ATOM     86  C   UNL     1     -26.028   6.335 -10.537  1.00  0.00     0.006 A 
ENDBRANCH  62  79
ENDBRANCH  36  37
ENDBRANCH  28  31
ENDBRANCH  26  27
ENDBRANCH  25  26
ENDBRANCH   1  25
TORSDOF 13
