REMARK SMILES Cc1csc(CNC(=O)NC[C@H]2CC[C@@H](C(=O)NCCCCNC(=O)c3ccc(-c4c5nc(c(-c6c(F)cccc6F)c6ccc([nH]6)c(-c6c(F)cccc6F)c6nc(c(-c7c(F)cccc7F)c7ccc4[nH]7)C=C6)C=C5)cc3)CC2)n1
REMARK SMILES IDX 19 1 18 2 16 3 17 4 15 6 12 7 13 8 81 9 14 10 80 11 11 12
REMARK SMILES IDX 10 13 7 14 8 15 9 17 6 19 5 20 1 21 2 22 3 23 82 24 4 25
REMARK SMILES IDX 20 26 21 27 22 28 23 29 24 30 25 32 26 33 27 34 79 35 28 36
REMARK SMILES IDX 78 37 29 38 30 39 31 40 72 41 32 42 77 43 71 44 73 45 33 46
REMARK SMILES IDX 76 47 70 48 69 49 34 51 60 52 43 53 59 54 44 55 47 56 58 57
REMARK SMILES IDX 74 58 45 59 46 60 57 62 75 63 48 64 35 65 36 66 41 67 37 68
REMARK SMILES IDX 38 69 40 70 42 71 39 72 61 73 62 74 67 75 63 76 64 77 66 78
REMARK SMILES IDX 68 79 65 80 49 81 50 82 55 83 51 84 52 85 54 86 56 87 53 88
REMARK H PARENT 18 5 7 16 10 18 23 31 73 50 47 61
REMARK Flexibility Score: inf
ROOT
ATOM      1  C   UNL     1      -0.795   5.483   4.331  1.00  0.00     0.116 C 
ENDROOT
BRANCH   1   2
ATOM      2  N   UNL     1      -0.193   6.092   5.493  1.00  0.00    -0.356 N 
ATOM      3  C   UNL     1       0.991   6.719   5.695  1.00  0.00     0.223 C 
ATOM      4  O   UNL     1       1.104   7.297   6.785  1.00  0.00    -0.275 OA
ATOM      5  H   UNL     1      -0.755   6.043   6.299  1.00  0.00     0.163 HD
BRANCH   3   6
ATOM      6  C   UNL     1       2.176   6.742   4.715  1.00  0.00     0.078 C 
ATOM      7  C   UNL     1       2.079   5.473   1.971  1.00  0.00     0.008 C 
ATOM      8  C   UNL     1       1.587   6.918   2.190  1.00  0.00     0.006 C 
ATOM      9  C   UNL     1       2.333   4.647   3.240  1.00  0.00     0.006 C 
ATOM     10  C   UNL     1       2.051   7.609   3.466  1.00  0.00     0.014 C 
ATOM     11  C   UNL     1       2.847   5.402   4.450  1.00  0.00     0.014 C 
BRANCH   7  12
ATOM     12  C   UNL     1       1.085   4.706   1.068  1.00  0.00     0.121 C 
BRANCH  12  13
ATOM     13  N   UNL     1       1.188   5.104  -0.318  1.00  0.00    -0.338 N 
ATOM     14  N   UNL     1       1.240   3.088  -1.537  1.00  0.00    -0.332 N 
ATOM     15  C   UNL     1       1.023   4.402  -1.447  1.00  0.00     0.315 C 
ATOM     16  H   UNL     1       0.822   2.681  -2.329  1.00  0.00     0.165 HD
ATOM     17  O   UNL     1       0.667   5.011  -2.457  1.00  0.00    -0.249 OA
ATOM     18  H   UNL     1       1.417   6.051  -0.455  1.00  0.00     0.165 HD
BRANCH  14  19
ATOM     19  C   UNL     1       1.960   2.132  -0.716  1.00  0.00     0.185 C 
BRANCH  19  20
ATOM     20  C   UNL     1       1.049   0.997  -0.337  1.00  0.00     0.112 A 
ATOM     21  C   UNL     1      -2.286  -0.299   0.105  1.00  0.00     0.067 C 
ATOM     22  C   UNL     1      -0.808  -0.173   0.016  1.00  0.00     0.049 A 
ATOM     23  C   UNL     1       0.113  -1.200   0.079  1.00  0.00     0.090 A 
ATOM     24  N   UNL     1      -0.255   1.084  -0.169  1.00  0.00    -0.245 NA
ATOM     25  S   UNL     1       1.698  -0.587  -0.133  1.00  0.00    -0.125 S 
ENDBRANCH  19  20
ENDBRANCH  14  19
ENDBRANCH  12  13
ENDBRANCH   7  12
ENDBRANCH   3   6
ENDBRANCH   1   2
BRANCH   1  26
ATOM     26  C   UNL     1      -0.925   3.962   4.434  1.00  0.00     0.023 C 
BRANCH  26  27
ATOM     27  C   UNL     1      -2.345   3.448   4.629  1.00  0.00     0.023 C 
BRANCH  27  28
ATOM     28  C   UNL     1      -3.336   3.835   3.536  1.00  0.00     0.116 C 
BRANCH  28  29
ATOM     29  N   UNL     1      -3.002   3.381   2.193  1.00  0.00    -0.352 N 
ATOM     30  C   UNL     1      -3.884   3.072   1.177  1.00  0.00     0.251 C 
ATOM     31  H   UNL     1      -2.043   3.284   1.987  1.00  0.00     0.163 HD
ATOM     32  O   UNL     1      -3.503   2.721   0.070  1.00  0.00    -0.269 OA
BRANCH  30  33
ATOM     33  C   UNL     1      -5.327   3.094   1.476  1.00  0.00     0.039 A 
ATOM     34  C   UNL     1      -6.051   1.907   1.343  1.00  0.00     0.014 A 
ATOM     35  C   UNL     1      -5.919   4.241   2.007  1.00  0.00     0.014 A 
ATOM     36  C   UNL     1      -7.350   1.840   1.841  1.00  0.00     0.010 A 
ATOM     37  C   UNL     1      -7.186   4.150   2.570  1.00  0.00     0.010 A 
ATOM     38  C   UNL     1      -7.904   2.945   2.508  1.00  0.00    -0.014 A 
BRANCH  38  39
ATOM     39  C   UNL     1      -9.232   2.863   3.161  1.00  0.00     0.031 A 
ATOM     40  C   UNL     1     -10.356   3.727   2.668  1.00  0.00     0.074 A 
ATOM     41  C   UNL     1      -9.401   2.074   4.240  1.00  0.00     0.049 A 
ATOM     42  N   UNL     1     -11.547   3.904   3.179  1.00  0.00    -0.248 NA
ATOM     43  C   UNL     1     -10.093   4.522   1.458  1.00  0.00     0.031 C 
ATOM     44  C   UNL     1      -8.373   1.220   4.841  1.00  0.00     0.029 A 
ATOM     45  N   UNL     1     -10.503   1.871   5.033  1.00  0.00    -0.354 N 
ATOM     46  C   UNL     1     -12.166   4.842   2.365  1.00  0.00     0.074 A 
ATOM     47  C   UNL     1     -11.206   5.233   1.356  1.00  0.00     0.031 C 
ATOM     48  C   UNL     1      -8.899   0.571   5.893  1.00  0.00     0.029 A 
ATOM     49  C   UNL     1     -10.287   0.988   6.063  1.00  0.00     0.049 A 
ATOM     50  H   UNL     1     -11.367   2.317   4.878  1.00  0.00     0.167 HD
ATOM     51  C   UNL     1     -13.431   5.319   2.438  1.00  0.00     0.037 A 
ATOM     52  C   UNL     1     -11.117   0.569   7.037  1.00  0.00     0.037 A 
ATOM     53  C   UNL     1     -14.396   4.905   3.419  1.00  0.00     0.049 A 
ATOM     54  C   UNL     1     -12.523   1.098   7.080  1.00  0.00     0.074 A 
ATOM     55  C   UNL     1     -15.710   5.314   3.565  1.00  0.00     0.029 A 
ATOM     56  N   UNL     1     -14.154   3.970   4.413  1.00  0.00    -0.354 N 
ATOM     57  N   UNL     1     -13.103   1.968   6.289  1.00  0.00    -0.248 NA
ATOM     58  C   UNL     1     -13.392   0.585   8.149  1.00  0.00     0.031 C 
ATOM     59  C   UNL     1     -16.261   4.634   4.656  1.00  0.00     0.029 A 
ATOM     60  C   UNL     1     -15.296   3.783   5.172  1.00  0.00     0.049 A 
ATOM     61  H   UNL     1     -13.297   3.507   4.558  1.00  0.00     0.167 HD
ATOM     62  C   UNL     1     -14.409   2.085   6.746  1.00  0.00     0.074 A 
ATOM     63  C   UNL     1     -14.540   1.189   7.876  1.00  0.00     0.031 C 
ATOM     64  C   UNL     1     -15.409   2.866   6.275  1.00  0.00     0.037 A 
BRANCH  51  65
ATOM     65  C   UNL     1     -13.842   6.327   1.410  1.00  0.00     0.057 A 
ATOM     66  C   UNL     1     -14.082   5.957   0.080  1.00  0.00     0.134 A 
ATOM     67  C   UNL     1     -14.020   7.673   1.752  1.00  0.00     0.134 A 
ATOM     68  F   UNL     1     -13.910   4.686  -0.313  1.00  0.00    -0.206 F 
ATOM     69  C   UNL     1     -14.467   6.895  -0.879  1.00  0.00     0.040 A 
ATOM     70  C   UNL     1     -14.427   8.616   0.806  1.00  0.00     0.040 A 
ATOM     71  F   UNL     1     -13.806   8.091   3.009  1.00  0.00    -0.206 F 
ATOM     72  C   UNL     1     -14.646   8.228  -0.514  1.00  0.00     0.006 A 
ENDBRANCH  51  65
BRANCH  52  73
ATOM     73  C   UNL     1     -10.657  -0.421   8.041  1.00  0.00     0.057 A 
ATOM     74  C   UNL     1     -11.137  -1.736   8.025  1.00  0.00     0.134 A 
ATOM     75  C   UNL     1      -9.761  -0.074   9.058  1.00  0.00     0.134 A 
ATOM     76  F   UNL     1     -12.014  -2.122   7.086  1.00  0.00    -0.206 F 
ATOM     77  C   UNL     1     -10.764  -2.664   8.998  1.00  0.00     0.040 A 
ATOM     78  C   UNL     1      -9.362  -0.997  10.026  1.00  0.00     0.040 A 
ATOM     79  F   UNL     1      -9.260   1.169   9.124  1.00  0.00    -0.206 F 
ATOM     80  C   UNL     1      -9.871  -2.294  10.003  1.00  0.00     0.006 A 
ENDBRANCH  52  73
BRANCH  64  81
ATOM     81  C   UNL     1     -16.741   2.750   6.950  1.00  0.00     0.057 A 
ATOM     82  C   UNL     1     -16.986   3.334   8.198  1.00  0.00     0.134 A 
ATOM     83  C   UNL     1     -17.798   2.079   6.325  1.00  0.00     0.134 A 
ATOM     84  F   UNL     1     -16.007   3.978   8.852  1.00  0.00    -0.206 F 
ATOM     85  C   UNL     1     -18.237   3.241   8.810  1.00  0.00     0.040 A 
ATOM     86  C   UNL     1     -19.058   1.996   6.917  1.00  0.00     0.040 A 
ATOM     87  F   UNL     1     -17.625   1.504   5.125  1.00  0.00    -0.206 F 
ATOM     88  C   UNL     1     -19.279   2.575   8.166  1.00  0.00     0.006 A 
ENDBRANCH  64  81
ENDBRANCH  38  39
ENDBRANCH  30  33
ENDBRANCH  28  29
ENDBRANCH  27  28
ENDBRANCH  26  27
ENDBRANCH   1  26
TORSDOF 15
