REMARK SMILES Cn1cc(S(=O)(=O)N[C@@H]2C=C[C@@H](C(=O)NCCCCNC(=O)c3ccc(-c4c5nc(c(-c6c(F)cccc6F)c6ccc([nH]6)c(-c6c(F)cccc6F)c6nc(c(-c7c(F)cccc7F)c7ccc4[nH]7)C=C6)C=C5)cc3)C2)cc1C(N)=O
REMARK SMILES IDX 16 1 15 2 13 3 14 4 12 6 9 7 10 8 77 9 11 10 8 11 5 13 6 14
REMARK SMILES IDX 7 15 4 16 1 17 2 18 3 19 79 20 78 21 80 22 81 23 82 24 17 27
REMARK SMILES IDX 18 28 19 29 20 30 21 31 22 33 23 34 24 35 76 36 25 37 75 38
REMARK SMILES IDX 26 39 27 40 28 41 69 42 29 43 74 44 68 45 70 46 30 47 73 48
REMARK SMILES IDX 67 49 66 50 31 52 57 53 40 54 56 55 41 56 44 57 55 58 71 59
REMARK SMILES IDX 42 60 43 61 54 63 72 64 45 65 32 66 33 67 38 68 34 69 35 70
REMARK SMILES IDX 37 71 39 72 36 73 58 74 59 75 64 76 60 77 61 78 63 79 65 80
REMARK SMILES IDX 62 81 46 82 47 83 52 84 48 85 49 86 51 87 53 88 50 89
REMARK H PARENT 15 5 8 12 81 25 81 26 20 32 70 51 44 62
REMARK Flexibility Score: inf
ROOT
ATOM      1  C   UNL     1      -3.697  -2.483  -1.636  1.00  0.00     0.116 C 
ENDROOT
BRANCH   1   2
ATOM      2  N   UNL     1      -3.008  -3.404  -0.750  1.00  0.00    -0.356 N 
ATOM      3  C   UNL     1      -3.018  -3.494   0.611  1.00  0.00     0.226 C 
ATOM      4  O   UNL     1      -2.397  -4.429   1.124  1.00  0.00    -0.274 OA
ATOM      5  H   UNL     1      -2.444  -4.070  -1.205  1.00  0.00     0.163 HD
BRANCH   3   6
ATOM      6  C   UNL     1      -3.760  -2.485   1.493  1.00  0.00     0.103 C 
ATOM      7  C   UNL     1      -4.462  -0.129   1.249  1.00  0.00     0.093 C 
ATOM      8  C   UNL     1      -5.565  -1.096   0.960  1.00  0.00    -0.011 C 
ATOM      9  C   UNL     1      -3.229  -1.048   1.374  1.00  0.00     0.042 C 
ATOM     10  C   UNL     1      -5.207  -2.372   1.134  1.00  0.00    -0.016 C 
BRANCH   7  11
ATOM     11  N   UNL     1      -4.692   0.550   2.532  1.00  0.00    -0.204 NA
ATOM     12  H   UNL     1      -4.859  -0.173   3.232  1.00  0.00     0.142 HD
BRANCH  11  13
ATOM     13  S   UNL     1      -5.975   1.649   2.629  1.00  0.00     0.242 S 
ATOM     14  O   UNL     1      -6.085   2.324   1.356  1.00  0.00    -0.207 OA
ATOM     15  O   UNL     1      -5.817   2.361   3.876  1.00  0.00    -0.207 OA
BRANCH  13  16
ATOM     16  C   UNL     1      -7.448   0.772   2.813  1.00  0.00     0.100 A 
ATOM     17  C   UNL     1     -10.987   0.203   2.377  1.00  0.00     0.150 C 
ATOM     18  N   UNL     1      -9.567   0.122   2.649  1.00  0.00    -0.345 N 
ATOM     19  C   UNL     1      -8.709   1.177   2.437  1.00  0.00     0.107 A 
ATOM     20  C   UNL     1      -8.861  -0.987   3.088  1.00  0.00     0.107 A 
ATOM     21  C   UNL     1      -7.564  -0.542   3.321  1.00  0.00     0.055 A 
BRANCH  20  22
ATOM     22  C   UNL     1      -9.394  -2.326   3.248  1.00  0.00     0.265 C 
ATOM     23  N   UNL     1      -8.461  -3.324   3.279  1.00  0.00    -0.364 N 
ATOM     24  O   UNL     1     -10.584  -2.613   3.306  1.00  0.00    -0.268 OA
ATOM     25  H   UNL     1      -7.503  -3.103   3.233  1.00  0.00     0.160 HD
ATOM     26  H   UNL     1      -8.747  -4.263   3.348  1.00  0.00     0.160 HD
ENDBRANCH  20  22
ENDBRANCH  13  16
ENDBRANCH  11  13
ENDBRANCH   7  11
ENDBRANCH   3   6
ENDBRANCH   1   2
BRANCH   1  27
ATOM     27  C   UNL     1      -2.756  -1.825  -2.635  1.00  0.00     0.023 C 
BRANCH  27  28
ATOM     28  C   UNL     1      -2.255  -2.749  -3.740  1.00  0.00     0.023 C 
BRANCH  28  29
ATOM     29  C   UNL     1      -3.345  -3.453  -4.542  1.00  0.00     0.116 C 
BRANCH  29  30
ATOM     30  N   UNL     1      -4.311  -2.537  -5.137  1.00  0.00    -0.352 N 
ATOM     31  C   UNL     1      -4.755  -2.472  -6.437  1.00  0.00     0.251 C 
ATOM     32  H   UNL     1      -4.699  -1.872  -4.523  1.00  0.00     0.163 HD
ATOM     33  O   UNL     1      -5.503  -1.572  -6.800  1.00  0.00    -0.269 OA
BRANCH  31  34
ATOM     34  C   UNL     1      -4.279  -3.478  -7.404  1.00  0.00     0.039 A 
ATOM     35  C   UNL     1      -3.655  -3.043  -8.576  1.00  0.00     0.014 A 
ATOM     36  C   UNL     1      -4.371  -4.840  -7.107  1.00  0.00     0.014 A 
ATOM     37  C   UNL     1      -3.021  -3.974  -9.399  1.00  0.00     0.010 A 
ATOM     38  C   UNL     1      -3.686  -5.758  -7.894  1.00  0.00     0.010 A 
ATOM     39  C   UNL     1      -2.982  -5.328  -9.030  1.00  0.00    -0.014 A 
BRANCH  39  40
ATOM     40  C   UNL     1      -2.151  -6.305  -9.775  1.00  0.00     0.031 A 
ATOM     41  C   UNL     1      -2.794  -7.448 -10.502  1.00  0.00     0.074 A 
ATOM     42  C   UNL     1      -0.809  -6.217  -9.701  1.00  0.00     0.049 A 
ATOM     43  N   UNL     1      -2.230  -8.463 -11.104  1.00  0.00    -0.248 NA
ATOM     44  C   UNL     1      -4.265  -7.467 -10.534  1.00  0.00     0.031 C 
ATOM     45  C   UNL     1      -0.065  -5.184  -8.975  1.00  0.00     0.029 A 
ATOM     46  N   UNL     1       0.170  -7.024 -10.224  1.00  0.00    -0.354 N 
ATOM     47  C   UNL     1      -3.273  -9.252 -11.569  1.00  0.00     0.074 A 
ATOM     48  C   UNL     1      -4.504  -8.617 -11.149  1.00  0.00     0.031 C 
ATOM     49  C   UNL     1       1.251  -5.414  -9.108  1.00  0.00     0.029 A 
ATOM     50  C   UNL     1       1.444  -6.627  -9.895  1.00  0.00     0.049 A 
ATOM     51  H   UNL     1      -0.022  -7.812 -10.781  1.00  0.00     0.167 HD
ATOM     52  C   UNL     1      -3.208 -10.393 -12.294  1.00  0.00     0.037 A 
ATOM     53  C   UNL     1       2.633  -7.187 -10.182  1.00  0.00     0.037 A 
ATOM     54  C   UNL     1      -1.985 -11.004 -12.739  1.00  0.00     0.049 A 
ATOM     55  C   UNL     1       2.676  -8.452 -10.990  1.00  0.00     0.074 A 
ATOM     56  C   UNL     1      -1.821 -12.109 -13.557  1.00  0.00     0.029 A 
ATOM     57  N   UNL     1      -0.715 -10.564 -12.400  1.00  0.00    -0.354 N 
ATOM     58  N   UNL     1       1.682  -9.148 -11.483  1.00  0.00    -0.248 NA
ATOM     59  C   UNL     1       4.005  -9.011 -11.276  1.00  0.00     0.031 C 
ATOM     60  C   UNL     1      -0.450 -12.357 -13.685  1.00  0.00     0.029 A 
ATOM     61  C   UNL     1       0.239 -11.390 -12.971  1.00  0.00     0.049 A 
ATOM     62  H   UNL     1      -0.519  -9.781 -11.836  1.00  0.00     0.167 HD
ATOM     63  C   UNL     1       2.263 -10.219 -12.147  1.00  0.00     0.074 A 
ATOM     64  C   UNL     1       3.697 -10.073 -12.007  1.00  0.00     0.031 C 
ATOM     65  C   UNL     1       1.661 -11.235 -12.812  1.00  0.00     0.037 A 
BRANCH  52  66
ATOM     66  C   UNL     1      -4.504 -11.050 -12.658  1.00  0.00     0.057 A 
ATOM     67  C   UNL     1      -5.344 -10.521 -13.646  1.00  0.00     0.134 A 
ATOM     68  C   UNL     1      -4.899 -12.243 -12.040  1.00  0.00     0.134 A 
ATOM     69  F   UNL     1      -5.027  -9.374 -14.264  1.00  0.00    -0.206 F 
ATOM     70  C   UNL     1      -6.542 -11.146 -13.993  1.00  0.00     0.040 A 
ATOM     71  C   UNL     1      -6.085 -12.888 -12.394  1.00  0.00     0.040 A 
ATOM     72  F   UNL     1      -4.137 -12.802 -11.088  1.00  0.00    -0.206 F 
ATOM     73  C   UNL     1      -6.912 -12.336 -13.370  1.00  0.00     0.006 A 
ENDBRANCH  52  66
BRANCH  53  74
ATOM     74  C   UNL     1       3.885  -6.551  -9.706  1.00  0.00     0.057 A 
ATOM     75  C   UNL     1       4.728  -5.873 -10.592  1.00  0.00     0.134 A 
ATOM     76  C   UNL     1       4.265  -6.603  -8.360  1.00  0.00     0.134 A 
ATOM     77  F   UNL     1       4.423  -5.808 -11.897  1.00  0.00    -0.206 F 
ATOM     78  C   UNL     1       5.915  -5.279 -10.161  1.00  0.00     0.040 A 
ATOM     79  C   UNL     1       5.440  -5.998  -7.911  1.00  0.00     0.040 A 
ATOM     80  F   UNL     1       3.494  -7.233  -7.462  1.00  0.00    -0.206 F 
ATOM     81  C   UNL     1       6.271  -5.337  -8.814  1.00  0.00     0.006 A 
ENDBRANCH  53  74
BRANCH  65  82
ATOM     82  C   UNL     1       2.554 -12.261 -13.439  1.00  0.00     0.057 A 
ATOM     83  C   UNL     1       3.186 -13.246 -12.671  1.00  0.00     0.134 A 
ATOM     84  C   UNL     1       2.756 -12.285 -14.824  1.00  0.00     0.134 A 
ATOM     85  F   UNL     1       3.043 -13.264 -11.337  1.00  0.00    -0.206 F 
ATOM     86  C   UNL     1       4.001 -14.214 -13.259  1.00  0.00     0.040 A 
ATOM     87  C   UNL     1       3.553 -13.259 -15.426  1.00  0.00     0.040 A 
ATOM     88  F   UNL     1       2.174 -11.369 -15.613  1.00  0.00    -0.206 F 
ATOM     89  C   UNL     1       4.181 -14.225 -14.642  1.00  0.00     0.006 A 
ENDBRANCH  65  82
ENDBRANCH  39  40
ENDBRANCH  31  34
ENDBRANCH  29  30
ENDBRANCH  28  29
ENDBRANCH  27  28
ENDBRANCH   1  27
TORSDOF 15
