REMARK SMILES COc1ccc(-c2sc(N)nc2C(=O)NCCCCNC(=O)c2ccc(-c3c4nc(c(-c5c(F)cccc5F)c5ccc([nH]5)c(-c5c(F)cccc5F)c5nc(c(-c6c(F)cccc6F)c6ccc3[nH]6)C=C5)C=C4)cc2)cc1OC
REMARK SMILES IDX 17 1 16 2 15 3 13 4 14 5 12 7 7 8 8 9 9 10 11 11 6 12 3 13
REMARK SMILES IDX 4 14 78 15 5 16 77 17 2 18 1 19 79 20 80 21 10 22 18 25
REMARK SMILES IDX 19 26 20 27 21 28 22 30 23 31 24 32 76 33 25 34 75 35 26 36
REMARK SMILES IDX 27 37 28 38 69 39 29 40 74 41 68 42 70 43 30 44 73 45 67 46
REMARK SMILES IDX 66 47 31 49 57 50 40 51 56 52 41 53 44 54 55 55 71 56 42 57
REMARK SMILES IDX 43 58 54 60 72 61 45 62 32 63 33 64 38 65 34 66 35 67 37 68
REMARK SMILES IDX 39 69 36 70 58 71 59 72 64 73 60 74 61 75 63 76 65 77 62 78
REMARK SMILES IDX 46 79 47 80 52 81 48 82 49 83 51 84 53 85 50 86
REMARK H PARENT 15 6 10 23 10 24 20 29 70 48 44 59
REMARK Flexibility Score: inf
ROOT
ATOM      1  C   UNL     1       6.728   6.392   6.029  1.00  0.00     0.023 C 
ENDROOT
BRANCH   1   2
ATOM      2  C   UNL     1       5.295   6.898   5.864  1.00  0.00     0.116 C 
BRANCH   2   3
ATOM      3  N   UNL     1       4.708   6.467   4.609  1.00  0.00    -0.351 N 
ATOM      4  C   UNL     1       3.713   5.562   4.318  1.00  0.00     0.271 C 
ATOM      5  O   UNL     1       3.448   5.429   3.121  1.00  0.00    -0.267 OA
ATOM      6  H   UNL     1       5.094   6.905   3.817  1.00  0.00     0.163 HD
BRANCH   4   7
ATOM      7  C   UNL     1       3.007   4.812   5.372  1.00  0.00     0.149 A 
ATOM      8  C   UNL     1       2.138   3.750   5.128  1.00  0.00     0.069 A 
ATOM      9  S   UNL     1       1.470   3.183   6.607  1.00  0.00    -0.096 S 
ATOM     10  C   UNL     1       2.395   4.333   7.465  1.00  0.00     0.181 A 
ATOM     11  N   UNL     1       3.130   5.120   6.728  1.00  0.00    -0.215 NA
BRANCH   8  12
ATOM     12  C   UNL     1       1.793   3.063   3.883  1.00  0.00    -0.002 A 
ATOM     13  C   UNL     1       1.236   1.802   1.433  1.00  0.00     0.160 A 
ATOM     14  C   UNL     1       0.234   2.512   2.112  1.00  0.00     0.051 A 
ATOM     15  C   UNL     1       2.524   1.718   1.973  1.00  0.00     0.161 A 
ATOM     16  C   UNL     1       0.508   3.132   3.336  1.00  0.00     0.014 A 
ATOM     17  C   UNL     1       2.784   2.347   3.197  1.00  0.00     0.060 A 
BRANCH  13  18
ATOM     18  O   UNL     1       0.959   1.306   0.187  1.00  0.00    -0.493 OA
ATOM     19  C   UNL     1       0.034   0.221   0.231  1.00  0.00     0.278 C 
ENDBRANCH  13  18
BRANCH  15  20
ATOM     20  O   UNL     1       3.631   1.103   1.455  1.00  0.00    -0.493 OA
ATOM     21  C   UNL     1       3.457   0.201   0.375  1.00  0.00     0.278 C 
ENDBRANCH  15  20
ENDBRANCH   8  12
BRANCH  10  22
ATOM     22  N   UNL     1       2.368   4.413   8.798  1.00  0.00    -0.375 N 
ATOM     23  H   UNL     1       1.799   3.800   9.317  1.00  0.00     0.159 HD
ATOM     24  H   UNL     1       2.918   5.086   9.262  1.00  0.00     0.159 HD
ENDBRANCH  10  22
ENDBRANCH   4   7
ENDBRANCH   2   3
ENDBRANCH   1   2
BRANCH   1  25
ATOM     25  C   UNL     1       7.737   6.983   5.040  1.00  0.00     0.023 C 
BRANCH  25  26
ATOM     26  C   UNL     1       7.796   8.507   4.989  1.00  0.00     0.116 C 
BRANCH  26  27
ATOM     27  N   UNL     1       8.109   9.120   6.272  1.00  0.00    -0.352 N 
ATOM     28  C   UNL     1       8.944  10.180   6.537  1.00  0.00     0.251 C 
ATOM     29  H   UNL     1       7.663   8.722   7.055  1.00  0.00     0.163 HD
ATOM     30  O   UNL     1       9.177  10.519   7.693  1.00  0.00    -0.269 OA
BRANCH  28  31
ATOM     31  C   UNL     1       9.596  10.884   5.414  1.00  0.00     0.039 A 
ATOM     32  C   UNL     1      10.981  11.066   5.441  1.00  0.00     0.014 A 
ATOM     33  C   UNL     1       8.846  11.319   4.318  1.00  0.00     0.014 A 
ATOM     34  C   UNL     1      11.629  11.607   4.328  1.00  0.00     0.010 A 
ATOM     35  C   UNL     1       9.499  11.798   3.187  1.00  0.00     0.010 A 
ATOM     36  C   UNL     1      10.896  11.935   3.176  1.00  0.00    -0.014 A 
BRANCH  36  37
ATOM     37  C   UNL     1      11.562  12.408   1.936  1.00  0.00     0.031 A 
ATOM     38  C   UNL     1      11.281  13.788   1.415  1.00  0.00     0.074 A 
ATOM     39  C   UNL     1      12.337  11.563   1.229  1.00  0.00     0.049 A 
ATOM     40  N   UNL     1      11.638  14.333   0.280  1.00  0.00    -0.248 NA
ATOM     41  C   UNL     1      10.462  14.660   2.271  1.00  0.00     0.031 C 
ATOM     42  C   UNL     1      12.659  10.186   1.608  1.00  0.00     0.029 A 
ATOM     43  N   UNL     1      12.978  11.733   0.026  1.00  0.00    -0.354 N 
ATOM     44  C   UNL     1      11.069  15.599   0.275  1.00  0.00     0.074 A 
ATOM     45  C   UNL     1      10.310  15.727   1.501  1.00  0.00     0.031 C 
ATOM     46  C   UNL     1      13.441   9.640   0.663  1.00  0.00     0.029 A 
ATOM     47  C   UNL     1      13.642  10.611  -0.407  1.00  0.00     0.049 A 
ATOM     48  H   UNL     1      12.963  12.579  -0.477  1.00  0.00     0.167 HD
ATOM     49  C   UNL     1      11.182  16.573  -0.659  1.00  0.00     0.037 A 
ATOM     50  C   UNL     1      14.321  10.385  -1.548  1.00  0.00     0.037 A 
ATOM     51  C   UNL     1      11.963  16.455  -1.861  1.00  0.00     0.049 A 
ATOM     52  C   UNL     1      14.427  11.480  -2.573  1.00  0.00     0.074 A 
ATOM     53  C   UNL     1      12.190  17.408  -2.838  1.00  0.00     0.029 A 
ATOM     54  N   UNL     1      12.646  15.312  -2.249  1.00  0.00    -0.354 N 
ATOM     55  N   UNL     1      13.928  12.692  -2.541  1.00  0.00    -0.248 NA
ATOM     56  C   UNL     1      15.188  11.177  -3.794  1.00  0.00     0.031 C 
ATOM     57  C   UNL     1      12.982  16.831  -3.836  1.00  0.00     0.029 A 
ATOM     58  C   UNL     1      13.282  15.531  -3.459  1.00  0.00     0.049 A 
ATOM     59  H   UNL     1      12.675  14.470  -1.739  1.00  0.00     0.167 HD
ATOM     60  C   UNL     1      14.340  13.304  -3.717  1.00  0.00     0.074 A 
ATOM     61  C   UNL     1      15.133  12.333  -4.441  1.00  0.00     0.031 C 
ATOM     62  C   UNL     1      14.084  14.560  -4.157  1.00  0.00     0.037 A 
BRANCH  49  63
ATOM     63  C   UNL     1      10.443  17.855  -0.413  1.00  0.00     0.057 A 
ATOM     64  C   UNL     1      10.847  18.760   0.577  1.00  0.00     0.134 A 
ATOM     65  C   UNL     1       9.335  18.202  -1.194  1.00  0.00     0.134 A 
ATOM     66  F   UNL     1      11.894  18.481   1.368  1.00  0.00    -0.206 F 
ATOM     67  C   UNL     1      10.159  19.954   0.798  1.00  0.00     0.040 A 
ATOM     68  C   UNL     1       8.654  19.405  -1.000  1.00  0.00     0.040 A 
ATOM     69  F   UNL     1       8.899  17.383  -2.163  1.00  0.00    -0.206 F 
ATOM     70  C   UNL     1       9.062  20.282   0.003  1.00  0.00     0.006 A 
ENDBRANCH  49  63
BRANCH  50  71
ATOM     71  C   UNL     1      14.967   9.069  -1.780  1.00  0.00     0.057 A 
ATOM     72  C   UNL     1      16.360   8.937  -1.743  1.00  0.00     0.134 A 
ATOM     73  C   UNL     1      14.216   7.919  -2.047  1.00  0.00     0.134 A 
ATOM     74  F   UNL     1      17.134  10.007  -1.511  1.00  0.00    -0.206 F 
ATOM     75  C   UNL     1      16.985   7.711  -1.980  1.00  0.00     0.040 A 
ATOM     76  C   UNL     1      14.826   6.682  -2.264  1.00  0.00     0.040 A 
ATOM     77  F   UNL     1      12.877   7.980  -2.090  1.00  0.00    -0.206 F 
ATOM     78  C   UNL     1      16.215   6.578  -2.237  1.00  0.00     0.006 A 
ENDBRANCH  50  71
BRANCH  62  79
ATOM     79  C   UNL     1      14.702  14.975  -5.458  1.00  0.00     0.057 A 
ATOM     80  C   UNL     1      14.207  14.525  -6.688  1.00  0.00     0.134 A 
ATOM     81  C   UNL     1      15.765  15.887  -5.479  1.00  0.00     0.134 A 
ATOM     82  F   UNL     1      13.199  13.642  -6.733  1.00  0.00    -0.206 F 
ATOM     83  C   UNL     1      14.757  14.960  -7.895  1.00  0.00     0.040 A 
ATOM     84  C   UNL     1      16.308  16.345  -6.680  1.00  0.00     0.040 A 
ATOM     85  F   UNL     1      16.279  16.360  -4.334  1.00  0.00    -0.206 F 
ATOM     86  C   UNL     1      15.804  15.880  -7.893  1.00  0.00     0.006 A 
ENDBRANCH  62  79
ENDBRANCH  36  37
ENDBRANCH  28  31
ENDBRANCH  26  27
ENDBRANCH  25  26
ENDBRANCH   1  25
TORSDOF 15
