REMARK SMILES Cc1ccccc1CSCC(=O)Nc1ccc(C)c(C(=O)NCCCCNC(=O)c2ccc(-c3c4nc(c(-c5c(F)cccc5F)c5ccc([nH]5)c(-c5c(F)cccc5F)c5nc(c(-c6c(F)cccc6F)c6ccc3[nH]6)C=C5)C=C4)cc2)c1
REMARK SMILES IDX 23 1 22 2 20 3 21 4 19 6 14 7 15 8 84 9 16 10 17 11 18 12
REMARK SMILES IDX 13 13 11 14 12 15 10 17 9 18 8 19 7 20 1 21 2 22 3 23 4 24
REMARK SMILES IDX 6 25 5 26 24 27 25 28 26 29 27 30 28 31 29 33 30 34 31 35
REMARK SMILES IDX 83 36 32 37 82 38 33 39 34 40 35 41 76 42 36 43 81 44 75 45
REMARK SMILES IDX 77 46 37 47 80 48 74 49 73 50 38 52 64 53 47 54 63 55 48 56
REMARK SMILES IDX 51 57 62 58 78 59 49 60 50 61 61 63 79 64 52 65 39 66 40 67
REMARK SMILES IDX 45 68 41 69 42 70 44 71 46 72 43 73 65 74 66 75 71 76 67 77
REMARK SMILES IDX 68 78 70 79 72 80 69 81 53 82 54 83 59 84 55 85 56 86 58 87
REMARK SMILES IDX 60 88 57 89
REMARK H PARENT 22 5 13 16 27 32 77 51 51 62
REMARK Flexibility Score: inf
ROOT
ATOM      1  C   UNL     1       2.467  10.403  -4.396  1.00  0.00     0.116 C 
ENDROOT
BRANCH   1   2
ATOM      2  N   UNL     1       3.325   9.339  -4.867  1.00  0.00    -0.352 N 
ATOM      3  C   UNL     1       3.400   7.979  -4.742  1.00  0.00     0.251 C 
ATOM      4  O   UNL     1       4.115   7.454  -5.607  1.00  0.00    -0.269 OA
ATOM      5  H   UNL     1       4.052   9.688  -5.431  1.00  0.00     0.163 HD
BRANCH   3   6
ATOM      6  C   UNL     1       2.847   7.089  -3.659  1.00  0.00     0.044 A 
ATOM      7  C   UNL     1       3.074   4.814  -2.743  1.00  0.00     0.042 A 
ATOM      8  C   UNL     1       2.394   5.207  -1.609  1.00  0.00     0.026 A 
ATOM      9  C   UNL     1       3.408   5.779  -3.687  1.00  0.00     0.040 A 
ATOM     10  C   UNL     1       1.780   6.445  -1.577  1.00  0.00     0.006 A 
ATOM     11  C   UNL     1       1.891   7.342  -2.658  1.00  0.00    -0.038 A 
ATOM     12  C   UNL     1       0.851   8.414  -2.653  1.00  0.00     0.045 C 
BRANCH   7  13
ATOM     13  N   UNL     1       3.483   3.488  -2.902  1.00  0.00    -0.325 N 
ATOM     14  C   UNL     1       2.735   2.348  -2.716  1.00  0.00     0.234 C 
ATOM     15  O   UNL     1       3.337   1.283  -2.542  1.00  0.00    -0.274 OA
ATOM     16  H   UNL     1       4.418   3.354  -3.180  1.00  0.00     0.169 HD
BRANCH  14  17
ATOM     17  C   UNL     1       1.228   2.349  -2.984  1.00  0.00     0.170 C 
BRANCH  17  18
ATOM     18  S   UNL     1       0.114   3.046  -1.741  1.00  0.00    -0.147 SA
BRANCH  18  19
ATOM     19  C   UNL     1       0.693   2.220  -0.225  1.00  0.00     0.105 C 
BRANCH  19  20
ATOM     20  C   UNL     1       0.105   0.845  -0.044  1.00  0.00    -0.035 A 
ATOM     21  C   UNL     1       2.381  -0.368  -0.008  1.00  0.00     0.044 C 
ATOM     22  C   UNL     1       0.877  -0.330   0.042  1.00  0.00    -0.047 A 
ATOM     23  C   UNL     1       0.218  -1.568   0.158  1.00  0.00     0.004 A 
ATOM     24  C   UNL     1      -1.172  -1.648   0.233  1.00  0.00     0.000 A 
ATOM     25  C   UNL     1      -1.299   0.744   0.068  1.00  0.00     0.005 A 
ATOM     26  C   UNL     1      -1.933  -0.488   0.201  1.00  0.00     0.000 A 
ENDBRANCH  19  20
ENDBRANCH  18  19
ENDBRANCH  17  18
ENDBRANCH  14  17
ENDBRANCH   7  13
ENDBRANCH   3   6
ENDBRANCH   1   2
BRANCH   1  27
ATOM     27  C   UNL     1       2.894  11.055  -3.074  1.00  0.00     0.023 C 
BRANCH  27  28
ATOM     28  C   UNL     1       3.873  12.226  -3.215  1.00  0.00     0.023 C 
BRANCH  28  29
ATOM     29  C   UNL     1       3.299  13.424  -3.969  1.00  0.00     0.116 C 
BRANCH  29  30
ATOM     30  N   UNL     1       2.650  14.450  -3.164  1.00  0.00    -0.352 N 
ATOM     31  C   UNL     1       1.782  15.458  -3.584  1.00  0.00     0.251 C 
ATOM     32  H   UNL     1       2.851  14.430  -2.201  1.00  0.00     0.163 HD
ATOM     33  O   UNL     1       1.364  16.280  -2.796  1.00  0.00    -0.269 OA
BRANCH  31  34
ATOM     34  C   UNL     1       1.258  15.420  -4.980  1.00  0.00     0.039 A 
ATOM     35  C   UNL     1      -0.129  15.477  -5.148  1.00  0.00     0.014 A 
ATOM     36  C   UNL     1       2.076  15.067  -6.051  1.00  0.00     0.014 A 
ATOM     37  C   UNL     1      -0.702  14.896  -6.278  1.00  0.00     0.010 A 
ATOM     38  C   UNL     1       1.511  14.409  -7.131  1.00  0.00     0.010 A 
ATOM     39  C   UNL     1       0.124  14.249  -7.201  1.00  0.00    -0.014 A 
BRANCH  39  40
ATOM     40  C   UNL     1      -0.394  13.267  -8.150  1.00  0.00     0.031 A 
ATOM     41  C   UNL     1      -0.555  13.590  -9.579  1.00  0.00     0.074 A 
ATOM     42  C   UNL     1      -0.800  12.045  -7.733  1.00  0.00     0.049 A 
ATOM     43  N   UNL     1      -1.571  13.204 -10.281  1.00  0.00    -0.248 NA
ATOM     44  C   UNL     1       0.412  14.382 -10.327  1.00  0.00     0.031 C 
ATOM     45  C   UNL     1      -1.202  10.919  -8.572  1.00  0.00     0.029 A 
ATOM     46  N   UNL     1      -1.134  11.649  -6.438  1.00  0.00    -0.354 N 
ATOM     47  C   UNL     1      -1.263  13.442 -11.596  1.00  0.00     0.074 A 
ATOM     48  C   UNL     1      -0.064  14.253 -11.570  1.00  0.00     0.031 C 
ATOM     49  C   UNL     1      -1.960  10.083  -7.846  1.00  0.00     0.029 A 
ATOM     50  C   UNL     1      -2.154  10.683  -6.540  1.00  0.00     0.049 A 
ATOM     51  H   UNL     1      -0.730  11.982  -5.604  1.00  0.00     0.167 HD
ATOM     52  C   UNL     1      -1.940  12.807 -12.594  1.00  0.00     0.037 A 
ATOM     53  C   UNL     1      -3.349  10.826  -5.899  1.00  0.00     0.037 A 
ATOM     54  C   UNL     1      -2.915  11.851 -12.085  1.00  0.00     0.049 A 
ATOM     55  C   UNL     1      -4.541  10.870  -6.825  1.00  0.00     0.074 A 
ATOM     56  C   UNL     1      -2.857  10.478 -11.907  1.00  0.00     0.029 A 
ATOM     57  N   UNL     1      -4.040  12.286 -11.393  1.00  0.00    -0.354 N 
ATOM     58  N   UNL     1      -4.451  11.023  -8.116  1.00  0.00    -0.248 NA
ATOM     59  C   UNL     1      -5.928  10.806  -6.372  1.00  0.00     0.031 C 
ATOM     60  C   UNL     1      -3.948  10.084 -11.102  1.00  0.00     0.029 A 
ATOM     61  C   UNL     1      -4.672  11.218 -10.783  1.00  0.00     0.049 A 
ATOM     62  H   UNL     1      -4.342  13.222 -11.344  1.00  0.00     0.167 HD
ATOM     63  C   UNL     1      -5.707  11.140  -8.658  1.00  0.00     0.074 A 
ATOM     64  C   UNL     1      -6.598  10.957  -7.529  1.00  0.00     0.031 C 
ATOM     65  C   UNL     1      -5.880  11.399  -9.990  1.00  0.00     0.037 A 
BRANCH  52  66
ATOM     66  C   UNL     1      -1.446  12.845 -14.015  1.00  0.00     0.057 A 
ATOM     67  C   UNL     1      -1.413  11.697 -14.826  1.00  0.00     0.134 A 
ATOM     68  C   UNL     1      -0.938  14.010 -14.615  1.00  0.00     0.134 A 
ATOM     69  F   UNL     1      -1.940  10.533 -14.427  1.00  0.00    -0.206 F 
ATOM     70  C   UNL     1      -0.813  11.681 -16.090  1.00  0.00     0.040 A 
ATOM     71  C   UNL     1      -0.295  13.999 -15.861  1.00  0.00     0.040 A 
ATOM     72  F   UNL     1      -1.044  15.201 -14.007  1.00  0.00    -0.206 F 
ATOM     73  C   UNL     1      -0.217  12.825 -16.597  1.00  0.00     0.006 A 
ENDBRANCH  52  66
BRANCH  53  74
ATOM     74  C   UNL     1      -3.226  11.578  -4.625  1.00  0.00     0.057 A 
ATOM     75  C   UNL     1      -2.462  11.009  -3.589  1.00  0.00     0.134 A 
ATOM     76  C   UNL     1      -3.463  12.953  -4.567  1.00  0.00     0.134 A 
ATOM     77  F   UNL     1      -2.198   9.692  -3.589  1.00  0.00    -0.206 F 
ATOM     78  C   UNL     1      -1.839  11.795  -2.618  1.00  0.00     0.040 A 
ATOM     79  C   UNL     1      -2.858  13.747  -3.588  1.00  0.00     0.040 A 
ATOM     80  F   UNL     1      -4.172  13.565  -5.526  1.00  0.00    -0.206 F 
ATOM     81  C   UNL     1      -2.006  13.176  -2.642  1.00  0.00     0.006 A 
ENDBRANCH  53  74
BRANCH  65  82
ATOM     82  C   UNL     1      -7.175  11.730 -10.703  1.00  0.00     0.057 A 
ATOM     83  C   UNL     1      -8.316  12.270 -10.092  1.00  0.00     0.134 A 
ATOM     84  C   UNL     1      -7.265  11.609 -12.112  1.00  0.00     0.134 A 
ATOM     85  F   UNL     1      -8.345  12.560  -8.786  1.00  0.00    -0.206 F 
ATOM     86  C   UNL     1      -9.476  12.599 -10.812  1.00  0.00     0.040 A 
ATOM     87  C   UNL     1      -8.395  11.985 -12.845  1.00  0.00     0.040 A 
ATOM     88  F   UNL     1      -6.248  11.139 -12.850  1.00  0.00    -0.206 F 
ATOM     89  C   UNL     1      -9.517  12.465 -12.193  1.00  0.00     0.006 A 
ENDBRANCH  65  82
ENDBRANCH  39  40
ENDBRANCH  31  34
ENDBRANCH  29  30
ENDBRANCH  28  29
ENDBRANCH  27  28
ENDBRANCH   1  27
TORSDOF 16
