REMARK SMILES Cc1cscc1CNC(=O)CC(C)(C)C(=O)NCCCCNC(=O)c1ccc(-c2c3nc(c(-c4c(F)cccc4F)c4ccc([nH]4)c(-c4c(F)cccc4F)c4nc(c(-c5c(F)cccc5F)c5ccc2[nH]5)C=C4)C=C3)cc1
REMARK SMILES IDX 18 1 17 2 15 3 16 4 12 6 13 7 14 8 11 9 9 10 8 11 10 13 7 14
REMARK SMILES IDX 6 15 1 16 2 17 3 18 4 19 5 20 19 21 20 22 21 23 22 24 23 25
REMARK SMILES IDX 24 27 25 28 26 29 78 30 27 31 77 32 28 33 29 34 30 35 71 36
REMARK SMILES IDX 31 37 76 38 70 39 72 40 32 41 75 42 69 43 68 44 33 46 59 47
REMARK SMILES IDX 42 48 58 49 43 50 46 51 57 52 73 53 44 54 45 55 56 57 74 58
REMARK SMILES IDX 47 59 34 60 35 61 40 62 36 63 37 64 39 65 41 66 38 67 60 68
REMARK SMILES IDX 61 69 66 70 62 71 63 72 65 73 67 74 64 75 48 76 49 77 54 78
REMARK SMILES IDX 50 79 51 80 53 81 55 82 52 83
REMARK H PARENT 17 5 8 12 22 26 72 45 46 56
REMARK Flexibility Score: inf
ROOT
ATOM      1  C   UNL     1      -3.072   2.931   2.570  1.00  0.00     0.116 C 
ENDROOT
BRANCH   1   2
ATOM      2  N   UNL     1      -2.915   3.552   1.272  1.00  0.00    -0.356 N 
ATOM      3  C   UNL     1      -1.881   4.198   0.672  1.00  0.00     0.226 C 
ATOM      4  O   UNL     1      -2.132   4.618  -0.459  1.00  0.00    -0.274 OA
ATOM      5  H   UNL     1      -3.721   3.495   0.709  1.00  0.00     0.163 HD
BRANCH   3   6
ATOM      6  C   UNL     1      -0.530   4.476   1.369  1.00  0.00     0.052 C 
ATOM      7  C   UNL     1       0.060   3.240   2.070  1.00  0.00     0.022 C 
ATOM      8  C   UNL     1      -0.780   5.564   2.439  1.00  0.00     0.022 C 
BRANCH   6   9
ATOM      9  C   UNL     1       0.526   5.048   0.364  1.00  0.00     0.116 C 
BRANCH   9  10
ATOM     10  C   UNL     1       0.527   4.594  -1.092  1.00  0.00     0.221 C 
ATOM     11  N   UNL     1       0.953   3.363  -1.468  1.00  0.00    -0.352 N 
ATOM     12  H   UNL     1       0.741   3.128  -2.400  1.00  0.00     0.163 HD
ATOM     13  O   UNL     1       0.215   5.375  -1.994  1.00  0.00    -0.275 OA
BRANCH  11  14
ATOM     14  C   UNL     1       1.661   2.337  -0.744  1.00  0.00     0.152 C 
BRANCH  14  15
ATOM     15  C   UNL     1       0.844   1.077  -0.651  1.00  0.00    -0.015 A 
ATOM     16  C   UNL     1       2.831  -0.479   0.024  1.00  0.00     0.045 C 
ATOM     17  C   UNL     1       1.390  -0.214  -0.279  1.00  0.00    -0.035 A 
ATOM     18  C   UNL     1       0.408  -1.186  -0.231  1.00  0.00     0.068 A 
ATOM     19  S   UNL     1      -1.138  -0.589  -0.628  1.00  0.00    -0.152 S 
ATOM     20  C   UNL     1      -0.520   0.979  -0.882  1.00  0.00     0.070 A 
ENDBRANCH  14  15
ENDBRANCH  11  14
ENDBRANCH   9  10
ENDBRANCH   6   9
ENDBRANCH   3   6
ENDBRANCH   1   2
BRANCH   1  21
ATOM     21  C   UNL     1      -4.247   3.509   3.352  1.00  0.00     0.023 C 
BRANCH  21  22
ATOM     22  C   UNL     1      -5.625   3.268   2.739  1.00  0.00     0.023 C 
BRANCH  22  23
ATOM     23  C   UNL     1      -5.938   1.821   2.374  1.00  0.00     0.116 C 
BRANCH  23  24
ATOM     24  N   UNL     1      -5.783   0.899   3.490  1.00  0.00    -0.352 N 
ATOM     25  C   UNL     1      -6.662  -0.036   3.981  1.00  0.00     0.251 C 
ATOM     26  H   UNL     1      -4.921   0.954   3.963  1.00  0.00     0.163 HD
ATOM     27  O   UNL     1      -6.398  -0.654   5.008  1.00  0.00    -0.269 OA
BRANCH  25  28
ATOM     28  C   UNL     1      -7.946  -0.268   3.290  1.00  0.00     0.039 A 
ATOM     29  C   UNL     1      -9.123  -0.286   4.043  1.00  0.00     0.014 A 
ATOM     30  C   UNL     1      -7.992  -0.433   1.903  1.00  0.00     0.014 A 
ATOM     31  C   UNL     1     -10.355  -0.387   3.394  1.00  0.00     0.010 A 
ATOM     32  C   UNL     1      -9.222  -0.455   1.254  1.00  0.00     0.010 A 
ATOM     33  C   UNL     1     -10.415  -0.427   1.992  1.00  0.00    -0.014 A 
BRANCH  33  34
ATOM     34  C   UNL     1     -11.716  -0.437   1.276  1.00  0.00     0.031 A 
ATOM     35  C   UNL     1     -12.100  -1.619   0.431  1.00  0.00     0.074 A 
ATOM     36  C   UNL     1     -12.517   0.645   1.330  1.00  0.00     0.049 A 
ATOM     37  N   UNL     1     -13.143  -1.780  -0.342  1.00  0.00    -0.248 NA
ATOM     38  C   UNL     1     -11.174  -2.763   0.435  1.00  0.00     0.031 C 
ATOM     39  C   UNL     1     -12.236   1.874   2.076  1.00  0.00     0.029 A 
ATOM     40  N   UNL     1     -13.729   0.890   0.734  1.00  0.00    -0.354 N 
ATOM     41  C   UNL     1     -12.994  -3.033  -0.921  1.00  0.00     0.074 A 
ATOM     42  C   UNL     1     -11.732  -3.567  -0.457  1.00  0.00     0.031 C 
ATOM     43  C   UNL     1     -13.254   2.734   1.907  1.00  0.00     0.029 A 
ATOM     44  C   UNL     1     -14.240   2.134   1.015  1.00  0.00     0.049 A 
ATOM     45  H   UNL     1     -14.188   0.236   0.159  1.00  0.00     0.167 HD
ATOM     46  C   UNL     1     -13.845  -3.693  -1.742  1.00  0.00     0.037 A 
ATOM     47  C   UNL     1     -15.373   2.727   0.592  1.00  0.00     0.037 A 
ATOM     48  C   UNL     1     -15.108  -3.171  -2.188  1.00  0.00     0.049 A 
ATOM     49  C   UNL     1     -16.295   1.976  -0.329  1.00  0.00     0.074 A 
ATOM     50  C   UNL     1     -16.056  -3.775  -2.997  1.00  0.00     0.029 A 
ATOM     51  N   UNL     1     -15.604  -1.918  -1.858  1.00  0.00    -0.354 N 
ATOM     52  N   UNL     1     -16.165   0.770  -0.826  1.00  0.00    -0.248 NA
ATOM     53  C   UNL     1     -17.524   2.667  -0.744  1.00  0.00     0.031 C 
ATOM     54  C   UNL     1     -17.112  -2.876  -3.179  1.00  0.00     0.029 A 
ATOM     55  C   UNL     1     -16.840  -1.728  -2.452  1.00  0.00     0.049 A 
ATOM     56  H   UNL     1     -15.144  -1.262  -1.286  1.00  0.00     0.167 HD
ATOM     57  C   UNL     1     -17.307   0.547  -1.585  1.00  0.00     0.074 A 
ATOM     58  C   UNL     1     -18.124   1.736  -1.471  1.00  0.00     0.031 C 
ATOM     59  C   UNL     1     -17.647  -0.545  -2.312  1.00  0.00     0.037 A 
BRANCH  46  60
ATOM     60  C   UNL     1     -13.439  -5.064  -2.195  1.00  0.00     0.057 A 
ATOM     61  C   UNL     1     -13.430  -6.154  -1.313  1.00  0.00     0.134 A 
ATOM     62  C   UNL     1     -13.084  -5.308  -3.527  1.00  0.00     0.134 A 
ATOM     63  F   UNL     1     -13.746  -5.984  -0.020  1.00  0.00    -0.206 F 
ATOM     64  C   UNL     1     -13.059  -7.431  -1.734  1.00  0.00     0.040 A 
ATOM     65  C   UNL     1     -12.736  -6.587  -3.966  1.00  0.00     0.040 A 
ATOM     66  F   UNL     1     -13.076  -4.311  -4.424  1.00  0.00    -0.206 F 
ATOM     67  C   UNL     1     -12.717  -7.652  -3.067  1.00  0.00     0.006 A 
ENDBRANCH  46  60
BRANCH  47  68
ATOM     68  C   UNL     1     -15.715   4.099   1.044  1.00  0.00     0.057 A 
ATOM     69  C   UNL     1     -16.786   4.324   1.917  1.00  0.00     0.134 A 
ATOM     70  C   UNL     1     -15.004   5.218   0.594  1.00  0.00     0.134 A 
ATOM     71  F   UNL     1     -17.517   3.294   2.368  1.00  0.00    -0.206 F 
ATOM     72  C   UNL     1     -17.155   5.613   2.305  1.00  0.00     0.040 A 
ATOM     73  C   UNL     1     -15.347   6.510   0.993  1.00  0.00     0.040 A 
ATOM     74  F   UNL     1     -13.963   5.069  -0.239  1.00  0.00    -0.206 F 
ATOM     75  C   UNL     1     -16.432   6.711   1.844  1.00  0.00     0.006 A 
ENDBRANCH  47  68
BRANCH  59  76
ATOM     76  C   UNL     1     -18.978  -0.519  -3.003  1.00  0.00     0.057 A 
ATOM     77  C   UNL     1     -19.204   0.262  -4.143  1.00  0.00     0.134 A 
ATOM     78  C   UNL     1     -20.035  -1.314  -2.540  1.00  0.00     0.134 A 
ATOM     79  F   UNL     1     -18.236   1.055  -4.627  1.00  0.00    -0.206 F 
ATOM     80  C   UNL     1     -20.442   0.267  -4.787  1.00  0.00     0.040 A 
ATOM     81  C   UNL     1     -21.269  -1.335  -3.190  1.00  0.00     0.040 A 
ATOM     82  F   UNL     1     -19.880  -2.090  -1.457  1.00  0.00    -0.206 F 
ATOM     83  C   UNL     1     -21.477  -0.538  -4.314  1.00  0.00     0.006 A 
ENDBRANCH  59  76
ENDBRANCH  33  34
ENDBRANCH  25  28
ENDBRANCH  23  24
ENDBRANCH  22  23
ENDBRANCH  21  22
ENDBRANCH   1  21
TORSDOF 15
