REMARK SMILES Cc1nc(-c2ccc3c(c2)CCN3S(=O)(=O)c2ccc(F)c(C(=O)NCCCCNC(=O)c3ccc(-c4c5nc(c(-c6c(F)cccc6F)c6ccc([nH]6)c(-c6c(F)cccc6F)c6nc(c(-c7c(F)cccc7F)c7ccc4[nH]7)C=C6)C=C5)cc3)c2)cs1
REMARK SMILES IDX 27 1 26 2 25 3 23 4 24 5 22 7 17 8 18 9 87 10 19 11 20 12
REMARK SMILES IDX 21 13 14 14 15 15 16 16 13 17 5 18 6 19 10 20 7 21 9 22 8 23
REMARK SMILES IDX 11 24 12 25 4 26 1 27 2 28 3 29 89 30 88 31 28 32 29 33
REMARK SMILES IDX 30 34 31 35 32 37 33 38 34 39 86 40 35 41 85 42 36 43 37 44
REMARK SMILES IDX 38 45 79 46 39 47 84 48 78 49 80 50 40 51 83 52 77 53 76 54
REMARK SMILES IDX 41 56 67 57 50 58 66 59 51 60 54 61 65 62 81 63 52 64 53 65
REMARK SMILES IDX 64 67 82 68 55 69 42 70 43 71 48 72 44 73 45 74 47 75 49 76
REMARK SMILES IDX 46 77 68 78 69 79 74 80 70 81 71 82 73 83 75 84 72 85 56 86
REMARK SMILES IDX 57 87 62 88 58 89 59 90 61 91 63 92 60 93
REMARK H PARENT 25 6 30 36 80 55 54 66
REMARK Flexibility Score: inf
ROOT
ATOM      1  C   UNL     1       0.075  -8.717  -7.283  1.00  0.00     0.023 C 
ENDROOT
BRANCH   1   2
ATOM      2  C   UNL     1       0.046  -7.943  -5.975  1.00  0.00     0.116 C 
BRANCH   2   3
ATOM      3  N   UNL     1       0.155  -8.747  -4.771  1.00  0.00    -0.352 N 
ATOM      4  C   UNL     1       0.916  -8.584  -3.633  1.00  0.00     0.254 C 
ATOM      5  O   UNL     1       0.755  -9.396  -2.721  1.00  0.00    -0.269 OA
ATOM      6  H   UNL     1      -0.415  -9.550  -4.766  1.00  0.00     0.163 HD
BRANCH   4   7
ATOM      7  C   UNL     1       1.968  -7.540  -3.476  1.00  0.00     0.076 A 
ATOM      8  C   UNL     1       4.023  -6.824  -2.405  1.00  0.00     0.089 A 
ATOM      9  C   UNL     1       4.130  -5.743  -3.288  1.00  0.00     0.025 A 
ATOM     10  C   UNL     1       3.008  -7.779  -2.555  1.00  0.00     0.039 A 
ATOM     11  C   UNL     1       3.065  -5.464  -4.129  1.00  0.00     0.041 A 
ATOM     12  C   UNL     1       1.955  -6.306  -4.130  1.00  0.00     0.136 A 
ATOM     13  F   UNL     1       0.836  -5.813  -4.680  1.00  0.00    -0.206 F 
BRANCH   8  14
ATOM     14  S   UNL     1       5.141  -6.853  -1.027  1.00  0.00     0.264 S 
ATOM     15  O   UNL     1       6.344  -6.180  -1.471  1.00  0.00    -0.201 OA
ATOM     16  O   UNL     1       5.216  -8.219  -0.545  1.00  0.00    -0.201 OA
BRANCH  14  17
ATOM     17  N   UNL     1       4.424  -5.914   0.222  1.00  0.00    -0.266 N 
ATOM     18  C   UNL     1       2.086  -2.388   0.075  1.00  0.00     0.001 A 
ATOM     19  C   UNL     1       1.758  -3.433  -0.801  1.00  0.00     0.012 A 
ATOM     20  C   UNL     1       3.154  -2.559   0.966  1.00  0.00     0.016 A 
ATOM     21  C   UNL     1       2.491  -4.624  -0.807  1.00  0.00     0.028 A 
ATOM     22  C   UNL     1       3.888  -3.748   0.919  1.00  0.00    -0.021 A 
ATOM     23  C   UNL     1       3.615  -4.748  -0.014  1.00  0.00     0.055 A 
ATOM     24  C   UNL     1       4.887  -4.224   1.924  1.00  0.00     0.060 C 
ATOM     25  C   UNL     1       5.442  -5.494   1.261  1.00  0.00     0.140 C 
BRANCH  18  26
ATOM     26  C   UNL     1       1.223  -1.217   0.105  1.00  0.00     0.081 A 
ATOM     27  C   UNL     1      -2.207   0.031  -0.008  1.00  0.00     0.079 C 
ATOM     28  C   UNL     1      -0.734  -0.179   0.046  1.00  0.00     0.090 A 
ATOM     29  N   UNL     1      -0.153  -1.357  -0.003  1.00  0.00    -0.242 NA
ATOM     30  S   UNL     1       0.333   1.162   0.175  1.00  0.00    -0.127 S 
ATOM     31  C   UNL     1       1.670   0.085   0.196  1.00  0.00     0.095 A 
ENDBRANCH  18  26
ENDBRANCH  14  17
ENDBRANCH   8  14
ENDBRANCH   4   7
ENDBRANCH   2   3
ENDBRANCH   1   2
BRANCH   1  32
ATOM     32  C   UNL     1      -1.114  -9.616  -7.574  1.00  0.00     0.023 C 
BRANCH  32  33
ATOM     33  C   UNL     1      -2.486  -8.970  -7.435  1.00  0.00     0.116 C 
BRANCH  33  34
ATOM     34  N   UNL     1      -2.666  -7.773  -8.247  1.00  0.00    -0.352 N 
ATOM     35  C   UNL     1      -3.659  -7.471  -9.151  1.00  0.00     0.251 C 
ATOM     36  H   UNL     1      -1.977  -7.080  -8.132  1.00  0.00     0.163 HD
ATOM     37  O   UNL     1      -3.604  -6.441  -9.815  1.00  0.00    -0.269 OA
BRANCH  35  38
ATOM     38  C   UNL     1      -4.774  -8.419  -9.350  1.00  0.00     0.039 A 
ATOM     39  C   UNL     1      -5.124  -8.793 -10.650  1.00  0.00     0.014 A 
ATOM     40  C   UNL     1      -5.431  -8.982  -8.254  1.00  0.00     0.014 A 
ATOM     41  C   UNL     1      -6.066  -9.804 -10.845  1.00  0.00     0.010 A 
ATOM     42  C   UNL     1      -6.294 -10.054  -8.447  1.00  0.00     0.010 A 
ATOM     43  C   UNL     1      -6.620 -10.479  -9.743  1.00  0.00    -0.014 A 
BRANCH  43  44
ATOM     44  C   UNL     1      -7.535 -11.635  -9.922  1.00  0.00     0.031 A 
ATOM     45  C   UNL     1      -8.943 -11.568  -9.402  1.00  0.00     0.074 A 
ATOM     46  C   UNL     1      -7.081 -12.768 -10.495  1.00  0.00     0.049 A 
ATOM     47  N   UNL     1      -9.869 -12.493  -9.401  1.00  0.00    -0.248 NA
ATOM     48  C   UNL     1      -9.360 -10.302  -8.777  1.00  0.00     0.031 C 
ATOM     49  C   UNL     1      -5.723 -12.974 -11.003  1.00  0.00     0.029 A 
ATOM     50  N   UNL     1      -7.712 -13.961 -10.745  1.00  0.00    -0.354 N 
ATOM     51  C   UNL     1     -10.969 -11.924  -8.774  1.00  0.00     0.074 A 
ATOM     52  C   UNL     1     -10.575 -10.601  -8.344  1.00  0.00     0.031 C 
ATOM     53  C   UNL     1      -5.636 -14.200 -11.541  1.00  0.00     0.029 A 
ATOM     54  C   UNL     1      -6.914 -14.886 -11.374  1.00  0.00     0.049 A 
ATOM     55  H   UNL     1      -8.648 -14.137 -10.496  1.00  0.00     0.167 HD
ATOM     56  C   UNL     1     -12.207 -12.443  -8.603  1.00  0.00     0.037 A 
ATOM     57  C   UNL     1      -7.180 -16.146 -11.772  1.00  0.00     0.037 A 
ATOM     58  C   UNL     1     -12.600 -13.754  -9.047  1.00  0.00     0.049 A 
ATOM     59  C   UNL     1      -8.551 -16.717 -11.536  1.00  0.00     0.074 A 
ATOM     60  C   UNL     1     -13.842 -14.356  -8.953  1.00  0.00     0.029 A 
ATOM     61  N   UNL     1     -11.758 -14.665  -9.668  1.00  0.00    -0.354 N 
ATOM     62  N   UNL     1      -9.597 -16.150 -10.985  1.00  0.00    -0.248 NA
ATOM     63  C   UNL     1      -8.780 -18.100 -11.976  1.00  0.00     0.031 C 
ATOM     64  C   UNL     1     -13.738 -15.650  -9.469  1.00  0.00     0.029 A 
ATOM     65  C   UNL     1     -12.448 -15.833  -9.941  1.00  0.00     0.049 A 
ATOM     66  H   UNL     1     -10.810 -14.504  -9.882  1.00  0.00     0.167 HD
ATOM     67  C   UNL     1     -10.615 -17.094 -11.037  1.00  0.00     0.074 A 
ATOM     68  C   UNL     1     -10.063 -18.267 -11.682  1.00  0.00     0.031 C 
ATOM     69  C   UNL     1     -11.891 -16.993 -10.592  1.00  0.00     0.037 A 
BRANCH  56  70
ATOM     70  C   UNL     1     -13.233 -11.585  -7.920  1.00  0.00     0.057 A 
ATOM     71  C   UNL     1     -13.741 -11.935  -6.663  1.00  0.00     0.134 A 
ATOM     72  C   UNL     1     -13.757 -10.438  -8.531  1.00  0.00     0.134 A 
ATOM     73  F   UNL     1     -13.289 -13.024  -6.023  1.00  0.00    -0.206 F 
ATOM     74  C   UNL     1     -14.740 -11.181  -6.044  1.00  0.00     0.040 A 
ATOM     75  C   UNL     1     -14.733  -9.659  -7.909  1.00  0.00     0.040 A 
ATOM     76  F   UNL     1     -13.305 -10.039  -9.730  1.00  0.00    -0.206 F 
ATOM     77  C   UNL     1     -15.235 -10.037  -6.665  1.00  0.00     0.006 A 
ENDBRANCH  56  70
BRANCH  57  78
ATOM     78  C   UNL     1      -6.134 -16.930 -12.476  1.00  0.00     0.057 A 
ATOM     79  C   UNL     1      -4.983 -17.382 -11.819  1.00  0.00     0.134 A 
ATOM     80  C   UNL     1      -6.248 -17.213 -13.842  1.00  0.00     0.134 A 
ATOM     81  F   UNL     1      -4.810 -17.137 -10.512  1.00  0.00    -0.206 F 
ATOM     82  C   UNL     1      -3.973 -18.066 -12.499  1.00  0.00     0.040 A 
ATOM     83  C   UNL     1      -5.258 -17.918 -14.529  1.00  0.00     0.040 A 
ATOM     84  F   UNL     1      -7.335 -16.823 -14.524  1.00  0.00    -0.206 F 
ATOM     85  C   UNL     1      -4.111 -18.338 -13.858  1.00  0.00     0.006 A 
ENDBRANCH  57  78
BRANCH  69  86
ATOM     86  C   UNL     1     -12.802 -18.167 -10.805  1.00  0.00     0.057 A 
ATOM     87  C   UNL     1     -13.879 -18.078 -11.697  1.00  0.00     0.134 A 
ATOM     88  C   UNL     1     -12.675 -19.346 -10.061  1.00  0.00     0.134 A 
ATOM     89  F   UNL     1     -14.066 -16.971 -12.432  1.00  0.00    -0.206 F 
ATOM     90  C   UNL     1     -14.808 -19.111 -11.826  1.00  0.00     0.040 A 
ATOM     91  C   UNL     1     -13.581 -20.398 -10.203  1.00  0.00     0.040 A 
ATOM     92  F   UNL     1     -11.661 -19.499  -9.196  1.00  0.00    -0.206 F 
ATOM     93  C   UNL     1     -14.659 -20.276 -11.078  1.00  0.00     0.006 A 
ENDBRANCH  69  86
ENDBRANCH  43  44
ENDBRANCH  35  38
ENDBRANCH  33  34
ENDBRANCH  32  33
ENDBRANCH   1  32
TORSDOF 14
