REMARK SMILES Cc1ccccc1C[C@@H](CC(F)(F)F)C(=O)NCCCCNC(=O)c1ccc(-c2c3nc(c(-c4c(F)cccc4F)c4ccc([nH]4)c(-c4c(F)cccc4F)c4nc(c(-c5c(F)cccc5F)c5ccc2[nH]5)C=C4)C=C3)cc1
REMARK SMILES IDX 19 1 18 2 17 3 15 4 16 5 9 7 8 8 7 9 1 10 2 11 3 12 4 13
REMARK SMILES IDX 6 14 5 15 10 16 11 17 12 18 13 19 14 20 20 21 21 22 22 23
REMARK SMILES IDX 23 24 24 26 25 27 26 28 78 29 27 30 77 31 28 32 29 33 30 34
REMARK SMILES IDX 71 35 31 36 76 37 70 38 72 39 32 40 75 41 69 42 68 43 33 45
REMARK SMILES IDX 59 46 42 47 58 48 43 49 46 50 57 51 73 52 44 53 45 54 56 56
REMARK SMILES IDX 74 57 47 58 34 59 35 60 40 61 36 62 37 63 39 64 41 65 38 66
REMARK SMILES IDX 60 67 61 68 66 69 62 70 63 71 65 72 67 73 64 74 48 75 49 76
REMARK SMILES IDX 54 77 50 78 51 79 53 80 55 81 52 82
REMARK H PARENT 17 6 22 25 72 44 46 55
REMARK Flexibility Score: inf
ROOT
ATOM      1  C   UNL     1       1.587   4.970   2.539  1.00  0.00     0.023 C 
ENDROOT
BRANCH   1   2
ATOM      2  C   UNL     1       0.681   5.337   1.360  1.00  0.00     0.116 C 
BRANCH   2   3
ATOM      3  N   UNL     1       1.373   5.337   0.081  1.00  0.00    -0.356 N 
ATOM      4  C   UNL     1       1.314   4.525  -1.005  1.00  0.00     0.223 C 
ATOM      5  O   UNL     1       1.940   4.897  -2.003  1.00  0.00    -0.275 OA
ATOM      6  H   UNL     1       2.015   6.077  -0.017  1.00  0.00     0.163 HD
BRANCH   4   7
ATOM      7  C   UNL     1       0.486   3.242  -1.077  1.00  0.00     0.092 C 
BRANCH   7   8
ATOM      8  C   UNL     1       0.643   2.333   0.157  1.00  0.00     0.049 C 
BRANCH   8   9
ATOM      9  C   UNL     1       0.134   0.910   0.019  1.00  0.00    -0.044 A 
ATOM     10  C   UNL     1       2.463  -0.175  -0.258  1.00  0.00     0.044 C 
ATOM     11  C   UNL     1       0.961  -0.217  -0.162  1.00  0.00    -0.048 A 
ATOM     12  C   UNL     1       0.371  -1.499  -0.193  1.00  0.00     0.004 A 
ATOM     13  C   UNL     1      -1.005  -1.671  -0.063  1.00  0.00     0.000 A 
ATOM     14  C   UNL     1      -1.254   0.706   0.162  1.00  0.00     0.004 A 
ATOM     15  C   UNL     1      -1.820  -0.565   0.111  1.00  0.00     0.000 A 
ENDBRANCH   8   9
ENDBRANCH   7   8
BRANCH   7  16
ATOM     16  C   UNL     1      -0.927   3.535  -1.622  1.00  0.00     0.129 C 
BRANCH  16  17
ATOM     17  C   UNL     1      -1.857   4.359  -0.763  1.00  0.00     0.389 C 
ATOM     18  F   UNL     1      -1.417   5.623  -0.600  1.00  0.00    -0.171 F 
ATOM     19  F   UNL     1      -3.080   4.433  -1.336  1.00  0.00    -0.171 F 
ATOM     20  F   UNL     1      -2.027   3.819   0.461  1.00  0.00    -0.171 F 
ENDBRANCH  16  17
ENDBRANCH   7  16
ENDBRANCH   4   7
ENDBRANCH   2   3
ENDBRANCH   1   2
BRANCH   1  21
ATOM     21  C   UNL     1       2.691   5.985   2.853  1.00  0.00     0.023 C 
BRANCH  21  22
ATOM     22  C   UNL     1       2.183   7.368   3.241  1.00  0.00     0.116 C 
BRANCH  22  23
ATOM     23  N   UNL     1       1.760   7.515   4.624  1.00  0.00    -0.352 N 
ATOM     24  C   UNL     1       1.046   8.538   5.234  1.00  0.00     0.251 C 
ATOM     25  H   UNL     1       2.019   6.775   5.220  1.00  0.00     0.163 HD
ATOM     26  O   UNL     1       0.891   8.519   6.442  1.00  0.00    -0.269 OA
BRANCH  24  27
ATOM     27  C   UNL     1       0.348   9.573   4.415  1.00  0.00     0.039 A 
ATOM     28  C   UNL     1      -0.908  10.014   4.856  1.00  0.00     0.014 A 
ATOM     29  C   UNL     1       0.802   9.959   3.159  1.00  0.00     0.014 A 
ATOM     30  C   UNL     1      -1.796  10.591   3.949  1.00  0.00     0.010 A 
ATOM     31  C   UNL     1      -0.106  10.424   2.228  1.00  0.00     0.010 A 
ATOM     32  C   UNL     1      -1.425  10.674   2.609  1.00  0.00    -0.014 A 
BRANCH  32  33
ATOM     33  C   UNL     1      -2.374  10.894   1.527  1.00  0.00     0.031 A 
ATOM     34  C   UNL     1      -2.468  12.204   0.858  1.00  0.00     0.074 A 
ATOM     35  C   UNL     1      -3.115   9.855   1.079  1.00  0.00     0.049 A 
ATOM     36  N   UNL     1      -3.538  12.649   0.291  1.00  0.00    -0.248 NA
ATOM     37  C   UNL     1      -1.348  13.134   0.796  1.00  0.00     0.031 C 
ATOM     38  C   UNL     1      -3.929   9.801  -0.132  1.00  0.00     0.029 A 
ATOM     39  N   UNL     1      -3.436   8.678   1.768  1.00  0.00    -0.354 N 
ATOM     40  C   UNL     1      -3.188  13.763  -0.436  1.00  0.00     0.074 A 
ATOM     41  C   UNL     1      -1.831  14.062  -0.036  1.00  0.00     0.031 C 
ATOM     42  C   UNL     1      -4.858   8.844   0.018  1.00  0.00     0.029 A 
ATOM     43  C   UNL     1      -4.754   8.354   1.381  1.00  0.00     0.049 A 
ATOM     44  H   UNL     1      -2.861   8.179   2.393  1.00  0.00     0.167 HD
ATOM     45  C   UNL     1      -4.028  14.227  -1.406  1.00  0.00     0.037 A 
ATOM     46  C   UNL     1      -5.774   8.332   2.286  1.00  0.00     0.037 A 
ATOM     47  C   UNL     1      -5.236  13.413  -1.495  1.00  0.00     0.049 A 
ATOM     48  C   UNL     1      -6.900   9.286   1.965  1.00  0.00     0.074 A 
ATOM     49  C   UNL     1      -5.591  12.365  -2.330  1.00  0.00     0.029 A 
ATOM     50  N   UNL     1      -6.150  13.407  -0.449  1.00  0.00    -0.354 N 
ATOM     51  N   UNL     1      -6.787  10.300   1.153  1.00  0.00    -0.248 NA
ATOM     52  C   UNL     1      -8.233   9.190   2.552  1.00  0.00     0.031 C 
ATOM     53  C   UNL     1      -6.704  11.703  -1.761  1.00  0.00     0.029 A 
ATOM     54  C   UNL     1      -7.037  12.357  -0.589  1.00  0.00     0.049 A 
ATOM     55  H   UNL     1      -6.164  14.060   0.288  1.00  0.00     0.167 HD
ATOM     56  C   UNL     1      -7.969  10.998   1.118  1.00  0.00     0.074 A 
ATOM     57  C   UNL     1      -8.851  10.245   1.990  1.00  0.00     0.031 C 
ATOM     58  C   UNL     1      -8.102  12.141   0.381  1.00  0.00     0.037 A 
BRANCH  45  59
ATOM     59  C   UNL     1      -3.597  15.211  -2.469  1.00  0.00     0.057 A 
ATOM     60  C   UNL     1      -4.098  15.135  -3.784  1.00  0.00     0.134 A 
ATOM     61  C   UNL     1      -2.650  16.229  -2.268  1.00  0.00     0.134 A 
ATOM     62  F   UNL     1      -5.094  14.304  -4.114  1.00  0.00    -0.206 F 
ATOM     63  C   UNL     1      -3.597  15.911  -4.837  1.00  0.00     0.040 A 
ATOM     64  C   UNL     1      -2.101  16.977  -3.321  1.00  0.00     0.040 A 
ATOM     65  F   UNL     1      -2.248  16.573  -1.037  1.00  0.00    -0.206 F 
ATOM     66  C   UNL     1      -2.562  16.805  -4.617  1.00  0.00     0.006 A 
ENDBRANCH  45  59
BRANCH  46  67
ATOM     67  C   UNL     1      -5.334   7.959   3.656  1.00  0.00     0.057 A 
ATOM     68  C   UNL     1      -4.800   6.675   3.865  1.00  0.00     0.134 A 
ATOM     69  C   UNL     1      -5.071   8.924   4.632  1.00  0.00     0.134 A 
ATOM     70  F   UNL     1      -5.017   5.701   2.966  1.00  0.00    -0.206 F 
ATOM     71  C   UNL     1      -3.942   6.395   4.932  1.00  0.00     0.040 A 
ATOM     72  C   UNL     1      -4.225   8.650   5.714  1.00  0.00     0.040 A 
ATOM     73  F   UNL     1      -5.528  10.177   4.496  1.00  0.00    -0.206 F 
ATOM     74  C   UNL     1      -3.625   7.397   5.842  1.00  0.00     0.006 A 
ENDBRANCH  46  67
BRANCH  58  75
ATOM     75  C   UNL     1      -9.255  13.123   0.413  1.00  0.00     0.057 A 
ATOM     76  C   UNL     1     -10.130  13.295   1.494  1.00  0.00     0.134 A 
ATOM     77  C   UNL     1      -9.429  14.054  -0.641  1.00  0.00     0.134 A 
ATOM     78  F   UNL     1     -10.020  12.569   2.613  1.00  0.00    -0.206 F 
ATOM     79  C   UNL     1     -11.133  14.277   1.505  1.00  0.00     0.040 A 
ATOM     80  C   UNL     1     -10.387  15.073  -0.614  1.00  0.00     0.040 A 
ATOM     81  F   UNL     1      -8.659  14.036  -1.738  1.00  0.00    -0.206 F 
ATOM     82  C   UNL     1     -11.256  15.178   0.457  1.00  0.00     0.006 A 
ENDBRANCH  58  75
ENDBRANCH  32  33
ENDBRANCH  24  27
ENDBRANCH  22  23
ENDBRANCH  21  22
ENDBRANCH   1  21
TORSDOF 15
