REMARK SMILES C[C@@H](Nc1ccc(C(=O)NCCCCNC(=O)c2ccc(-c3c4nc(c(-c5c(F)cccc5F)c5ccc([nH]5)c(-c5c(F)cccc5F)c5nc(c(-c6c(F)cccc6F)c6ccc3[nH]6)C=C5)C=C4)cc2)cc1)C1CC[NH+](C)CC1
REMARK SMILES IDX 12 1 11 2 10 3 8 4 9 5 7 7 4 8 5 9 73 10 6 11 72 12 3 13
REMARK SMILES IDX 2 15 1 16 74 17 75 18 80 19 76 20 79 21 77 22 78 23 13 25
REMARK SMILES IDX 14 26 15 27 16 28 17 30 18 31 19 32 71 33 20 34 70 35 21 36
REMARK SMILES IDX 22 37 23 38 64 39 24 40 69 41 63 42 65 43 25 44 68 45 62 46
REMARK SMILES IDX 61 47 26 49 52 50 35 51 51 52 36 53 39 54 50 55 66 56 37 57
REMARK SMILES IDX 38 58 49 60 67 61 40 62 27 63 28 64 33 65 29 66 30 67 32 68
REMARK SMILES IDX 34 69 31 70 53 71 54 72 59 73 55 74 56 75 58 76 60 77 57 78
REMARK SMILES IDX 41 79 42 80 47 81 43 82 44 83 46 84 48 85 45 86
REMARK H PARENT 10 6 3 14 77 24 15 29 65 48 39 59
REMARK Flexibility Score: inf
ROOT
ATOM      1  C   UNL     1      -4.207   6.631  -2.563  1.00  0.00     0.023 C 
ENDROOT
BRANCH   1   2
ATOM      2  C   UNL     1      -4.234   5.231  -3.180  1.00  0.00     0.116 C 
BRANCH   2   3
ATOM      3  N   UNL     1      -3.618   5.249  -4.493  1.00  0.00    -0.352 N 
ATOM      4  C   UNL     1      -2.363   4.889  -4.913  1.00  0.00     0.251 C 
ATOM      5  O   UNL     1      -2.097   5.000  -6.109  1.00  0.00    -0.269 OA
ATOM      6  H   UNL     1      -4.206   5.578  -5.211  1.00  0.00     0.163 HD
BRANCH   4   7
ATOM      7  C   UNL     1      -1.360   4.285  -3.999  1.00  0.00     0.039 A 
ATOM      8  C   UNL     1       0.365   2.802  -2.328  1.00  0.00     0.034 A 
ATOM      9  C   UNL     1       0.282   2.532  -3.698  1.00  0.00     0.026 A 
ATOM     10  C   UNL     1      -0.330   3.909  -1.837  1.00  0.00     0.026 A 
ATOM     11  C   UNL     1      -0.575   3.256  -4.525  1.00  0.00     0.016 A 
ATOM     12  C   UNL     1      -1.171   4.659  -2.668  1.00  0.00     0.016 A 
BRANCH   8  13
ATOM     13  N   UNL     1       1.004   1.879  -1.530  1.00  0.00    -0.382 N 
ATOM     14  H   UNL     1       1.758   1.393  -1.937  1.00  0.00     0.160 HD
BRANCH  13  15
ATOM     15  C   UNL     1       0.682   1.540  -0.139  1.00  0.00     0.079 C 
ATOM     16  C   UNL     1       1.595   0.362   0.223  1.00  0.00     0.031 C 
BRANCH  15  17
ATOM     17  C   UNL     1      -0.852   1.283   0.064  1.00  0.00     0.022 C 
ATOM     18  C   UNL     1      -1.339   1.730   1.451  1.00  0.00     0.067 C 
ATOM     19  C   UNL     1      -1.374  -0.132  -0.223  1.00  0.00     0.067 C 
ATOM     20  C   UNL     1      -1.036   0.714   2.543  1.00  0.00     0.262 C 
ATOM     21  C   UNL     1      -1.195  -1.124   0.930  1.00  0.00     0.262 C 
ATOM     22  N   UNL     1      -1.619  -0.594   2.231  1.00  0.00    -0.337 N 
ATOM     23  C   UNL     1      -1.300  -1.551   3.293  1.00  0.00     0.332 C 
ATOM     24  H   UNL     1      -2.628  -0.457   2.174  1.00  0.00     0.347 HD
ENDBRANCH  15  17
ENDBRANCH  13  15
ENDBRANCH   8  13
ENDBRANCH   4   7
ENDBRANCH   2   3
ENDBRANCH   1   2
BRANCH   1  25
ATOM     25  C   UNL     1      -5.178   7.619  -3.216  1.00  0.00     0.023 C 
BRANCH  25  26
ATOM     26  C   UNL     1      -6.652   7.266  -3.065  1.00  0.00     0.116 C 
BRANCH  26  27
ATOM     27  N   UNL     1      -7.078   7.181  -1.676  1.00  0.00    -0.352 N 
ATOM     28  C   UNL     1      -8.274   7.570  -1.119  1.00  0.00     0.251 C 
ATOM     29  H   UNL     1      -6.423   6.793  -1.052  1.00  0.00     0.163 HD
ATOM     30  O   UNL     1      -8.439   7.536   0.091  1.00  0.00    -0.269 OA
BRANCH  28  31
ATOM     31  C   UNL     1      -9.346   8.073  -2.003  1.00  0.00     0.039 A 
ATOM     32  C   UNL     1      -9.945   9.298  -1.700  1.00  0.00     0.014 A 
ATOM     33  C   UNL     1      -9.719   7.363  -3.146  1.00  0.00     0.014 A 
ATOM     34  C   UNL     1     -10.866   9.851  -2.590  1.00  0.00     0.010 A 
ATOM     35  C   UNL     1     -10.589   7.944  -4.062  1.00  0.00     0.010 A 
ATOM     36  C   UNL     1     -11.161   9.199  -3.799  1.00  0.00    -0.014 A 
BRANCH  36  37
ATOM     37  C   UNL     1     -12.038   9.825  -4.817  1.00  0.00     0.031 A 
ATOM     38  C   UNL     1     -13.350   9.191  -5.177  1.00  0.00     0.074 A 
ATOM     39  C   UNL     1     -11.609  10.917  -5.478  1.00  0.00     0.049 A 
ATOM     40  N   UNL     1     -14.206   9.535  -6.105  1.00  0.00    -0.248 NA
ATOM     41  C   UNL     1     -13.739   7.997  -4.411  1.00  0.00     0.031 C 
ATOM     42  C   UNL     1     -10.330  11.595  -5.254  1.00  0.00     0.029 A 
ATOM     43  N   UNL     1     -12.194  11.639  -6.487  1.00  0.00    -0.354 N 
ATOM     44  C   UNL     1     -15.225   8.594  -6.045  1.00  0.00     0.074 A 
ATOM     45  C   UNL     1     -14.860   7.639  -5.021  1.00  0.00     0.031 C 
ATOM     46  C   UNL     1     -10.235  12.642  -6.089  1.00  0.00     0.029 A 
ATOM     47  C   UNL     1     -11.425  12.687  -6.933  1.00  0.00     0.049 A 
ATOM     48  H   UNL     1     -13.082  11.427  -6.857  1.00  0.00     0.167 HD
ATOM     49  C   UNL     1     -16.370   8.543  -6.765  1.00  0.00     0.037 A 
ATOM     50  C   UNL     1     -11.648  13.575  -7.920  1.00  0.00     0.037 A 
ATOM     51  C   UNL     1     -16.742   9.509  -7.765  1.00  0.00     0.049 A 
ATOM     52  C   UNL     1     -12.922  13.491  -8.711  1.00  0.00     0.074 A 
ATOM     53  C   UNL     1     -17.915   9.586  -8.495  1.00  0.00     0.029 A 
ATOM     54  N   UNL     1     -15.943  10.564  -8.178  1.00  0.00    -0.354 N 
ATOM     55  N   UNL     1     -13.912  12.639  -8.593  1.00  0.00    -0.248 NA
ATOM     56  C   UNL     1     -13.112  14.490  -9.772  1.00  0.00     0.031 C 
ATOM     57  C   UNL     1     -17.809  10.663  -9.380  1.00  0.00     0.029 A 
ATOM     58  C   UNL     1     -16.587  11.282  -9.172  1.00  0.00     0.049 A 
ATOM     59  H   UNL     1     -15.051  10.772  -7.818  1.00  0.00     0.167 HD
ATOM     60  C   UNL     1     -14.849  13.011  -9.548  1.00  0.00     0.074 A 
ATOM     61  C   UNL     1     -14.316  14.174 -10.227  1.00  0.00     0.031 C 
ATOM     62  C   UNL     1     -16.043  12.438  -9.837  1.00  0.00     0.037 A 
BRANCH  49  63
ATOM     63  C   UNL     1     -17.308   7.404  -6.493  1.00  0.00     0.057 A 
ATOM     64  C   UNL     1     -18.052   7.328  -5.308  1.00  0.00     0.134 A 
ATOM     65  C   UNL     1     -17.495   6.389  -7.440  1.00  0.00     0.134 A 
ATOM     66  F   UNL     1     -17.910   8.262  -4.356  1.00  0.00    -0.206 F 
ATOM     67  C   UNL     1     -18.930   6.271  -5.064  1.00  0.00     0.040 A 
ATOM     68  C   UNL     1     -18.389   5.341  -7.218  1.00  0.00     0.040 A 
ATOM     69  F   UNL     1     -16.817   6.404  -8.598  1.00  0.00    -0.206 F 
ATOM     70  C   UNL     1     -19.105   5.277  -6.025  1.00  0.00     0.006 A 
ENDBRANCH  49  63
BRANCH  50  71
ATOM     71  C   UNL     1     -10.645  14.631  -8.207  1.00  0.00     0.057 A 
ATOM     72  C   UNL     1     -10.900  15.970  -7.893  1.00  0.00     0.134 A 
ATOM     73  C   UNL     1      -9.415  14.329  -8.803  1.00  0.00     0.134 A 
ATOM     74  F   UNL     1     -12.070  16.322  -7.338  1.00  0.00    -0.206 F 
ATOM     75  C   UNL     1      -9.975  16.976  -8.174  1.00  0.00     0.040 A 
ATOM     76  C   UNL     1      -8.470  15.322  -9.069  1.00  0.00     0.040 A 
ATOM     77  F   UNL     1      -9.109  13.063  -9.122  1.00  0.00    -0.206 F 
ATOM     78  C   UNL     1      -8.752  16.651  -8.760  1.00  0.00     0.006 A 
ENDBRANCH  50  71
BRANCH  62  79
ATOM     79  C   UNL     1     -16.863  13.073 -10.920  1.00  0.00     0.057 A 
ATOM     80  C   UNL     1     -16.527  12.938 -12.272  1.00  0.00     0.134 A 
ATOM     81  C   UNL     1     -18.027  13.788 -10.608  1.00  0.00     0.134 A 
ATOM     82  F   UNL     1     -15.417  12.278 -12.634  1.00  0.00    -0.206 F 
ATOM     83  C   UNL     1     -17.312  13.505 -13.277  1.00  0.00     0.040 A 
ATOM     84  C   UNL     1     -18.832  14.339 -11.605  1.00  0.00     0.040 A 
ATOM     85  F   UNL     1     -18.407  13.947  -9.332  1.00  0.00    -0.206 F 
ATOM     86  C   UNL     1     -18.473  14.201 -12.944  1.00  0.00     0.006 A 
ENDBRANCH  62  79
ENDBRANCH  36  37
ENDBRANCH  28  31
ENDBRANCH  26  27
ENDBRANCH  25  26
ENDBRANCH   1  25
TORSDOF 14
