REMARK SMILES CCC[C@@H](C(=O)NCCCCNC(=O)c1ccc(-c2c3nc(c(-c4c(F)cccc4F)c4ccc([nH]4)c(-c4c(F)cccc4F)c4nc(c(-c5c(F)cccc5F)c5ccc2[nH]5)C=C4)C=C3)cc1)n1nc(/C=C/c2ccc(OC)cc2)ccc1=O
REMARK SMILES IDX 8 1 7 2 5 3 6 4 4 6 3 7 2 8 1 9 69 10 70 11 84 12 71 13
REMARK SMILES IDX 83 14 85 15 82 16 72 17 73 18 74 19 75 20 81 21 76 22 80 23
REMARK SMILES IDX 77 24 78 25 79 26 9 27 10 28 11 29 12 30 13 31 14 33 15 34
REMARK SMILES IDX 16 35 68 36 17 37 67 38 18 39 19 40 20 41 61 42 21 43 66 44
REMARK SMILES IDX 60 45 62 46 22 47 65 48 59 49 58 50 23 52 49 53 32 54 48 55
REMARK SMILES IDX 33 56 36 57 47 58 63 59 34 60 35 61 46 63 64 64 37 65 24 66
REMARK SMILES IDX 25 67 30 68 26 69 27 70 29 71 31 72 28 73 50 74 51 75 56 76
REMARK SMILES IDX 52 77 53 78 55 79 57 80 54 81 38 82 39 83 44 84 40 85 41 86
REMARK SMILES IDX 43 87 45 88 42 89
REMARK H PARENT 7 5 12 32 62 51 36 62
REMARK Flexibility Score: inf
ROOT
ATOM      1  C   UNL     1      -1.482  -0.358  -0.476  1.00  0.00     0.116 C 
ENDROOT
BRANCH   1   2
ATOM      2  N   UNL     1      -1.794  -0.405  -1.883  1.00  0.00    -0.354 N 
ATOM      3  C   UNL     1      -0.973  -0.436  -2.973  1.00  0.00     0.245 C 
ATOM      4  O   UNL     1      -1.550  -0.308  -4.060  1.00  0.00    -0.273 OA
ATOM      5  H   UNL     1      -2.756  -0.416  -2.092  1.00  0.00     0.163 HD
BRANCH   3   6
ATOM      6  C   UNL     1       0.567  -0.639  -2.837  1.00  0.00     0.200 C 
BRANCH   6   7
ATOM      7  C   UNL     1       1.387   0.642  -2.554  1.00  0.00     0.037 C 
BRANCH   7   8
ATOM      8  C   UNL     1       1.585   1.111  -1.114  1.00  0.00    -0.001 C 
ATOM      9  C   UNL     1       2.237   0.110  -0.175  1.00  0.00     0.004 C 
ENDBRANCH   7   8
ENDBRANCH   6   7
BRANCH   6  10
ATOM     10  N   UNL     1       0.974  -1.206  -4.148  1.00  0.00    -0.217 N 
ATOM     11  N   UNL     1       1.306  -0.289  -5.125  1.00  0.00    -0.170 NA
ATOM     12  C   UNL     1       0.859  -2.565  -4.388  1.00  0.00     0.267 A 
ATOM     13  C   UNL     1       1.492  -0.708  -6.338  1.00  0.00     0.084 A 
ATOM     14  C   UNL     1       1.118  -3.000  -5.780  1.00  0.00     0.075 A 
ATOM     15  O   UNL     1       0.564  -3.405  -3.541  1.00  0.00    -0.268 OA
ATOM     16  C   UNL     1       1.408  -2.121  -6.743  1.00  0.00     0.036 A 
BRANCH  13  17
ATOM     17  C   UNL     1       1.842   0.329  -7.346  1.00  0.00     0.031 C 
ATOM     18  C   UNL     1       1.992   0.190  -8.670  1.00  0.00     0.010 C 
BRANCH  18  19
ATOM     19  C   UNL     1       2.398   1.327  -9.510  1.00  0.00    -0.025 A 
ATOM     20  C   UNL     1       1.752   1.564 -10.725  1.00  0.00     0.012 A 
ATOM     21  C   UNL     1       3.462   2.160  -9.139  1.00  0.00     0.012 A 
ATOM     22  C   UNL     1       2.153   2.629 -11.540  1.00  0.00     0.047 A 
ATOM     23  C   UNL     1       3.860   3.226  -9.954  1.00  0.00     0.047 A 
ATOM     24  C   UNL     1       3.204   3.467 -11.159  1.00  0.00     0.118 A 
BRANCH  24  25
ATOM     25  O   UNL     1       3.495   4.467 -12.044  1.00  0.00    -0.497 OA
ATOM     26  C   UNL     1       4.503   5.393 -11.654  1.00  0.00     0.278 C 
ENDBRANCH  24  25
ENDBRANCH  18  19
ENDBRANCH  13  17
ENDBRANCH   6  10
ENDBRANCH   3   6
ENDBRANCH   1   2
BRANCH   1  27
ATOM     27  C   UNL     1      -1.689   1.060   0.058  1.00  0.00     0.023 C 
BRANCH  27  28
ATOM     28  C   UNL     1      -3.129   1.409   0.414  1.00  0.00     0.023 C 
BRANCH  28  29
ATOM     29  C   UNL     1      -3.703   0.612   1.574  1.00  0.00     0.116 C 
BRANCH  29  30
ATOM     30  N   UNL     1      -2.950   0.756   2.812  1.00  0.00    -0.352 N 
ATOM     31  C   UNL     1      -3.431   0.868   4.097  1.00  0.00     0.251 C 
ATOM     32  H   UNL     1      -1.970   0.775   2.718  1.00  0.00     0.163 HD
ATOM     33  O   UNL     1      -2.675   1.071   5.036  1.00  0.00    -0.269 OA
BRANCH  31  34
ATOM     34  C   UNL     1      -4.890   0.789   4.312  1.00  0.00     0.039 A 
ATOM     35  C   UNL     1      -5.522   1.805   5.032  1.00  0.00     0.014 A 
ATOM     36  C   UNL     1      -5.633  -0.237   3.725  1.00  0.00     0.014 A 
ATOM     37  C   UNL     1      -6.915   1.837   5.089  1.00  0.00     0.010 A 
ATOM     38  C   UNL     1      -7.018  -0.153   3.707  1.00  0.00     0.010 A 
ATOM     39  C   UNL     1      -7.673   0.885   4.387  1.00  0.00    -0.014 A 
BRANCH  39  40
ATOM     40  C   UNL     1      -9.154   0.949   4.350  1.00  0.00     0.031 A 
ATOM     41  C   UNL     1      -9.963  -0.177   4.928  1.00  0.00     0.074 A 
ATOM     42  C   UNL     1      -9.765   1.972   3.721  1.00  0.00     0.049 A 
ATOM     43  N   UNL     1     -11.258  -0.362   4.904  1.00  0.00    -0.248 NA
ATOM     44  C   UNL     1      -9.213  -1.258   5.587  1.00  0.00     0.031 C 
ATOM     45  C   UNL     1      -9.088   3.092   3.063  1.00  0.00     0.029 A 
ATOM     46  N   UNL     1     -11.098   2.227   3.522  1.00  0.00    -0.354 N 
ATOM     47  C   UNL     1     -11.473  -1.587   5.520  1.00  0.00     0.074 A 
ATOM     48  C   UNL     1     -10.174  -2.128   5.857  1.00  0.00     0.031 C 
ATOM     49  C   UNL     1     -10.011   3.925   2.554  1.00  0.00     0.029 A 
ATOM     50  C   UNL     1     -11.339   3.384   2.821  1.00  0.00     0.049 A 
ATOM     51  H   UNL     1     -11.815   1.637   3.850  1.00  0.00     0.167 HD
ATOM     52  C   UNL     1     -12.647  -2.196   5.806  1.00  0.00     0.037 A 
ATOM     53  C   UNL     1     -12.502   3.941   2.435  1.00  0.00     0.037 A 
ATOM     54  C   UNL     1     -13.938  -1.638   5.508  1.00  0.00     0.049 A 
ATOM     55  C   UNL     1     -13.795   3.264   2.794  1.00  0.00     0.074 A 
ATOM     56  C   UNL     1     -15.189  -2.143   5.815  1.00  0.00     0.029 A 
ATOM     57  N   UNL     1     -14.142  -0.440   4.840  1.00  0.00    -0.354 N 
ATOM     58  N   UNL     1     -13.986   2.136   3.434  1.00  0.00    -0.248 NA
ATOM     59  C   UNL     1     -15.034   3.940   2.384  1.00  0.00     0.031 C 
ATOM     60  C   UNL     1     -16.151  -1.263   5.308  1.00  0.00     0.029 A 
ATOM     61  C   UNL     1     -15.498  -0.193   4.717  1.00  0.00     0.049 A 
ATOM     62  H   UNL     1     -13.427   0.148   4.503  1.00  0.00     0.167 HD
ATOM     63  C   UNL     1     -15.363   1.979   3.525  1.00  0.00     0.074 A 
ATOM     64  C   UNL     1     -15.959   3.134   2.886  1.00  0.00     0.031 C 
ATOM     65  C   UNL     1     -16.070   0.968   4.086  1.00  0.00     0.037 A 
BRANCH  52  66
ATOM     66  C   UNL     1     -12.580  -3.530   6.488  1.00  0.00     0.057 A 
ATOM     67  C   UNL     1     -12.175  -3.653   7.824  1.00  0.00     0.134 A 
ATOM     68  C   UNL     1     -12.933  -4.702   5.809  1.00  0.00     0.134 A 
ATOM     69  F   UNL     1     -11.807  -2.570   8.525  1.00  0.00    -0.206 F 
ATOM     70  C   UNL     1     -12.094  -4.897   8.450  1.00  0.00     0.040 A 
ATOM     71  C   UNL     1     -12.882  -5.949   6.433  1.00  0.00     0.040 A 
ATOM     72  F   UNL     1     -13.333  -4.654   4.529  1.00  0.00    -0.206 F 
ATOM     73  C   UNL     1     -12.454  -6.050   7.755  1.00  0.00     0.006 A 
ENDBRANCH  52  66
BRANCH  53  74
ATOM     74  C   UNL     1     -12.500   5.227   1.694  1.00  0.00     0.057 A 
ATOM     75  C   UNL     1     -12.912   6.413   2.313  1.00  0.00     0.134 A 
ATOM     76  C   UNL     1     -12.090   5.303   0.359  1.00  0.00     0.134 A 
ATOM     77  F   UNL     1     -13.332   6.398   3.587  1.00  0.00    -0.206 F 
ATOM     78  C   UNL     1     -12.934   7.627   1.625  1.00  0.00     0.040 A 
ATOM     79  C   UNL     1     -12.087   6.514  -0.336  1.00  0.00     0.040 A 
ATOM     80  F   UNL     1     -11.676   4.203  -0.287  1.00  0.00    -0.206 F 
ATOM     81  C   UNL     1     -12.516   7.680   0.297  1.00  0.00     0.006 A 
ENDBRANCH  53  74
BRANCH  65  82
ATOM     82  C   UNL     1     -17.564   1.083   4.061  1.00  0.00     0.057 A 
ATOM     83  C   UNL     1     -18.299   0.868   2.889  1.00  0.00     0.134 A 
ATOM     84  C   UNL     1     -18.276   1.368   5.232  1.00  0.00     0.134 A 
ATOM     85  F   UNL     1     -17.673   0.604   1.732  1.00  0.00    -0.206 F 
ATOM     86  C   UNL     1     -19.692   0.950   2.880  1.00  0.00     0.040 A 
ATOM     87  C   UNL     1     -19.669   1.431   5.240  1.00  0.00     0.040 A 
ATOM     88  F   UNL     1     -17.629   1.577   6.389  1.00  0.00    -0.206 F 
ATOM     89  C   UNL     1     -20.381   1.226   4.060  1.00  0.00     0.006 A 
ENDBRANCH  65  82
ENDBRANCH  39  40
ENDBRANCH  31  34
ENDBRANCH  29  30
ENDBRANCH  28  29
ENDBRANCH  27  28
ENDBRANCH   1  27
TORSDOF 17
