REMARK SMILES CC[C@H](NC(=O)NC[C@@]1(C)CCCO1)C(=O)NCCCCNC(=O)c1ccc(-c2c3nc(c(-c4c(F)cccc4F)c4ccc([nH]4)c(-c4c(F)cccc4F)c4nc(c(-c5c(F)cccc5F)c5ccc2[nH]5)C=C4)C=C3)cc1
REMARK SMILES IDX 19 1 18 2 17 3 15 4 16 5 3 7 2 8 1 9 4 10 5 11 6 13 7 14
REMARK SMILES IDX 8 16 9 17 10 18 11 19 14 20 12 21 13 22 20 23 21 24 22 25
REMARK SMILES IDX 23 26 24 28 25 29 26 30 78 31 27 32 77 33 28 34 29 35 30 36
REMARK SMILES IDX 71 37 31 38 76 39 70 40 72 41 32 42 75 43 69 44 68 45 33 47
REMARK SMILES IDX 59 48 42 49 58 50 43 51 46 52 57 53 73 54 44 55 45 56 56 58
REMARK SMILES IDX 74 59 47 60 34 61 35 62 40 63 36 64 37 65 39 66 41 67 38 68
REMARK SMILES IDX 60 69 61 70 66 71 62 72 63 73 65 74 67 75 64 76 48 77 49 78
REMARK SMILES IDX 54 79 50 80 51 81 53 82 55 83 52 84
REMARK H PARENT 17 6 4 12 7 15 22 27 72 46 46 57
REMARK Flexibility Score: inf
ROOT
ATOM      1  C   UNL     1      -2.788   1.510   2.396  1.00  0.00     0.023 C 
ENDROOT
BRANCH   1   2
ATOM      2  C   UNL     1      -2.035   2.605   1.646  1.00  0.00     0.116 C 
BRANCH   2   3
ATOM      3  N   UNL     1      -0.881   3.059   2.393  1.00  0.00    -0.354 N 
ATOM      4  C   UNL     1       0.448   2.781   2.256  1.00  0.00     0.242 C 
ATOM      5  O   UNL     1       1.219   3.368   3.023  1.00  0.00    -0.273 OA
ATOM      6  H   UNL     1      -1.092   3.678   3.129  1.00  0.00     0.163 HD
BRANCH   4   7
ATOM      7  C   UNL     1       1.003   1.926   1.092  1.00  0.00     0.172 C 
BRANCH   7   8
ATOM      8  C   UNL     1       0.892   2.720  -0.220  1.00  0.00     0.032 C 
ATOM      9  C   UNL     1       1.711   2.113  -1.348  1.00  0.00     0.006 C 
ENDBRANCH   7   8
BRANCH   7  10
ATOM     10  N   UNL     1       0.332   0.633   0.985  1.00  0.00    -0.326 N 
ATOM     11  C   UNL     1       0.622  -0.630   1.266  1.00  0.00     0.315 C 
ATOM     12  H   UNL     1      -0.572   0.722   0.606  1.00  0.00     0.166 HD
ATOM     13  O   UNL     1      -0.318  -1.429   1.245  1.00  0.00    -0.249 OA
ATOM     14  N   UNL     1       1.825  -1.117   1.539  1.00  0.00    -0.335 N 
ATOM     15  H   UNL     1       1.778  -2.071   1.778  1.00  0.00     0.165 HD
BRANCH  14  16
ATOM     16  C   UNL     1       3.195  -0.628   1.583  1.00  0.00     0.152 C 
BRANCH  16  17
ATOM     17  C   UNL     1       3.807  -0.684   3.001  1.00  0.00     0.083 C 
ATOM     18  C   UNL     1       3.314   0.489   3.853  1.00  0.00     0.044 C 
ATOM     19  C   UNL     1       3.565  -2.032   3.689  1.00  0.00     0.039 C 
ATOM     20  O   UNL     1       5.246  -0.567   2.897  1.00  0.00    -0.373 OA
ATOM     21  C   UNL     1       4.775  -2.186   4.573  1.00  0.00     0.031 C 
ATOM     22  C   UNL     1       5.862  -1.567   3.724  1.00  0.00     0.161 C 
ENDBRANCH  16  17
ENDBRANCH  14  16
ENDBRANCH   7  10
ENDBRANCH   4   7
ENDBRANCH   2   3
ENDBRANCH   1   2
BRANCH   1  23
ATOM     23  C   UNL     1      -3.599   2.017   3.591  1.00  0.00     0.023 C 
BRANCH  23  24
ATOM     24  C   UNL     1      -4.612   3.111   3.269  1.00  0.00     0.116 C 
BRANCH  24  25
ATOM     25  N   UNL     1      -5.534   2.744   2.206  1.00  0.00    -0.352 N 
ATOM     26  C   UNL     1      -6.873   3.015   2.088  1.00  0.00     0.251 C 
ATOM     27  H   UNL     1      -5.141   2.227   1.466  1.00  0.00     0.163 HD
ATOM     28  O   UNL     1      -7.521   2.514   1.171  1.00  0.00    -0.269 OA
BRANCH  26  29
ATOM     29  C   UNL     1      -7.545   3.877   3.081  1.00  0.00     0.039 A 
ATOM     30  C   UNL     1      -8.786   3.476   3.578  1.00  0.00     0.014 A 
ATOM     31  C   UNL     1      -6.961   5.067   3.526  1.00  0.00     0.014 A 
ATOM     32  C   UNL     1      -9.415   4.240   4.560  1.00  0.00     0.010 A 
ATOM     33  C   UNL     1      -7.551   5.785   4.564  1.00  0.00     0.010 A 
ATOM     34  C   UNL     1      -8.787   5.381   5.088  1.00  0.00    -0.014 A 
BRANCH  34  35
ATOM     35  C   UNL     1      -9.421   6.140   6.195  1.00  0.00     0.031 A 
ATOM     36  C   UNL     1      -9.867   7.562   5.998  1.00  0.00     0.074 A 
ATOM     37  C   UNL     1      -9.582   5.542   7.392  1.00  0.00     0.049 A 
ATOM     38  N   UNL     1     -10.479   8.358   6.838  1.00  0.00    -0.248 NA
ATOM     39  C   UNL     1      -9.568   8.181   4.697  1.00  0.00     0.031 C 
ATOM     40  C   UNL     1      -9.126   4.192   7.731  1.00  0.00     0.029 A 
ATOM     41  N   UNL     1     -10.179   5.988   8.544  1.00  0.00    -0.354 N 
ATOM     42  C   UNL     1     -10.646   9.562   6.166  1.00  0.00     0.074 A 
ATOM     43  C   UNL     1     -10.005   9.418   4.877  1.00  0.00     0.031 C 
ATOM     44  C   UNL     1      -9.493   3.907   8.990  1.00  0.00     0.029 A 
ATOM     45  C   UNL     1     -10.182   5.061   9.557  1.00  0.00     0.049 A 
ATOM     46  H   UNL     1     -10.569   6.888   8.635  1.00  0.00     0.167 HD
ATOM     47  C   UNL     1     -11.302  10.676   6.571  1.00  0.00     0.037 A 
ATOM     48  C   UNL     1     -10.690   5.130  10.802  1.00  0.00     0.037 A 
ATOM     49  C   UNL     1     -11.942  10.816   7.854  1.00  0.00     0.049 A 
ATOM     50  C   UNL     1     -11.418   6.375  11.225  1.00  0.00     0.074 A 
ATOM     51  C   UNL     1     -12.661  11.891   8.348  1.00  0.00     0.029 A 
ATOM     52  N   UNL     1     -11.936   9.850   8.849  1.00  0.00    -0.354 N 
ATOM     53  N   UNL     1     -11.634   7.478  10.550  1.00  0.00    -0.248 NA
ATOM     54  C   UNL     1     -11.988   6.378  12.579  1.00  0.00     0.031 C 
ATOM     55  C   UNL     1     -13.053  11.592   9.657  1.00  0.00     0.029 A 
ATOM     56  C   UNL     1     -12.625  10.309   9.960  1.00  0.00     0.049 A 
ATOM     57  H   UNL     1     -11.505   8.967   8.777  1.00  0.00     0.167 HD
ATOM     58  C   UNL     1     -12.381   8.296  11.387  1.00  0.00     0.074 A 
ATOM     59  C   UNL     1     -12.607   7.549  12.607  1.00  0.00     0.031 C 
ATOM     60  C   UNL     1     -12.835   9.556  11.170  1.00  0.00     0.037 A 
BRANCH  47  61
ATOM     61  C   UNL     1     -11.376  11.824   5.606  1.00  0.00     0.057 A 
ATOM     62  C   UNL     1     -12.144  11.752   4.435  1.00  0.00     0.134 A 
ATOM     63  C   UNL     1     -10.708  13.028   5.863  1.00  0.00     0.134 A 
ATOM     64  F   UNL     1     -12.800  10.624   4.121  1.00  0.00    -0.206 F 
ATOM     65  C   UNL     1     -12.225  12.824   3.545  1.00  0.00     0.040 A 
ATOM     66  C   UNL     1     -10.805  14.117   4.995  1.00  0.00     0.040 A 
ATOM     67  F   UNL     1      -9.959  13.169   6.967  1.00  0.00    -0.206 F 
ATOM     68  C   UNL     1     -11.560  14.014   3.829  1.00  0.00     0.006 A 
ENDBRANCH  47  61
BRANCH  48  69
ATOM     69  C   UNL     1     -10.548   3.978  11.729  1.00  0.00     0.057 A 
ATOM     70  C   UNL     1     -11.657   3.223  12.129  1.00  0.00     0.134 A 
ATOM     71  C   UNL     1      -9.300   3.616  12.252  1.00  0.00     0.134 A 
ATOM     72  F   UNL     1     -12.881   3.530  11.676  1.00  0.00    -0.206 F 
ATOM     73  C   UNL     1     -11.536   2.169  13.037  1.00  0.00     0.040 A 
ATOM     74  C   UNL     1      -9.161   2.546  13.137  1.00  0.00     0.040 A 
ATOM     75  F   UNL     1      -8.197   4.292  11.901  1.00  0.00    -0.206 F 
ATOM     76  C   UNL     1     -10.283   1.826  13.540  1.00  0.00     0.006 A 
ENDBRANCH  48  69
BRANCH  60  77
ATOM     77  C   UNL     1     -13.638  10.187  12.271  1.00  0.00     0.057 A 
ATOM     78  C   UNL     1     -13.056  10.570  13.487  1.00  0.00     0.134 A 
ATOM     79  C   UNL     1     -15.011  10.417  12.112  1.00  0.00     0.134 A 
ATOM     80  F   UNL     1     -11.749  10.367  13.709  1.00  0.00    -0.206 F 
ATOM     81  C   UNL     1     -13.818  11.120  14.520  1.00  0.00     0.040 A 
ATOM     82  C   UNL     1     -15.777  10.995  13.125  1.00  0.00     0.040 A 
ATOM     83  F   UNL     1     -15.630  10.085  10.969  1.00  0.00    -0.206 F 
ATOM     84  C   UNL     1     -15.182  11.337  14.338  1.00  0.00     0.006 A 
ENDBRANCH  60  77
ENDBRANCH  34  35
ENDBRANCH  26  29
ENDBRANCH  24  25
ENDBRANCH  23  24
ENDBRANCH   1  23
TORSDOF 15
