REMARK SMILES CC(C)c1ccc(-c2ccc(N3CCC[C@@H](C(=O)NCCCCNC(=O)c4ccc(-c5c6nc(c(-c7c(F)cccc7F)c7ccc([nH]7)c(-c7c(F)cccc7F)c7nc(c(-c8c(F)cccc8F)c8ccc5[nH]8)C=C7)C=C6)cc4)C3)nn2)cc1
REMARK SMILES IDX 21 1 20 2 19 3 17 4 18 5 16 7 12 8 13 9 81 10 14 11 15 12
REMARK SMILES IDX 11 13 8 14 9 15 83 16 10 17 82 18 7 19 4 20 5 21 85 22 6 23
REMARK SMILES IDX 84 24 2 25 1 26 3 27 22 28 23 29 24 30 25 31 26 33 27 34
REMARK SMILES IDX 28 35 80 36 29 37 79 38 30 39 31 40 32 41 73 42 33 43 78 44
REMARK SMILES IDX 72 45 74 46 34 47 77 48 71 49 70 50 35 52 61 53 44 54 60 55
REMARK SMILES IDX 45 56 48 57 59 58 75 59 46 60 47 61 58 63 76 64 49 65 36 66
REMARK SMILES IDX 37 67 42 68 38 69 39 70 41 71 43 72 40 73 62 74 63 75 68 76
REMARK SMILES IDX 64 77 65 78 67 79 69 80 66 81 50 82 51 83 56 84 52 85 53 86
REMARK SMILES IDX 55 87 57 88 54 89
REMARK H PARENT 19 6 24 32 74 51 48 62
REMARK Flexibility Score: inf
ROOT
ATOM      1  C   UNL     1     -14.328   2.876   0.508  1.00  0.00     0.023 C 
ENDROOT
BRANCH   1   2
ATOM      2  C   UNL     1     -12.991   3.122   1.213  1.00  0.00     0.116 C 
BRANCH   2   3
ATOM      3  N   UNL     1     -12.892   2.352   2.438  1.00  0.00    -0.356 N 
ATOM      4  C   UNL     1     -12.174   1.225   2.709  1.00  0.00     0.224 C 
ATOM      5  O   UNL     1     -12.290   0.732   3.832  1.00  0.00    -0.275 OA
ATOM      6  H   UNL     1     -13.426   2.697   3.191  1.00  0.00     0.163 HD
BRANCH   4   7
ATOM      7  C   UNL     1     -11.241   0.641   1.656  1.00  0.00     0.098 C 
ATOM      8  N   UNL     1      -9.510  -1.064   1.280  1.00  0.00    -0.354 N 
ATOM      9  C   UNL     1     -10.111  -1.563   0.053  1.00  0.00     0.118 C 
ATOM     10  C   UNL     1     -10.365  -0.453   2.295  1.00  0.00     0.131 C 
ATOM     11  C   UNL     1     -11.006  -0.504  -0.570  1.00  0.00     0.022 C 
ATOM     12  C   UNL     1     -11.993   0.049   0.456  1.00  0.00     0.017 C 
BRANCH   8  13
ATOM     13  C   UNL     1      -8.138  -0.959   1.352  1.00  0.00     0.151 A 
ATOM     14  C   UNL     1      -5.385  -0.865   1.412  1.00  0.00     0.093 A 
ATOM     15  C   UNL     1      -6.066  -1.353   2.515  1.00  0.00     0.035 A 
ATOM     16  N   UNL     1      -6.056  -0.427   0.328  1.00  0.00    -0.148 NA
ATOM     17  C   UNL     1      -7.458  -1.380   2.487  1.00  0.00     0.051 A 
ATOM     18  N   UNL     1      -7.435  -0.500   0.294  1.00  0.00    -0.132 NA
BRANCH  14  19
ATOM     19  C   UNL     1      -3.926  -0.815   1.347  1.00  0.00     0.002 A 
ATOM     20  C   UNL     1      -1.094  -0.720   1.243  1.00  0.00    -0.045 A 
ATOM     21  C   UNL     1      -1.853   0.459   1.230  1.00  0.00     0.004 A 
ATOM     22  C   UNL     1      -1.768  -1.947   1.308  1.00  0.00     0.004 A 
ATOM     23  C   UNL     1      -3.250   0.410   1.272  1.00  0.00     0.011 A 
ATOM     24  C   UNL     1      -3.164  -1.993   1.362  1.00  0.00     0.011 A 
BRANCH  20  25
ATOM     25  C   UNL     1       0.423  -0.697   1.201  1.00  0.00     0.013 C 
ATOM     26  C   UNL     1       0.956   0.070  -0.012  1.00  0.00     0.012 C 
ATOM     27  C   UNL     1       0.999  -0.131   2.501  1.00  0.00     0.012 C 
ENDBRANCH  20  25
ENDBRANCH  14  19
ENDBRANCH   8  13
ENDBRANCH   4   7
ENDBRANCH   2   3
ENDBRANCH   1   2
BRANCH   1  28
ATOM     28  C   UNL     1     -15.556   3.385   1.267  1.00  0.00     0.023 C 
BRANCH  28  29
ATOM     29  C   UNL     1     -15.562   4.880   1.558  1.00  0.00     0.116 C 
BRANCH  29  30
ATOM     30  N   UNL     1     -15.520   5.695   0.354  1.00  0.00    -0.352 N 
ATOM     31  C   UNL     1     -16.210   6.849   0.075  1.00  0.00     0.251 C 
ATOM     32  H   UNL     1     -14.916   5.377  -0.355  1.00  0.00     0.163 HD
ATOM     33  O   UNL     1     -16.155   7.351  -1.044  1.00  0.00    -0.269 OA
BRANCH  31  34
ATOM     34  C   UNL     1     -17.052   7.466   1.122  1.00  0.00     0.039 A 
ATOM     35  C   UNL     1     -18.355   7.854   0.799  1.00  0.00     0.014 A 
ATOM     36  C   UNL     1     -16.566   7.635   2.421  1.00  0.00     0.014 A 
ATOM     37  C   UNL     1     -19.194   8.353   1.798  1.00  0.00     0.010 A 
ATOM     38  C   UNL     1     -17.425   8.062   3.428  1.00  0.00     0.010 A 
ATOM     39  C   UNL     1     -18.746   8.427   3.127  1.00  0.00    -0.014 A 
BRANCH  39  40
ATOM     40  C   UNL     1     -19.636   8.893   4.219  1.00  0.00     0.031 A 
ATOM     41  C   UNL     1     -19.305  10.151   4.972  1.00  0.00     0.074 A 
ATOM     42  C   UNL     1     -20.697   8.147   4.584  1.00  0.00     0.049 A 
ATOM     43  N   UNL     1     -19.896  10.671   6.017  1.00  0.00    -0.248 NA
ATOM     44  C   UNL     1     -18.134  10.909   4.504  1.00  0.00     0.031 C 
ATOM     45  C   UNL     1     -21.103   6.887   3.959  1.00  0.00     0.029 A 
ATOM     46  N   UNL     1     -21.621   8.337   5.580  1.00  0.00    -0.354 N 
ATOM     47  C   UNL     1     -19.161  11.804   6.340  1.00  0.00     0.074 A 
ATOM     48  C   UNL     1     -18.049  11.865   5.416  1.00  0.00     0.031 C 
ATOM     49  C   UNL     1     -22.207   6.429   4.571  1.00  0.00     0.029 A 
ATOM     50  C   UNL     1     -22.562   7.340   5.656  1.00  0.00     0.049 A 
ATOM     51  H   UNL     1     -21.610   9.115   6.184  1.00  0.00     0.167 HD
ATOM     52  C   UNL     1     -19.402  12.724   7.304  1.00  0.00     0.037 A 
ATOM     53  C   UNL     1     -23.591   7.175   6.508  1.00  0.00     0.037 A 
ATOM     54  C   UNL     1     -20.522  12.674   8.207  1.00  0.00     0.049 A 
ATOM     55  C   UNL     1     -23.831   8.201   7.581  1.00  0.00     0.074 A 
ATOM     56  C   UNL     1     -20.883  13.584   9.185  1.00  0.00     0.029 A 
ATOM     57  N   UNL     1     -21.462  11.655   8.242  1.00  0.00    -0.354 N 
ATOM     58  N   UNL     1     -23.160   9.297   7.841  1.00  0.00    -0.248 NA
ATOM     59  C   UNL     1     -24.973   7.968   8.476  1.00  0.00     0.031 C 
ATOM     60  C   UNL     1     -22.018  13.095   9.839  1.00  0.00     0.029 A 
ATOM     61  C   UNL     1     -22.392  11.904   9.237  1.00  0.00     0.049 A 
ATOM     62  H   UNL     1     -21.466  10.870   7.648  1.00  0.00     0.167 HD
ATOM     63  C   UNL     1     -23.817   9.901   8.906  1.00  0.00     0.074 A 
ATOM     64  C   UNL     1     -24.942   9.053   9.238  1.00  0.00     0.031 C 
ATOM     65  C   UNL     1     -23.515  11.056   9.548  1.00  0.00     0.037 A 
BRANCH  52  66
ATOM     66  C   UNL     1     -18.433  13.864   7.425  1.00  0.00     0.057 A 
ATOM     67  C   UNL     1     -18.344  14.864   6.447  1.00  0.00     0.134 A 
ATOM     68  C   UNL     1     -17.587  13.970   8.535  1.00  0.00     0.134 A 
ATOM     69  F   UNL     1     -19.116  14.815   5.351  1.00  0.00    -0.206 F 
ATOM     70  C   UNL     1     -17.426  15.911   6.553  1.00  0.00     0.040 A 
ATOM     71  C   UNL     1     -16.685  15.028   8.667  1.00  0.00     0.040 A 
ATOM     72  F   UNL     1     -17.623  13.051   9.511  1.00  0.00    -0.206 F 
ATOM     73  C   UNL     1     -16.596  15.997   7.670  1.00  0.00     0.006 A 
ENDBRANCH  52  66
BRANCH  53  74
ATOM     74  C   UNL     1     -24.494   6.005   6.364  1.00  0.00     0.057 A 
ATOM     75  C   UNL     1     -25.808   6.164   5.910  1.00  0.00     0.134 A 
ATOM     76  C   UNL     1     -24.072   4.708   6.677  1.00  0.00     0.134 A 
ATOM     77  F   UNL     1     -26.275   7.386   5.612  1.00  0.00    -0.206 F 
ATOM     78  C   UNL     1     -26.676   5.079   5.787  1.00  0.00     0.040 A 
ATOM     79  C   UNL     1     -24.922   3.609   6.537  1.00  0.00     0.040 A 
ATOM     80  F   UNL     1     -22.822   4.488   7.111  1.00  0.00    -0.206 F 
ATOM     81  C   UNL     1     -26.231   3.795   6.096  1.00  0.00     0.006 A 
ENDBRANCH  53  74
BRANCH  65  82
ATOM     82  C   UNL     1     -24.440  11.495  10.645  1.00  0.00     0.057 A 
ATOM     83  C   UNL     1     -24.471  10.854  11.889  1.00  0.00     0.134 A 
ATOM     84  C   UNL     1     -25.279  12.602  10.465  1.00  0.00     0.134 A 
ATOM     85  F   UNL     1     -23.703   9.778  12.120  1.00  0.00    -0.206 F 
ATOM     86  C   UNL     1     -25.319  11.287  12.910  1.00  0.00     0.040 A 
ATOM     87  C   UNL     1     -26.111  13.060  11.487  1.00  0.00     0.040 A 
ATOM     88  F   UNL     1     -25.291  13.266   9.300  1.00  0.00    -0.206 F 
ATOM     89  C   UNL     1     -26.136  12.398  12.713  1.00  0.00     0.006 A 
ENDBRANCH  65  82
ENDBRANCH  39  40
ENDBRANCH  31  34
ENDBRANCH  29  30
ENDBRANCH  28  29
ENDBRANCH   1  28
TORSDOF 14
