REMARK SMILES CCC[C@H](C)C[N@H+]1[C@@H]2CC[C@H]1C[C@H](CC(=O)NCCCCNC(=O)c1ccc(-c3c4nc(c(-c5c(F)cccc5F)c5ccc([nH]5)c(-c5c(F)cccc5F)c5nc(c(-c6c(F)cccc6F)c6ccc3[nH]6)C=C5)C=C4)cc1)C2
REMARK SMILES IDX 18 1 17 2 15 3 16 4 14 6 13 7 7 8 8 9 11 10 9 12 79 13 10 14
REMARK SMILES IDX 12 15 6 16 4 17 5 18 3 19 2 20 1 21 19 22 20 23 21 24 22 25
REMARK SMILES IDX 23 26 24 28 25 29 26 30 78 31 27 32 77 33 28 34 29 35 30 36
REMARK SMILES IDX 71 37 31 38 76 39 70 40 72 41 32 42 75 43 69 44 68 45 33 47
REMARK SMILES IDX 59 48 42 49 58 50 43 51 46 52 57 53 73 54 44 55 45 56 56 58
REMARK SMILES IDX 74 59 47 60 34 61 35 62 40 63 36 64 37 65 39 66 41 67 38 68
REMARK SMILES IDX 60 69 61 70 66 71 62 72 63 73 65 74 67 75 64 76 48 77 49 78
REMARK SMILES IDX 54 79 50 80 51 81 53 82 55 83 52 84
REMARK H PARENT 17 5 7 11 22 27 72 46 46 57
REMARK Flexibility Score: inf
ROOT
ATOM      1  C   UNL     1       1.071   5.797  -1.696  1.00  0.00     0.116 C 
ENDROOT
BRANCH   1   2
ATOM      2  N   UNL     1       1.854   5.082  -2.690  1.00  0.00    -0.356 N 
ATOM      3  C   UNL     1       2.371   3.821  -2.679  1.00  0.00     0.220 C 
ATOM      4  O   UNL     1       3.093   3.485  -3.621  1.00  0.00    -0.275 OA
ATOM      5  H   UNL     1       2.042   5.595  -3.509  1.00  0.00     0.163 HD
BRANCH   3   6
ATOM      6  C   UNL     1       2.063   2.842  -1.558  1.00  0.00     0.104 C 
BRANCH   6   7
ATOM      7  C   UNL     1       3.145   2.772  -0.456  1.00  0.00     0.010 C 
ATOM      8  N   UNL     1       2.733   2.680   2.487  1.00  0.00    -0.330 N 
ATOM      9  C   UNL     1       3.369   1.547   1.820  1.00  0.00     0.184 C 
ATOM     10  C   UNL     1       3.442   3.830   1.925  1.00  0.00     0.184 C 
ATOM     11  H   UNL     1       2.823   2.498   3.486  1.00  0.00     0.348 HD
ATOM     12  C   UNL     1       4.857   1.900   2.028  1.00  0.00     0.071 C 
ATOM     13  C   UNL     1       3.057   1.441   0.318  1.00  0.00     0.069 C 
ATOM     14  C   UNL     1       4.902   3.423   2.066  1.00  0.00     0.071 C 
ATOM     15  C   UNL     1       3.073   4.009   0.453  1.00  0.00     0.069 C 
BRANCH   8  16
ATOM     16  C   UNL     1       1.283   2.865   2.622  1.00  0.00     0.265 C 
BRANCH  16  17
ATOM     17  C   UNL     1       0.255   1.843   2.076  1.00  0.00     0.041 C 
ATOM     18  C   UNL     1       0.277   0.531   2.863  1.00  0.00     0.013 C 
BRANCH  17  19
ATOM     19  C   UNL     1      -1.188   2.416   2.121  1.00  0.00     0.009 C 
BRANCH  19  20
ATOM     20  C   UNL     1      -1.526   3.373   0.969  1.00  0.00    -0.003 C 
ATOM     21  C   UNL     1      -1.797   2.648  -0.344  1.00  0.00     0.004 C 
ENDBRANCH  19  20
ENDBRANCH  17  19
ENDBRANCH  16  17
ENDBRANCH   8  16
ENDBRANCH   6   7
ENDBRANCH   3   6
ENDBRANCH   1   2
BRANCH   1  22
ATOM     22  C   UNL     1       1.963   6.698  -0.839  1.00  0.00     0.023 C 
BRANCH  22  23
ATOM     23  C   UNL     1       2.234   8.079  -1.402  1.00  0.00     0.023 C 
BRANCH  23  24
ATOM     24  C   UNL     1       1.063   9.026  -1.263  1.00  0.00     0.116 C 
BRANCH  24  25
ATOM     25  N   UNL     1       0.768   9.391   0.121  1.00  0.00    -0.352 N 
ATOM     26  C   UNL     1       0.525  10.647   0.632  1.00  0.00     0.251 C 
ATOM     27  H   UNL     1       0.740   8.649   0.766  1.00  0.00     0.163 HD
ATOM     28  O   UNL     1       0.368  10.828   1.834  1.00  0.00    -0.269 OA
BRANCH  26  29
ATOM     29  C   UNL     1       0.512  11.784  -0.307  1.00  0.00     0.039 A 
ATOM     30  C   UNL     1       1.373  12.861  -0.088  1.00  0.00     0.014 A 
ATOM     31  C   UNL     1      -0.233  11.689  -1.484  1.00  0.00     0.014 A 
ATOM     32  C   UNL     1       1.570  13.794  -1.107  1.00  0.00     0.010 A 
ATOM     33  C   UNL     1       0.052  12.549  -2.532  1.00  0.00     0.010 A 
ATOM     34  C   UNL     1       0.957  13.610  -2.357  1.00  0.00    -0.014 A 
BRANCH  34  35
ATOM     35  C   UNL     1       1.209  14.513  -3.507  1.00  0.00     0.031 A 
ATOM     36  C   UNL     1       0.047  15.232  -4.133  1.00  0.00     0.074 A 
ATOM     37  C   UNL     1       2.435  14.592  -4.059  1.00  0.00     0.049 A 
ATOM     38  N   UNL     1      -0.011  15.893  -5.259  1.00  0.00    -0.248 NA
ATOM     39  C   UNL     1      -1.239  15.146  -3.419  1.00  0.00     0.031 C 
ATOM     40  C   UNL     1       3.635  13.901  -3.581  1.00  0.00     0.029 A 
ATOM     41  N   UNL     1       2.869  15.278  -5.166  1.00  0.00    -0.354 N 
ATOM     42  C   UNL     1      -1.343  16.253  -5.411  1.00  0.00     0.074 A 
ATOM     43  C   UNL     1      -2.068  15.696  -4.291  1.00  0.00     0.031 C 
ATOM     44  C   UNL     1       4.672  14.217  -4.375  1.00  0.00     0.029 A 
ATOM     45  C   UNL     1       4.203  15.096  -5.442  1.00  0.00     0.049 A 
ATOM     46  H   UNL     1       2.280  15.848  -5.711  1.00  0.00     0.167 HD
ATOM     47  C   UNL     1      -1.909  17.003  -6.385  1.00  0.00     0.037 A 
ATOM     48  C   UNL     1       4.957  15.575  -6.449  1.00  0.00     0.037 A 
ATOM     49  C   UNL     1      -1.173  17.617  -7.454  1.00  0.00     0.049 A 
ATOM     50  C   UNL     1       4.317  16.455  -7.488  1.00  0.00     0.074 A 
ATOM     51  C   UNL     1      -1.635  18.461  -8.447  1.00  0.00     0.029 A 
ATOM     52  N   UNL     1       0.191  17.465  -7.655  1.00  0.00    -0.354 N 
ATOM     53  N   UNL     1       3.064  16.825  -7.598  1.00  0.00    -0.248 NA
ATOM     54  C   UNL     1       5.195  16.986  -8.541  1.00  0.00     0.031 C 
ATOM     55  C   UNL     1      -0.553  18.807  -9.262  1.00  0.00     0.029 A 
ATOM     56  C   UNL     1       0.588  18.201  -8.757  1.00  0.00     0.049 A 
ATOM     57  H   UNL     1       0.788  16.916  -7.097  1.00  0.00     0.167 HD
ATOM     58  C   UNL     1       3.008  17.654  -8.710  1.00  0.00     0.074 A 
ATOM     59  C   UNL     1       4.354  17.737  -9.239  1.00  0.00     0.031 C 
ATOM     60  C   UNL     1       1.938  18.289  -9.247  1.00  0.00     0.037 A 
BRANCH  47  61
ATOM     61  C   UNL     1      -3.392  17.209  -6.318  1.00  0.00     0.057 A 
ATOM     62  C   UNL     1      -3.983  18.014  -5.334  1.00  0.00     0.134 A 
ATOM     63  C   UNL     1      -4.241  16.600  -7.250  1.00  0.00     0.134 A 
ATOM     64  F   UNL     1      -3.226  18.609  -4.399  1.00  0.00    -0.206 F 
ATOM     65  C   UNL     1      -5.366  18.180  -5.261  1.00  0.00     0.040 A 
ATOM     66  C   UNL     1      -5.624  16.781  -7.204  1.00  0.00     0.040 A 
ATOM     67  F   UNL     1      -3.740  15.819  -8.219  1.00  0.00    -0.206 F 
ATOM     68  C   UNL     1      -6.190  17.567  -6.202  1.00  0.00     0.006 A 
ENDBRANCH  47  61
BRANCH  48  69
ATOM     69  C   UNL     1       6.406  15.264  -6.511  1.00  0.00     0.057 A 
ATOM     70  C   UNL     1       7.362  16.244  -6.220  1.00  0.00     0.134 A 
ATOM     71  C   UNL     1       6.873  13.992  -6.864  1.00  0.00     0.134 A 
ATOM     72  F   UNL     1       6.976  17.486  -5.894  1.00  0.00    -0.206 F 
ATOM     73  C   UNL     1       8.730  15.978  -6.294  1.00  0.00     0.040 A 
ATOM     74  C   UNL     1       8.238  13.706  -6.922  1.00  0.00     0.040 A 
ATOM     75  F   UNL     1       6.007  13.008  -7.146  1.00  0.00    -0.206 F 
ATOM     76  C   UNL     1       9.171  14.703  -6.643  1.00  0.00     0.006 A 
ENDBRANCH  48  69
BRANCH  60  77
ATOM     77  C   UNL     1       2.185  19.169 -10.433  1.00  0.00     0.057 A 
ATOM     78  C   UNL     1       2.388  18.640 -11.713  1.00  0.00     0.134 A 
ATOM     79  C   UNL     1       2.150  20.563 -10.301  1.00  0.00     0.134 A 
ATOM     80  F   UNL     1       2.442  17.313 -11.900  1.00  0.00    -0.206 F 
ATOM     81  C   UNL     1       2.558  19.470 -12.822  1.00  0.00     0.040 A 
ATOM     82  C   UNL     1       2.299  21.402 -11.404  1.00  0.00     0.040 A 
ATOM     83  F   UNL     1       1.950  21.128  -9.100  1.00  0.00    -0.206 F 
ATOM     84  C   UNL     1       2.506  20.855 -12.669  1.00  0.00     0.006 A 
ENDBRANCH  60  77
ENDBRANCH  34  35
ENDBRANCH  26  29
ENDBRANCH  24  25
ENDBRANCH  23  24
ENDBRANCH  22  23
ENDBRANCH   1  22
TORSDOF 16
