REMARK SMILES CCCN(CC(=O)OC)C(=O)N1CC[C@H](C(=O)NCCCCNC(=O)c2ccc(-c3c4nc(c(-c5c(F)cccc5F)c5ccc([nH]5)c(-c5c(F)cccc5F)c5nc(c(-c6c(F)cccc6F)c6ccc3[nH]6)C=C5)C=C4)cc2)[C@H]1C
REMARK SMILES IDX 19 1 18 2 16 3 17 4 15 6 12 7 13 8 80 9 14 10 81 11 10 12
REMARK SMILES IDX 11 13 4 14 3 15 2 16 1 17 5 18 6 19 7 20 8 21 9 22 20 23
REMARK SMILES IDX 21 24 22 25 23 26 24 27 25 29 26 30 27 31 79 32 28 33 78 34
REMARK SMILES IDX 29 35 30 36 31 37 72 38 32 39 77 40 71 41 73 42 33 43 76 44
REMARK SMILES IDX 70 45 69 46 34 48 60 49 43 50 59 51 44 52 47 53 58 54 74 55
REMARK SMILES IDX 45 56 46 57 57 59 75 60 48 61 35 62 36 63 41 64 37 65 38 66
REMARK SMILES IDX 40 67 42 68 39 69 61 70 62 71 67 72 63 73 64 74 66 75 68 76
REMARK SMILES IDX 65 77 49 78 50 79 55 80 51 81 52 82 54 83 56 84 53 85
REMARK H PARENT 18 5 23 28 73 47 47 58
REMARK Flexibility Score: inf
ROOT
ATOM      1  C   UNL     1       1.319  -6.565  -5.100  1.00  0.00     0.116 C 
ENDROOT
BRANCH   1   2
ATOM      2  N   UNL     1       2.149  -5.377  -5.074  1.00  0.00    -0.356 N 
ATOM      3  C   UNL     1       1.778  -4.064  -5.027  1.00  0.00     0.225 C 
ATOM      4  O   UNL     1       2.662  -3.216  -5.122  1.00  0.00    -0.275 OA
ATOM      5  H   UNL     1       3.120  -5.540  -5.092  1.00  0.00     0.163 HD
BRANCH   3   6
ATOM      6  C   UNL     1       0.295  -3.723  -4.961  1.00  0.00     0.102 C 
ATOM      7  N   UNL     1       0.059  -1.896  -3.443  1.00  0.00    -0.321 N 
ATOM      8  C   UNL     1      -0.135  -3.128  -2.687  1.00  0.00     0.122 C 
ATOM      9  C   UNL     1       0.048  -2.200  -4.889  1.00  0.00     0.096 C 
ATOM     10  C   UNL     1      -0.406  -4.223  -3.698  1.00  0.00     0.037 C 
ATOM     11  C   UNL     1      -1.306  -1.916  -5.559  1.00  0.00     0.032 C 
BRANCH   7  12
ATOM     12  C   UNL     1       0.933  -0.991  -2.849  1.00  0.00     0.320 C 
ATOM     13  O   UNL     1       1.787  -1.378  -2.046  1.00  0.00    -0.248 OA
BRANCH  12  14
ATOM     14  N   UNL     1       0.705   0.361  -3.026  1.00  0.00    -0.314 N 
BRANCH  14  15
ATOM     15  C   UNL     1       1.368   1.290  -2.109  1.00  0.00     0.122 C 
BRANCH  15  16
ATOM     16  C   UNL     1       0.600   1.459  -0.786  1.00  0.00     0.018 C 
ATOM     17  C   UNL     1       0.812   0.319   0.205  1.00  0.00     0.006 C 
ENDBRANCH  15  16
ENDBRANCH  14  15
BRANCH  14  18
ATOM     18  C   UNL     1      -0.183   0.952  -4.024  1.00  0.00     0.243 C 
BRANCH  18  19
ATOM     19  C   UNL     1       0.429   1.038  -5.428  1.00  0.00     0.325 C 
ATOM     20  O   UNL     1      -0.218   1.364  -6.418  1.00  0.00    -0.250 OA
BRANCH  19  21
ATOM     21  O   UNL     1       1.749   0.712  -5.435  1.00  0.00    -0.468 OA
ATOM     22  C   UNL     1       2.385   0.533  -6.704  1.00  0.00     0.282 C 
ENDBRANCH  19  21
ENDBRANCH  18  19
ENDBRANCH  14  18
ENDBRANCH  12  14
ENDBRANCH   7  12
ENDBRANCH   3   6
ENDBRANCH   1   2
BRANCH   1  23
ATOM     23  C   UNL     1       1.723  -7.535  -6.205  1.00  0.00     0.023 C 
BRANCH  23  24
ATOM     24  C   UNL     1       3.156  -8.057  -6.119  1.00  0.00     0.023 C 
BRANCH  24  25
ATOM     25  C   UNL     1       3.543  -8.680  -4.782  1.00  0.00     0.116 C 
BRANCH  25  26
ATOM     26  N   UNL     1       2.751  -9.856  -4.456  1.00  0.00    -0.352 N 
ATOM     27  C   UNL     1       3.162 -11.140  -4.179  1.00  0.00     0.251 C 
ATOM     28  H   UNL     1       1.778  -9.712  -4.429  1.00  0.00     0.163 HD
ATOM     29  O   UNL     1       2.341 -12.039  -4.070  1.00  0.00    -0.269 OA
BRANCH  27  30
ATOM     30  C   UNL     1       4.606 -11.437  -4.050  1.00  0.00     0.039 A 
ATOM     31  C   UNL     1       5.130 -12.547  -4.718  1.00  0.00     0.014 A 
ATOM     32  C   UNL     1       5.443 -10.614  -3.294  1.00  0.00     0.014 A 
ATOM     33  C   UNL     1       6.507 -12.782  -4.697  1.00  0.00     0.010 A 
ATOM     34  C   UNL     1       6.821 -10.802  -3.341  1.00  0.00     0.010 A 
ATOM     35  C   UNL     1       7.369 -11.884  -4.047  1.00  0.00    -0.014 A 
BRANCH  35  36
ATOM     36  C   UNL     1       8.845 -12.044  -4.104  1.00  0.00     0.031 A 
ATOM     37  C   UNL     1       9.630 -12.263  -2.841  1.00  0.00     0.074 A 
ATOM     38  C   UNL     1       9.489 -11.898  -5.279  1.00  0.00     0.049 A 
ATOM     39  N   UNL     1      10.927 -12.312  -2.671  1.00  0.00    -0.248 NA
ATOM     40  C   UNL     1       8.855 -12.417  -1.600  1.00  0.00     0.031 C 
ATOM     41  C   UNL     1       8.848 -11.635  -6.569  1.00  0.00     0.029 A 
ATOM     42  N   UNL     1      10.829 -11.929  -5.575  1.00  0.00    -0.354 N 
ATOM     43  C   UNL     1      11.123 -12.478  -1.305  1.00  0.00     0.074 A 
ATOM     44  C   UNL     1       9.814 -12.474  -0.688  1.00  0.00     0.031 C 
ATOM     45  C   UNL     1       9.792 -11.537  -7.518  1.00  0.00     0.029 A 
ATOM     46  C   UNL     1      11.106 -11.686  -6.899  1.00  0.00     0.049 A 
ATOM     47  H   UNL     1      11.526 -12.107  -4.903  1.00  0.00     0.167 HD
ATOM     48  C   UNL     1      12.286 -12.636  -0.630  1.00  0.00     0.037 A 
ATOM     49  C   UNL     1      12.285 -11.575  -7.542  1.00  0.00     0.037 A 
ATOM     50  C   UNL     1      13.584 -12.664  -1.251  1.00  0.00     0.049 A 
ATOM     51  C   UNL     1      13.564 -11.747  -6.770  1.00  0.00     0.074 A 
ATOM     52  C   UNL     1      14.815 -12.897  -0.663  1.00  0.00     0.029 A 
ATOM     53  N   UNL     1      13.821 -12.442  -2.599  1.00  0.00    -0.354 N 
ATOM     54  N   UNL     1      13.731 -11.984  -5.491  1.00  0.00    -0.248 NA
ATOM     55  C   UNL     1      14.819 -11.640  -7.529  1.00  0.00     0.031 C 
ATOM     56  C   UNL     1      15.801 -12.760  -1.644  1.00  0.00     0.029 A 
ATOM     57  C   UNL     1      15.181 -12.501  -2.856  1.00  0.00     0.049 A 
ATOM     58  H   UNL     1      13.125 -12.268  -3.274  1.00  0.00     0.167 HD
ATOM     59  C   UNL     1      15.103 -12.083  -5.298  1.00  0.00     0.074 A 
ATOM     60  C   UNL     1      15.723 -11.890  -6.592  1.00  0.00     0.031 C 
ATOM     61  C   UNL     1      15.786 -12.315  -4.150  1.00  0.00     0.037 A 
BRANCH  48  62
ATOM     62  C   UNL     1      12.207 -12.784   0.862  1.00  0.00     0.057 A 
ATOM     63  C   UNL     1      11.667 -13.926   1.469  1.00  0.00     0.134 A 
ATOM     64  C   UNL     1      12.710 -11.784   1.705  1.00  0.00     0.134 A 
ATOM     65  F   UNL     1      11.159 -14.918   0.721  1.00  0.00    -0.206 F 
ATOM     66  C   UNL     1      11.599 -14.053   2.857  1.00  0.00     0.040 A 
ATOM     67  C   UNL     1      12.676 -11.913   3.094  1.00  0.00     0.040 A 
ATOM     68  F   UNL     1      13.250 -10.668   1.192  1.00  0.00    -0.206 F 
ATOM     69  C   UNL     1      12.111 -13.047   3.674  1.00  0.00     0.006 A 
ENDBRANCH  48  62
BRANCH  49  70
ATOM     70  C   UNL     1      12.309 -11.290  -8.999  1.00  0.00     0.057 A 
ATOM     71  C   UNL     1      12.718 -12.261  -9.920  1.00  0.00     0.134 A 
ATOM     72  C   UNL     1      11.921 -10.044  -9.507  1.00  0.00     0.134 A 
ATOM     73  F   UNL     1      13.120 -13.468  -9.494  1.00  0.00    -0.206 F 
ATOM     74  C   UNL     1      12.756 -12.000 -11.291  1.00  0.00     0.040 A 
ATOM     75  C   UNL     1      11.928  -9.777 -10.877  1.00  0.00     0.040 A 
ATOM     76  F   UNL     1      11.510  -9.073  -8.678  1.00  0.00    -0.206 F 
ATOM     77  C   UNL     1      12.353 -10.756 -11.773  1.00  0.00     0.006 A 
ENDBRANCH  49  70
BRANCH  61  78
ATOM     78  C   UNL     1      17.281 -12.413  -4.240  1.00  0.00     0.057 A 
ATOM     79  C   UNL     1      18.087 -11.287  -4.450  1.00  0.00     0.134 A 
ATOM     80  C   UNL     1      17.925 -13.643  -4.049  1.00  0.00     0.134 A 
ATOM     81  F   UNL     1      17.534 -10.082  -4.653  1.00  0.00    -0.206 F 
ATOM     82  C   UNL     1      19.480 -11.384  -4.480  1.00  0.00     0.040 A 
ATOM     83  C   UNL     1      19.316 -13.747  -4.050  1.00  0.00     0.040 A 
ATOM     84  F   UNL     1      17.212 -14.759  -3.834  1.00  0.00    -0.206 F 
ATOM     85  C   UNL     1      20.098 -12.615  -4.269  1.00  0.00     0.006 A 
ENDBRANCH  61  78
ENDBRANCH  35  36
ENDBRANCH  27  30
ENDBRANCH  25  26
ENDBRANCH  24  25
ENDBRANCH  23  24
ENDBRANCH   1  23
TORSDOF 18
