REMARK SMILES C[NH2+][C@H](CC(=O)NCCCCNC(=O)c1ccc(-c2c3nc(c(-c4c(F)cccc4F)c4ccc([nH]4)c(-c4c(F)cccc4F)c4nc(c(-c5c(F)cccc5F)c5ccc2[nH]5)C=C4)C=C3)cc1)c1cccc(C2CC2)c1
REMARK SMILES IDX 9 1 8 2 7 3 5 4 6 5 4 7 3 8 2 9 1 10 69 13 70 14 77 15 71 16
REMARK SMILES IDX 73 17 72 18 74 19 75 20 76 21 10 22 11 23 12 24 13 25 14 27
REMARK SMILES IDX 15 28 16 29 68 30 17 31 67 32 18 33 19 34 20 35 61 36 21 37
REMARK SMILES IDX 66 38 60 39 62 40 22 41 65 42 59 43 58 44 23 46 49 47 32 48
REMARK SMILES IDX 48 49 33 50 36 51 47 52 63 53 34 54 35 55 46 57 64 58 37 59
REMARK SMILES IDX 24 60 25 61 30 62 26 63 27 64 29 65 31 66 28 67 50 68 51 69
REMARK SMILES IDX 56 70 52 71 53 72 55 73 57 74 54 75 38 76 39 77 44 78 40 79
REMARK SMILES IDX 41 80 43 81 45 82 42 83
REMARK H PARENT 7 6 2 11 2 12 12 26 62 45 36 56
REMARK Flexibility Score: inf
ROOT
ATOM      1  C   UNL     1      -0.977   4.235   1.432  1.00  0.00     0.023 C 
ENDROOT
BRANCH   1   2
ATOM      2  C   UNL     1       0.252   3.406   1.057  1.00  0.00     0.116 C 
BRANCH   2   3
ATOM      3  N   UNL     1       0.814   2.673   2.172  1.00  0.00    -0.356 N 
ATOM      4  C   UNL     1       0.943   1.339   2.396  1.00  0.00     0.226 C 
ATOM      5  O   UNL     1       1.615   0.994   3.372  1.00  0.00    -0.275 OA
ATOM      6  H   UNL     1       1.164   3.241   2.896  1.00  0.00     0.163 HD
BRANCH   4   7
ATOM      7  C   UNL     1       0.339   0.308   1.466  1.00  0.00     0.170 C 
BRANCH   7   8
ATOM      8  C   UNL     1      -1.197   0.185   1.502  1.00  0.00     0.222 C 
BRANCH   8   9
ATOM      9  N   UNL     1      -1.623  -1.151   1.032  1.00  0.00    -0.342 N 
ATOM     10  C   UNL     1      -1.640  -1.260  -0.420  1.00  0.00     0.331 C 
ATOM     11  H   UNL     1      -0.979  -1.848   1.404  1.00  0.00     0.346 HD
ATOM     12  H   UNL     1      -2.577  -1.302   1.362  1.00  0.00     0.346 HD
ENDBRANCH   8   9
BRANCH   8  13
ATOM     13  C   UNL     1      -1.819   0.478   2.861  1.00  0.00     0.010 A 
ATOM     14  C   UNL     1      -2.702   1.557   2.982  1.00  0.00     0.010 A 
ATOM     15  C   UNL     1      -1.538  -0.281   4.010  1.00  0.00     0.014 A 
ATOM     16  C   UNL     1      -3.147   1.982   4.225  1.00  0.00     0.001 A 
ATOM     17  C   UNL     1      -2.072   0.055   5.272  1.00  0.00    -0.044 A 
ATOM     18  C   UNL     1      -2.823   1.242   5.355  1.00  0.00     0.004 A 
BRANCH  17  19
ATOM     19  C   UNL     1      -1.940  -0.807   6.511  1.00  0.00     0.019 C 
ATOM     20  C   UNL     1      -2.239  -2.284   6.392  1.00  0.00     0.009 C 
ATOM     21  C   UNL     1      -0.850  -1.821   6.724  1.00  0.00     0.009 C 
ENDBRANCH  17  19
ENDBRANCH   8  13
ENDBRANCH   7   8
ENDBRANCH   4   7
ENDBRANCH   2   3
ENDBRANCH   1   2
BRANCH   1  22
ATOM     22  C   UNL     1      -0.848   5.102   2.687  1.00  0.00     0.023 C 
BRANCH  22  23
ATOM     23  C   UNL     1       0.057   6.311   2.502  1.00  0.00     0.116 C 
BRANCH  23  24
ATOM     24  N   UNL     1      -0.507   7.247   1.538  1.00  0.00    -0.352 N 
ATOM     25  C   UNL     1      -0.952   8.530   1.707  1.00  0.00     0.251 C 
ATOM     26  H   UNL     1      -0.580   6.901   0.620  1.00  0.00     0.163 HD
ATOM     27  O   UNL     1      -1.669   9.037   0.840  1.00  0.00    -0.269 OA
BRANCH  25  28
ATOM     28  C   UNL     1      -0.575   9.321   2.898  1.00  0.00     0.039 A 
ATOM     29  C   UNL     1      -1.476  10.271   3.391  1.00  0.00     0.014 A 
ATOM     30  C   UNL     1       0.688   9.193   3.483  1.00  0.00     0.014 A 
ATOM     31  C   UNL     1      -1.116  11.072   4.475  1.00  0.00     0.010 A 
ATOM     32  C   UNL     1       1.008   9.922   4.623  1.00  0.00     0.010 A 
ATOM     33  C   UNL     1       0.125  10.894   5.108  1.00  0.00    -0.014 A 
BRANCH  33  34
ATOM     34  C   UNL     1       0.532  11.758   6.243  1.00  0.00     0.031 A 
ATOM     35  C   UNL     1       1.721  12.671   6.108  1.00  0.00     0.074 A 
ATOM     36  C   UNL     1      -0.149  11.693   7.403  1.00  0.00     0.049 A 
ATOM     37  N   UNL     1       2.240  13.491   6.987  1.00  0.00    -0.248 NA
ATOM     38  C   UNL     1       2.446  12.635   4.827  1.00  0.00     0.031 C 
ATOM     39  C   UNL     1      -1.270  10.790   7.676  1.00  0.00     0.029 A 
ATOM     40  N   UNL     1       0.000  12.399   8.567  1.00  0.00    -0.354 N 
ATOM     41  C   UNL     1       3.353  14.050   6.372  1.00  0.00     0.074 A 
ATOM     42  C   UNL     1       3.477  13.430   5.072  1.00  0.00     0.031 C 
ATOM     43  C   UNL     1      -1.730  11.024   8.915  1.00  0.00     0.029 A 
ATOM     44  C   UNL     1      -0.924  12.074   9.529  1.00  0.00     0.049 A 
ATOM     45  H   UNL     1       0.703  13.076   8.701  1.00  0.00     0.167 HD
ATOM     46  C   UNL     1       4.178  15.020   6.832  1.00  0.00     0.037 A 
ATOM     47  C   UNL     1      -1.107  12.579  10.763  1.00  0.00     0.037 A 
ATOM     48  C   UNL     1       4.028  15.660   8.112  1.00  0.00     0.049 A 
ATOM     49  C   UNL     1      -0.218  13.698  11.227  1.00  0.00     0.074 A 
ATOM     50  C   UNL     1       4.779  16.683   8.663  1.00  0.00     0.029 A 
ATOM     51  N   UNL     1       3.045  15.340   9.037  1.00  0.00    -0.354 N 
ATOM     52  N   UNL     1       0.793  14.260  10.610  1.00  0.00    -0.248 NA
ATOM     53  C   UNL     1      -0.508  14.266  12.550  1.00  0.00     0.031 C 
ATOM     54  C   UNL     1       4.263  16.967   9.933  1.00  0.00     0.029 A 
ATOM     55  C   UNL     1       3.169  16.145  10.156  1.00  0.00     0.049 A 
ATOM     56  H   UNL     1       2.361  14.643   8.916  1.00  0.00     0.167 HD
ATOM     57  C   UNL     1       1.252  15.256  11.461  1.00  0.00     0.074 A 
ATOM     58  C   UNL     1       0.388  15.240  12.624  1.00  0.00     0.031 C 
ATOM     59  C   UNL     1       2.297  16.104  11.301  1.00  0.00     0.037 A 
BRANCH  46  60
ATOM     60  C   UNL     1       5.297  15.459   5.932  1.00  0.00     0.057 A 
ATOM     61  C   UNL     1       5.054  16.184   4.757  1.00  0.00     0.134 A 
ATOM     62  C   UNL     1       6.631  15.169   6.244  1.00  0.00     0.134 A 
ATOM     63  F   UNL     1       3.798  16.482   4.390  1.00  0.00    -0.206 F 
ATOM     64  C   UNL     1       6.092  16.580   3.912  1.00  0.00     0.040 A 
ATOM     65  C   UNL     1       7.681  15.583   5.421  1.00  0.00     0.040 A 
ATOM     66  F   UNL     1       6.937  14.481   7.354  1.00  0.00    -0.206 F 
ATOM     67  C   UNL     1       7.412  16.284   4.247  1.00  0.00     0.006 A 
ENDBRANCH  46  60
BRANCH  47  68
ATOM     68  C   UNL     1      -2.204  12.065  11.620  1.00  0.00     0.057 A 
ATOM     69  C   UNL     1      -3.341  12.839  11.880  1.00  0.00     0.134 A 
ATOM     70  C   UNL     1      -2.148  10.789  12.191  1.00  0.00     0.134 A 
ATOM     71  F   UNL     1      -3.446  14.076  11.371  1.00  0.00    -0.206 F 
ATOM     72  C   UNL     1      -4.373  12.372  12.695  1.00  0.00     0.040 A 
ATOM     73  C   UNL     1      -3.184  10.299  12.988  1.00  0.00     0.040 A 
ATOM     74  F   UNL     1      -1.092   9.993  11.968  1.00  0.00    -0.206 F 
ATOM     75  C   UNL     1      -4.298  11.096  13.248  1.00  0.00     0.006 A 
ENDBRANCH  47  68
BRANCH  59  76
ATOM     76  C   UNL     1       2.545  17.085  12.408  1.00  0.00     0.057 A 
ATOM     77  C   UNL     1       3.078  16.683  13.639  1.00  0.00     0.134 A 
ATOM     78  C   UNL     1       2.260  18.444  12.234  1.00  0.00     0.134 A 
ATOM     79  F   UNL     1       3.360  15.392  13.869  1.00  0.00    -0.206 F 
ATOM     80  C   UNL     1       3.291  17.596  14.671  1.00  0.00     0.040 A 
ATOM     81  C   UNL     1       2.492  19.371  13.251  1.00  0.00     0.040 A 
ATOM     82  F   UNL     1       1.756  18.893  11.075  1.00  0.00    -0.206 F 
ATOM     83  C   UNL     1       3.001  18.946  14.477  1.00  0.00     0.006 A 
ENDBRANCH  59  76
ENDBRANCH  33  34
ENDBRANCH  25  28
ENDBRANCH  23  24
ENDBRANCH  22  23
ENDBRANCH   1  22
TORSDOF 15
