REMARK SMILES NS(=O)(=O)c1ccc(-c2coc(=O)n2-c2ccc(C(=O)NCCCCNC(=O)c3ccc(-c4c5nc(c(-c6c(F)cccc6F)c6ccc([nH]6)c(-c6c(F)cccc6F)c6nc(c(-c7c(F)cccc7F)c7ccc4[nH]7)C=C6)C=C5)cc3)cc2)cc1
REMARK SMILES IDX 22 1 21 2 19 3 20 4 18 6 15 7 16 8 84 9 17 10 83 11 14 12
REMARK SMILES IDX 9 13 10 14 11 15 12 16 13 17 8 18 5 19 6 20 86 21 7 22 85 23
REMARK SMILES IDX 2 24 3 25 4 26 1 27 23 30 24 31 25 32 26 33 27 34 28 36
REMARK SMILES IDX 29 37 30 38 82 39 31 40 81 41 32 42 33 43 34 44 75 45 35 46
REMARK SMILES IDX 80 47 74 48 76 49 36 50 79 51 73 52 72 53 37 55 63 56 46 57
REMARK SMILES IDX 62 58 47 59 50 60 61 61 77 62 48 63 49 64 60 66 78 67 51 68
REMARK SMILES IDX 38 69 39 70 44 71 40 72 41 73 43 74 45 75 42 76 64 77 65 78
REMARK SMILES IDX 70 79 66 80 67 81 69 82 71 83 68 84 52 85 53 86 58 87 54 88
REMARK SMILES IDX 55 89 57 90 59 91 56 92
REMARK H PARENT 21 5 1 28 1 29 26 35 76 54 50 65
REMARK Flexibility Score: inf
ROOT
ATOM      1  C   UNL     1       7.982   3.054   1.981  1.00  0.00     0.116 C 
ENDROOT
BRANCH   1   2
ATOM      2  N   UNL     1       8.152   2.528   3.323  1.00  0.00    -0.352 N 
ATOM      3  C   UNL     1       7.472   2.711   4.503  1.00  0.00     0.251 C 
ATOM      4  O   UNL     1       7.883   2.085   5.481  1.00  0.00    -0.269 OA
ATOM      5  H   UNL     1       8.914   1.910   3.406  1.00  0.00     0.163 HD
BRANCH   3   6
ATOM      6  C   UNL     1       6.250   3.559   4.648  1.00  0.00     0.039 A 
ATOM      7  C   UNL     1       3.807   4.925   4.975  1.00  0.00     0.053 A 
ATOM      8  C   UNL     1       4.246   4.049   5.966  1.00  0.00     0.028 A 
ATOM      9  C   UNL     1       4.620   5.178   3.870  1.00  0.00     0.028 A 
ATOM     10  C   UNL     1       5.444   3.345   5.782  1.00  0.00     0.016 A 
ATOM     11  C   UNL     1       5.856   4.545   3.744  1.00  0.00     0.016 A 
BRANCH   7  12
ATOM     12  N   UNL     1       2.568   5.579   5.069  1.00  0.00    -0.242 N 
ATOM     13  C   UNL     1       1.556   5.607   4.152  1.00  0.00     0.095 A 
ATOM     14  C   UNL     1       0.714   6.544   4.572  1.00  0.00     0.228 A 
ATOM     15  O   UNL     1       1.093   7.172   5.756  1.00  0.00    -0.415 OA
ATOM     16  C   UNL     1       2.288   6.519   6.058  1.00  0.00     0.424 A 
ATOM     17  O   UNL     1       2.968   6.804   7.034  1.00  0.00    -0.223 OA
BRANCH  13  18
ATOM     18  C   UNL     1       1.371   4.675   3.038  1.00  0.00     0.002 A 
ATOM     19  C   UNL     1       0.895   2.851   0.955  1.00  0.00     0.082 A 
ATOM     20  C   UNL     1       1.218   2.376   2.225  1.00  0.00     0.022 A 
ATOM     21  C   UNL     1       0.824   4.226   0.711  1.00  0.00     0.022 A 
ATOM     22  C   UNL     1       1.454   3.288   3.259  1.00  0.00     0.012 A 
ATOM     23  C   UNL     1       1.054   5.133   1.752  1.00  0.00     0.012 A 
BRANCH  19  24
ATOM     24  S   UNL     1       0.578   1.740  -0.385  1.00  0.00     0.238 S 
ATOM     25  O   UNL     1       1.343   2.188  -1.534  1.00  0.00    -0.207 OA
ATOM     26  O   UNL     1      -0.834   1.483  -0.438  1.00  0.00    -0.207 OA
BRANCH  24  27
ATOM     27  N   UNL     1       1.301   0.293   0.077  1.00  0.00    -0.225 NA
ATOM     28  H   UNL     1       1.159  -0.405  -0.653  1.00  0.00     0.137 HD
ATOM     29  H   UNL     1       0.881  -0.034   0.947  1.00  0.00     0.137 HD
ENDBRANCH  24  27
ENDBRANCH  19  24
ENDBRANCH  13  18
ENDBRANCH   7  12
ENDBRANCH   3   6
ENDBRANCH   1   2
BRANCH   1  30
ATOM     30  C   UNL     1       8.866   4.287   1.750  1.00  0.00     0.023 C 
BRANCH  30  31
ATOM     31  C   UNL     1      10.355   3.982   1.519  1.00  0.00     0.023 C 
BRANCH  31  32
ATOM     32  C   UNL     1      10.659   3.224   0.233  1.00  0.00     0.116 C 
BRANCH  32  33
ATOM     33  N   UNL     1      10.266   3.956  -0.975  1.00  0.00    -0.352 N 
ATOM     34  C   UNL     1      10.216   3.485  -2.276  1.00  0.00     0.251 C 
ATOM     35  H   UNL     1      10.007   4.897  -0.845  1.00  0.00     0.163 HD
ATOM     36  O   UNL     1      10.282   4.245  -3.233  1.00  0.00    -0.269 OA
BRANCH  34  37
ATOM     37  C   UNL     1      10.036   2.040  -2.483  1.00  0.00     0.039 A 
ATOM     38  C   UNL     1      10.730   1.323  -3.463  1.00  0.00     0.014 A 
ATOM     39  C   UNL     1       9.159   1.399  -1.615  1.00  0.00     0.014 A 
ATOM     40  C   UNL     1      10.574  -0.062  -3.510  1.00  0.00     0.010 A 
ATOM     41  C   UNL     1       9.169   0.038  -1.529  1.00  0.00     0.010 A 
ATOM     42  C   UNL     1       9.795  -0.694  -2.527  1.00  0.00    -0.014 A 
BRANCH  42  43
ATOM     43  C   UNL     1       9.709  -2.144  -2.413  1.00  0.00     0.031 A 
ATOM     44  C   UNL     1      11.030  -2.793  -2.204  1.00  0.00     0.074 A 
ATOM     45  C   UNL     1       8.525  -2.776  -2.237  1.00  0.00     0.049 A 
ATOM     46  N   UNL     1      11.680  -3.535  -3.036  1.00  0.00    -0.248 NA
ATOM     47  C   UNL     1      11.811  -2.420  -1.011  1.00  0.00     0.031 C 
ATOM     48  C   UNL     1       7.188  -2.179  -2.104  1.00  0.00     0.029 A 
ATOM     49  N   UNL     1       8.271  -4.099  -2.032  1.00  0.00    -0.354 N 
ATOM     50  C   UNL     1      12.831  -3.937  -2.361  1.00  0.00     0.074 A 
ATOM     51  C   UNL     1      12.970  -3.036  -1.251  1.00  0.00     0.031 C 
ATOM     52  C   UNL     1       6.319  -3.094  -1.619  1.00  0.00     0.029 A 
ATOM     53  C   UNL     1       6.984  -4.381  -1.570  1.00  0.00     0.049 A 
ATOM     54  H   UNL     1       8.942  -4.800  -2.198  1.00  0.00     0.167 HD
ATOM     55  C   UNL     1      13.369  -5.167  -2.598  1.00  0.00     0.037 A 
ATOM     56  C   UNL     1       6.513  -5.590  -1.167  1.00  0.00     0.037 A 
ATOM     57  C   UNL     1      12.835  -5.715  -3.826  1.00  0.00     0.049 A 
ATOM     58  C   UNL     1       7.428  -6.616  -1.723  1.00  0.00     0.074 A 
ATOM     59  C   UNL     1      12.827  -5.335  -5.154  1.00  0.00     0.029 A 
ATOM     60  N   UNL     1      11.835  -6.647  -3.697  1.00  0.00    -0.354 N 
ATOM     61  N   UNL     1       7.540  -6.864  -2.998  1.00  0.00    -0.248 NA
ATOM     62  C   UNL     1       8.562  -7.010  -0.904  1.00  0.00     0.031 C 
ATOM     63  C   UNL     1      11.536  -5.708  -5.638  1.00  0.00     0.029 A 
ATOM     64  C   UNL     1      10.859  -6.373  -4.615  1.00  0.00     0.049 A 
ATOM     65  H   UNL     1      11.823  -7.389  -3.051  1.00  0.00     0.167 HD
ATOM     66  C   UNL     1       8.903  -7.013  -3.205  1.00  0.00     0.074 A 
ATOM     67  C   UNL     1       9.474  -7.174  -1.867  1.00  0.00     0.031 C 
ATOM     68  C   UNL     1       9.464  -6.687  -4.408  1.00  0.00     0.037 A 
BRANCH  55  69
ATOM     69  C   UNL     1      13.960  -6.071  -1.526  1.00  0.00     0.057 A 
ATOM     70  C   UNL     1      14.405  -7.353  -1.912  1.00  0.00     0.134 A 
ATOM     71  C   UNL     1      13.817  -5.897  -0.135  1.00  0.00     0.134 A 
ATOM     72  F   UNL     1      14.618  -7.650  -3.203  1.00  0.00    -0.206 F 
ATOM     73  C   UNL     1      14.544  -8.410  -1.005  1.00  0.00     0.040 A 
ATOM     74  C   UNL     1      13.997  -6.935   0.784  1.00  0.00     0.040 A 
ATOM     75  F   UNL     1      13.415  -4.752   0.423  1.00  0.00    -0.206 F 
ATOM     76  C   UNL     1      14.318  -8.209   0.348  1.00  0.00     0.006 A 
ENDBRANCH  55  69
BRANCH  56  77
ATOM     77  C   UNL     1       5.540  -5.916  -0.096  1.00  0.00     0.057 A 
ATOM     78  C   UNL     1       4.936  -7.181  -0.016  1.00  0.00     0.134 A 
ATOM     79  C   UNL     1       5.413  -5.103   1.044  1.00  0.00     0.134 A 
ATOM     80  F   UNL     1       5.039  -8.048  -1.034  1.00  0.00    -0.206 F 
ATOM     81  C   UNL     1       4.268  -7.621   1.136  1.00  0.00     0.040 A 
ATOM     82  C   UNL     1       4.750  -5.530   2.201  1.00  0.00     0.040 A 
ATOM     83  F   UNL     1       6.010  -3.904   1.104  1.00  0.00    -0.206 F 
ATOM     84  C   UNL     1       4.186  -6.799   2.256  1.00  0.00     0.006 A 
ENDBRANCH  56  77
BRANCH  68  85
ATOM     85  C   UNL     1       8.538  -6.436  -5.568  1.00  0.00     0.057 A 
ATOM     86  C   UNL     1       7.625  -5.373  -5.648  1.00  0.00     0.134 A 
ATOM     87  C   UNL     1       8.686  -7.227  -6.712  1.00  0.00     0.134 A 
ATOM     88  F   UNL     1       7.475  -4.508  -4.638  1.00  0.00    -0.206 F 
ATOM     89  C   UNL     1       6.870  -5.132  -6.802  1.00  0.00     0.040 A 
ATOM     90  C   UNL     1       7.964  -6.978  -7.881  1.00  0.00     0.040 A 
ATOM     91  F   UNL     1       9.577  -8.230  -6.727  1.00  0.00    -0.206 F 
ATOM     92  C   UNL     1       7.045  -5.933  -7.926  1.00  0.00     0.006 A 
ENDBRANCH  68  85
ENDBRANCH  42  43
ENDBRANCH  34  37
ENDBRANCH  32  33
ENDBRANCH  31  32
ENDBRANCH  30  31
ENDBRANCH   1  30
TORSDOF 15
