REMARK SMILES CC(C)[C@@H](CC(=O)NCCCCNC(=O)c1ccc(-c2c3nc(c(-c4c(F)cccc4F)c4ccc([nH]4)c(-c4c(F)cccc4F)c4nc(c(-c5c(F)cccc5F)c5ccc2[nH]5)C=C4)C=C3)cc1)NC(=O)OCc1ccccc1
REMARK SMILES IDX 9 1 8 2 6 3 7 4 5 6 4 7 2 8 1 9 3 10 70 11 71 12 72 14 73 15
REMARK SMILES IDX 74 16 75 17 76 18 80 19 77 20 79 21 78 22 10 23 11 24 12 25
REMARK SMILES IDX 13 26 14 27 15 29 16 30 17 31 69 32 18 33 68 34 19 35 20 36
REMARK SMILES IDX 21 37 62 38 22 39 67 40 61 41 63 42 23 43 66 44 60 45 59 46
REMARK SMILES IDX 24 48 50 49 33 50 49 51 34 52 37 53 48 54 64 55 35 56 36 57
REMARK SMILES IDX 47 59 65 60 38 61 25 62 26 63 31 64 27 65 28 66 30 67 32 68
REMARK SMILES IDX 29 69 51 70 52 71 57 72 53 73 54 74 56 75 58 76 55 77 39 78
REMARK SMILES IDX 40 79 45 80 41 81 42 82 44 83 46 84 43 85
REMARK H PARENT 8 5 70 13 13 28 63 47 37 58
REMARK Flexibility Score: inf
ROOT
ATOM      1  C   UNL     1       1.367  -2.597   0.451  1.00  0.00     0.116 C 
ENDROOT
BRANCH   1   2
ATOM      2  N   UNL     1       0.120  -3.171   0.905  1.00  0.00    -0.356 N 
ATOM      3  C   UNL     1      -1.123  -2.624   0.975  1.00  0.00     0.222 C 
ATOM      4  O   UNL     1      -2.005  -3.296   1.514  1.00  0.00    -0.275 OA
ATOM      5  H   UNL     1       0.180  -4.105   1.211  1.00  0.00     0.163 HD
BRANCH   3   6
ATOM      6  C   UNL     1      -1.435  -1.257   0.387  1.00  0.00     0.125 C 
BRANCH   6   7
ATOM      7  C   UNL     1      -1.162  -0.015   1.268  1.00  0.00     0.097 C 
BRANCH   7   8
ATOM      8  C   UNL     1       0.275   0.559   1.180  1.00  0.00     0.006 C 
ATOM      9  C   UNL     1       0.649   1.094  -0.202  1.00  0.00     0.009 C 
ATOM     10  C   UNL     1       0.633   1.606   2.242  1.00  0.00     0.009 C 
ENDBRANCH   7   8
BRANCH   7  11
ATOM     11  N   UNL     1      -1.510  -0.270   2.662  1.00  0.00    -0.318 N 
ATOM     12  C   UNL     1      -2.180   0.583   3.487  1.00  0.00     0.407 C 
ATOM     13  H   UNL     1      -1.236  -1.137   3.040  1.00  0.00     0.167 HD
ATOM     14  O   UNL     1      -2.205   0.414   4.696  1.00  0.00    -0.225 OA
BRANCH  12  15
ATOM     15  O   UNL     1      -2.821   1.561   2.806  1.00  0.00    -0.445 OA
BRANCH  15  16
ATOM     16  C   UNL     1      -3.658   2.414   3.592  1.00  0.00     0.270 C 
BRANCH  16  17
ATOM     17  C   UNL     1      -5.034   1.841   3.862  1.00  0.00    -0.011 A 
ATOM     18  C   UNL     1      -6.046   2.701   4.314  1.00  0.00     0.007 A 
ATOM     19  C   UNL     1      -5.324   0.471   3.760  1.00  0.00     0.007 A 
ATOM     20  C   UNL     1      -7.300   2.201   4.670  1.00  0.00     0.000 A 
ATOM     21  C   UNL     1      -6.572  -0.030   4.128  1.00  0.00     0.000 A 
ATOM     22  C   UNL     1      -7.559   0.835   4.588  1.00  0.00     0.000 A 
ENDBRANCH  16  17
ENDBRANCH  15  16
ENDBRANCH  12  15
ENDBRANCH   7  11
ENDBRANCH   6   7
ENDBRANCH   3   6
ENDBRANCH   1   2
BRANCH   1  23
ATOM     23  C   UNL     1       2.215  -2.153   1.649  1.00  0.00     0.023 C 
BRANCH  23  24
ATOM     24  C   UNL     1       3.157  -3.202   2.208  1.00  0.00     0.023 C 
BRANCH  24  25
ATOM     25  C   UNL     1       4.223  -3.651   1.228  1.00  0.00     0.116 C 
BRANCH  25  26
ATOM     26  N   UNL     1       5.065  -2.568   0.732  1.00  0.00    -0.352 N 
ATOM     27  C   UNL     1       6.423  -2.589   0.510  1.00  0.00     0.251 C 
ATOM     28  H   UNL     1       4.607  -1.720   0.533  1.00  0.00     0.163 HD
ATOM     29  O   UNL     1       7.025  -1.573   0.184  1.00  0.00    -0.269 OA
BRANCH  27  30
ATOM     30  C   UNL     1       7.144  -3.857   0.727  1.00  0.00     0.039 A 
ATOM     31  C   UNL     1       8.264  -3.864   1.557  1.00  0.00     0.014 A 
ATOM     32  C   UNL     1       6.629  -5.050   0.212  1.00  0.00     0.014 A 
ATOM     33  C   UNL     1       8.817  -5.085   1.940  1.00  0.00     0.010 A 
ATOM     34  C   UNL     1       7.105  -6.261   0.690  1.00  0.00     0.010 A 
ATOM     35  C   UNL     1       8.209  -6.293   1.554  1.00  0.00    -0.014 A 
BRANCH  35  36
ATOM     36  C   UNL     1       8.719  -7.596   2.045  1.00  0.00     0.031 A 
ATOM     37  C   UNL     1       9.216  -8.625   1.067  1.00  0.00     0.074 A 
ATOM     38  C   UNL     1       8.695  -7.866   3.365  1.00  0.00     0.049 A 
ATOM     39  N   UNL     1       9.686  -9.824   1.299  1.00  0.00    -0.248 NA
ATOM     40  C   UNL     1       9.149  -8.277  -0.363  1.00  0.00     0.031 C 
ATOM     41  C   UNL     1       8.172  -6.976   4.405  1.00  0.00     0.029 A 
ATOM     42  N   UNL     1       9.124  -8.968   4.061  1.00  0.00    -0.354 N 
ATOM     43  C   UNL     1       9.968 -10.366   0.051  1.00  0.00     0.074 A 
ATOM     44  C   UNL     1       9.545  -9.402  -0.938  1.00  0.00     0.031 C 
ATOM     45  C   UNL     1       8.350  -7.549   5.607  1.00  0.00     0.029 A 
ATOM     46  C   UNL     1       8.959  -8.861   5.421  1.00  0.00     0.049 A 
ATOM     47  H   UNL     1       9.513  -9.762   3.626  1.00  0.00     0.167 HD
ATOM     48  C   UNL     1      10.561 -11.546  -0.243  1.00  0.00     0.037 A 
ATOM     49  C   UNL     1       9.265  -9.726   6.407  1.00  0.00     0.037 A 
ATOM     50  C   UNL     1      10.998 -12.495   0.745  1.00  0.00     0.049 A 
ATOM     51  C   UNL     1       9.912 -11.037   6.047  1.00  0.00     0.074 A 
ATOM     52  C   UNL     1      11.652 -13.698   0.552  1.00  0.00     0.029 A 
ATOM     53  N   UNL     1      10.822 -12.348   2.112  1.00  0.00    -0.354 N 
ATOM     54  N   UNL     1      10.247 -11.500   4.867  1.00  0.00    -0.248 NA
ATOM     55  C   UNL     1      10.233 -11.941   7.159  1.00  0.00     0.031 C 
ATOM     56  C   UNL     1      11.827 -14.304   1.800  1.00  0.00     0.029 A 
ATOM     57  C   UNL     1      11.335 -13.450   2.775  1.00  0.00     0.049 A 
ATOM     58  H   UNL     1      10.396 -11.574   2.548  1.00  0.00     0.167 HD
ATOM     59  C   UNL     1      10.842 -12.734   5.097  1.00  0.00     0.074 A 
ATOM     60  C   UNL     1      10.847 -12.932   6.531  1.00  0.00     0.031 C 
ATOM     61  C   UNL     1      11.335 -13.627   4.204  1.00  0.00     0.037 A 
BRANCH  48  62
ATOM     62  C   UNL     1      10.789 -11.867  -1.692  1.00  0.00     0.057 A 
ATOM     63  C   UNL     1      11.727 -11.168  -2.464  1.00  0.00     0.134 A 
ATOM     64  C   UNL     1      10.101 -12.918  -2.311  1.00  0.00     0.134 A 
ATOM     65  F   UNL     1      12.409 -10.138  -1.938  1.00  0.00    -0.206 F 
ATOM     66  C   UNL     1      11.960 -11.490  -3.801  1.00  0.00     0.040 A 
ATOM     67  C   UNL     1      10.347 -13.270  -3.639  1.00  0.00     0.040 A 
ATOM     68  F   UNL     1       9.189 -13.630  -1.631  1.00  0.00    -0.206 F 
ATOM     69  C   UNL     1      11.276 -12.552  -4.389  1.00  0.00     0.006 A 
ENDBRANCH  48  62
BRANCH  49  70
ATOM     70  C   UNL     1       8.980  -9.388   7.826  1.00  0.00     0.057 A 
ATOM     71  C   UNL     1      10.015  -9.198   8.750  1.00  0.00     0.134 A 
ATOM     72  C   UNL     1       7.668  -9.288   8.304  1.00  0.00     0.134 A 
ATOM     73  F   UNL     1      11.295  -9.297   8.361  1.00  0.00    -0.206 F 
ATOM     74  C   UNL     1       9.757  -8.961  10.102  1.00  0.00     0.040 A 
ATOM     75  C   UNL     1       7.395  -9.018   9.646  1.00  0.00     0.040 A 
ATOM     76  F   UNL     1       6.629  -9.448   7.470  1.00  0.00    -0.206 F 
ATOM     77  C   UNL     1       8.442  -8.868  10.552  1.00  0.00     0.006 A 
ENDBRANCH  49  70
BRANCH  61  78
ATOM     78  C   UNL     1      11.950 -14.879   4.760  1.00  0.00     0.057 A 
ATOM     79  C   UNL     1      11.180 -15.873   5.377  1.00  0.00     0.134 A 
ATOM     80  C   UNL     1      13.330 -15.100   4.660  1.00  0.00     0.134 A 
ATOM     81  F   UNL     1       9.854 -15.720   5.514  1.00  0.00    -0.206 F 
ATOM     82  C   UNL     1      11.765 -17.023   5.910  1.00  0.00     0.040 A 
ATOM     83  C   UNL     1      13.921 -16.261   5.158  1.00  0.00     0.040 A 
ATOM     84  F   UNL     1      14.125 -14.195   4.069  1.00  0.00    -0.206 F 
ATOM     85  C   UNL     1      13.139 -17.221   5.796  1.00  0.00     0.006 A 
ENDBRANCH  61  78
ENDBRANCH  35  36
ENDBRANCH  27  30
ENDBRANCH  25  26
ENDBRANCH  24  25
ENDBRANCH  23  24
ENDBRANCH   1  23
TORSDOF 17
