REMARK SMILES O=C(COCC(=O)/[NH+]=C1\S[C@@H]2CS(=O)(=O)C[C@H]2N1c1ccc(Cl)cc1)NCCCCNC(=O)c1ccc(-c2c3nc(c(-c4c(F)cccc4F)c4ccc([nH]4)c(-c4c(F)cccc4F)c4nc(c(-c5c(F)cccc5F)c5ccc2[nH]5)C=C4)C=C3)cc1
REMARK SMILES IDX 27 1 26 2 2 3 1 4 3 6 4 7 5 8 6 9 7 10 8 11 9 12 10 14 18 15
REMARK SMILES IDX 11 16 17 17 12 18 16 19 13 20 14 21 15 22 19 23 20 24 25 25
REMARK SMILES IDX 21 26 24 27 22 28 23 29 28 30 29 31 30 32 31 33 32 34 33 36
REMARK SMILES IDX 34 37 35 38 87 39 36 40 86 41 37 42 38 43 39 44 80 45 40 46
REMARK SMILES IDX 85 47 79 48 81 49 41 50 84 51 78 52 77 53 42 55 68 56 51 57
REMARK SMILES IDX 67 58 52 59 55 60 66 61 82 62 53 63 54 64 65 66 83 67 56 68
REMARK SMILES IDX 43 69 44 70 49 71 45 72 46 73 48 74 50 75 47 76 69 77 70 78
REMARK SMILES IDX 75 79 71 80 72 81 74 82 76 83 73 84 57 85 58 86 63 87 59 88
REMARK SMILES IDX 60 89 62 90 64 91 61 92
REMARK H PARENT 26 5 8 13 31 35 81 54 55 65
REMARK Flexibility Score: inf
ROOT
ATOM      1  C   UNL     1       4.112  -2.999   3.613  1.00  0.00     0.116 C 
ENDROOT
BRANCH   1   2
ATOM      2  N   UNL     1       2.695  -3.171   3.351  1.00  0.00    -0.354 N 
ATOM      3  C   UNL     1       2.030  -3.045   2.163  1.00  0.00     0.246 C 
ATOM      4  O   UNL     1       0.821  -3.273   2.127  1.00  0.00    -0.272 OA
ATOM      5  H   UNL     1       2.141  -3.409   4.129  1.00  0.00     0.163 HD
BRANCH   3   6
ATOM      6  C   UNL     1       2.806  -2.616   0.915  1.00  0.00     0.260 C 
BRANCH   6   7
ATOM      7  O   UNL     1       3.483  -1.380   1.080  1.00  0.00    -0.359 OA
BRANCH   7   8
ATOM      8  C   UNL     1       2.596  -0.268   1.103  1.00  0.00     0.288 C 
BRANCH   8   9
ATOM      9  C   UNL     1       2.319   0.446  -0.235  1.00  0.00     0.333 C 
ATOM     10  O   UNL     1       1.358   1.209  -0.324  1.00  0.00    -0.244 OA
ATOM     11  N   UNL     1       3.119   0.184  -1.319  1.00  0.00    -0.202 N 
ATOM     12  C   UNL     1       4.393   0.394  -1.314  1.00  0.00     0.319 C 
ATOM     13  H   UNL     1       2.704  -0.178  -2.135  1.00  0.00     0.316 HD
ATOM     14  S   UNL     1       5.355   0.908   0.113  1.00  0.00    -0.029 SA
ATOM     15  N   UNL     1       5.268   0.218  -2.399  1.00  0.00    -0.217 N 
ATOM     16  C   UNL     1       6.797   0.103  -0.612  1.00  0.00     0.120 C 
ATOM     17  C   UNL     1       6.659   0.573  -2.064  1.00  0.00     0.212 C 
ATOM     18  C   UNL     1       8.185   0.436  -0.134  1.00  0.00     0.156 C 
ATOM     19  C   UNL     1       7.825  -0.073  -2.770  1.00  0.00     0.188 C 
ATOM     20  S   UNL     1       9.173   0.195  -1.613  1.00  0.00     0.155 S 
ATOM     21  O   UNL     1       9.913  -1.043  -1.486  1.00  0.00    -0.229 OA
ATOM     22  O   UNL     1       9.808   1.452  -1.935  1.00  0.00    -0.229 OA
BRANCH  15  23
ATOM     23  C   UNL     1       4.851   0.249  -3.740  1.00  0.00     0.128 A 
ATOM     24  C   UNL     1       5.399  -0.623  -4.694  1.00  0.00     0.053 A 
ATOM     25  C   UNL     1       3.846   1.131  -4.177  1.00  0.00     0.053 A 
ATOM     26  C   UNL     1       4.989  -0.597  -6.033  1.00  0.00     0.025 A 
ATOM     27  C   UNL     1       3.427   1.159  -5.514  1.00  0.00     0.025 A 
ATOM     28  C   UNL     1       4.005   0.297  -6.438  1.00  0.00     0.041 A 
ATOM     29  Cl  UNL     1       3.496   0.324  -8.080  1.00  0.00    -0.084 Cl
ENDBRANCH  15  23
ENDBRANCH   8   9
ENDBRANCH   7   8
ENDBRANCH   6   7
ENDBRANCH   3   6
ENDBRANCH   1   2
BRANCH   1  30
ATOM     30  C   UNL     1       4.408  -1.770   4.472  1.00  0.00     0.023 C 
BRANCH  30  31
ATOM     31  C   UNL     1       3.739  -1.762   5.849  1.00  0.00     0.023 C 
BRANCH  31  32
ATOM     32  C   UNL     1       3.963  -3.009   6.697  1.00  0.00     0.116 C 
BRANCH  32  33
ATOM     33  N   UNL     1       5.362  -3.240   7.016  1.00  0.00    -0.352 N 
ATOM     34  C   UNL     1       5.933  -3.569   8.223  1.00  0.00     0.251 C 
ATOM     35  H   UNL     1       5.989  -3.149   6.262  1.00  0.00     0.163 HD
ATOM     36  O   UNL     1       7.155  -3.599   8.336  1.00  0.00    -0.269 OA
BRANCH  34  37
ATOM     37  C   UNL     1       5.075  -3.850   9.395  1.00  0.00     0.039 A 
ATOM     38  C   UNL     1       5.404  -3.270  10.624  1.00  0.00     0.014 A 
ATOM     39  C   UNL     1       3.946  -4.666   9.286  1.00  0.00     0.014 A 
ATOM     40  C   UNL     1       4.561  -3.451  11.723  1.00  0.00     0.010 A 
ATOM     41  C   UNL     1       3.066  -4.779  10.360  1.00  0.00     0.010 A 
ATOM     42  C   UNL     1       3.362  -4.172  11.590  1.00  0.00    -0.014 A 
BRANCH  42  43
ATOM     43  C   UNL     1       2.405  -4.288  12.721  1.00  0.00     0.031 A 
ATOM     44  C   UNL     1       2.076  -5.634  13.307  1.00  0.00     0.074 A 
ATOM     45  C   UNL     1       1.783  -3.185  13.183  1.00  0.00     0.049 A 
ATOM     46  N   UNL     1       1.225  -5.937  14.255  1.00  0.00    -0.248 NA
ATOM     47  C   UNL     1       2.776  -6.795  12.735  1.00  0.00     0.031 C 
ATOM     48  C   UNL     1       1.975  -1.827  12.670  1.00  0.00     0.029 A 
ATOM     49  N   UNL     1       0.854  -3.032  14.183  1.00  0.00    -0.354 N 
ATOM     50  C   UNL     1       1.278  -7.319  14.383  1.00  0.00     0.074 A 
ATOM     51  C   UNL     1       2.203  -7.801  13.380  1.00  0.00     0.031 C 
ATOM     52  C   UNL     1       1.207  -0.978  13.371  1.00  0.00     0.029 A 
ATOM     53  C   UNL     1       0.436  -1.734  14.354  1.00  0.00     0.049 A 
ATOM     54  H   UNL     1       0.519  -3.781  14.726  1.00  0.00     0.167 HD
ATOM     55  C   UNL     1       0.632  -8.114  15.270  1.00  0.00     0.037 A 
ATOM     56  C   UNL     1      -0.473  -1.210  15.198  1.00  0.00     0.037 A 
ATOM     57  C   UNL     1      -0.275  -7.630  16.278  1.00  0.00     0.049 A 
ATOM     58  C   UNL     1      -1.187  -2.114  16.165  1.00  0.00     0.074 A 
ATOM     59  C   UNL     1      -0.930  -8.350  17.262  1.00  0.00     0.029 A 
ATOM     60  N   UNL     1      -0.663  -6.307  16.427  1.00  0.00    -0.354 N 
ATOM     61  N   UNL     1      -1.071  -3.411  16.323  1.00  0.00    -0.248 NA
ATOM     62  C   UNL     1      -2.152  -1.482  17.076  1.00  0.00     0.031 C 
ATOM     63  C   UNL     1      -1.759  -7.473  17.968  1.00  0.00     0.029 A 
ATOM     64  C   UNL     1      -1.571  -6.195  17.468  1.00  0.00     0.049 A 
ATOM     65  H   UNL     1      -0.340  -5.558  15.875  1.00  0.00     0.167 HD
ATOM     66  C   UNL     1      -1.924  -3.744  17.368  1.00  0.00     0.074 A 
ATOM     67  C   UNL     1      -2.538  -2.512  17.816  1.00  0.00     0.031 C 
ATOM     68  C   UNL     1      -2.174  -4.962  17.908  1.00  0.00     0.037 A 
BRANCH  55  69
ATOM     69  C   UNL     1       0.878  -9.593  15.189  1.00  0.00     0.057 A 
ATOM     70  C   UNL     1       2.111 -10.161  15.539  1.00  0.00     0.134 A 
ATOM     71  C   UNL     1      -0.146 -10.468  14.802  1.00  0.00     0.134 A 
ATOM     72  F   UNL     1       3.138  -9.380  15.909  1.00  0.00    -0.206 F 
ATOM     73  C   UNL     1       2.324 -11.539  15.483  1.00  0.00     0.040 A 
ATOM     74  C   UNL     1       0.045 -11.850  14.772  1.00  0.00     0.040 A 
ATOM     75  F   UNL     1      -1.354  -9.994  14.460  1.00  0.00    -0.206 F 
ATOM     76  C   UNL     1       1.286 -12.389  15.107  1.00  0.00     0.006 A 
ENDBRANCH  55  69
BRANCH  56  77
ATOM     77  C   UNL     1      -0.755   0.249  15.174  1.00  0.00     0.057 A 
ATOM     78  C   UNL     1      -0.385   1.077  16.241  1.00  0.00     0.134 A 
ATOM     79  C   UNL     1      -1.405   0.850  14.089  1.00  0.00     0.134 A 
ATOM     80  F   UNL     1       0.224   0.558  17.317  1.00  0.00    -0.206 F 
ATOM     81  C   UNL     1      -0.669   2.443  16.240  1.00  0.00     0.040 A 
ATOM     82  C   UNL     1      -1.669   2.220  14.062  1.00  0.00     0.040 A 
ATOM     83  F   UNL     1      -1.778   0.115  13.032  1.00  0.00    -0.206 F 
ATOM     84  C   UNL     1      -1.308   3.020  15.144  1.00  0.00     0.006 A 
ENDBRANCH  56  77
BRANCH  68  85
ATOM     85  C   UNL     1      -3.124  -5.021  19.070  1.00  0.00     0.057 A 
ATOM     86  C   UNL     1      -4.499  -4.799  18.920  1.00  0.00     0.134 A 
ATOM     87  C   UNL     1      -2.660  -5.344  20.352  1.00  0.00     0.134 A 
ATOM     88  F   UNL     1      -5.009  -4.474  17.722  1.00  0.00    -0.206 F 
ATOM     89  C   UNL     1      -5.373  -4.870  20.006  1.00  0.00     0.040 A 
ATOM     90  C   UNL     1      -3.528  -5.450  21.440  1.00  0.00     0.040 A 
ATOM     91  F   UNL     1      -1.357  -5.580  20.566  1.00  0.00    -0.206 F 
ATOM     92  C   UNL     1      -4.889  -5.205  21.270  1.00  0.00     0.006 A 
ENDBRANCH  68  85
ENDBRANCH  42  43
ENDBRANCH  34  37
ENDBRANCH  32  33
ENDBRANCH  31  32
ENDBRANCH  30  31
ENDBRANCH   1  30
TORSDOF 15
