REMARK SMILES C[C@@H](C(=O)NCCCCNC(=O)c1ccc(-c2c3nc(c(-c4c(F)cccc4F)c4ccc([nH]4)c(-c4c(F)cccc4F)c4nc(c(-c5c(F)cccc5F)c5ccc2[nH]5)C=C4)C=C3)cc1)N1C(=O)CSc2cccn2-c2ccccc21
REMARK SMILES IDX 6 1 5 2 3 3 4 4 2 6 1 7 67 8 68 9 69 10 82 12 77 13 81 14
REMARK SMILES IDX 78 15 80 16 79 17 76 18 72 19 75 20 73 21 74 22 71 23 70 24
REMARK SMILES IDX 7 26 8 27 9 28 10 29 11 30 12 32 13 33 14 34 66 35 15 36
REMARK SMILES IDX 65 37 16 38 17 39 18 40 59 41 19 42 64 43 58 44 60 45 20 46
REMARK SMILES IDX 63 47 57 48 56 49 21 51 47 52 30 53 46 54 31 55 34 56 45 57
REMARK SMILES IDX 61 58 32 59 33 60 44 62 62 63 35 64 22 65 23 66 28 67 24 68
REMARK SMILES IDX 25 69 27 70 29 71 26 72 48 73 49 74 54 75 50 76 51 77 53 78
REMARK SMILES IDX 55 79 52 80 36 81 37 82 42 83 38 84 39 85 41 86 43 87 40 88
REMARK H PARENT 5 5 10 31 60 50 34 61
REMARK Flexibility Score: 80.00
ROOT
ATOM      1  C   UNL     1       3.155  -0.742   1.495  1.00  0.00     0.116 C 
ENDROOT
BRANCH   1   2
ATOM      2  N   UNL     1       1.909  -0.391   2.149  1.00  0.00    -0.354 N 
ATOM      3  C   UNL     1       0.617  -0.563   1.727  1.00  0.00     0.242 C 
ATOM      4  O   UNL     1      -0.240  -0.610   2.618  1.00  0.00    -0.273 OA
ATOM      5  H   UNL     1       2.006   0.037   3.030  1.00  0.00     0.163 HD
BRANCH   3   6
ATOM      6  C   UNL     1       0.267  -0.825   0.227  1.00  0.00     0.176 C 
ATOM      7  C   UNL     1       0.987   0.070  -0.785  1.00  0.00     0.042 C 
BRANCH   6   8
ATOM      8  N   UNL     1      -1.220  -0.782   0.003  1.00  0.00    -0.297 N 
BRANCH   8   9
ATOM      9  C   UNL     1      -1.893   0.357   0.456  1.00  0.00     0.238 CG0
ATOM     10  O   UNL     1      -1.308   1.405   0.747  1.00  0.00    -0.274 OA
ATOM     11  G   UNL     1      -3.371   0.190   0.757  1.00  0.00     0.000 G0
ENDBRANCH   8   9
BRANCH   8  12
ATOM     12  C   UNL     1      -1.655  -1.520  -1.162  1.00  0.00     0.069 A 
ATOM     13  C   UNL     1      -1.862  -0.887  -2.415  1.00  0.00     0.070 A 
ATOM     14  C   UNL     1      -1.395  -2.900  -1.147  1.00  0.00     0.028 A 
ATOM     15  C   UNL     1      -1.537  -1.580  -3.595  1.00  0.00     0.029 A 
ATOM     16  C   UNL     1      -1.185  -3.605  -2.332  1.00  0.00     0.002 A 
ATOM     17  C   UNL     1      -1.186  -2.929  -3.548  1.00  0.00     0.002 A 
BRANCH  13  18
ATOM     18  N   UNL     1      -2.417   0.422  -2.550  1.00  0.00    -0.310 N 
ATOM     19  C   UNL     1      -3.488   0.959  -1.849  1.00  0.00     0.080 A 
ATOM     20  C   UNL     1      -2.089   1.345  -3.533  1.00  0.00     0.092 A 
ATOM     21  C   UNL     1      -3.734   2.238  -2.292  1.00  0.00     0.035 A 
ATOM     22  C   UNL     1      -2.854   2.481  -3.366  1.00  0.00     0.021 A 
BRANCH  19  23
ATOM     23  S   UNL     1      -4.416   0.040  -0.702  1.00  0.00    -0.098 SA
BRANCH  23  24
ATOM     24  C   UNL     1      -3.371   0.190   0.757  1.00  0.00     0.177 CG0
ATOM     25  G   UNL     1      -1.893   0.357   0.456  1.00  0.00     0.000 G0
ENDBRANCH  23  24
ENDBRANCH  19  23
ENDBRANCH  13  18
ENDBRANCH   8  12
ENDBRANCH   6   8
ENDBRANCH   3   6
ENDBRANCH   1   2
BRANCH   1  26
ATOM     26  C   UNL     1       3.952   0.470   1.008  1.00  0.00     0.023 C 
BRANCH  26  27
ATOM     27  C   UNL     1       4.692   1.263   2.088  1.00  0.00     0.023 C 
BRANCH  27  28
ATOM     28  C   UNL     1       5.755   0.502   2.876  1.00  0.00     0.116 C 
BRANCH  28  29
ATOM     29  N   UNL     1       6.803  -0.066   2.044  1.00  0.00    -0.352 N 
ATOM     30  C   UNL     1       8.163  -0.119   2.236  1.00  0.00     0.251 C 
ATOM     31  H   UNL     1       6.487  -0.480   1.208  1.00  0.00     0.163 HD
ATOM     32  O   UNL     1       8.873  -0.577   1.345  1.00  0.00    -0.269 OA
BRANCH  30  33
ATOM     33  C   UNL     1       8.792   0.389   3.482  1.00  0.00     0.039 A 
ATOM     34  C   UNL     1      10.030   1.034   3.384  1.00  0.00     0.014 A 
ATOM     35  C   UNL     1       8.213   0.203   4.739  1.00  0.00     0.014 A 
ATOM     36  C   UNL     1      10.658   1.529   4.532  1.00  0.00     0.010 A 
ATOM     37  C   UNL     1       8.800   0.767   5.873  1.00  0.00     0.010 A 
ATOM     38  C   UNL     1      10.036   1.425   5.786  1.00  0.00    -0.014 A 
BRANCH  38  39
ATOM     39  C   UNL     1      10.678   1.977   7.009  1.00  0.00     0.031 A 
ATOM     40  C   UNL     1      11.095   1.064   8.132  1.00  0.00     0.074 A 
ATOM     41  C   UNL     1      10.853   3.308   7.133  1.00  0.00     0.049 A 
ATOM     42  N   UNL     1      11.652   1.362   9.280  1.00  0.00    -0.248 NA
ATOM     43  C   UNL     1      10.827  -0.372   7.954  1.00  0.00     0.031 C 
ATOM     44  C   UNL     1      10.456   4.309   6.142  1.00  0.00     0.029 A 
ATOM     45  N   UNL     1      11.411   4.048   8.147  1.00  0.00    -0.354 N 
ATOM     46  C   UNL     1      11.784   0.158   9.963  1.00  0.00     0.074 A 
ATOM     47  C   UNL     1      11.199  -0.866   9.125  1.00  0.00     0.031 C 
ATOM     48  C   UNL     1      10.814   5.527   6.580  1.00  0.00     0.029 A 
ATOM     49  C   UNL     1      11.432   5.399   7.896  1.00  0.00     0.049 A 
ATOM     50  H   UNL     1      11.762   3.648   8.975  1.00  0.00     0.167 HD
ATOM     51  C   UNL     1      12.359  -0.078  11.167  1.00  0.00     0.037 A 
ATOM     52  C   UNL     1      11.898   6.419   8.642  1.00  0.00     0.037 A 
ATOM     53  C   UNL     1      12.965   0.936  11.990  1.00  0.00     0.049 A 
ATOM     54  C   UNL     1      12.528   6.130   9.977  1.00  0.00     0.074 A 
ATOM     55  C   UNL     1      13.633   0.785  13.193  1.00  0.00     0.029 A 
ATOM     56  N   UNL     1      12.970   2.292  11.699  1.00  0.00    -0.354 N 
ATOM     57  N   UNL     1      12.717   4.978  10.573  1.00  0.00    -0.248 NA
ATOM     58  C   UNL     1      13.018   7.288  10.739  1.00  0.00     0.031 C 
ATOM     59  C   UNL     1      13.995   2.055  13.655  1.00  0.00     0.029 A 
ATOM     60  C   UNL     1      13.606   2.992  12.712  1.00  0.00     0.049 A 
ATOM     61  H   UNL     1      12.579   2.698  10.891  1.00  0.00     0.167 HD
ATOM     62  C   UNL     1      13.382   5.267  11.758  1.00  0.00     0.074 A 
ATOM     63  C   UNL     1      13.573   6.702  11.791  1.00  0.00     0.031 C 
ATOM     64  C   UNL     1      13.800   4.420  12.730  1.00  0.00     0.037 A 
BRANCH  51  65
ATOM     65  C   UNL     1      12.355  -1.495  11.671  1.00  0.00     0.057 A 
ATOM     66  C   UNL     1      13.122  -2.501  11.067  1.00  0.00     0.134 A 
ATOM     67  C   UNL     1      11.595  -1.851  12.793  1.00  0.00     0.134 A 
ATOM     68  F   UNL     1      13.865  -2.232   9.983  1.00  0.00    -0.206 F 
ATOM     69  C   UNL     1      13.107  -3.815  11.539  1.00  0.00     0.040 A 
ATOM     70  C   UNL     1      11.597  -3.155  13.293  1.00  0.00     0.040 A 
ATOM     71  F   UNL     1      10.845  -0.938  13.426  1.00  0.00    -0.206 F 
ATOM     72  C   UNL     1      12.347  -4.143  12.660  1.00  0.00     0.006 A 
ENDBRANCH  51  65
BRANCH  52  73
ATOM     73  C   UNL     1      11.827   7.811   8.129  1.00  0.00     0.057 A 
ATOM     74  C   UNL     1      12.988   8.505   7.768  1.00  0.00     0.134 A 
ATOM     75  C   UNL     1      10.608   8.487   8.004  1.00  0.00     0.134 A 
ATOM     76  F   UNL     1      14.189   7.918   7.884  1.00  0.00    -0.206 F 
ATOM     77  C   UNL     1      12.944   9.828   7.325  1.00  0.00     0.040 A 
ATOM     78  C   UNL     1      10.545   9.801   7.537  1.00  0.00     0.040 A 
ATOM     79  F   UNL     1       9.458   7.877   8.327  1.00  0.00    -0.206 F 
ATOM     80  C   UNL     1      11.717  10.478   7.204  1.00  0.00     0.006 A 
ENDBRANCH  52  73
BRANCH  64  81
ATOM     81  C   UNL     1      14.552   5.016  13.886  1.00  0.00     0.057 A 
ATOM     82  C   UNL     1      13.928   5.824  14.846  1.00  0.00     0.134 A 
ATOM     83  C   UNL     1      15.920   4.758  14.052  1.00  0.00     0.134 A 
ATOM     84  F   UNL     1      12.624   6.120  14.741  1.00  0.00    -0.206 F 
ATOM     85  C   UNL     1      14.644   6.380  15.908  1.00  0.00     0.040 A 
ATOM     86  C   UNL     1      16.639   5.283  15.127  1.00  0.00     0.040 A 
ATOM     87  F   UNL     1      16.579   3.984  13.176  1.00  0.00    -0.206 F 
ATOM     88  C   UNL     1      16.002   6.105  16.054  1.00  0.00     0.006 A 
ENDBRANCH  64  81
ENDBRANCH  38  39
ENDBRANCH  30  33
ENDBRANCH  28  29
ENDBRANCH  27  28
ENDBRANCH  26  27
ENDBRANCH   1  26
TORSDOF 12
