REMARK SMILES O=C(NCCCCNC(=O)c1cc(S(=O)(=O)ON2C(=O)c3cccc4cccc(c34)C2=O)ccc1Br)c1ccc(-c2c3nc(c(-c4c(F)cccc4F)c4ccc([nH]4)c(-c4c(F)cccc4F)c4nc(c(-c5c(F)cccc5F)c5ccc2[nH]5)C=C4)C=C3)cc1
REMARK SMILES IDX 6 1 5 2 4 3 3 4 1 5 2 6 37 8 38 9 90 10 39 11 89 12 40 13
REMARK SMILES IDX 41 14 42 15 83 16 43 17 88 18 82 19 84 20 44 21 87 22 81 23
REMARK SMILES IDX 80 24 45 26 71 27 54 28 70 29 55 30 58 31 69 32 85 33 56 34
REMARK SMILES IDX 57 35 68 37 86 38 59 39 46 40 47 41 52 42 48 43 49 44 51 45
REMARK SMILES IDX 53 46 50 47 72 48 73 49 78 50 74 51 75 52 77 53 79 54 76 55
REMARK SMILES IDX 60 56 61 57 66 58 62 59 63 60 65 61 67 62 64 63 7 64 8 65
REMARK SMILES IDX 9 66 10 68 11 69 12 70 35 71 13 72 34 73 36 74 33 75 14 76
REMARK SMILES IDX 15 77 16 78 17 79 18 80 19 81 31 82 20 83 21 84 29 85 32 86
REMARK SMILES IDX 22 87 30 88 28 89 23 90 25 91 27 92 24 93 26 94
REMARK H PARENT 3 7 84 25 58 36 8 67
REMARK Flexibility Score: inf
ROOT
ATOM      1  C   UNL     1       4.432  -2.544   3.018  1.00  0.00     0.023 C 
ENDROOT
BRANCH   1   2
ATOM      2  C   UNL     1       4.935  -1.267   2.342  1.00  0.00     0.023 C 
BRANCH   2   3
ATOM      3  C   UNL     1       4.592  -1.116   0.863  1.00  0.00     0.116 C 
BRANCH   3   4
ATOM      4  N   UNL     1       3.161  -1.099   0.609  1.00  0.00    -0.352 N 
ATOM      5  O   UNL     1       1.155  -0.261   0.023  1.00  0.00    -0.269 OA
ATOM      6  C   UNL     1       2.377  -0.134   0.026  1.00  0.00     0.251 C 
ATOM      7  H   UNL     1       2.678  -1.906   0.900  1.00  0.00     0.163 HD
BRANCH   6   8
ATOM      8  C   UNL     1       2.987   1.075  -0.570  1.00  0.00     0.039 A 
ATOM      9  C   UNL     1       4.106   0.992  -1.403  1.00  0.00     0.014 A 
ATOM     10  C   UNL     1       2.406   2.319  -0.305  1.00  0.00     0.014 A 
ATOM     11  C   UNL     1       4.725   2.156  -1.854  1.00  0.00     0.010 A 
ATOM     12  C   UNL     1       2.986   3.483  -0.817  1.00  0.00     0.010 A 
ATOM     13  C   UNL     1       4.171   3.413  -1.565  1.00  0.00    -0.014 A 
BRANCH  13  14
ATOM     14  C   UNL     1       4.822   4.649  -2.067  1.00  0.00     0.031 A 
ATOM     15  C   UNL     1       5.426   5.641  -1.112  1.00  0.00     0.074 A 
ATOM     16  C   UNL     1       4.861   4.883  -3.392  1.00  0.00     0.049 A 
ATOM     17  N   UNL     1       5.985   6.797  -1.366  1.00  0.00    -0.248 NA
ATOM     18  C   UNL     1       5.391   5.291   0.317  1.00  0.00     0.031 C 
ATOM     19  C   UNL     1       4.308   3.999  -4.419  1.00  0.00     0.029 A 
ATOM     20  N   UNL     1       5.385   5.933  -4.100  1.00  0.00    -0.354 N 
ATOM     21  C   UNL     1       6.346   7.324  -0.132  1.00  0.00     0.074 A 
ATOM     22  C   UNL     1       5.925   6.370   0.872  1.00  0.00     0.031 C 
ATOM     23  C   UNL     1       4.537   4.536  -5.627  1.00  0.00     0.029 A 
ATOM     24  C   UNL     1       5.205   5.822  -5.457  1.00  0.00     0.049 A 
ATOM     25  H   UNL     1       5.846   6.694  -3.677  1.00  0.00     0.167 HD
ATOM     26  C   UNL     1       6.977   8.493   0.137  1.00  0.00     0.037 A 
ATOM     27  C   UNL     1       5.520   6.670  -6.453  1.00  0.00     0.037 A 
ATOM     28  C   UNL     1       7.411   9.432  -0.865  1.00  0.00     0.049 A 
ATOM     29  C   UNL     1       6.197   7.969  -6.129  1.00  0.00     0.074 A 
ATOM     30  C   UNL     1       8.091  10.626  -0.692  1.00  0.00     0.029 A 
ATOM     31  N   UNL     1       7.204   9.285  -2.228  1.00  0.00    -0.354 N 
ATOM     32  N   UNL     1       6.555   8.443  -4.960  1.00  0.00    -0.248 NA
ATOM     33  C   UNL     1       6.511   8.853  -7.260  1.00  0.00     0.031 C 
ATOM     34  C   UNL     1       8.261  11.219  -1.948  1.00  0.00     0.029 A 
ATOM     35  C   UNL     1       7.725  10.375  -2.907  1.00  0.00     0.049 A 
ATOM     36  H   UNL     1       6.752   8.519  -2.652  1.00  0.00     0.167 HD
ATOM     37  C   UNL     1       7.154   9.668  -5.215  1.00  0.00     0.074 A 
ATOM     38  C   UNL     1       7.119   9.862  -6.650  1.00  0.00     0.031 C 
ATOM     39  C   UNL     1       7.687  10.552  -4.336  1.00  0.00     0.037 A 
BRANCH  26  40
ATOM     40  C   UNL     1       7.216   8.832   1.579  1.00  0.00     0.057 A 
ATOM     41  C   UNL     1       8.184   8.170   2.346  1.00  0.00     0.134 A 
ATOM     42  C   UNL     1       6.489   9.856   2.201  1.00  0.00     0.134 A 
ATOM     43  F   UNL     1       8.907   7.173   1.814  1.00  0.00    -0.206 F 
ATOM     44  C   UNL     1       8.402   8.497   3.686  1.00  0.00     0.040 A 
ATOM     45  C   UNL     1       6.714  10.207   3.533  1.00  0.00     0.040 A 
ATOM     46  F   UNL     1       5.553  10.535   1.522  1.00  0.00    -0.206 F 
ATOM     47  C   UNL     1       7.669   9.522   4.281  1.00  0.00     0.006 A 
ENDBRANCH  26  40
BRANCH  27  48
ATOM     48  C   UNL     1       5.189   6.304  -7.851  1.00  0.00     0.057 A 
ATOM     49  C   UNL     1       6.188   5.928  -8.755  1.00  0.00     0.134 A 
ATOM     50  C   UNL     1       3.864   6.287  -8.303  1.00  0.00     0.134 A 
ATOM     51  F   UNL     1       7.476   5.942  -8.382  1.00  0.00    -0.206 F 
ATOM     52  C   UNL     1       5.881   5.549 -10.062  1.00  0.00     0.040 A 
ATOM     53  C   UNL     1       3.541   5.888  -9.600  1.00  0.00     0.040 A 
ATOM     54  F   UNL     1       2.863   6.630  -7.479  1.00  0.00    -0.206 F 
ATOM     55  C   UNL     1       4.553   5.520 -10.485  1.00  0.00     0.006 A 
ENDBRANCH  27  48
BRANCH  39  56
ATOM     56  C   UNL     1       8.306  11.793  -4.904  1.00  0.00     0.057 A 
ATOM     57  C   UNL     1       7.528  12.851  -5.387  1.00  0.00     0.134 A 
ATOM     58  C   UNL     1       9.698  11.946  -4.929  1.00  0.00     0.134 A 
ATOM     59  F   UNL     1       6.190  12.759  -5.403  1.00  0.00    -0.206 F 
ATOM     60  C   UNL     1       8.113  14.015  -5.889  1.00  0.00     0.040 A 
ATOM     61  C   UNL     1      10.294  13.113  -5.409  1.00  0.00     0.040 A 
ATOM     62  F   UNL     1      10.499  10.970  -4.476  1.00  0.00    -0.206 F 
ATOM     63  C   UNL     1       9.501  14.150  -5.894  1.00  0.00     0.006 A 
ENDBRANCH  39  56
ENDBRANCH  13  14
ENDBRANCH   6   8
ENDBRANCH   3   4
ENDBRANCH   2   3
ENDBRANCH   1   2
BRANCH   1  64
ATOM     64  C   UNL     1       4.762  -3.849   2.298  1.00  0.00     0.116 C 
BRANCH  64  65
ATOM     65  N   UNL     1       6.188  -4.048   2.106  1.00  0.00    -0.352 N 
ATOM     66  C   UNL     1       6.948  -5.160   2.363  1.00  0.00     0.252 C 
ATOM     67  H   UNL     1       6.678  -3.276   1.740  1.00  0.00     0.163 HD
ATOM     68  O   UNL     1       8.156  -5.155   2.147  1.00  0.00    -0.269 OA
BRANCH  66  69
ATOM     69  C   UNL     1       6.333  -6.351   2.975  1.00  0.00     0.055 A 
ATOM     70  C   UNL     1       6.745  -6.669   4.277  1.00  0.00     0.038 A 
ATOM     71  C   UNL     1       5.419  -7.175   2.306  1.00  0.00     0.030 A 
ATOM     72  C   UNL     1       6.204  -7.789   4.915  1.00  0.00     0.097 A 
ATOM     73  C   UNL     1       4.856  -8.271   2.973  1.00  0.00     0.018 A 
ATOM     74  Br  UNL     1       4.937  -6.917   0.488  1.00  0.00    -0.050 Br
ATOM     75  C   UNL     1       5.241  -8.577   4.281  1.00  0.00     0.024 A 
BRANCH  72  76
ATOM     76  S   UNL     1       6.739  -8.197   6.563  1.00  0.00     0.318 S 
ATOM     77  O   UNL     1       7.706  -9.265   6.431  1.00  0.00    -0.192 OA
ATOM     78  O   UNL     1       7.101  -6.945   7.203  1.00  0.00    -0.192 OA
BRANCH  76  79
ATOM     79  O   UNL     1       5.387  -8.777   7.284  1.00  0.00    -0.134 OA
BRANCH  79  80
ATOM     80  N   UNL     1       5.651  -9.359   8.544  1.00  0.00    -0.127 N 
ATOM     81  C   UNL     1       5.530  -8.498   9.617  1.00  0.00     0.286 C 
ATOM     82  C   UNL     1       5.677 -10.742   8.558  1.00  0.00     0.286 C 
ATOM     83  O   UNL     1       5.196  -7.320   9.538  1.00  0.00    -0.266 OA
ATOM     84  C   UNL     1       5.774  -9.115  10.939  1.00  0.00     0.051 A 
ATOM     85  C   UNL     1       5.837 -11.348   9.906  1.00  0.00     0.051 A 
ATOM     86  O   UNL     1       5.529 -11.451   7.568  1.00  0.00    -0.266 OA
ATOM     87  C   UNL     1       5.850  -8.300  12.074  1.00  0.00     0.014 A 
ATOM     88  C   UNL     1       5.894 -10.512  11.036  1.00  0.00     0.007 A 
ATOM     89  C   UNL     1       5.918 -12.739  10.039  1.00  0.00     0.014 A 
ATOM     90  C   UNL     1       6.038  -8.875  13.326  1.00  0.00     0.001 A 
ATOM     91  C   UNL     1       6.059 -11.093  12.315  1.00  0.00    -0.017 A 
ATOM     92  C   UNL     1       6.062 -13.307  11.303  1.00  0.00     0.001 A 
ATOM     93  C   UNL     1       6.133 -10.262  13.446  1.00  0.00     0.009 A 
ATOM     94  C   UNL     1       6.137 -12.489  12.432  1.00  0.00     0.009 A 
ENDBRANCH  79  80
ENDBRANCH  76  79
ENDBRANCH  72  76
ENDBRANCH  66  69
ENDBRANCH  64  65
ENDBRANCH   1  64
TORSDOF 14
