REMARK SMILES C[C@H](CN(Cc1ccccc1)C(=O)c1cc2ccccc2oc1=O)C(=O)NCCCCNC(=O)c1ccc(-c2c3nc(c(-c4c(F)cccc4F)c4ccc([nH]4)c(-c4c(F)cccc4F)c4nc(c(-c5c(F)cccc5F)c5ccc2[nH]5)C=C4)C=C3)cc1
REMARK SMILES IDX 28 1 27 2 25 3 26 4 2 6 1 7 3 8 4 9 5 10 6 11 7 12 11 13
REMARK SMILES IDX 8 14 10 15 9 16 12 17 13 18 14 19 15 20 23 21 16 22 22 23
REMARK SMILES IDX 24 24 17 25 21 26 18 27 20 28 19 29 29 30 30 31 31 32 32 33
REMARK SMILES IDX 33 34 34 36 35 37 36 38 88 39 37 40 87 41 38 42 39 43 40 44
REMARK SMILES IDX 81 45 41 46 86 47 80 48 82 49 42 50 85 51 79 52 78 53 43 55
REMARK SMILES IDX 69 56 52 57 68 58 53 59 56 60 67 61 83 62 54 63 55 64 66 66
REMARK SMILES IDX 84 67 57 68 44 69 45 70 50 71 46 72 47 73 49 74 51 75 48 76
REMARK SMILES IDX 70 77 71 78 76 79 72 80 73 81 75 82 77 83 74 84 58 85 59 86
REMARK SMILES IDX 64 87 60 88 61 89 63 90 65 91 62 92
REMARK H PARENT 27 5 32 35 82 54 56 65
REMARK Flexibility Score: inf
ROOT
ATOM      1  C   UNL     1      -2.018  -1.226   0.745  1.00  0.00     0.116 C 
ENDROOT
BRANCH   1   2
ATOM      2  N   UNL     1      -1.809   0.176   0.421  1.00  0.00    -0.356 N 
ATOM      3  C   UNL     1      -1.018   0.672  -0.586  1.00  0.00     0.224 C 
ATOM      4  O   UNL     1      -1.447   1.671  -1.178  1.00  0.00    -0.275 OA
ATOM      5  H   UNL     1      -2.281   0.836   0.979  1.00  0.00     0.163 HD
BRANCH   3   6
ATOM      6  C   UNL     1       0.385   0.145  -0.953  1.00  0.00     0.095 C 
ATOM      7  C   UNL     1       0.617  -0.084  -2.443  1.00  0.00     0.020 C 
BRANCH   6   8
ATOM      8  C   UNL     1       1.129  -0.798  -0.005  1.00  0.00     0.133 C 
BRANCH   8   9
ATOM      9  N   UNL     1       1.380  -2.236  -0.289  1.00  0.00    -0.333 N 
BRANCH   9  10
ATOM     10  C   UNL     1       2.627  -2.733   0.357  1.00  0.00     0.155 C 
BRANCH  10  11
ATOM     11  C   UNL     1       2.438  -3.292   1.758  1.00  0.00    -0.029 A 
ATOM     12  C   UNL     1       2.376  -4.688   1.915  1.00  0.00     0.005 A 
ATOM     13  C   UNL     1       2.154  -2.479   2.864  1.00  0.00     0.005 A 
ATOM     14  C   UNL     1       1.909  -5.255   3.099  1.00  0.00     0.000 A 
ATOM     15  C   UNL     1       1.711  -3.052   4.061  1.00  0.00     0.000 A 
ATOM     16  C   UNL     1       1.558  -4.435   4.166  1.00  0.00     0.000 A 
ENDBRANCH  10  11
ENDBRANCH   9  10
BRANCH   9  17
ATOM     17  C   UNL     1       0.376  -3.209  -0.439  1.00  0.00     0.261 C 
ATOM     18  O   UNL     1       0.154  -4.052   0.436  1.00  0.00    -0.269 OA
BRANCH  17  19
ATOM     19  C   UNL     1      -0.597  -3.179  -1.565  1.00  0.00     0.126 A 
ATOM     20  C   UNL     1      -1.850  -3.535  -1.230  1.00  0.00     0.033 A 
ATOM     21  C   UNL     1      -0.312  -2.971  -2.982  1.00  0.00     0.349 A 
ATOM     22  C   UNL     1      -2.973  -3.073  -2.023  1.00  0.00     0.018 A 
ATOM     23  O   UNL     1      -1.400  -2.602  -3.787  1.00  0.00    -0.422 OA
ATOM     24  O   UNL     1       0.820  -3.116  -3.449  1.00  0.00    -0.246 OA
ATOM     25  C   UNL     1      -4.232  -2.877  -1.435  1.00  0.00     0.012 A 
ATOM     26  C   UNL     1      -2.699  -2.498  -3.246  1.00  0.00     0.138 A 
ATOM     27  C   UNL     1      -5.191  -2.080  -2.046  1.00  0.00     0.001 A 
ATOM     28  C   UNL     1      -3.659  -1.725  -3.891  1.00  0.00     0.048 A 
ATOM     29  C   UNL     1      -4.899  -1.500  -3.275  1.00  0.00     0.004 A 
ENDBRANCH  17  19
ENDBRANCH   9  17
ENDBRANCH   8   9
ENDBRANCH   6   8
ENDBRANCH   3   6
ENDBRANCH   1   2
BRANCH   1  30
ATOM     30  C   UNL     1      -2.939  -1.613   1.910  1.00  0.00     0.023 C 
BRANCH  30  31
ATOM     31  C   UNL     1      -2.830  -3.081   2.476  1.00  0.00     0.023 C 
BRANCH  31  32
ATOM     32  C   UNL     1      -3.629  -4.317   1.942  1.00  0.00     0.116 C 
BRANCH  32  33
ATOM     33  N   UNL     1      -2.829  -5.366   1.288  1.00  0.00    -0.352 N 
ATOM     34  C   UNL     1      -3.246  -6.505   0.624  1.00  0.00     0.251 C 
ATOM     35  H   UNL     1      -1.854  -5.237   1.330  1.00  0.00     0.163 HD
ATOM     36  O   UNL     1      -2.444  -7.366   0.252  1.00  0.00    -0.269 OA
BRANCH  34  37
ATOM     37  C   UNL     1      -4.678  -6.708   0.344  1.00  0.00     0.039 A 
ATOM     38  C   UNL     1      -5.439  -7.551   1.152  1.00  0.00     0.014 A 
ATOM     39  C   UNL     1      -5.268  -6.055  -0.737  1.00  0.00     0.014 A 
ATOM     40  C   UNL     1      -6.823  -7.620   0.961  1.00  0.00     0.010 A 
ATOM     41  C   UNL     1      -6.657  -6.068  -0.884  1.00  0.00     0.010 A 
ATOM     42  C   UNL     1      -7.456  -6.820  -0.009  1.00  0.00    -0.014 A 
BRANCH  42  43
ATOM     43  C   UNL     1      -8.943  -6.709  -0.041  1.00  0.00     0.031 A 
ATOM     44  C   UNL     1      -9.746  -7.179  -1.222  1.00  0.00     0.074 A 
ATOM     45  C   UNL     1      -9.577  -6.137   1.006  1.00  0.00     0.049 A 
ATOM     46  N   UNL     1     -11.047  -7.190  -1.382  1.00  0.00    -0.248 NA
ATOM     47  C   UNL     1      -8.995  -7.683  -2.380  1.00  0.00     0.031 C 
ATOM     48  C   UNL     1      -8.917  -5.579   2.189  1.00  0.00     0.029 A 
ATOM     49  N   UNL     1     -10.914  -5.935   1.251  1.00  0.00    -0.354 N 
ATOM     50  C   UNL     1     -11.270  -7.705  -2.653  1.00  0.00     0.074 A 
ATOM     51  C   UNL     1      -9.969  -7.937  -3.244  1.00  0.00     0.031 C 
ATOM     52  C   UNL     1      -9.849  -5.144   3.051  1.00  0.00     0.029 A 
ATOM     53  C   UNL     1     -11.172  -5.356   2.472  1.00  0.00     0.049 A 
ATOM     54  H   UNL     1     -11.621  -6.183   0.613  1.00  0.00     0.167 HD
ATOM     55  C   UNL     1     -12.449  -7.981  -3.264  1.00  0.00     0.037 A 
ATOM     56  C   UNL     1     -12.339  -5.036   3.064  1.00  0.00     0.037 A 
ATOM     57  C   UNL     1     -13.745  -7.758  -2.675  1.00  0.00     0.049 A 
ATOM     58  C   UNL     1     -13.633  -5.342   2.358  1.00  0.00     0.074 A 
ATOM     59  C   UNL     1     -14.992  -8.062  -3.194  1.00  0.00     0.029 A 
ATOM     60  N   UNL     1     -13.963  -7.163  -1.441  1.00  0.00    -0.354 N 
ATOM     61  N   UNL     1     -13.825  -5.918   1.197  1.00  0.00    -0.248 NA
ATOM     62  C   UNL     1     -14.872  -4.960   3.050  1.00  0.00     0.031 C 
ATOM     63  C   UNL     1     -15.965  -7.601  -2.301  1.00  0.00     0.029 A 
ATOM     64  C   UNL     1     -15.324  -7.064  -1.197  1.00  0.00     0.049 A 
ATOM     65  H   UNL     1     -13.256  -6.856  -0.829  1.00  0.00     0.167 HD
ATOM     66  C   UNL     1     -15.203  -5.997   1.035  1.00  0.00     0.074 A 
ATOM     67  C   UNL     1     -15.798  -5.425   2.223  1.00  0.00     0.031 C 
ATOM     68  C   UNL     1     -15.910  -6.500  -0.007  1.00  0.00     0.037 A 
BRANCH  55  69
ATOM     69  C   UNL     1     -12.393  -8.563  -4.648  1.00  0.00     0.057 A 
ATOM     70  C   UNL     1     -11.931  -9.865  -4.885  1.00  0.00     0.134 A 
ATOM     71  C   UNL     1     -12.846  -7.831  -5.753  1.00  0.00     0.134 A 
ATOM     72  F   UNL     1     -11.479 -10.620  -3.872  1.00  0.00    -0.206 F 
ATOM     73  C   UNL     1     -11.892 -10.405  -6.172  1.00  0.00     0.040 A 
ATOM     74  C   UNL     1     -12.840  -8.370  -7.041  1.00  0.00     0.040 A 
ATOM     75  F   UNL     1     -13.315  -6.583  -5.599  1.00  0.00    -0.206 F 
ATOM     76  C   UNL     1     -12.353  -9.659  -7.254  1.00  0.00     0.006 A 
ENDBRANCH  55  69
BRANCH  56  77
ATOM     77  C   UNL     1     -12.350  -4.415   4.416  1.00  0.00     0.057 A 
ATOM     78  C   UNL     1     -12.853  -5.105   5.526  1.00  0.00     0.134 A 
ATOM     79  C   UNL     1     -11.889  -3.110   4.626  1.00  0.00     0.134 A 
ATOM     80  F   UNL     1     -13.328  -6.351   5.388  1.00  0.00    -0.206 F 
ATOM     81  C   UNL     1     -12.923  -4.512   6.788  1.00  0.00     0.040 A 
ATOM     82  C   UNL     1     -11.925  -2.514   5.889  1.00  0.00     0.040 A 
ATOM     83  F   UNL     1     -11.387  -2.396   3.608  1.00  0.00    -0.206 F 
ATOM     84  C   UNL     1     -12.454  -3.213   6.973  1.00  0.00     0.006 A 
ENDBRANCH  56  77
BRANCH  68  85
ATOM     85  C   UNL     1     -17.408  -6.490   0.105  1.00  0.00     0.057 A 
ATOM     86  C   UNL     1     -18.151  -5.305   0.038  1.00  0.00     0.134 A 
ATOM     87  C   UNL     1     -18.119  -7.690   0.240  1.00  0.00     0.134 A 
ATOM     88  F   UNL     1     -17.533  -4.120  -0.078  1.00  0.00    -0.206 F 
ATOM     89  C   UNL     1     -19.545  -5.311   0.124  1.00  0.00     0.040 A 
ATOM     90  C   UNL     1     -19.514  -7.712   0.297  1.00  0.00     0.040 A 
ATOM     91  F   UNL     1     -17.472  -8.864   0.302  1.00  0.00    -0.206 F 
ATOM     92  C   UNL     1     -20.230  -6.518   0.246  1.00  0.00     0.006 A 
ENDBRANCH  68  85
ENDBRANCH  42  43
ENDBRANCH  34  37
ENDBRANCH  32  33
ENDBRANCH  31  32
ENDBRANCH  30  31
ENDBRANCH   1  30
TORSDOF 17
