REMARK SMILES Cc1c(NCc2ccccn2)cccc1C(=O)N1CCOC[C@@H]1CC(=O)NCCCCNC(=O)c1ccc(-c2c3nc(c(-c4c(F)cccc4F)c4ccc([nH]4)c(-c4c(F)cccc4F)c4nc(c(-c5c(F)cccc5F)c5ccc2[nH]5)C=C4)C=C3)cc1
REMARK SMILES IDX 25 1 26 2 27 3 24 5 23 6 18 7 19 8 20 9 22 10 21 11 16 12
REMARK SMILES IDX 17 13 15 14 1 15 2 16 3 17 12 18 14 19 13 20 4 21 5 23 6 24
REMARK SMILES IDX 7 25 11 26 8 27 10 28 9 29 28 30 29 31 30 32 31 33 32 34
REMARK SMILES IDX 33 35 34 37 35 38 36 39 88 40 37 41 87 42 38 43 39 44 40 45
REMARK SMILES IDX 81 46 41 47 86 48 80 49 82 50 42 51 85 52 79 53 78 54 43 56
REMARK SMILES IDX 69 57 52 58 68 59 53 60 56 61 67 62 83 63 54 64 55 65 66 67
REMARK SMILES IDX 84 68 57 69 44 70 45 71 50 72 46 73 47 74 49 75 51 76 48 77
REMARK SMILES IDX 70 78 71 79 76 80 72 81 73 82 75 83 77 84 74 85 58 86 59 87
REMARK SMILES IDX 64 88 60 89 61 90 63 91 65 92 62 93
REMARK H PARENT 27 4 4 22 32 36 82 55 56 66
REMARK Flexibility Score: inf
ROOT
ATOM      1  C   UNL     1       2.485   3.583   3.041  1.00  0.00     0.222 C 
ATOM      2  O   UNL     1       3.439   3.884   3.757  1.00  0.00    -0.275 OA
ATOM      3  N   UNL     1       1.444   2.902   3.605  1.00  0.00    -0.356 N 
ATOM      4  H   UNL     1       1.267   3.039   4.563  1.00  0.00     0.163 HD
ENDROOT
BRANCH   1   5
ATOM      5  C   UNL     1       2.403   4.007   1.575  1.00  0.00     0.127 C 
BRANCH   5   6
ATOM      6  C   UNL     1       3.279   3.311   0.507  1.00  0.00     0.120 C 
ATOM      7  N   UNL     1       2.688   2.313  -0.481  1.00  0.00    -0.331 N 
ATOM      8  C   UNL     1       3.693   2.017  -1.512  1.00  0.00     0.148 C 
ATOM      9  C   UNL     1       5.032   1.552  -0.922  1.00  0.00     0.181 C 
ATOM     10  C   UNL     1       4.573   2.700   1.101  1.00  0.00     0.185 C 
ATOM     11  O   UNL     1       5.534   2.466   0.057  1.00  0.00    -0.377 OA
BRANCH   7  12
ATOM     12  C   UNL     1       1.381   2.418  -0.993  1.00  0.00     0.254 C 
ATOM     13  O   UNL     1       0.829   3.510  -1.108  1.00  0.00    -0.269 OA
BRANCH  12  14
ATOM     14  C   UNL     1       0.509   1.149  -1.166  1.00  0.00     0.045 A 
ATOM     15  C   UNL     1       2.521  -0.921  -1.087  1.00  0.00     0.047 C 
ATOM     16  C   UNL     1       1.109  -0.528  -0.814  1.00  0.00    -0.015 A 
ATOM     17  C   UNL     1       0.015  -1.781  -0.068  1.00  0.00     0.038 A 
ATOM     18  C   UNL     1      -1.654  -1.316   0.448  1.00  0.00     0.026 A 
ATOM     19  C   UNL     1      -1.225   1.553  -0.796  1.00  0.00     0.014 A 
ATOM     20  C   UNL     1      -2.297   0.361   0.043  1.00  0.00     0.003 A 
BRANCH  17  21
ATOM     21  N   UNL     1       0.506  -3.060   0.175  1.00  0.00    -0.379 N 
ATOM     22  H   UNL     1       1.404  -3.172   0.563  1.00  0.00     0.160 HD
BRANCH  21  23
ATOM     23  C   UNL     1      -0.297  -4.236  -0.139  1.00  0.00     0.169 C 
BRANCH  23  24
ATOM     24  C   UNL     1       0.165  -4.932  -1.413  1.00  0.00     0.059 A 
ATOM     25  C   UNL     1       0.546  -4.209  -2.545  1.00  0.00     0.026 A 
ATOM     26  N   UNL     1       0.152  -6.292  -1.408  1.00  0.00    -0.259 NA
ATOM     27  C   UNL     1       0.950  -4.892  -3.690  1.00  0.00     0.004 A 
ATOM     28  C   UNL     1       0.530  -6.928  -2.541  1.00  0.00     0.111 A 
ATOM     29  C   UNL     1       0.939  -6.279  -3.693  1.00  0.00     0.020 A 
ENDBRANCH  23  24
ENDBRANCH  21  23
ENDBRANCH  17  21
ENDBRANCH  12  14
ENDBRANCH   7  12
ENDBRANCH   5   6
ENDBRANCH   1   5
BRANCH   3  30
ATOM     30  C   UNL     1       0.592   1.998   2.884  1.00  0.00     0.116 C 
BRANCH  30  31
ATOM     31  C   UNL     1       1.431   0.766   2.529  1.00  0.00     0.023 C 
BRANCH  31  32
ATOM     32  C   UNL     1       0.738  -0.384   1.796  1.00  0.00     0.023 C 
BRANCH  32  33
ATOM     33  C   UNL     1      -0.292   0.232   0.638  1.00  0.00     0.116 C 
BRANCH  33  34
ATOM     34  N   UNL     1      -0.927  -0.440  -1.235  1.00  0.00    -0.352 N 
ATOM     35  C   UNL     1      -1.957  -1.046  -2.122  1.00  0.00     0.251 C 
ATOM     36  H   UNL     1      -0.161  -0.271  -1.829  1.00  0.00     0.163 HD
ATOM     37  O   UNL     1      -1.564  -1.284  -3.275  1.00  0.00    -0.269 OA
BRANCH  35  38
ATOM     38  C   UNL     1      -3.453  -1.247  -1.893  1.00  0.00     0.039 A 
ATOM     39  C   UNL     1      -4.302  -0.455  -2.662  1.00  0.00     0.014 A 
ATOM     40  C   UNL     1      -4.026  -1.887  -0.802  1.00  0.00     0.014 A 
ATOM     41  C   UNL     1      -5.430   0.112  -2.066  1.00  0.00     0.010 A 
ATOM     42  C   UNL     1      -5.041  -1.209  -0.124  1.00  0.00     0.010 A 
ATOM     43  C   UNL     1      -5.618  -0.071  -0.702  1.00  0.00    -0.014 A 
BRANCH  43  44
ATOM     44  C   UNL     1      -6.040   1.048   0.180  1.00  0.00     0.031 A 
ATOM     45  C   UNL     1      -7.053   0.871   1.247  1.00  0.00     0.074 A 
ATOM     46  C   UNL     1      -5.420   2.260   0.100  1.00  0.00     0.049 A 
ATOM     47  N   UNL     1      -7.554   1.844   1.930  1.00  0.00    -0.248 NA
ATOM     48  C   UNL     1      -7.654  -0.411   1.585  1.00  0.00     0.031 C 
ATOM     49  C   UNL     1      -5.450   3.373   1.056  1.00  0.00     0.029 A 
ATOM     50  N   UNL     1      -4.735   2.803  -0.993  1.00  0.00    -0.354 N 
ATOM     51  C   UNL     1      -8.361   1.335   2.913  1.00  0.00     0.074 A 
ATOM     52  C   UNL     1      -8.444  -0.071   2.609  1.00  0.00     0.031 C 
ATOM     53  C   UNL     1      -5.095   4.507   0.434  1.00  0.00     0.029 A 
ATOM     54  C   UNL     1      -4.919   4.202  -0.968  1.00  0.00     0.049 A 
ATOM     55  H   UNL     1      -4.218   2.298  -1.662  1.00  0.00     0.167 HD
ATOM     56  C   UNL     1      -8.813   2.177   3.888  1.00  0.00     0.037 A 
ATOM     57  C   UNL     1      -5.551   4.826  -2.004  1.00  0.00     0.037 A 
ATOM     58  C   UNL     1      -8.661   3.577   3.466  1.00  0.00     0.049 A 
ATOM     59  C   UNL     1      -6.926   5.351  -1.641  1.00  0.00     0.074 A 
ATOM     60  C   UNL     1      -7.822   4.635   3.769  1.00  0.00     0.029 A 
ATOM     61  N   UNL     1      -9.370   3.975   2.344  1.00  0.00    -0.354 N 
ATOM     62  N   UNL     1      -7.418   5.353  -0.431  1.00  0.00    -0.248 NA
ATOM     63  C   UNL     1      -7.892   5.843  -2.626  1.00  0.00     0.031 C 
ATOM     64  C   UNL     1      -7.996   5.640   2.762  1.00  0.00     0.029 A 
ATOM     65  C   UNL     1      -8.966   5.207   1.874  1.00  0.00     0.049 A 
ATOM     66  H   UNL     1     -10.084   3.439   1.929  1.00  0.00     0.167 HD
ATOM     67  C   UNL     1      -8.734   5.727  -0.469  1.00  0.00     0.074 A 
ATOM     68  C   UNL     1      -8.982   6.045  -1.864  1.00  0.00     0.031 C 
ATOM     69  C   UNL     1      -9.545   5.701   0.630  1.00  0.00     0.037 A 
BRANCH  56  70
ATOM     70  C   UNL     1      -9.350   1.768   5.248  1.00  0.00     0.057 A 
ATOM     71  C   UNL     1      -9.671   2.750   6.210  1.00  0.00     0.134 A 
ATOM     72  C   UNL     1      -9.477   0.448   5.727  1.00  0.00     0.134 A 
ATOM     73  F   UNL     1      -9.597   4.059   5.931  1.00  0.00    -0.206 F 
ATOM     74  C   UNL     1     -10.059   2.443   7.526  1.00  0.00     0.040 A 
ATOM     75  C   UNL     1      -9.894   0.128   7.028  1.00  0.00     0.040 A 
ATOM     76  F   UNL     1      -9.170  -0.622   4.993  1.00  0.00    -0.206 F 
ATOM     77  C   UNL     1     -10.174   1.126   7.940  1.00  0.00     0.006 A 
ENDBRANCH  56  70
BRANCH  57  78
ATOM     78  C   UNL     1      -5.107   4.267  -3.311  1.00  0.00     0.057 A 
ATOM     79  C   UNL     1      -3.741   4.419  -3.628  1.00  0.00     0.134 A 
ATOM     80  C   UNL     1      -5.796   3.235  -3.949  1.00  0.00     0.134 A 
ATOM     81  F   UNL     1      -3.030   5.412  -3.071  1.00  0.00    -0.206 F 
ATOM     82  C   UNL     1      -3.049   3.467  -4.376  1.00  0.00     0.040 A 
ATOM     83  C   UNL     1      -5.118   2.298  -4.740  1.00  0.00     0.040 A 
ATOM     84  F   UNL     1      -7.091   3.009  -3.680  1.00  0.00    -0.206 F 
ATOM     85  C   UNL     1      -3.733   2.377  -4.900  1.00  0.00     0.006 A 
ENDBRANCH  57  78
BRANCH  69  86
ATOM     86  C   UNL     1     -10.987   6.127   0.582  1.00  0.00     0.057 A 
ATOM     87  C   UNL     1     -11.388   7.329  -0.018  1.00  0.00     0.134 A 
ATOM     88  C   UNL     1     -12.004   5.404   1.236  1.00  0.00     0.134 A 
ATOM     89  F   UNL     1     -10.497   8.128  -0.624  1.00  0.00    -0.206 F 
ATOM     90  C   UNL     1     -12.720   7.763  -0.003  1.00  0.00     0.040 A 
ATOM     91  C   UNL     1     -13.325   5.854   1.305  1.00  0.00     0.040 A 
ATOM     92  F   UNL     1     -11.766   4.217   1.812  1.00  0.00    -0.206 F 
ATOM     93  C   UNL     1     -13.691   7.032   0.672  1.00  0.00     0.006 A 
ENDBRANCH  69  86
ENDBRANCH  43  44
ENDBRANCH  35  38
ENDBRANCH  33  34
ENDBRANCH  32  33
ENDBRANCH  31  32
ENDBRANCH  30  31
ENDBRANCH   3  30
TORSDOF 17
