REMARK SMILES O=C(NCCCCNC(=O)c1ccc(-c2c3nc(c(-c4c(F)cccc4F)c4ccc([nH]4)c(-c4c(F)cccc4F)c4nc(c(-c5c(F)cccc5F)c5ccc2[nH]5)C=C4)C=C3)cc1)c1ccc(C[C@H]2SC(=O)N(c3ccccc3)C2=O)cc1
REMARK SMILES IDX 5 1 4 2 3 3 1 4 2 5 65 7 66 8 84 9 67 10 83 11 68 12 69 13
REMARK SMILES IDX 70 14 71 15 81 16 72 17 74 18 82 19 73 20 75 21 76 22 80 23
REMARK SMILES IDX 77 24 79 25 78 26 6 27 7 28 8 29 9 30 10 32 11 33 12 34
REMARK SMILES IDX 64 35 13 36 63 37 14 38 15 39 16 40 57 41 17 42 62 43 56 44
REMARK SMILES IDX 58 45 18 46 61 47 55 48 54 49 19 51 45 52 28 53 44 54 29 55
REMARK SMILES IDX 32 56 43 57 59 58 30 59 31 60 42 62 60 63 33 64 20 65 21 66
REMARK SMILES IDX 26 67 22 68 23 69 25 70 27 71 24 72 46 73 47 74 52 75 48 76
REMARK SMILES IDX 49 77 51 78 53 79 50 80 34 81 35 82 40 83 36 84 37 85 39 86
REMARK SMILES IDX 41 87 38 88
REMARK H PARENT 3 6 8 31 58 50 32 61
REMARK Flexibility Score: inf
ROOT
ATOM      1  C   UNL     1       4.746   2.657  -8.390  1.00  0.00     0.023 C 
ENDROOT
BRANCH   1   2
ATOM      2  C   UNL     1       6.159   3.144  -8.081  1.00  0.00     0.116 C 
BRANCH   2   3
ATOM      3  N   UNL     1       6.486   4.376  -8.784  1.00  0.00    -0.352 N 
ATOM      4  O   UNL     1       6.860   6.597  -8.992  1.00  0.00    -0.269 OA
ATOM      5  C   UNL     1       6.761   5.617  -8.263  1.00  0.00     0.251 C 
ATOM      6  H   UNL     1       6.513   4.311  -9.767  1.00  0.00     0.163 HD
BRANCH   5   7
ATOM      7  C   UNL     1       6.917   5.761  -6.804  1.00  0.00     0.039 A 
ATOM      8  C   UNL     1       7.903   5.037  -6.132  1.00  0.00     0.014 A 
ATOM      9  C   UNL     1       6.054   6.604  -6.104  1.00  0.00     0.014 A 
ATOM     10  C   UNL     1       7.964   5.087  -4.742  1.00  0.00     0.004 A 
ATOM     11  C   UNL     1       6.108   6.639  -4.708  1.00  0.00     0.004 A 
ATOM     12  C   UNL     1       7.040   5.852  -4.013  1.00  0.00    -0.046 A 
BRANCH  12  13
ATOM     13  C   UNL     1       7.030   5.796  -2.500  1.00  0.00     0.060 C 
BRANCH  13  14
ATOM     14  C   UNL     1       6.233   4.612  -1.919  1.00  0.00     0.151 C 
ATOM     15  S   UNL     1       6.987   3.001  -2.271  1.00  0.00    -0.050 SA
ATOM     16  C   UNL     1       6.232   4.704  -0.405  1.00  0.00     0.248 C 
ATOM     17  C   UNL     1       7.723   2.906  -0.685  1.00  0.00     0.293 C 
ATOM     18  N   UNL     1       7.129   3.813   0.168  1.00  0.00    -0.240 N 
ATOM     19  O   UNL     1       5.568   5.560   0.176  1.00  0.00    -0.273 OA
ATOM     20  O   UNL     1       8.592   2.088  -0.460  1.00  0.00    -0.261 OA
BRANCH  18  21
ATOM     21  C   UNL     1       7.419   3.814   1.564  1.00  0.00     0.053 A 
ATOM     22  C   UNL     1       6.406   4.032   2.509  1.00  0.00     0.027 A 
ATOM     23  C   UNL     1       8.722   3.577   2.030  1.00  0.00     0.027 A 
ATOM     24  C   UNL     1       6.684   3.993   3.878  1.00  0.00     0.002 A 
ATOM     25  C   UNL     1       9.005   3.572   3.399  1.00  0.00     0.002 A 
ATOM     26  C   UNL     1       7.984   3.771   4.323  1.00  0.00     0.000 A 
ENDBRANCH  18  21
ENDBRANCH  13  14
ENDBRANCH  12  13
ENDBRANCH   5   7
ENDBRANCH   2   3
ENDBRANCH   1   2
BRANCH   1  27
ATOM     27  C   UNL     1       4.486   2.300  -9.854  1.00  0.00     0.023 C 
BRANCH  27  28
ATOM     28  C   UNL     1       5.452   1.291 -10.463  1.00  0.00     0.116 C 
BRANCH  28  29
ATOM     29  N   UNL     1       5.427  -0.000  -9.795  1.00  0.00    -0.352 N 
ATOM     30  C   UNL     1       5.348  -1.260 -10.338  1.00  0.00     0.251 C 
ATOM     31  H   UNL     1       5.473   0.033  -8.812  1.00  0.00     0.163 HD
ATOM     32  O   UNL     1       5.209  -2.235  -9.607  1.00  0.00    -0.269 OA
BRANCH  30  33
ATOM     33  C   UNL     1       5.401  -1.443 -11.806  1.00  0.00     0.039 A 
ATOM     34  C   UNL     1       4.509  -2.337 -12.406  1.00  0.00     0.014 A 
ATOM     35  C   UNL     1       6.327  -0.751 -12.590  1.00  0.00     0.014 A 
ATOM     36  C   UNL     1       4.509  -2.493 -13.795  1.00  0.00     0.010 A 
ATOM     37  C   UNL     1       6.273  -0.847 -13.979  1.00  0.00     0.010 A 
ATOM     38  C   UNL     1       5.372  -1.728 -14.596  1.00  0.00    -0.014 A 
BRANCH  38  39
ATOM     39  C   UNL     1       5.378  -1.864 -16.077  1.00  0.00     0.031 A 
ATOM     40  C   UNL     1       6.614  -2.364 -16.778  1.00  0.00     0.074 A 
ATOM     41  C   UNL     1       4.300  -1.495 -16.795  1.00  0.00     0.049 A 
ATOM     42  N   UNL     1       6.854  -2.470 -18.060  1.00  0.00    -0.248 NA
ATOM     43  C   UNL     1       7.741  -2.774 -15.923  1.00  0.00     0.031 C 
ATOM     44  C   UNL     1       3.054  -0.959 -16.244  1.00  0.00     0.029 A 
ATOM     45  N   UNL     1       4.084  -1.503 -18.152  1.00  0.00    -0.354 N 
ATOM     46  C   UNL     1       8.155  -2.947 -18.163  1.00  0.00     0.074 A 
ATOM     47  C   UNL     1       8.676  -3.051 -16.818  1.00  0.00     0.031 C 
ATOM     48  C   UNL     1       2.200  -0.706 -17.250  1.00  0.00     0.029 A 
ATOM     49  C   UNL     1       2.849  -1.025 -18.518  1.00  0.00     0.049 A 
ATOM     50  H   UNL     1       4.752  -1.821 -18.801  1.00  0.00     0.167 HD
ATOM     51  C   UNL     1       8.845  -3.297 -19.275  1.00  0.00     0.037 A 
ATOM     52  C   UNL     1       2.305  -0.854 -19.738  1.00  0.00     0.037 A 
ATOM     53  C   UNL     1       8.320  -3.219 -20.612  1.00  0.00     0.049 A 
ATOM     54  C   UNL     1       3.099  -1.243 -20.958  1.00  0.00     0.074 A 
ATOM     55  C   UNL     1       8.934  -3.573 -21.801  1.00  0.00     0.029 A 
ATOM     56  N   UNL     1       7.052  -2.764 -20.936  1.00  0.00    -0.354 N 
ATOM     57  N   UNL     1       4.311  -1.735 -21.035  1.00  0.00    -0.248 NA
ATOM     58  C   UNL     1       2.442  -1.063 -22.261  1.00  0.00     0.031 C 
ATOM     59  C   UNL     1       8.047  -3.302 -22.848  1.00  0.00     0.029 A 
ATOM     60  C   UNL     1       6.865  -2.826 -22.306  1.00  0.00     0.049 A 
ATOM     61  H   UNL     1       6.383  -2.444 -20.288  1.00  0.00     0.167 HD
ATOM     62  C   UNL     1       4.544  -1.964 -22.386  1.00  0.00     0.074 A 
ATOM     63  C   UNL     1       3.344  -1.567 -23.090  1.00  0.00     0.031 C 
ATOM     64  C   UNL     1       5.652  -2.458 -22.989  1.00  0.00     0.037 A 
BRANCH  51  65
ATOM     65  C   UNL     1      10.240  -3.819 -19.090  1.00  0.00     0.057 A 
ATOM     66  C   UNL     1      10.483  -5.081 -18.530  1.00  0.00     0.134 A 
ATOM     67  C   UNL     1      11.349  -3.080 -19.522  1.00  0.00     0.134 A 
ATOM     68  F   UNL     1       9.466  -5.833 -18.084  1.00  0.00    -0.206 F 
ATOM     69  C   UNL     1      11.778  -5.580 -18.389  1.00  0.00     0.040 A 
ATOM     70  C   UNL     1      12.647  -3.581 -19.412  1.00  0.00     0.040 A 
ATOM     71  F   UNL     1      11.187  -1.868 -20.072  1.00  0.00    -0.206 F 
ATOM     72  C   UNL     1      12.865  -4.833 -18.840  1.00  0.00     0.006 A 
ENDBRANCH  51  65
BRANCH  52  73
ATOM     73  C   UNL     1       0.933  -0.300 -19.884  1.00  0.00     0.057 A 
ATOM     74  C   UNL     1      -0.118  -1.088 -20.370  1.00  0.00     0.134 A 
ATOM     75  C   UNL     1       0.651   1.039 -19.590  1.00  0.00     0.134 A 
ATOM     76  F   UNL     1       0.093  -2.374 -20.688  1.00  0.00    -0.206 F 
ATOM     77  C   UNL     1      -1.389  -0.556 -20.594  1.00  0.00     0.040 A 
ATOM     78  C   UNL     1      -0.623   1.577 -19.781  1.00  0.00     0.040 A 
ATOM     79  F   UNL     1       1.611   1.845 -19.113  1.00  0.00    -0.206 F 
ATOM     80  C   UNL     1      -1.644   0.781 -20.298  1.00  0.00     0.006 A 
ENDBRANCH  52  73
BRANCH  64  81
ATOM     81  C   UNL     1       5.595  -2.665 -24.475  1.00  0.00     0.057 A 
ATOM     82  C   UNL     1       5.600  -1.594 -25.377  1.00  0.00     0.134 A 
ATOM     83  C   UNL     1       5.568  -3.961 -25.007  1.00  0.00     0.134 A 
ATOM     84  F   UNL     1       5.613  -0.329 -24.932  1.00  0.00    -0.206 F 
ATOM     85  C   UNL     1       5.551  -1.805 -26.757  1.00  0.00     0.040 A 
ATOM     86  C   UNL     1       5.549  -4.184 -26.384  1.00  0.00     0.040 A 
ATOM     87  F   UNL     1       5.573  -5.031 -24.198  1.00  0.00    -0.206 F 
ATOM     88  C   UNL     1       5.532  -3.103 -27.263  1.00  0.00     0.006 A 
ENDBRANCH  64  81
ENDBRANCH  38  39
ENDBRANCH  30  33
ENDBRANCH  28  29
ENDBRANCH  27  28
ENDBRANCH   1  27
TORSDOF 14
