REMARK SMILES O=C(C[C@H]([NH2+]Cc1ccco1)C(=O)NCCCCNC(=O)c1ccc(-c2c3nc(c(-c4c(F)cccc4F)c4ccc([nH]4)c(-c4c(F)cccc4F)c4nc(c(-c5c(F)cccc5F)c5ccc2[nH]5)C=C4)C=C3)cc1)Nc1ccc(O)cc1
REMARK SMILES IDX 15 1 14 2 12 3 13 4 4 6 3 7 2 8 1 9 76 10 77 12 78 13 83 14
REMARK SMILES IDX 79 15 82 16 80 17 81 18 5 20 6 23 7 24 8 25 11 26 9 27 10 28
REMARK SMILES IDX 16 29 17 30 18 31 19 32 20 33 21 35 22 36 23 37 75 38 24 39
REMARK SMILES IDX 74 40 25 41 26 42 27 43 68 44 28 45 73 46 67 47 69 48 29 49
REMARK SMILES IDX 72 50 66 51 65 52 30 54 56 55 39 56 55 57 40 58 43 59 54 60
REMARK SMILES IDX 70 61 41 62 42 63 53 65 71 66 44 67 31 68 32 69 37 70 33 71
REMARK SMILES IDX 34 72 36 73 38 74 35 75 57 76 58 77 63 78 59 79 60 80 62 81
REMARK SMILES IDX 64 82 61 83 45 84 46 85 51 86 47 87 48 88 50 89 52 90 49 91
REMARK H PARENT 14 5 76 11 81 19 5 21 5 22 19 34 69 53 43 64
REMARK Flexibility Score: inf
ROOT
ATOM      1  C   UNL     1       5.450   2.997   0.786  1.00  0.00     0.116 C 
ENDROOT
BRANCH   1   2
ATOM      2  N   UNL     1       5.176   2.559   2.131  1.00  0.00    -0.351 N 
ATOM      3  C   UNL     1       4.642   1.388   2.582  1.00  0.00     0.278 C 
ATOM      4  O   UNL     1       4.696   1.183   3.800  1.00  0.00    -0.268 OA
ATOM      5  H   UNL     1       5.411   3.206   2.835  1.00  0.00     0.163 HD
BRANCH   3   6
ATOM      6  C   UNL     1       3.989   0.331   1.652  1.00  0.00     0.282 C 
BRANCH   6   7
ATOM      7  C   UNL     1       4.971  -0.640   0.977  1.00  0.00     0.175 C 
BRANCH   7   8
ATOM      8  C   UNL     1       6.229  -0.048   0.378  1.00  0.00     0.230 C 
ATOM      9  O   UNL     1       7.256   0.032   1.043  1.00  0.00    -0.274 OA
ATOM     10  N   UNL     1       6.068   0.403  -0.924  1.00  0.00    -0.326 N 
ATOM     11  H   UNL     1       5.184   0.279  -1.339  1.00  0.00     0.169 HD
BRANCH  10  12
ATOM     12  C   UNL     1       7.067   1.027  -1.706  1.00  0.00     0.041 A 
ATOM     13  C   UNL     1       6.654   1.854  -2.758  1.00  0.00     0.030 A 
ATOM     14  C   UNL     1       8.434   0.875  -1.457  1.00  0.00     0.030 A 
ATOM     15  C   UNL     1       7.599   2.553  -3.515  1.00  0.00     0.048 A 
ATOM     16  C   UNL     1       9.380   1.561  -2.224  1.00  0.00     0.048 A 
ATOM     17  C   UNL     1       8.953   2.405  -3.239  1.00  0.00     0.115 A 
BRANCH  17  18
ATOM     18  O   UNL     1       9.842   3.113  -3.989  1.00  0.00    -0.508 OA
ATOM     19  H   UNL     1       9.535   3.678  -4.670  1.00  0.00     0.293 HD
ENDBRANCH  17  18
ENDBRANCH  10  12
ENDBRANCH   7   8
ENDBRANCH   6   7
BRANCH   6  20
ATOM     20  N   UNL     1       2.982   0.949   0.762  1.00  0.00    -0.329 N 
ATOM     21  H   UNL     1       3.450   1.252  -0.092  1.00  0.00     0.347 HD
ATOM     22  H   UNL     1       2.569   1.728   1.275  1.00  0.00     0.347 HD
BRANCH  20  23
ATOM     23  C   UNL     1       1.890   0.049   0.397  1.00  0.00     0.337 C 
BRANCH  23  24
ATOM     24  C   UNL     1       1.180   0.576  -0.801  1.00  0.00     0.157 A 
ATOM     25  C   UNL     1       1.218   0.246  -2.141  1.00  0.00     0.052 A 
ATOM     26  O   UNL     1       0.321   1.617  -0.603  1.00  0.00    -0.463 OA
ATOM     27  C   UNL     1       0.329   1.133  -2.795  1.00  0.00     0.042 A 
ATOM     28  C   UNL     1      -0.191   1.946  -1.816  1.00  0.00     0.195 A 
ENDBRANCH  23  24
ENDBRANCH  20  23
ENDBRANCH   6  20
ENDBRANCH   3   6
ENDBRANCH   1   2
BRANCH   1  29
ATOM     29  C   UNL     1       4.997   4.417   0.488  1.00  0.00     0.023 C 
BRANCH  29  30
ATOM     30  C   UNL     1       5.952   5.508   0.966  1.00  0.00     0.023 C 
BRANCH  30  31
ATOM     31  C   UNL     1       7.412   5.323   0.554  1.00  0.00     0.116 C 
BRANCH  31  32
ATOM     32  N   UNL     1       7.564   5.097  -0.878  1.00  0.00    -0.352 N 
ATOM     33  C   UNL     1       8.391   5.715  -1.777  1.00  0.00     0.251 C 
ATOM     34  H   UNL     1       6.986   4.394  -1.254  1.00  0.00     0.163 HD
ATOM     35  O   UNL     1       8.136   5.659  -2.980  1.00  0.00    -0.269 OA
BRANCH  33  36
ATOM     36  C   UNL     1       9.565   6.480  -1.311  1.00  0.00     0.039 A 
ATOM     37  C   UNL     1       9.966   7.597  -2.049  1.00  0.00     0.014 A 
ATOM     38  C   UNL     1      10.257   6.119  -0.153  1.00  0.00     0.014 A 
ATOM     39  C   UNL     1      10.981   8.416  -1.563  1.00  0.00     0.010 A 
ATOM     40  C   UNL     1      11.199   6.986   0.382  1.00  0.00     0.010 A 
ATOM     41  C   UNL     1      11.551   8.153  -0.308  1.00  0.00    -0.014 A 
BRANCH  41  42
ATOM     42  C   UNL     1      12.464   9.125   0.334  1.00  0.00     0.031 A 
ATOM     43  C   UNL     1      13.874   8.734   0.663  1.00  0.00     0.074 A 
ATOM     44  C   UNL     1      11.969  10.321   0.707  1.00  0.00     0.049 A 
ATOM     45  N   UNL     1      14.791   9.414   1.301  1.00  0.00    -0.248 NA
ATOM     46  C   UNL     1      14.299   7.385   0.257  1.00  0.00     0.031 C 
ATOM     47  C   UNL     1      10.585  10.764   0.505  1.00  0.00     0.029 A 
ATOM     48  N   UNL     1      12.563  11.379   1.344  1.00  0.00    -0.354 N 
ATOM     49  C   UNL     1      15.890   8.570   1.390  1.00  0.00     0.074 A 
ATOM     50  C   UNL     1      15.508   7.310   0.791  1.00  0.00     0.031 C 
ATOM     51  C   UNL     1      10.447  12.012   0.977  1.00  0.00     0.029 A 
ATOM     52  C   UNL     1      11.716  12.442   1.549  1.00  0.00     0.049 A 
ATOM     53  H   UNL     1      13.506  11.377   1.627  1.00  0.00     0.167 HD
ATOM     54  C   UNL     1      17.113   8.835   1.907  1.00  0.00     0.037 A 
ATOM     55  C   UNL     1      11.944  13.631   2.136  1.00  0.00     0.037 A 
ATOM     56  C   UNL     1      17.477  10.104   2.480  1.00  0.00     0.049 A 
ATOM     57  C   UNL     1      13.322  13.916   2.660  1.00  0.00     0.074 A 
ATOM     58  C   UNL     1      18.698  10.506   2.990  1.00  0.00     0.029 A 
ATOM     59  N   UNL     1      16.610  11.181   2.616  1.00  0.00    -0.354 N 
ATOM     60  N   UNL     1      14.376  13.135   2.675  1.00  0.00    -0.248 NA
ATOM     61  C   UNL     1      13.549  15.248   3.233  1.00  0.00     0.031 C 
ATOM     62  C   UNL     1      18.561  11.816   3.465  1.00  0.00     0.029 A 
ATOM     63  C   UNL     1      17.268  12.246   3.207  1.00  0.00     0.049 A 
ATOM     64  H   UNL     1      15.667  11.186   2.334  1.00  0.00     0.167 HD
ATOM     65  C   UNL     1      15.400  13.889   3.231  1.00  0.00     0.074 A 
ATOM     66  C   UNL     1      14.841  15.194   3.526  1.00  0.00     0.031 C 
ATOM     67  C   UNL     1      16.686  13.537   3.475  1.00  0.00     0.037 A 
BRANCH  54  68
ATOM     68  C   UNL     1      18.133   7.733   1.867  1.00  0.00     0.057 A 
ATOM     69  C   UNL     1      18.685   7.279   0.660  1.00  0.00     0.134 A 
ATOM     70  C   UNL     1      18.575   7.119   3.046  1.00  0.00     0.134 A 
ATOM     71  F   UNL     1      18.296   7.812  -0.508  1.00  0.00    -0.206 F 
ATOM     72  C   UNL     1      19.610   6.234   0.625  1.00  0.00     0.040 A 
ATOM     73  C   UNL     1      19.522   6.093   3.026  1.00  0.00     0.040 A 
ATOM     74  F   UNL     1      18.094   7.505   4.237  1.00  0.00    -0.206 F 
ATOM     75  C   UNL     1      20.035   5.641   1.812  1.00  0.00     0.006 A 
ENDBRANCH  54  68
BRANCH  55  76
ATOM     76  C   UNL     1      10.862  14.645   2.209  1.00  0.00     0.057 A 
ATOM     77  C   UNL     1      10.912  15.807   1.430  1.00  0.00     0.134 A 
ATOM     78  C   UNL     1       9.747  14.474   3.038  1.00  0.00     0.134 A 
ATOM     79  F   UNL     1      11.958  16.033   0.622  1.00  0.00    -0.206 F 
ATOM     80  C   UNL     1       9.905  16.772   1.488  1.00  0.00     0.040 A 
ATOM     81  C   UNL     1       8.720  15.418   3.087  1.00  0.00     0.040 A 
ATOM     82  F   UNL     1       9.630  13.375   3.798  1.00  0.00    -0.206 F 
ATOM     83  C   UNL     1       8.801  16.576   2.315  1.00  0.00     0.006 A 
ENDBRANCH  55  76
BRANCH  67  84
ATOM     84  C   UNL     1      17.580  14.596   4.045  1.00  0.00     0.057 A 
ATOM     85  C   UNL     1      17.470  15.022   5.374  1.00  0.00     0.134 A 
ATOM     86  C   UNL     1      18.585  15.172   3.258  1.00  0.00     0.134 A 
ATOM     87  F   UNL     1      16.518  14.518   6.174  1.00  0.00    -0.206 F 
ATOM     88  C   UNL     1      18.314  16.004   5.894  1.00  0.00     0.040 A 
ATOM     89  C   UNL     1      19.452  16.134   3.774  1.00  0.00     0.040 A 
ATOM     90  F   UNL     1      18.746  14.800   1.979  1.00  0.00    -0.206 F 
ATOM     91  C   UNL     1      19.313  16.558   5.095  1.00  0.00     0.006 A 
ENDBRANCH  67  84
ENDBRANCH  41  42
ENDBRANCH  33  36
ENDBRANCH  31  32
ENDBRANCH  30  31
ENDBRANCH  29  30
ENDBRANCH   1  29
TORSDOF 18
