REMARK SMILES Cc1ncccc1C(=O)NCCOCC(=O)NCCCCNC(=O)c1ccc(-c2c3nc(c(-c4c(F)cccc4F)c4ccc([nH]4)c(-c4c(F)cccc4F)c4nc(c(-c5c(F)cccc5F)c5ccc2[nH]5)C=C4)C=C3)cc1
REMARK SMILES IDX 18 1 17 2 15 3 16 4 14 6 13 7 12 8 11 9 10 10 8 11 9 12 7 14
REMARK SMILES IDX 1 15 2 16 3 17 4 18 6 19 5 20 19 21 20 22 21 23 22 24 23 25
REMARK SMILES IDX 24 27 25 28 26 29 78 30 27 31 77 32 28 33 29 34 30 35 71 36
REMARK SMILES IDX 31 37 76 38 70 39 72 40 32 41 75 42 69 43 68 44 33 46 59 47
REMARK SMILES IDX 42 48 58 49 43 50 46 51 57 52 73 53 44 54 45 55 56 57 74 58
REMARK SMILES IDX 47 59 34 60 35 61 40 62 36 63 37 64 39 65 41 66 38 67 60 68
REMARK SMILES IDX 61 69 66 70 62 71 63 72 65 73 67 74 64 75 48 76 49 77 54 78
REMARK SMILES IDX 50 79 51 80 53 81 55 82 52 83
REMARK H PARENT 17 5 10 13 22 26 72 45 46 56
REMARK Flexibility Score: inf
ROOT
ATOM      1  C   UNL     1       5.608  -3.793   4.130  1.00  0.00     0.116 C 
ENDROOT
BRANCH   1   2
ATOM      2  N   UNL     1       4.218  -4.160   3.943  1.00  0.00    -0.354 N 
ATOM      3  C   UNL     1       3.570  -4.439   2.772  1.00  0.00     0.245 C 
ATOM      4  O   UNL     1       2.388  -4.777   2.812  1.00  0.00    -0.272 OA
ATOM      5  H   UNL     1       3.673  -4.216   4.761  1.00  0.00     0.163 HD
BRANCH   3   6
ATOM      6  C   UNL     1       4.331  -4.298   1.445  1.00  0.00     0.260 C 
BRANCH   6   7
ATOM      7  O   UNL     1       4.903  -3.046   1.096  1.00  0.00    -0.370 OA
BRANCH   7   8
ATOM      8  C   UNL     1       4.148  -1.897   1.476  1.00  0.00     0.182 C 
BRANCH   8   9
ATOM      9  C   UNL     1       3.220  -1.353   0.394  1.00  0.00     0.144 C 
BRANCH   9  10
ATOM     10  N   UNL     1       2.222  -2.280  -0.096  1.00  0.00    -0.350 N 
ATOM     11  C   UNL     1       0.918  -2.103  -0.475  1.00  0.00     0.253 C 
ATOM     12  O   UNL     1       0.317  -3.077  -0.931  1.00  0.00    -0.269 OA
ATOM     13  H   UNL     1       2.539  -3.209  -0.170  1.00  0.00     0.163 HD
BRANCH  11  14
ATOM     14  C   UNL     1       0.171  -0.834  -0.306  1.00  0.00     0.061 A 
ATOM     15  C   UNL     1       1.862   0.751  -1.401  1.00  0.00     0.067 C 
ATOM     16  C   UNL     1       0.576   0.444  -0.701  1.00  0.00     0.050 A 
ATOM     17  N   UNL     1      -0.212   1.544  -0.517  1.00  0.00    -0.261 NA
ATOM     18  C   UNL     1      -1.456   1.368  -0.024  1.00  0.00     0.111 A 
ATOM     19  C   UNL     1      -1.141  -0.973   0.184  1.00  0.00     0.017 A 
ATOM     20  C   UNL     1      -1.970   0.135   0.319  1.00  0.00     0.021 A 
ENDBRANCH  11  14
ENDBRANCH   9  10
ENDBRANCH   8   9
ENDBRANCH   7   8
ENDBRANCH   6   7
ENDBRANCH   3   6
ENDBRANCH   1   2
BRANCH   1  21
ATOM     21  C   UNL     1       5.775  -2.385   4.701  1.00  0.00     0.023 C 
BRANCH  21  22
ATOM     22  C   UNL     1       5.123  -2.149   6.064  1.00  0.00     0.023 C 
BRANCH  22  23
ATOM     23  C   UNL     1       5.450  -3.186   7.131  1.00  0.00     0.116 C 
BRANCH  23  24
ATOM     24  N   UNL     1       6.878  -3.349   7.353  1.00  0.00    -0.352 N 
ATOM     25  C   UNL     1       7.551  -3.524   8.537  1.00  0.00     0.251 C 
ATOM     26  H   UNL     1       7.439  -3.331   6.544  1.00  0.00     0.163 HD
ATOM     27  O   UNL     1       8.778  -3.547   8.554  1.00  0.00    -0.269 OA
BRANCH  25  28
ATOM     28  C   UNL     1       6.790  -3.641   9.797  1.00  0.00     0.039 A 
ATOM     29  C   UNL     1       7.177  -2.862  10.889  1.00  0.00     0.014 A 
ATOM     30  C   UNL     1       5.681  -4.486   9.889  1.00  0.00     0.014 A 
ATOM     31  C   UNL     1       6.408  -2.877  12.054  1.00  0.00     0.010 A 
ATOM     32  C   UNL     1       4.874  -4.444  11.021  1.00  0.00     0.010 A 
ATOM     33  C   UNL     1       5.229  -3.639  12.114  1.00  0.00    -0.014 A 
BRANCH  33  34
ATOM     34  C   UNL     1       4.352  -3.603  13.310  1.00  0.00     0.031 A 
ATOM     35  C   UNL     1       4.141  -4.846  14.128  1.00  0.00     0.074 A 
ATOM     36  C   UNL     1       3.694  -2.469  13.620  1.00  0.00     0.049 A 
ATOM     37  N   UNL     1       3.364  -5.032  15.165  1.00  0.00    -0.248 NA
ATOM     38  C   UNL     1       4.881  -6.046  13.709  1.00  0.00     0.031 C 
ATOM     39  C   UNL     1       3.778  -1.210  12.878  1.00  0.00     0.029 A 
ATOM     40  N   UNL     1       2.816  -2.195  14.639  1.00  0.00    -0.354 N 
ATOM     41  C   UNL     1       3.511  -6.369  15.511  1.00  0.00     0.074 A 
ATOM     42  C   UNL     1       4.407  -6.961  14.541  1.00  0.00     0.031 C 
ATOM     43  C   UNL     1       3.005  -0.292  13.480  1.00  0.00     0.029 A 
ATOM     44  C   UNL     1       2.342  -0.906  14.626  1.00  0.00     0.049 A 
ATOM     45  H   UNL     1       2.551  -2.860  15.315  1.00  0.00     0.167 HD
ATOM     46  C   UNL     1       2.969  -7.037  16.556  1.00  0.00     0.037 A 
ATOM     47  C   UNL     1       1.468  -0.290  15.444  1.00  0.00     0.037 A 
ATOM     48  C   UNL     1       2.095  -6.439  17.532  1.00  0.00     0.049 A 
ATOM     49  C   UNL     1       0.869  -1.058  16.590  1.00  0.00     0.074 A 
ATOM     50  C   UNL     1       1.540  -7.016  18.661  1.00  0.00     0.029 A 
ATOM     51  N   UNL     1       1.647  -5.127  17.491  1.00  0.00    -0.354 N 
ATOM     52  N   UNL     1       1.071  -2.303  16.947  1.00  0.00    -0.248 NA
ATOM     53  C   UNL     1      -0.076  -0.332  17.450  1.00  0.00     0.031 C 
ATOM     54  C   UNL     1       0.722  -6.066  19.280  1.00  0.00     0.029 A 
ATOM     55  C   UNL     1       0.805  -4.883  18.563  1.00  0.00     0.049 A 
ATOM     56  H   UNL     1       1.892  -4.468  16.803  1.00  0.00     0.167 HD
ATOM     57  C   UNL     1       0.304  -2.501  18.088  1.00  0.00     0.074 A 
ATOM     58  C   UNL     1      -0.357  -1.243  18.370  1.00  0.00     0.031 C 
ATOM     59  C   UNL     1       0.162  -3.622  18.835  1.00  0.00     0.037 A 
BRANCH  46  60
ATOM     60  C   UNL     1       3.311  -8.492  16.696  1.00  0.00     0.057 A 
ATOM     61  C   UNL     1       4.596  -8.917  17.056  1.00  0.00     0.134 A 
ATOM     62  C   UNL     1       2.339  -9.479  16.491  1.00  0.00     0.134 A 
ATOM     63  F   UNL     1       5.577  -8.023  17.255  1.00  0.00    -0.206 F 
ATOM     64  C   UNL     1       4.911 -10.272  17.178  1.00  0.00     0.040 A 
ATOM     65  C   UNL     1       2.634 -10.836  16.638  1.00  0.00     0.040 A 
ATOM     66  F   UNL     1       1.086  -9.142  16.151  1.00  0.00    -0.206 F 
ATOM     67  C   UNL     1       3.926 -11.235  16.974  1.00  0.00     0.006 A 
ENDBRANCH  46  60
BRANCH  47  68
ATOM     68  C   UNL     1       1.124   1.138  15.227  1.00  0.00     0.057 A 
ATOM     69  C   UNL     1       1.555   2.125  16.121  1.00  0.00     0.134 A 
ATOM     70  C   UNL     1       0.352   1.550  14.135  1.00  0.00     0.134 A 
ATOM     71  F   UNL     1       2.283   1.789  17.197  1.00  0.00    -0.206 F 
ATOM     72  C   UNL     1       1.215   3.467  15.949  1.00  0.00     0.040 A 
ATOM     73  C   UNL     1       0.025   2.893  13.937  1.00  0.00     0.040 A 
ATOM     74  F   UNL     1      -0.086   0.654  13.238  1.00  0.00    -0.206 F 
ATOM     75  C   UNL     1       0.450   3.855  14.851  1.00  0.00     0.006 A 
ENDBRANCH  47  68
BRANCH  59  76
ATOM     76  C   UNL     1      -0.713  -3.530  20.051  1.00  0.00     0.057 A 
ATOM     77  C   UNL     1      -2.107  -3.444  19.956  1.00  0.00     0.134 A 
ATOM     78  C   UNL     1      -0.152  -3.565  21.334  1.00  0.00     0.134 A 
ATOM     79  F   UNL     1      -2.705  -3.393  18.756  1.00  0.00    -0.206 F 
ATOM     80  C   UNL     1      -2.912  -3.374  21.094  1.00  0.00     0.040 A 
ATOM     81  C   UNL     1      -0.948  -3.522  22.480  1.00  0.00     0.040 A 
ATOM     82  F   UNL     1       1.177  -3.654  21.496  1.00  0.00    -0.206 F 
ATOM     83  C   UNL     1      -2.333  -3.421  22.361  1.00  0.00     0.006 A 
ENDBRANCH  59  76
ENDBRANCH  33  34
ENDBRANCH  25  28
ENDBRANCH  23  24
ENDBRANCH  22  23
ENDBRANCH  21  22
ENDBRANCH   1  21
TORSDOF 16
