REMARK SMILES C[C@H]1[C@H](C(=O)NCCCCNC(=O)c2ccc(-c3c4nc(c(-c5c(F)cccc5F)c5ccc([nH]5)c(-c5c(F)cccc5F)c5nc(c(-c6c(F)cccc6F)c6ccc3[nH]6)C=C5)C=C4)cc2)CC[N@@H+]1[C@@H](c1ccccc1)c1ccco1
REMARK SMILES IDX 8 1 7 2 6 3 4 4 5 5 3 7 1 8 2 9 70 10 68 11 69 12 71 14
REMARK SMILES IDX 72 15 73 16 77 17 74 18 76 19 75 20 78 21 79 22 82 23 80 24
REMARK SMILES IDX 81 25 9 26 10 27 11 28 12 29 13 31 14 32 15 33 67 34 16 35
REMARK SMILES IDX 66 36 17 37 18 38 19 39 60 40 20 41 65 42 59 43 61 44 21 45
REMARK SMILES IDX 64 46 58 47 57 48 22 50 48 51 31 52 47 53 32 54 35 55 46 56
REMARK SMILES IDX 62 57 33 58 34 59 45 61 63 62 36 63 23 64 24 65 29 66 25 67
REMARK SMILES IDX 26 68 28 69 30 70 27 71 49 72 50 73 55 74 51 75 52 76 54 77
REMARK SMILES IDX 56 78 53 79 37 80 38 81 43 82 39 83 40 84 42 85 44 86 41 87
REMARK H PARENT 6 6 70 13 11 30 61 49 35 60
REMARK Flexibility Score: inf
ROOT
ATOM      1  C   UNL     1       0.580   0.819   4.236  1.00  0.00     0.023 C 
ENDROOT
BRANCH   1   2
ATOM      2  C   UNL     1      -0.383   1.372   3.179  1.00  0.00     0.116 C 
BRANCH   2   3
ATOM      3  N   UNL     1       0.226   2.383   2.339  1.00  0.00    -0.356 N 
ATOM      4  C   UNL     1       0.459   2.433   1.001  1.00  0.00     0.229 C 
ATOM      5  O   UNL     1       0.895   3.512   0.578  1.00  0.00    -0.275 OA
ATOM      6  H   UNL     1       0.528   3.182   2.828  1.00  0.00     0.163 HD
BRANCH   4   7
ATOM      7  C   UNL     1       0.186   1.307  -0.000  1.00  0.00     0.142 C 
ATOM      8  C   UNL     1       2.012  -0.374  -0.381  1.00  0.00     0.076 C 
ATOM      9  C   UNL     1       0.677  -0.111   0.330  1.00  0.00     0.194 C 
ATOM     10  N   UNL     1      -0.337  -1.060  -0.202  1.00  0.00    -0.319 N 
ATOM     11  C   UNL     1      -1.266   1.127  -0.404  1.00  0.00     0.081 C 
ATOM     12  C   UNL     1      -1.281  -0.282  -0.997  1.00  0.00     0.264 C 
ATOM     13  H   UNL     1       0.090  -1.740  -0.830  1.00  0.00     0.349 HD
BRANCH  10  14
ATOM     14  C   UNL     1      -0.872  -2.030   0.786  1.00  0.00     0.283 C 
BRANCH  14  15
ATOM     15  C   UNL     1      -1.812  -1.555   1.901  1.00  0.00     0.017 A 
ATOM     16  C   UNL     1      -1.605  -2.063   3.195  1.00  0.00     0.010 A 
ATOM     17  C   UNL     1      -2.977  -0.798   1.687  1.00  0.00     0.010 A 
ATOM     18  C   UNL     1      -2.494  -1.774   4.227  1.00  0.00     0.001 A 
ATOM     19  C   UNL     1      -3.814  -0.431   2.742  1.00  0.00     0.001 A 
ATOM     20  C   UNL     1      -3.565  -0.913   4.018  1.00  0.00     0.000 A 
ENDBRANCH  14  15
BRANCH  14  21
ATOM     21  C   UNL     1      -1.369  -3.347   0.222  1.00  0.00     0.165 A 
ATOM     22  C   UNL     1      -0.714  -4.471  -0.248  1.00  0.00     0.052 A 
ATOM     23  O   UNL     1      -2.688  -3.657   0.437  1.00  0.00    -0.463 OA
ATOM     24  C   UNL     1      -1.652  -5.536  -0.199  1.00  0.00     0.042 A 
ATOM     25  C   UNL     1      -2.835  -4.987   0.232  1.00  0.00     0.195 A 
ENDBRANCH  14  21
ENDBRANCH  10  14
ENDBRANCH   4   7
ENDBRANCH   2   3
ENDBRANCH   1   2
BRANCH   1  26
ATOM     26  C   UNL     1       0.472   1.458   5.627  1.00  0.00     0.023 C 
BRANCH  26  27
ATOM     27  C   UNL     1      -0.852   1.256   6.367  1.00  0.00     0.116 C 
BRANCH  27  28
ATOM     28  N   UNL     1      -1.173  -0.136   6.641  1.00  0.00    -0.352 N 
ATOM     29  C   UNL     1      -1.952  -0.690   7.636  1.00  0.00     0.251 C 
ATOM     30  H   UNL     1      -0.772  -0.785   6.019  1.00  0.00     0.163 HD
ATOM     31  O   UNL     1      -2.163  -1.895   7.666  1.00  0.00    -0.269 OA
BRANCH  29  32
ATOM     32  C   UNL     1      -2.441   0.162   8.737  1.00  0.00     0.039 A 
ATOM     33  C   UNL     1      -2.193  -0.270  10.044  1.00  0.00     0.014 A 
ATOM     34  C   UNL     1      -3.007   1.413   8.495  1.00  0.00     0.014 A 
ATOM     35  C   UNL     1      -2.362   0.618  11.101  1.00  0.00     0.010 A 
ATOM     36  C   UNL     1      -3.094   2.325   9.537  1.00  0.00     0.010 A 
ATOM     37  C   UNL     1      -2.731   1.945  10.839  1.00  0.00    -0.014 A 
BRANCH  37  38
ATOM     38  C   UNL     1      -2.665   2.971  11.902  1.00  0.00     0.031 A 
ATOM     39  C   UNL     1      -3.914   3.660  12.354  1.00  0.00     0.074 A 
ATOM     40  C   UNL     1      -1.456   3.330  12.380  1.00  0.00     0.049 A 
ATOM     41  N   UNL     1      -4.056   4.624  13.224  1.00  0.00    -0.248 NA
ATOM     42  C   UNL     1      -5.170   3.233  11.716  1.00  0.00     0.031 C 
ATOM     43  C   UNL     1      -0.173   2.769  11.942  1.00  0.00     0.029 A 
ATOM     44  N   UNL     1      -1.102   4.252  13.329  1.00  0.00    -0.354 N 
ATOM     45  C   UNL     1      -5.411   4.928  13.227  1.00  0.00     0.074 A 
ATOM     46  C   UNL     1      -6.038   4.091  12.229  1.00  0.00     0.031 C 
ATOM     47  C   UNL     1       0.821   3.334  12.645  1.00  0.00     0.029 A 
ATOM     48  C   UNL     1       0.252   4.317  13.558  1.00  0.00     0.049 A 
ATOM     49  H   UNL     1      -1.756   4.815  13.803  1.00  0.00     0.167 HD
ATOM     50  C   UNL     1      -6.071   5.809  14.014  1.00  0.00     0.037 A 
ATOM     51  C   UNL     1       0.950   5.084  14.416  1.00  0.00     0.037 A 
ATOM     52  C   UNL     1      -5.425   6.617  15.014  1.00  0.00     0.049 A 
ATOM     53  C   UNL     1       0.190   6.031  15.302  1.00  0.00     0.074 A 
ATOM     54  C   UNL     1      -5.992   7.507  15.907  1.00  0.00     0.029 A 
ATOM     55  N   UNL     1      -4.056   6.626  15.249  1.00  0.00    -0.354 N 
ATOM     56  N   UNL     1      -1.102   6.255  15.351  1.00  0.00    -0.248 NA
ATOM     57  C   UNL     1       0.976   6.821  16.257  1.00  0.00     0.031 C 
ATOM     58  C   UNL     1      -4.961   8.080  16.661  1.00  0.00     0.029 A 
ATOM     59  C   UNL     1      -3.757   7.516  16.266  1.00  0.00     0.049 A 
ATOM     60  H   UNL     1      -3.396   6.080  14.764  1.00  0.00     0.167 HD
ATOM     61  C   UNL     1      -1.288   7.195  16.354  1.00  0.00     0.074 A 
ATOM     62  C   UNL     1       0.024   7.483  16.900  1.00  0.00     0.031 C 
ATOM     63  C   UNL     1      -2.437   7.772  16.785  1.00  0.00     0.037 A 
BRANCH  50  64
ATOM     64  C   UNL     1      -7.554   5.927  13.817  1.00  0.00     0.057 A 
ATOM     65  C   UNL     1      -8.429   4.886  14.160  1.00  0.00     0.134 A 
ATOM     66  C   UNL     1      -8.117   7.087  13.270  1.00  0.00     0.134 A 
ATOM     67  F   UNL     1      -7.955   3.741  14.673  1.00  0.00    -0.206 F 
ATOM     68  C   UNL     1      -9.803   4.979  13.931  1.00  0.00     0.040 A 
ATOM     69  C   UNL     1      -9.494   7.202  13.063  1.00  0.00     0.040 A 
ATOM     70  F   UNL     1      -7.341   8.123  12.921  1.00  0.00    -0.206 F 
ATOM     71  C   UNL     1     -10.340   6.143  13.385  1.00  0.00     0.006 A 
ENDBRANCH  50  64
BRANCH  51  72
ATOM     72  C   UNL     1       2.428   4.952  14.510  1.00  0.00     0.057 A 
ATOM     73  C   UNL     1       3.030   4.381  15.638  1.00  0.00     0.134 A 
ATOM     74  C   UNL     1       3.273   5.377  13.478  1.00  0.00     0.134 A 
ATOM     75  F   UNL     1       2.277   3.965  16.667  1.00  0.00    -0.206 F 
ATOM     76  C   UNL     1       4.417   4.254  15.745  1.00  0.00     0.040 A 
ATOM     77  C   UNL     1       4.660   5.235  13.560  1.00  0.00     0.040 A 
ATOM     78  F   UNL     1       2.761   5.921  12.364  1.00  0.00    -0.206 F 
ATOM     79  C   UNL     1       5.236   4.677  14.700  1.00  0.00     0.006 A 
ENDBRANCH  51  72
BRANCH  63  80
ATOM     80  C   UNL     1      -2.318   8.749  17.915  1.00  0.00     0.057 A 
ATOM     81  C   UNL     1      -1.785  10.030  17.726  1.00  0.00     0.134 A 
ATOM     82  C   UNL     1      -2.783   8.419  19.193  1.00  0.00     0.134 A 
ATOM     83  F   UNL     1      -1.310  10.399  16.526  1.00  0.00    -0.206 F 
ATOM     84  C   UNL     1      -1.701  10.943  18.777  1.00  0.00     0.040 A 
ATOM     85  C   UNL     1      -2.728   9.332  20.245  1.00  0.00     0.040 A 
ATOM     86  F   UNL     1      -3.312   7.209  19.434  1.00  0.00    -0.206 F 
ATOM     87  C   UNL     1      -2.181  10.597  20.039  1.00  0.00     0.006 A 
ENDBRANCH  63  80
ENDBRANCH  37  38
ENDBRANCH  29  32
ENDBRANCH  27  28
ENDBRANCH  26  27
ENDBRANCH   1  26
TORSDOF 14
