REMARK SMILES O=C(NCCCCNC(=O)[C@@H](Cc1ccccc1)Nc1ccc(Cl)c(Br)c1)c1ccc(-c2c3nc(c(-c4c(F)cccc4F)c4ccc([nH]4)c(-c4c(F)cccc4F)c4nc(c(-c5c(F)cccc5F)c5ccc2[nH]5)C=C4)C=C3)cc1
REMARK SMILES IDX 5 1 4 2 3 3 1 4 2 5 28 7 29 8 81 9 30 10 80 11 31 12 32 13
REMARK SMILES IDX 33 14 74 15 34 16 79 17 73 18 75 19 35 20 78 21 72 22 71 23
REMARK SMILES IDX 36 25 62 26 45 27 61 28 46 29 49 30 60 31 76 32 47 33 48 34
REMARK SMILES IDX 59 36 77 37 50 38 37 39 38 40 43 41 39 42 40 43 42 44 44 45
REMARK SMILES IDX 41 46 63 47 64 48 69 49 65 50 66 51 68 52 70 53 67 54 51 55
REMARK SMILES IDX 52 56 57 57 53 58 54 59 56 60 58 61 55 62 6 63 7 64 8 65
REMARK SMILES IDX 9 66 10 68 11 69 12 70 13 71 14 72 18 73 15 74 17 75 16 76
REMARK SMILES IDX 19 77 20 79 21 80 27 81 22 82 25 83 23 84 26 85 24 86
REMARK H PARENT 3 6 75 24 49 35 8 67 19 78
REMARK Flexibility Score: inf
ROOT
ATOM      1  C   UNL     1       5.554  -2.241  -0.656  1.00  0.00     0.023 C 
ENDROOT
BRANCH   1   2
ATOM      2  C   UNL     1       4.896  -0.889  -0.421  1.00  0.00     0.116 C 
BRANCH   2   3
ATOM      3  N   UNL     1       3.446  -0.874  -0.592  1.00  0.00    -0.352 N 
ATOM      4  O   UNL     1       1.315  -0.277  -0.094  1.00  0.00    -0.269 OA
ATOM      5  C   UNL     1       2.505  -0.165   0.132  1.00  0.00     0.251 C 
ATOM      6  H   UNL     1       3.094  -1.441  -1.315  1.00  0.00     0.163 HD
BRANCH   5   7
ATOM      7  C   UNL     1       2.986   0.688   1.244  1.00  0.00     0.039 A 
ATOM      8  C   UNL     1       4.054   1.559   1.038  1.00  0.00     0.014 A 
ATOM      9  C   UNL     1       2.466   0.492   2.525  1.00  0.00     0.014 A 
ATOM     10  C   UNL     1       4.755   2.036   2.135  1.00  0.00     0.010 A 
ATOM     11  C   UNL     1       3.106   1.075   3.623  1.00  0.00     0.010 A 
ATOM     12  C   UNL     1       4.302   1.788   3.444  1.00  0.00    -0.014 A 
BRANCH  12  13
ATOM     13  C   UNL     1       5.122   2.263   4.590  1.00  0.00     0.031 A 
ATOM     14  C   UNL     1       5.725   1.295   5.578  1.00  0.00     0.074 A 
ATOM     15  C   UNL     1       5.402   3.577   4.687  1.00  0.00     0.049 A 
ATOM     16  N   UNL     1       6.506   1.543   6.601  1.00  0.00    -0.248 NA
ATOM     17  C   UNL     1       5.406  -0.131   5.408  1.00  0.00     0.031 C 
ATOM     18  C   UNL     1       4.883   4.615   3.793  1.00  0.00     0.029 A 
ATOM     19  N   UNL     1       6.224   4.259   5.545  1.00  0.00    -0.354 N 
ATOM     20  C   UNL     1       6.729   0.319   7.220  1.00  0.00     0.074 A 
ATOM     21  C   UNL     1       6.000  -0.674   6.462  1.00  0.00     0.031 C 
ATOM     22  C   UNL     1       5.468   5.783   4.091  1.00  0.00     0.029 A 
ATOM     23  C   UNL     1       6.342   5.593   5.242  1.00  0.00     0.049 A 
ATOM     24  H   UNL     1       6.685   3.835   6.304  1.00  0.00     0.167 HD
ATOM     25  C   UNL     1       7.475   0.048   8.319  1.00  0.00     0.037 A 
ATOM     26  C   UNL     1       7.070   6.562   5.825  1.00  0.00     0.037 A 
ATOM     27  C   UNL     1       8.248   1.025   9.040  1.00  0.00     0.049 A 
ATOM     28  C   UNL     1       7.909   6.229   7.020  1.00  0.00     0.074 A 
ATOM     29  C   UNL     1       9.069   0.836  10.140  1.00  0.00     0.029 A 
ATOM     30  N   UNL     1       8.307   2.374   8.727  1.00  0.00    -0.354 N 
ATOM     31  N   UNL     1       8.101   5.067   7.594  1.00  0.00    -0.248 NA
ATOM     32  C   UNL     1       8.618   7.346   7.659  1.00  0.00     0.031 C 
ATOM     33  C   UNL     1       9.601   2.077  10.509  1.00  0.00     0.029 A 
ATOM     34  C   UNL     1       9.138   3.031   9.619  1.00  0.00     0.049 A 
ATOM     35  H   UNL     1       7.829   2.802   7.980  1.00  0.00     0.167 HD
ATOM     36  C   UNL     1       8.954   5.311   8.662  1.00  0.00     0.074 A 
ATOM     37  C   UNL     1       9.262   6.726   8.638  1.00  0.00     0.031 C 
ATOM     38  C   UNL     1       9.430   4.440   9.584  1.00  0.00     0.037 A 
BRANCH  25  39
ATOM     39  C   UNL     1       7.475  -1.364   8.830  1.00  0.00     0.057 A 
ATOM     40  C   UNL     1       8.191  -2.386   8.196  1.00  0.00     0.134 A 
ATOM     41  C   UNL     1       6.788  -1.690  10.007  1.00  0.00     0.134 A 
ATOM     42  F   UNL     1       8.860  -2.143   7.059  1.00  0.00    -0.206 F 
ATOM     43  C   UNL     1       8.210  -3.687   8.705  1.00  0.00     0.040 A 
ATOM     44  C   UNL     1       6.816  -2.981  10.537  1.00  0.00     0.040 A 
ATOM     45  F   UNL     1       6.088  -0.755  10.667  1.00  0.00    -0.206 F 
ATOM     46  C   UNL     1       7.526  -3.985   9.883  1.00  0.00     0.006 A 
ENDBRANCH  25  39
BRANCH  26  47
ATOM     47  C   UNL     1       7.034   7.937   5.272  1.00  0.00     0.057 A 
ATOM     48  C   UNL     1       8.138   8.471   4.599  1.00  0.00     0.134 A 
ATOM     49  C   UNL     1       5.888   8.735   5.375  1.00  0.00     0.134 A 
ATOM     50  F   UNL     1       9.268   7.759   4.483  1.00  0.00    -0.206 F 
ATOM     51  C   UNL     1       8.104   9.753   4.049  1.00  0.00     0.040 A 
ATOM     52  C   UNL     1       5.833  10.008   4.809  1.00  0.00     0.040 A 
ATOM     53  F   UNL     1       4.796   8.273   6.002  1.00  0.00    -0.206 F 
ATOM     54  C   UNL     1       6.946  10.521   4.146  1.00  0.00     0.006 A 
ENDBRANCH  26  47
BRANCH  38  55
ATOM     55  C   UNL     1      10.342   5.002  10.631  1.00  0.00     0.057 A 
ATOM     56  C   UNL     1       9.851   5.766  11.696  1.00  0.00     0.134 A 
ATOM     57  C   UNL     1      11.721   4.770  10.577  1.00  0.00     0.134 A 
ATOM     58  F   UNL     1       8.540   6.035  11.792  1.00  0.00    -0.206 F 
ATOM     59  C   UNL     1      10.704   6.301  12.661  1.00  0.00     0.040 A 
ATOM     60  C   UNL     1      12.583   5.284  11.546  1.00  0.00     0.040 A 
ATOM     61  F   UNL     1      12.252   4.042   9.582  1.00  0.00    -0.206 F 
ATOM     62  C   UNL     1      12.075   6.058  12.589  1.00  0.00     0.006 A 
ENDBRANCH  38  55
ENDBRANCH  12  13
ENDBRANCH   5   7
ENDBRANCH   2   3
ENDBRANCH   1   2
BRANCH   1  63
ATOM     63  C   UNL     1       5.337  -2.801  -2.053  1.00  0.00     0.023 C 
BRANCH  63  64
ATOM     64  C   UNL     1       5.969  -1.990  -3.182  1.00  0.00     0.116 C 
BRANCH  64  65
ATOM     65  N   UNL     1       7.153  -2.654  -3.677  1.00  0.00    -0.354 N 
ATOM     66  C   UNL     1       7.321  -3.533  -4.700  1.00  0.00     0.242 C 
ATOM     67  H   UNL     1       7.979  -2.432  -3.190  1.00  0.00     0.163 HD
ATOM     68  O   UNL     1       8.411  -4.118  -4.736  1.00  0.00    -0.273 OA
BRANCH  66  69
ATOM     69  C   UNL     1       6.264  -3.795  -5.802  1.00  0.00     0.173 C 
BRANCH  69  70
ATOM     70  C   UNL     1       5.123  -4.768  -5.433  1.00  0.00     0.070 C 
BRANCH  70  71
ATOM     71  C   UNL     1       3.916  -4.356  -4.616  1.00  0.00    -0.045 A 
ATOM     72  C   UNL     1       3.130  -3.242  -4.939  1.00  0.00     0.004 A 
ATOM     73  C   UNL     1       3.493  -5.176  -3.553  1.00  0.00     0.004 A 
ATOM     74  C   UNL     1       2.010  -2.907  -4.169  1.00  0.00     0.000 A 
ATOM     75  C   UNL     1       2.366  -4.850  -2.792  1.00  0.00     0.000 A 
ATOM     76  C   UNL     1       1.632  -3.705  -3.091  1.00  0.00     0.000 A 
ENDBRANCH  70  71
ENDBRANCH  69  70
BRANCH  69  77
ATOM     77  N   UNL     1       5.845  -2.553  -6.477  1.00  0.00    -0.373 N 
ATOM     78  H   UNL     1       5.556  -1.796  -5.918  1.00  0.00     0.161 HD
BRANCH  77  79
ATOM     79  C   UNL     1       5.835  -2.390  -7.854  1.00  0.00     0.036 A 
ATOM     80  C   UNL     1       5.757  -1.093  -8.378  1.00  0.00     0.027 A 
ATOM     81  C   UNL     1       5.867  -3.452  -8.766  1.00  0.00     0.043 A 
ATOM     82  C   UNL     1       5.780  -0.859  -9.758  1.00  0.00     0.024 A 
ATOM     83  C   UNL     1       5.896  -3.230 -10.151  1.00  0.00     0.038 A 
ATOM     84  C   UNL     1       5.862  -1.928 -10.650  1.00  0.00     0.055 A 
ATOM     85  Br  UNL     1       5.995  -4.758 -11.278  1.00  0.00    -0.049 Br
ATOM     86  Cl  UNL     1       5.917  -1.566 -12.337  1.00  0.00    -0.083 Cl
ENDBRANCH  77  79
ENDBRANCH  69  77
ENDBRANCH  66  69
ENDBRANCH  64  65
ENDBRANCH  63  64
ENDBRANCH   1  63
TORSDOF 15
