REMARK SMILES C[C@H](C(=O)NCCCCNC(=O)c1ccc(-c2c3nc(c(-c4c(F)cccc4F)c4ccc([nH]4)c(-c4c(F)cccc4F)c4nc(c(-c5c(F)cccc5F)c5ccc2[nH]5)C=C4)C=C3)cc1)S(=O)(=O)NC1COC1
REMARK SMILES IDX 7 1 6 2 5 3 3 4 4 5 2 7 1 8 67 9 68 10 69 11 70 12 71 14
REMARK SMILES IDX 72 15 74 16 73 17 8 18 9 19 10 20 11 21 12 23 13 24 14 25
REMARK SMILES IDX 66 26 15 27 65 28 16 29 17 30 18 31 59 32 19 33 64 34 58 35
REMARK SMILES IDX 60 36 20 37 63 38 57 39 56 40 21 42 47 43 30 44 46 45 31 46
REMARK SMILES IDX 34 47 45 48 61 49 32 50 33 51 44 53 62 54 35 55 22 56 23 57
REMARK SMILES IDX 28 58 24 59 25 60 27 61 29 62 26 63 48 64 49 65 54 66 50 67
REMARK SMILES IDX 51 68 53 69 55 70 52 71 36 72 37 73 42 74 38 75 39 76 41 77
REMARK SMILES IDX 43 78 40 79
REMARK H PARENT 5 6 70 13 10 22 60 41 34 52
REMARK Flexibility Score: inf
ROOT
ATOM      1  C   UNL     1      -0.529   3.323  -0.266  1.00  0.00     0.023 C 
ENDROOT
BRANCH   1   2
ATOM      2  C   UNL     1       0.609   2.516  -0.894  1.00  0.00     0.116 C 
BRANCH   2   3
ATOM      3  N   UNL     1       1.079   1.449  -0.028  1.00  0.00    -0.355 N 
ATOM      4  C   UNL     1       1.084   0.099  -0.206  1.00  0.00     0.239 C 
ATOM      5  O   UNL     1       1.603  -0.563   0.697  1.00  0.00    -0.274 OA
ATOM      6  H   UNL     1       1.456   1.752   0.830  1.00  0.00     0.163 HD
BRANCH   4   7
ATOM      7  C   UNL     1       0.548  -0.548  -1.461  1.00  0.00     0.209 C 
ATOM      8  C   UNL     1       1.169  -1.929  -1.671  1.00  0.00     0.037 C 
BRANCH   7   9
ATOM      9  S   UNL     1      -1.245  -0.658  -1.417  1.00  0.00     0.223 S 
ATOM     10  O   UNL     1      -1.820   0.655  -1.250  1.00  0.00    -0.212 OA
ATOM     11  O   UNL     1      -1.677  -1.474  -2.534  1.00  0.00    -0.212 OA
BRANCH   9  12
ATOM     12  N   UNL     1      -1.649  -1.546  -0.061  1.00  0.00    -0.207 NA
ATOM     13  H   UNL     1      -1.141  -2.424  -0.163  1.00  0.00     0.141 HD
BRANCH  12  14
ATOM     14  C   UNL     1      -1.456  -1.154   1.373  1.00  0.00     0.121 C 
ATOM     15  C   UNL     1      -1.900   0.235   1.863  1.00  0.00     0.182 C 
ATOM     16  C   UNL     1      -2.466  -1.656   2.417  1.00  0.00     0.182 C 
ATOM     17  O   UNL     1      -2.522  -0.346   3.039  1.00  0.00    -0.378 OA
ENDBRANCH  12  14
ENDBRANCH   9  12
ENDBRANCH   7   9
ENDBRANCH   4   7
ENDBRANCH   2   3
ENDBRANCH   1   2
BRANCH   1  18
ATOM     18  C   UNL     1      -0.200   4.014   1.057  1.00  0.00     0.023 C 
BRANCH  18  19
ATOM     19  C   UNL     1       0.997   4.952   1.021  1.00  0.00     0.116 C 
BRANCH  19  20
ATOM     20  N   UNL     1       0.848   6.021   0.046  1.00  0.00    -0.352 N 
ATOM     21  C   UNL     1       0.939   7.381   0.212  1.00  0.00     0.251 C 
ATOM     22  H   UNL     1       0.651   5.724  -0.872  1.00  0.00     0.163 HD
ATOM     23  O   UNL     1       0.634   8.132  -0.710  1.00  0.00    -0.269 OA
BRANCH  21  24
ATOM     24  C   UNL     1       1.371   7.945   1.509  1.00  0.00     0.039 A 
ATOM     25  C   UNL     1       0.665   9.028   2.039  1.00  0.00     0.014 A 
ATOM     26  C   UNL     1       2.457   7.409   2.206  1.00  0.00     0.014 A 
ATOM     27  C   UNL     1       0.997   9.520   3.303  1.00  0.00     0.010 A 
ATOM     28  C   UNL     1       2.735   7.846   3.498  1.00  0.00     0.010 A 
ATOM     29  C   UNL     1       2.004   8.902   4.063  1.00  0.00    -0.014 A 
BRANCH  29  30
ATOM     30  C   UNL     1       2.287   9.331   5.457  1.00  0.00     0.031 A 
ATOM     31  C   UNL     1       3.632   9.895   5.823  1.00  0.00     0.074 A 
ATOM     32  C   UNL     1       1.350   9.149   6.409  1.00  0.00     0.049 A 
ATOM     33  N   UNL     1       4.083  10.258   6.997  1.00  0.00    -0.248 NA
ATOM     34  C   UNL     1       4.608  10.048   4.732  1.00  0.00     0.031 C 
ATOM     35  C   UNL     1       0.024   8.565   6.193  1.00  0.00     0.029 A 
ATOM     36  N   UNL     1       1.374   9.424   7.754  1.00  0.00    -0.354 N 
ATOM     37  C   UNL     1       5.393  10.671   6.788  1.00  0.00     0.074 A 
ATOM     38  C   UNL     1       5.683  10.465   5.386  1.00  0.00     0.031 C 
ATOM     39  C   UNL     1      -0.645   8.548   7.356  1.00  0.00     0.029 A 
ATOM     40  C   UNL     1       0.216   9.076   8.409  1.00  0.00     0.049 A 
ATOM     41  H   UNL     1       2.147   9.833   8.207  1.00  0.00     0.167 HD
ATOM     42  C   UNL     1       6.268  11.194   7.680  1.00  0.00     0.037 A 
ATOM     43  C   UNL     1      -0.111   9.162   9.712  1.00  0.00     0.037 A 
ATOM     44  C   UNL     1       5.970  11.418   9.071  1.00  0.00     0.049 A 
ATOM     45  C   UNL     1       0.886   9.733  10.683  1.00  0.00     0.074 A 
ATOM     46  C   UNL     1       6.769  12.002  10.039  1.00  0.00     0.029 A 
ATOM     47  N   UNL     1       4.782  11.066   9.693  1.00  0.00    -0.354 N 
ATOM     48  N   UNL     1       2.094  10.189  10.456  1.00  0.00    -0.248 NA
ATOM     49  C   UNL     1       0.472   9.806  12.091  1.00  0.00     0.031 C 
ATOM     50  C   UNL     1       6.085  11.955  11.258  1.00  0.00     0.029 A 
ATOM     51  C   UNL     1       4.838  11.395  11.038  1.00  0.00     0.049 A 
ATOM     52  H   UNL     1       4.013  10.645   9.245  1.00  0.00     0.167 HD
ATOM     53  C   UNL     1       2.571  10.630  11.683  1.00  0.00     0.074 A 
ATOM     54  C   UNL     1       1.516  10.403  12.648  1.00  0.00     0.031 C 
ATOM     55  C   UNL     1       3.776  11.172  11.985  1.00  0.00     0.037 A 
BRANCH  42  56
ATOM     56  C   UNL     1       7.634  11.568   7.183  1.00  0.00     0.057 A 
ATOM     57  C   UNL     1       7.837  12.665   6.335  1.00  0.00     0.134 A 
ATOM     58  C   UNL     1       8.767  10.861   7.604  1.00  0.00     0.134 A 
ATOM     59  F   UNL     1       6.794  13.379   5.885  1.00  0.00    -0.206 F 
ATOM     60  C   UNL     1       9.115  13.034   5.911  1.00  0.00     0.040 A 
ATOM     61  C   UNL     1      10.052  11.237   7.209  1.00  0.00     0.040 A 
ATOM     62  F   UNL     1       8.646   9.803   8.422  1.00  0.00    -0.206 F 
ATOM     63  C   UNL     1      10.228  12.324   6.356  1.00  0.00     0.006 A 
ENDBRANCH  42  56
BRANCH  43  64
ATOM     64  C   UNL     1      -1.443   8.702  10.183  1.00  0.00     0.057 A 
ATOM     65  C   UNL     1      -2.392   9.610  10.669  1.00  0.00     0.134 A 
ATOM     66  C   UNL     1      -1.790   7.346  10.186  1.00  0.00     0.134 A 
ATOM     67  F   UNL     1      -2.111  10.921  10.711  1.00  0.00    -0.206 F 
ATOM     68  C   UNL     1      -3.624   9.184  11.168  1.00  0.00     0.040 A 
ATOM     69  C   UNL     1      -3.030   6.909  10.654  1.00  0.00     0.040 A 
ATOM     70  F   UNL     1      -0.930   6.425   9.726  1.00  0.00    -0.206 F 
ATOM     71  C   UNL     1      -3.947   7.829  11.157  1.00  0.00     0.006 A 
ENDBRANCH  43  64
BRANCH  55  72
ATOM     72  C   UNL     1       4.003  11.595  13.408  1.00  0.00     0.057 A 
ATOM     73  C   UNL     1       4.169  10.664  14.441  1.00  0.00     0.134 A 
ATOM     74  C   UNL     1       4.092  12.953  13.741  1.00  0.00     0.134 A 
ATOM     75  F   UNL     1       4.082   9.348  14.191  1.00  0.00    -0.206 F 
ATOM     76  C   UNL     1       4.388  11.068  15.759  1.00  0.00     0.040 A 
ATOM     77  C   UNL     1       4.341  13.369  15.050  1.00  0.00     0.040 A 
ATOM     78  F   UNL     1       3.953  13.897  12.798  1.00  0.00    -0.206 F 
ATOM     79  C   UNL     1       4.482  12.425  16.064  1.00  0.00     0.006 A 
ENDBRANCH  55  72
ENDBRANCH  29  30
ENDBRANCH  21  24
ENDBRANCH  19  20
ENDBRANCH  18  19
ENDBRANCH   1  18
TORSDOF 14
