REMARK SMILES C#Cc1cc(Cl)cc2c1O[C@H](C(F)(F)F)C(C(=O)NCCCCNC(=O)c1ccc(-c3c4nc(c(-c5c(F)cccc5F)c5ccc([nH]5)c(-c5c(F)cccc5F)c5nc(c(-c6c(F)cccc6F)c6ccc3[nH]6)C=C5)C=C4)cc1)=C2
REMARK SMILES IDX 22 1 21 2 20 3 19 4 17 5 18 6 16 8 3 9 4 10 9 11 5 12 8 13
REMARK SMILES IDX 10 14 6 15 7 16 81 17 11 18 2 19 1 20 12 21 13 22 14 23
REMARK SMILES IDX 15 24 23 25 24 26 25 27 26 29 27 30 28 31 80 32 29 33 79 34
REMARK SMILES IDX 30 35 31 36 32 37 73 38 33 39 78 40 72 41 74 42 34 43 77 44
REMARK SMILES IDX 71 45 70 46 35 48 61 49 44 50 60 51 45 52 48 53 59 54 75 55
REMARK SMILES IDX 46 56 47 57 58 59 76 60 49 61 36 62 37 63 42 64 38 65 39 66
REMARK SMILES IDX 41 67 43 68 40 69 62 70 63 71 68 72 64 73 65 74 67 75 69 76
REMARK SMILES IDX 66 77 50 78 51 79 56 80 52 81 53 82 55 83 57 84 54 85
REMARK H PARENT 19 7 24 28 74 47 48 58
REMARK Flexibility Score: inf
ROOT
ATOM      1  C   UNL     1      -2.612  -8.557   1.457  1.00  0.00     0.023 C 
ENDROOT
BRANCH   1   2
ATOM      2  C   UNL     1      -2.182  -7.102   1.324  1.00  0.00     0.023 C 
BRANCH   2   3
ATOM      3  C   UNL     1      -2.617  -6.472   0.007  1.00  0.00     0.116 C 
BRANCH   3   4
ATOM      4  N   UNL     1      -3.980  -5.970   0.063  1.00  0.00    -0.352 N 
ATOM      5  C   UNL     1      -4.591  -4.761   0.002  1.00  0.00     0.251 C 
ATOM      6  O   UNL     1      -5.824  -4.780   0.047  1.00  0.00    -0.270 OA
ATOM      7  H   UNL     1      -4.631  -6.700   0.174  1.00  0.00     0.163 HD
BRANCH   5   8
ATOM      8  C   UNL     1      -3.874  -3.456  -0.106  1.00  0.00     0.067 C 
ATOM      9  C   UNL     1      -1.870   0.238  -0.087  1.00  0.00     0.068 A 
ATOM     10  C   UNL     1      -2.597   1.425  -0.107  1.00  0.00     0.041 A 
ATOM     11  C   UNL     1      -2.549  -0.987  -0.070  1.00  0.00     0.143 A 
ATOM     12  C   UNL     1      -3.991   1.375  -0.106  1.00  0.00     0.043 A 
ATOM     13  C   UNL     1      -3.946  -1.042  -0.061  1.00  0.00     0.020 A 
ATOM     14  O   UNL     1      -1.778  -2.111  -0.009  1.00  0.00    -0.474 OA
ATOM     15  Cl  UNL     1      -4.890   2.843  -0.120  1.00  0.00    -0.084 Cl
ATOM     16  C   UNL     1      -4.670   0.152  -0.081  1.00  0.00     0.032 A 
ATOM     17  C   UNL     1      -4.614  -2.339   0.020  1.00  0.00     0.025 C 
ATOM     18  C   UNL     1      -2.402  -3.360  -0.363  1.00  0.00     0.314 C 
BRANCH   9  19
ATOM     19  C   UNL     1      -0.436   0.266  -0.084  1.00  0.00    -0.067 C 
ATOM     20  C   UNL     1       0.765   0.210  -0.083  1.00  0.00     0.010 C 
ENDBRANCH   9  19
BRANCH  18  21
ATOM     21  C   UNL     1      -2.031  -3.724  -1.814  1.00  0.00     0.429 C 
ATOM     22  F   UNL     1      -0.714  -4.037  -1.902  1.00  0.00    -0.167 F 
ATOM     23  F   UNL     1      -2.708  -4.804  -2.273  1.00  0.00    -0.167 F 
ATOM     24  F   UNL     1      -2.271  -2.716  -2.680  1.00  0.00    -0.167 F 
ENDBRANCH  18  21
ENDBRANCH   5   8
ENDBRANCH   3   4
ENDBRANCH   2   3
ENDBRANCH   1   2
BRANCH   1  25
ATOM     25  C   UNL     1      -2.183  -9.446   0.296  1.00  0.00     0.116 C 
BRANCH  25  26
ATOM     26  N   UNL     1      -0.749  -9.408   0.037  1.00  0.00    -0.352 N 
ATOM     27  C   UNL     1       0.100 -10.471  -0.160  1.00  0.00     0.251 C 
ATOM     28  H   UNL     1      -0.339  -8.514  -0.001  1.00  0.00     0.163 HD
ATOM     29  O   UNL     1       1.312 -10.313  -0.239  1.00  0.00    -0.269 OA
BRANCH  27  30
ATOM     30  C   UNL     1      -0.491 -11.818  -0.234  1.00  0.00     0.039 A 
ATOM     31  C   UNL     1      -0.035 -12.805   0.638  1.00  0.00     0.014 A 
ATOM     32  C   UNL     1      -1.580 -12.048  -1.081  1.00  0.00     0.014 A 
ATOM     33  C   UNL     1      -0.721 -14.015   0.707  1.00  0.00     0.010 A 
ATOM     34  C   UNL     1      -2.320 -13.211  -0.933  1.00  0.00     0.010 A 
ATOM     35  C   UNL     1      -1.890 -14.211  -0.048  1.00  0.00    -0.014 A 
BRANCH  35  36
ATOM     36  C   UNL     1      -2.660 -15.473   0.053  1.00  0.00     0.031 A 
ATOM     37  C   UNL     1      -2.790 -16.360  -1.151  1.00  0.00     0.074 A 
ATOM     38  C   UNL     1      -3.262 -15.802   1.212  1.00  0.00     0.049 A 
ATOM     39  N   UNL     1      -3.429 -17.495  -1.274  1.00  0.00    -0.248 NA
ATOM     40  C   UNL     1      -2.135 -15.903  -2.388  1.00  0.00     0.031 C 
ATOM     41  C   UNL     1      -3.235 -15.001   2.437  1.00  0.00     0.029 A 
ATOM     42  N   UNL     1      -4.010 -16.902   1.550  1.00  0.00    -0.354 N 
ATOM     43  C   UNL     1      -3.249 -17.884  -2.594  1.00  0.00     0.074 A 
ATOM     44  C   UNL     1      -2.512 -16.830  -3.253  1.00  0.00     0.031 C 
ATOM     45  C   UNL     1      -3.895 -15.657   3.404  1.00  0.00     0.029 A 
ATOM     46  C   UNL     1      -4.431 -16.901   2.857  1.00  0.00     0.049 A 
ATOM     47  H   UNL     1      -4.223 -17.623   0.915  1.00  0.00     0.167 HD
ATOM     48  C   UNL     1      -3.630 -19.035  -3.193  1.00  0.00     0.037 A 
ATOM     49  C   UNL     1      -5.165 -17.802   3.538  1.00  0.00     0.037 A 
ATOM     50  C   UNL     1      -4.354 -20.083  -2.527  1.00  0.00     0.049 A 
ATOM     51  C   UNL     1      -5.625 -19.050   2.837  1.00  0.00     0.074 A 
ATOM     52  C   UNL     1      -4.757 -21.304  -3.035  1.00  0.00     0.029 A 
ATOM     53  N   UNL     1      -4.788 -20.033  -1.210  1.00  0.00    -0.354 N 
ATOM     54  N   UNL     1      -5.393 -19.438   1.605  1.00  0.00    -0.248 NA
ATOM     55  C   UNL     1      -6.443 -19.988   3.617  1.00  0.00     0.031 C 
ATOM     56  C   UNL     1      -5.493 -21.964  -2.049  1.00  0.00     0.029 A 
ATOM     57  C   UNL     1      -5.488 -21.187  -0.901  1.00  0.00     0.049 A 
ATOM     58  H   UNL     1      -4.623 -19.287  -0.588  1.00  0.00     0.167 HD
ATOM     59  C   UNL     1      -6.016 -20.672   1.469  1.00  0.00     0.074 A 
ATOM     60  C   UNL     1      -6.619 -20.977   2.751  1.00  0.00     0.031 C 
ATOM     61  C   UNL     1      -6.083 -21.478   0.381  1.00  0.00     0.037 A 
BRANCH  48  62
ATOM     62  C   UNL     1      -3.264 -19.220  -4.637  1.00  0.00     0.057 A 
ATOM     63  C   UNL     1      -1.934 -19.384  -5.048  1.00  0.00     0.134 A 
ATOM     64  C   UNL     1      -4.255 -19.279  -5.625  1.00  0.00     0.134 A 
ATOM     65  F   UNL     1      -0.933 -19.322  -4.156  1.00  0.00    -0.206 F 
ATOM     66  C   UNL     1      -1.601 -19.576  -6.390  1.00  0.00     0.040 A 
ATOM     67  C   UNL     1      -3.937 -19.506  -6.965  1.00  0.00     0.040 A 
ATOM     68  F   UNL     1      -5.549 -19.134  -5.303  1.00  0.00    -0.206 F 
ATOM     69  C   UNL     1      -2.606 -19.648  -7.351  1.00  0.00     0.006 A 
ENDBRANCH  48  62
BRANCH  49  70
ATOM     70  C   UNL     1      -5.472 -17.566   4.972  1.00  0.00     0.057 A 
ATOM     71  C   UNL     1      -4.896 -18.358   5.973  1.00  0.00     0.134 A 
ATOM     72  C   UNL     1      -6.315 -16.525   5.382  1.00  0.00     0.134 A 
ATOM     73  F   UNL     1      -4.094 -19.382   5.645  1.00  0.00    -0.206 F 
ATOM     74  C   UNL     1      -5.147 -18.125   7.326  1.00  0.00     0.040 A 
ATOM     75  C   UNL     1      -6.552 -16.263   6.733  1.00  0.00     0.040 A 
ATOM     76  F   UNL     1      -6.894 -15.725   4.474  1.00  0.00    -0.206 F 
ATOM     77  C   UNL     1      -5.969 -17.067   7.709  1.00  0.00     0.006 A 
ENDBRANCH  49  70
BRANCH  61  78
ATOM     78  C   UNL     1      -6.822 -22.779   0.517  1.00  0.00     0.057 A 
ATOM     79  C   UNL     1      -8.217 -22.826   0.636  1.00  0.00     0.134 A 
ATOM     80  C   UNL     1      -6.140 -24.000   0.435  1.00  0.00     0.134 A 
ATOM     81  F   UNL     1      -8.931 -21.694   0.728  1.00  0.00    -0.206 F 
ATOM     82  C   UNL     1      -8.904 -24.040   0.683  1.00  0.00     0.040 A 
ATOM     83  C   UNL     1      -6.819 -25.219   0.447  1.00  0.00     0.040 A 
ATOM     84  F   UNL     1      -4.804 -24.028   0.305  1.00  0.00    -0.206 F 
ATOM     85  C   UNL     1      -8.205 -25.241   0.575  1.00  0.00     0.006 A 
ENDBRANCH  61  78
ENDBRANCH  35  36
ENDBRANCH  27  30
ENDBRANCH  25  26
ENDBRANCH   1  25
TORSDOF 13
