REMARK SMILES O=C(NCCCCNC(=O)c1cc(-c2ccccc2)nc(Nc2nc3ccccc3s2)n1)c1ccc(-c2c3nc(c(-c4c(F)cccc4F)c4ccc([nH]4)c(-c4c(F)cccc4F)c4nc(c(-c5c(F)cccc5F)c5ccc2[nH]5)C=C4)C=C3)cc1
REMARK SMILES IDX 5 1 4 2 3 3 1 4 2 5 33 7 34 8 86 9 35 10 85 11 36 12 37 13
REMARK SMILES IDX 38 14 79 15 39 16 84 17 78 18 80 19 40 20 83 21 77 22 76 23
REMARK SMILES IDX 41 25 67 26 50 27 66 28 51 29 54 30 65 31 81 32 52 33 53 34
REMARK SMILES IDX 64 36 82 37 55 38 42 39 43 40 48 41 44 42 45 43 47 44 49 45
REMARK SMILES IDX 46 46 68 47 69 48 74 49 70 50 71 51 73 52 75 53 72 54 56 55
REMARK SMILES IDX 57 56 62 57 58 58 59 59 61 60 63 61 60 62 6 63 7 64 8 65
REMARK SMILES IDX 9 66 10 68 11 69 12 70 32 71 13 72 21 73 20 74 14 75 15 76
REMARK SMILES IDX 19 77 16 78 18 79 17 80 22 81 23 83 24 84 31 85 25 86 30 87
REMARK SMILES IDX 26 88 29 89 27 90 28 91
REMARK H PARENT 3 6 80 24 54 35 8 67 22 82
REMARK Flexibility Score: inf
ROOT
ATOM      1  C   UNL     1       4.878   0.028   2.439  1.00  0.00     0.023 C 
ENDROOT
BRANCH   1   2
ATOM      2  C   UNL     1       4.525  -0.516   1.060  1.00  0.00     0.116 C 
BRANCH   2   3
ATOM      3  N   UNL     1       3.091  -0.633   0.855  1.00  0.00    -0.352 N 
ATOM      4  O   UNL     1       1.067  -0.100   0.017  1.00  0.00    -0.269 OA
ATOM      5  C   UNL     1       2.285  -0.003  -0.063  1.00  0.00     0.251 C 
ATOM      6  H   UNL     1       2.629  -1.255   1.462  1.00  0.00     0.163 HD
BRANCH   5   7
ATOM      7  C   UNL     1       2.893   0.814  -1.134  1.00  0.00     0.039 A 
ATOM      8  C   UNL     1       3.975   0.333  -1.877  1.00  0.00     0.014 A 
ATOM      9  C   UNL     1       2.359   2.076  -1.402  1.00  0.00     0.014 A 
ATOM     10  C   UNL     1       4.606   1.164  -2.797  1.00  0.00     0.010 A 
ATOM     11  C   UNL     1       2.945   2.879  -2.381  1.00  0.00     0.010 A 
ATOM     12  C   UNL     1       4.089   2.440  -3.067  1.00  0.00    -0.014 A 
BRANCH  12  13
ATOM     13  C   UNL     1       4.710   3.293  -4.110  1.00  0.00     0.031 A 
ATOM     14  C   UNL     1       5.338   4.607  -3.753  1.00  0.00     0.074 A 
ATOM     15  C   UNL     1       4.661   2.892  -5.393  1.00  0.00     0.049 A 
ATOM     16  N   UNL     1       5.830   5.529  -4.542  1.00  0.00    -0.248 NA
ATOM     17  C   UNL     1       5.414   4.936  -2.322  1.00  0.00     0.031 C 
ATOM     18  C   UNL     1       4.072   1.635  -5.860  1.00  0.00     0.029 A 
ATOM     19  N   UNL     1       5.093   3.505  -6.541  1.00  0.00    -0.354 N 
ATOM     20  C   UNL     1       6.250   6.557  -3.708  1.00  0.00     0.074 A 
ATOM     21  C   UNL     1       5.932   6.156  -2.354  1.00  0.00     0.031 C 
ATOM     22  C   UNL     1       4.178   1.571  -7.194  1.00  0.00     0.029 A 
ATOM     23  C   UNL     1       4.782   2.807  -7.681  1.00  0.00     0.049 A 
ATOM     24  H   UNL     1       5.578   4.362  -6.546  1.00  0.00     0.167 HD
ATOM     25  C   UNL     1       6.845   7.727  -4.045  1.00  0.00     0.037 A 
ATOM     26  C   UNL     1       4.924   3.139  -8.977  1.00  0.00     0.037 A 
ATOM     27  C   UNL     1       7.156   8.113  -5.399  1.00  0.00     0.049 A 
ATOM     28  C   UNL     1       5.543   4.457  -9.332  1.00  0.00     0.074 A 
ATOM     29  C   UNL     1       7.800   9.255  -5.843  1.00  0.00     0.029 A 
ATOM     30  N   UNL     1       6.827   7.375  -6.527  1.00  0.00    -0.354 N 
ATOM     31  N   UNL     1       5.976   5.404  -8.535  1.00  0.00    -0.248 NA
ATOM     32  C   UNL     1       5.696   4.756 -10.762  1.00  0.00     0.031 C 
ATOM     33  C   UNL     1       7.806   9.237  -7.242  1.00  0.00     0.029 A 
ATOM     34  C   UNL     1       7.225   8.053  -7.669  1.00  0.00     0.049 A 
ATOM     35  H   UNL     1       6.378   6.500  -6.519  1.00  0.00     0.167 HD
ATOM     36  C   UNL     1       6.477   6.399  -9.363  1.00  0.00     0.074 A 
ATOM     37  C   UNL     1       6.295   5.940 -10.725  1.00  0.00     0.031 C 
ATOM     38  C   UNL     1       7.044   7.582  -9.020  1.00  0.00     0.037 A 
BRANCH  25  39
ATOM     39  C   UNL     1       7.160   8.689  -2.934  1.00  0.00     0.057 A 
ATOM     40  C   UNL     1       8.145   8.425  -1.973  1.00  0.00     0.134 A 
ATOM     41  C   UNL     1       6.470   9.904  -2.830  1.00  0.00     0.134 A 
ATOM     42  F   UNL     1       8.840   7.278  -2.008  1.00  0.00    -0.206 F 
ATOM     43  C   UNL     1       8.404   9.315  -0.928  1.00  0.00     0.040 A 
ATOM     44  C   UNL     1       6.741  10.815  -1.808  1.00  0.00     0.040 A 
ATOM     45  F   UNL     1       5.522  10.229  -3.722  1.00  0.00    -0.206 F 
ATOM     46  C   UNL     1       7.702  10.516  -0.845  1.00  0.00     0.006 A 
ENDBRANCH  25  39
BRANCH  26  47
ATOM     47  C   UNL     1       4.444   2.197 -10.017  1.00  0.00     0.057 A 
ATOM     48  C   UNL     1       5.340   1.468 -10.805  1.00  0.00     0.134 A 
ATOM     49  C   UNL     1       3.076   1.958 -10.202  1.00  0.00     0.134 A 
ATOM     50  F   UNL     1       6.661   1.663 -10.680  1.00  0.00    -0.206 F 
ATOM     51  C   UNL     1       4.894   0.533 -11.740  1.00  0.00     0.040 A 
ATOM     52  C   UNL     1       2.617   1.008 -11.115  1.00  0.00     0.040 A 
ATOM     53  F   UNL     1       2.168   2.616  -9.466  1.00  0.00    -0.206 F 
ATOM     54  C   UNL     1       3.528   0.294 -11.889  1.00  0.00     0.006 A 
ENDBRANCH  26  47
BRANCH  38  55
ATOM     55  C   UNL     1       7.554   8.453 -10.130  1.00  0.00     0.057 A 
ATOM     56  C   UNL     1       6.693   9.178 -10.962  1.00  0.00     0.134 A 
ATOM     57  C   UNL     1       8.932   8.629 -10.313  1.00  0.00     0.134 A 
ATOM     58  F   UNL     1       5.363   9.043 -10.848  1.00  0.00    -0.206 F 
ATOM     59  C   UNL     1       7.185  10.044 -11.941  1.00  0.00     0.040 A 
ATOM     60  C   UNL     1       9.436   9.510 -11.270  1.00  0.00     0.040 A 
ATOM     61  F   UNL     1       9.811   7.967  -9.545  1.00  0.00    -0.206 F 
ATOM     62  C   UNL     1       8.560  10.221 -12.088  1.00  0.00     0.006 A 
ENDBRANCH  38  55
ENDBRANCH  12  13
ENDBRANCH   5   7
ENDBRANCH   2   3
ENDBRANCH   1   2
BRANCH   1  63
ATOM     63  C   UNL     1       4.416  -0.835   3.612  1.00  0.00     0.023 C 
BRANCH  63  64
ATOM     64  C   UNL     1       4.811  -2.304   3.530  1.00  0.00     0.116 C 
BRANCH  64  65
ATOM     65  N   UNL     1       6.246  -2.500   3.421  1.00  0.00    -0.351 N 
ATOM     66  C   UNL     1       7.055  -3.352   4.141  1.00  0.00     0.270 C 
ATOM     67  H   UNL     1       6.702  -1.950   2.743  1.00  0.00     0.163 HD
ATOM     68  O   UNL     1       8.266  -3.351   3.946  1.00  0.00    -0.268 OA
BRANCH  66  69
ATOM     69  C   UNL     1       6.439  -4.276   5.123  1.00  0.00     0.134 A 
ATOM     70  C   UNL     1       5.471  -5.154   4.726  1.00  0.00     0.063 A 
ATOM     71  N   UNL     1       6.850  -4.147   6.386  1.00  0.00    -0.207 NA
ATOM     72  C   UNL     1       4.870  -5.862   5.740  1.00  0.00     0.077 A 
ATOM     73  C   UNL     1       6.259  -4.899   7.317  1.00  0.00     0.230 A 
ATOM     74  N   UNL     1       5.258  -5.755   7.035  1.00  0.00    -0.213 NA
BRANCH  72  75
ATOM     75  C   UNL     1       3.700  -6.700   5.435  1.00  0.00     0.000 A 
ATOM     76  C   UNL     1       2.483  -6.517   6.111  1.00  0.00     0.010 A 
ATOM     77  C   UNL     1       3.732  -7.617   4.368  1.00  0.00     0.010 A 
ATOM     78  C   UNL     1       1.330  -7.198   5.707  1.00  0.00     0.001 A 
ATOM     79  C   UNL     1       2.583  -8.299   3.966  1.00  0.00     0.001 A 
ATOM     80  C   UNL     1       1.379  -8.082   4.630  1.00  0.00     0.000 A 
ENDBRANCH  72  75
BRANCH  73  81
ATOM     81  N   UNL     1       6.743  -4.866   8.624  1.00  0.00    -0.300 N 
ATOM     82  H   UNL     1       6.356  -5.480   9.289  1.00  0.00     0.172 HD
BRANCH  81  83
ATOM     83  C   UNL     1       7.724  -4.022   9.011  1.00  0.00     0.190 A 
ATOM     84  N   UNL     1       7.870  -2.790   8.579  1.00  0.00    -0.220 NA
ATOM     85  S   UNL     1       8.934  -4.516  10.139  1.00  0.00    -0.097 S 
ATOM     86  C   UNL     1       9.094  -2.280   8.943  1.00  0.00     0.084 A 
ATOM     87  C   UNL     1       9.847  -3.092   9.789  1.00  0.00     0.056 A 
ATOM     88  C   UNL     1       9.628  -1.049   8.514  1.00  0.00     0.030 A 
ATOM     89  C   UNL     1      11.131  -2.715  10.218  1.00  0.00     0.021 A 
ATOM     90  C   UNL     1      10.909  -0.671   8.921  1.00  0.00     0.002 A 
ATOM     91  C   UNL     1      11.650  -1.496   9.760  1.00  0.00     0.002 A 
ENDBRANCH  81  83
ENDBRANCH  73  81
ENDBRANCH  66  69
ENDBRANCH  64  65
ENDBRANCH  63  64
ENDBRANCH   1  63
TORSDOF 14
