REMARK SMILES C[C@@H](C(=O)NCCCCNC(=O)c1ccc(-c2c3nc(c(-c4c(F)cccc4F)c4ccc([nH]4)c(-c4c(F)cccc4F)c4nc(c(-c5c(F)cccc5F)c5ccc2[nH]5)C=C4)C=C3)cc1)c1ccc(-c2cccc(OC(=O)NC3CC3)c2)c(F)c1
REMARK SMILES IDX 6 1 5 2 3 3 4 4 2 6 1 7 67 8 68 9 86 10 69 11 84 12 70 13
REMARK SMILES IDX 85 14 71 15 72 16 83 17 73 18 75 19 74 20 76 21 77 22 78 23
REMARK SMILES IDX 79 24 80 26 81 27 82 28 7 29 8 30 9 31 10 32 11 33 12 35
REMARK SMILES IDX 13 36 14 37 66 38 15 39 65 40 16 41 17 42 18 43 59 44 19 45
REMARK SMILES IDX 64 46 58 47 60 48 20 49 63 50 57 51 56 52 21 54 47 55 30 56
REMARK SMILES IDX 46 57 31 58 34 59 45 60 61 61 32 62 33 63 44 65 62 66 35 67
REMARK SMILES IDX 22 68 23 69 28 70 24 71 25 72 27 73 29 74 26 75 48 76 49 77
REMARK SMILES IDX 54 78 50 79 51 80 53 81 55 82 52 83 36 84 37 85 42 86 38 87
REMARK SMILES IDX 39 88 41 89 43 90 40 91
REMARK H PARENT 5 5 79 25 10 34 60 53 34 64
REMARK Flexibility Score: inf
ROOT
ATOM      1  C   UNL     1       3.401  -1.779  -0.596  1.00  0.00     0.116 C 
ENDROOT
BRANCH   1   2
ATOM      2  N   UNL     1       2.343  -2.627  -0.088  1.00  0.00    -0.356 N 
ATOM      3  C   UNL     1       1.026  -2.328   0.127  1.00  0.00     0.227 C 
ATOM      4  O   UNL     1       0.405  -3.095   0.863  1.00  0.00    -0.274 OA
ATOM      5  H   UNL     1       2.609  -3.548   0.134  1.00  0.00     0.163 HD
BRANCH   3   6
ATOM      6  C   UNL     1       0.403  -1.093  -0.556  1.00  0.00     0.105 C 
ATOM      7  C   UNL     1       0.829   0.159   0.227  1.00  0.00     0.023 C 
BRANCH   6   8
ATOM      8  C   UNL     1      -1.120  -1.157  -0.732  1.00  0.00    -0.033 A 
ATOM      9  C   UNL     1      -1.892   0.018  -0.767  1.00  0.00     0.005 A 
ATOM     10  C   UNL     1      -1.800  -2.375  -0.883  1.00  0.00     0.044 A 
ATOM     11  C   UNL     1      -3.287  -0.026  -0.802  1.00  0.00     0.012 A 
ATOM     12  C   UNL     1      -3.195  -2.415  -0.908  1.00  0.00     0.131 A 
ATOM     13  C   UNL     1      -3.963  -1.250  -0.827  1.00  0.00     0.018 A 
ATOM     14  F   UNL     1      -3.794  -3.615  -0.976  1.00  0.00    -0.206 F 
BRANCH  13  15
ATOM     15  C   UNL     1      -5.418  -1.280  -0.654  1.00  0.00    -0.012 A 
ATOM     16  C   UNL     1      -6.281  -0.618  -1.540  1.00  0.00     0.009 A 
ATOM     17  C   UNL     1      -5.961  -1.905   0.481  1.00  0.00     0.056 A 
ATOM     18  C   UNL     1      -7.655  -0.578  -1.297  1.00  0.00     0.004 A 
ATOM     19  C   UNL     1      -7.328  -1.854   0.726  1.00  0.00     0.133 A 
ATOM     20  C   UNL     1      -8.179  -1.193  -0.161  1.00  0.00     0.047 A 
BRANCH  19  21
ATOM     21  O   UNL     1      -7.959  -2.430   1.856  1.00  0.00    -0.410 OA
BRANCH  21  22
ATOM     22  C   UNL     1      -7.359  -3.222   2.830  1.00  0.00     0.412 C 
ATOM     23  O   UNL     1      -6.162  -3.479   2.923  1.00  0.00    -0.224 OA
ATOM     24  N   UNL     1      -8.240  -3.747   3.738  1.00  0.00    -0.318 N 
ATOM     25  H   UNL     1      -7.842  -4.357   4.401  1.00  0.00     0.167 HD
BRANCH  24  26
ATOM     26  C   UNL     1      -9.644  -3.546   3.869  1.00  0.00     0.085 C 
ATOM     27  C   UNL     1     -10.612  -3.178   2.781  1.00  0.00     0.027 C 
ATOM     28  C   UNL     1     -10.574  -4.584   3.294  1.00  0.00     0.027 C 
ENDBRANCH  24  26
ENDBRANCH  21  22
ENDBRANCH  19  21
ENDBRANCH  13  15
ENDBRANCH   6   8
ENDBRANCH   3   6
ENDBRANCH   1   2
BRANCH   1  29
ATOM     29  C   UNL     1       4.215  -1.187   0.560  1.00  0.00     0.023 C 
BRANCH  29  30
ATOM     30  C   UNL     1       4.995  -2.214   1.382  1.00  0.00     0.023 C 
BRANCH  30  31
ATOM     31  C   UNL     1       5.961  -3.071   0.579  1.00  0.00     0.116 C 
BRANCH  31  32
ATOM     32  N   UNL     1       6.919  -2.273  -0.169  1.00  0.00    -0.352 N 
ATOM     33  C   UNL     1       8.274  -2.436  -0.300  1.00  0.00     0.251 C 
ATOM     34  H   UNL     1       6.540  -1.503  -0.651  1.00  0.00     0.163 HD
ATOM     35  O   UNL     1       8.944  -1.561  -0.839  1.00  0.00    -0.269 OA
BRANCH  33  36
ATOM     36  C   UNL     1       8.929  -3.648   0.235  1.00  0.00     0.039 A 
ATOM     37  C   UNL     1      10.145  -3.503   0.906  1.00  0.00     0.014 A 
ATOM     38  C   UNL     1       8.359  -4.915   0.079  1.00  0.00     0.014 A 
ATOM     39  C   UNL     1      10.758  -4.622   1.468  1.00  0.00     0.010 A 
ATOM     40  C   UNL     1       8.929  -6.016   0.712  1.00  0.00     0.010 A 
ATOM     41  C   UNL     1      10.137  -5.881   1.411  1.00  0.00    -0.014 A 
BRANCH  41  42
ATOM     42  C   UNL     1      10.742  -7.048   2.101  1.00  0.00     0.031 A 
ATOM     43  C   UNL     1      11.218  -8.242   1.321  1.00  0.00     0.074 A 
ATOM     44  C   UNL     1      10.845  -7.033   3.445  1.00  0.00     0.049 A 
ATOM     45  N   UNL     1      11.792  -9.335   1.757  1.00  0.00    -0.248 NA
ATOM     46  C   UNL     1      11.006  -8.218  -0.135  1.00  0.00     0.031 C 
ATOM     47  C   UNL     1      10.361  -5.960   4.317  1.00  0.00     0.029 A 
ATOM     48  N   UNL     1      11.392  -7.943   4.312  1.00  0.00    -0.354 N 
ATOM     49  C   UNL     1      12.016 -10.121   0.634  1.00  0.00     0.074 A 
ATOM     50  C   UNL     1      11.457  -9.411  -0.496  1.00  0.00     0.031 C 
ATOM     51  C   UNL     1      10.666  -6.257   5.590  1.00  0.00     0.029 A 
ATOM     52  C   UNL     1      11.330  -7.555   5.629  1.00  0.00     0.049 A 
ATOM     53  H   UNL     1      11.792  -8.794   4.020  1.00  0.00     0.167 HD
ATOM     54  C   UNL     1      12.658 -11.310   0.547  1.00  0.00     0.037 A 
ATOM     55  C   UNL     1      11.757  -8.177   6.744  1.00  0.00     0.037 A 
ATOM     56  C   UNL     1      13.217 -12.014   1.673  1.00  0.00     0.049 A 
ATOM     57  C   UNL     1      12.454  -9.504   6.617  1.00  0.00     0.074 A 
ATOM     58  C   UNL     1      13.916 -13.208   1.682  1.00  0.00     0.029 A 
ATOM     59  N   UNL     1      13.138 -11.588   2.990  1.00  0.00    -0.354 N 
ATOM     60  N   UNL     1      12.725 -10.198   5.538  1.00  0.00    -0.248 NA
ATOM     61  C   UNL     1      12.916 -10.128   7.864  1.00  0.00     0.031 C 
ATOM     62  C   UNL     1      14.218 -13.529   3.010  1.00  0.00     0.029 A 
ATOM     63  C   UNL     1      13.758 -12.507   3.822  1.00  0.00     0.049 A 
ATOM     64  H   UNL     1      12.705 -10.756   3.290  1.00  0.00     0.167 HD
ATOM     65  C   UNL     1      13.408 -11.326   5.973  1.00  0.00     0.074 A 
ATOM     66  C   UNL     1      13.539 -11.205   7.410  1.00  0.00     0.031 C 
ATOM     67  C   UNL     1      13.877 -12.374   5.252  1.00  0.00     0.037 A 
BRANCH  54  68
ATOM     68  C   UNL     1      12.807 -11.923  -0.817  1.00  0.00     0.057 A 
ATOM     69  C   UNL     1      13.659 -11.370  -1.782  1.00  0.00     0.134 A 
ATOM     70  C   UNL     1      12.142 -13.110  -1.149  1.00  0.00     0.134 A 
ATOM     71  F   UNL     1      14.317 -10.227  -1.533  1.00  0.00    -0.206 F 
ATOM     72  C   UNL     1      13.832 -11.964  -3.033  1.00  0.00     0.040 A 
ATOM     73  C   UNL     1      12.328 -13.729  -2.387  1.00  0.00     0.040 A 
ATOM     74  F   UNL     1      11.315 -13.697  -0.271  1.00  0.00    -0.206 F 
ATOM     75  C   UNL     1      13.173 -13.154  -3.334  1.00  0.00     0.006 A 
ENDBRANCH  54  68
BRANCH  55  76
ATOM     76  C   UNL     1      11.547  -7.557   8.077  1.00  0.00     0.057 A 
ATOM     77  C   UNL     1      12.625  -7.118   8.856  1.00  0.00     0.134 A 
ATOM     78  C   UNL     1      10.264  -7.421   8.622  1.00  0.00     0.134 A 
ATOM     79  F   UNL     1      13.880  -7.236   8.398  1.00  0.00    -0.206 F 
ATOM     80  C   UNL     1      12.439  -6.602  10.139  1.00  0.00     0.040 A 
ATOM     81  C   UNL     1      10.061  -6.876   9.890  1.00  0.00     0.040 A 
ATOM     82  F   UNL     1       9.187  -7.811   7.925  1.00  0.00    -0.206 F 
ATOM     83  C   UNL     1      11.152  -6.477  10.659  1.00  0.00     0.006 A 
ENDBRANCH  55  76
BRANCH  67  84
ATOM     84  C   UNL     1      14.598 -13.452   6.010  1.00  0.00     0.057 A 
ATOM     85  C   UNL     1      13.931 -14.306   6.899  1.00  0.00     0.134 A 
ATOM     86  C   UNL     1      15.978 -13.637   5.850  1.00  0.00     0.134 A 
ATOM     87  F   UNL     1      12.612 -14.175   7.108  1.00  0.00    -0.206 F 
ATOM     88  C   UNL     1      14.617 -15.275   7.634  1.00  0.00     0.040 A 
ATOM     89  C   UNL     1      16.668 -14.626   6.554  1.00  0.00     0.040 A 
ATOM     90  F   UNL     1      16.677 -12.864   5.006  1.00  0.00    -0.206 F 
ATOM     91  C   UNL     1      15.989 -15.439   7.459  1.00  0.00     0.006 A 
ENDBRANCH  67  84
ENDBRANCH  41  42
ENDBRANCH  33  36
ENDBRANCH  31  32
ENDBRANCH  30  31
ENDBRANCH  29  30
ENDBRANCH   1  29
TORSDOF 16
