REMARK SMILES CCN(CC)c1ccc([C@@H]2[NH2+][C@@H](C(=O)NCCCCNC(=O)c3ccc(-c4c5nc(c(-c6c(F)cccc6F)c6ccc([nH]6)c(-c6c(F)cccc6F)c6nc(c(-c7c(F)cccc7F)c7ccc4[nH]7)C=C6)C=C5)cc3)Cc3c2[nH]c2ccccc32)cc1
REMARK SMILES IDX 17 1 16 2 15 3 13 4 14 5 12 7 10 8 11 9 79 10 78 13 80 14
REMARK SMILES IDX 77 15 86 16 81 17 85 19 82 20 84 21 83 22 9 23 6 24 7 25
REMARK SMILES IDX 88 26 8 27 87 28 3 29 2 30 1 31 4 32 5 33 18 34 19 35 20 36
REMARK SMILES IDX 21 37 22 39 23 40 24 41 76 42 25 43 75 44 26 45 27 46 28 47
REMARK SMILES IDX 69 48 29 49 74 50 68 51 70 52 30 53 73 54 67 55 66 56 31 58
REMARK SMILES IDX 57 59 40 60 56 61 41 62 44 63 55 64 71 65 42 66 43 67 54 69
REMARK SMILES IDX 72 70 45 71 32 72 33 73 38 74 34 75 35 76 37 77 39 78 36 79
REMARK SMILES IDX 58 80 59 81 64 82 60 83 61 84 63 85 65 86 62 87 46 88 47 89
REMARK SMILES IDX 52 90 48 91 49 92 51 93 53 94 50 95
REMARK H PARENT 15 6 11 11 11 12 80 18 20 38 70 57 44 68
REMARK Flexibility Score: inf
ROOT
ATOM      1  C   UNL     1      10.622   1.012   2.364  1.00  0.00     0.023 C 
ENDROOT
BRANCH   1   2
ATOM      2  C   UNL     1       9.226   0.592   1.911  1.00  0.00     0.116 C 
BRANCH   2   3
ATOM      3  N   UNL     1       9.206   0.161   0.530  1.00  0.00    -0.351 N 
ATOM      4  C   UNL     1       8.457  -0.822  -0.060  1.00  0.00     0.278 C 
ATOM      5  O   UNL     1       8.773  -1.146  -1.211  1.00  0.00    -0.268 OA
ATOM      6  H   UNL     1       9.818   0.643  -0.071  1.00  0.00     0.163 HD
BRANCH   4   7
ATOM      7  C   UNL     1       7.226  -1.474   0.626  1.00  0.00     0.277 C 
ATOM      8  C   UNL     1       6.310  -0.513   2.842  1.00  0.00     0.262 C 
ATOM      9  N   UNL     1       6.468  -0.430   1.362  1.00  0.00    -0.325 N 
ATOM     10  C   UNL     1       6.829  -1.819   3.330  1.00  0.00     0.083 A 
ATOM     11  H   UNL     1       6.929   0.459   1.167  1.00  0.00     0.347 HD
ATOM     12  H   UNL     1       5.514  -0.556   1.022  1.00  0.00     0.347 HD
ATOM     13  C   UNL     1       6.936  -2.986   2.612  1.00  0.00    -0.006 A 
ATOM     14  N   UNL     1       7.312  -2.214   4.553  1.00  0.00    -0.353 N 
ATOM     15  C   UNL     1       7.434  -2.891   1.224  1.00  0.00     0.114 C 
ATOM     16  C   UNL     1       6.244  -3.845   3.504  1.00  0.00     0.003 A 
ATOM     17  C   UNL     1       6.786  -3.483   4.746  1.00  0.00     0.046 A 
ATOM     18  H   UNL     1       7.902  -1.709   5.157  1.00  0.00     0.166 HD
ATOM     19  C   UNL     1       5.175  -4.765   3.512  1.00  0.00     0.010 A 
ATOM     20  C   UNL     1       6.598  -4.205   5.921  1.00  0.00     0.026 A 
ATOM     21  C   UNL     1       4.765  -5.294   4.756  1.00  0.00     0.001 A 
ATOM     22  C   UNL     1       5.517  -5.084   5.916  1.00  0.00     0.002 A 
BRANCH   8  23
ATOM     23  C   UNL     1       4.788  -0.317   3.091  1.00  0.00     0.016 A 
ATOM     24  C   UNL     1       2.001  -0.609   2.587  1.00  0.00     0.037 A 
ATOM     25  C   UNL     1       2.654  -1.357   3.571  1.00  0.00     0.026 A 
ATOM     26  C   UNL     1       2.729   0.454   2.048  1.00  0.00     0.026 A 
ATOM     27  C   UNL     1       4.020  -1.207   3.838  1.00  0.00     0.012 A 
ATOM     28  C   UNL     1       4.088   0.632   2.325  1.00  0.00     0.012 A 
BRANCH  24  29
ATOM     29  N   UNL     1       0.720  -0.907   2.146  1.00  0.00    -0.372 N 
BRANCH  29  30
ATOM     30  C   UNL     1       0.486  -1.224   0.723  1.00  0.00     0.113 C 
ATOM     31  C   UNL     1       0.503  -0.008  -0.192  1.00  0.00     0.027 C 
ENDBRANCH  29  30
BRANCH  29  32
ATOM     32  C   UNL     1      -0.326  -1.286   3.102  1.00  0.00     0.113 C 
ATOM     33  C   UNL     1      -0.367  -2.776   3.425  1.00  0.00     0.027 C 
ENDBRANCH  29  32
ENDBRANCH  24  29
ENDBRANCH   8  23
ENDBRANCH   4   7
ENDBRANCH   2   3
ENDBRANCH   1   2
BRANCH   1  34
ATOM     34  C   UNL     1      11.075   2.389   1.876  1.00  0.00     0.023 C 
BRANCH  34  35
ATOM     35  C   UNL     1      10.319   3.575   2.472  1.00  0.00     0.116 C 
BRANCH  35  36
ATOM     36  N   UNL     1      10.450   3.670   3.922  1.00  0.00    -0.352 N 
ATOM     37  C   UNL     1      10.967   4.680   4.696  1.00  0.00     0.251 C 
ATOM     38  H   UNL     1      10.118   2.890   4.423  1.00  0.00     0.163 HD
ATOM     39  O   UNL     1      11.124   4.513   5.907  1.00  0.00    -0.269 OA
BRANCH  37  40
ATOM     40  C   UNL     1      11.359   5.962   4.077  1.00  0.00     0.039 A 
ATOM     41  C   UNL     1      12.600   6.527   4.390  1.00  0.00     0.014 A 
ATOM     42  C   UNL     1      10.507   6.596   3.171  1.00  0.00     0.014 A 
ATOM     43  C   UNL     1      13.025   7.680   3.724  1.00  0.00     0.010 A 
ATOM     44  C   UNL     1      10.964   7.695   2.453  1.00  0.00     0.010 A 
ATOM     45  C   UNL     1      12.229   8.246   2.716  1.00  0.00    -0.014 A 
BRANCH  45  46
ATOM     46  C   UNL     1      12.668   9.420   1.919  1.00  0.00     0.031 A 
ATOM     47  C   UNL     1      11.866  10.690   1.969  1.00  0.00     0.074 A 
ATOM     48  C   UNL     1      13.708   9.312   1.069  1.00  0.00     0.049 A 
ATOM     49  N   UNL     1      11.948  11.755   1.214  1.00  0.00    -0.248 NA
ATOM     50  C   UNL     1      10.806  10.753   2.987  1.00  0.00     0.031 C 
ATOM     51  C   UNL     1      14.559   8.132   0.912  1.00  0.00     0.029 A 
ATOM     52  N   UNL     1      14.208  10.205   0.152  1.00  0.00    -0.354 N 
ATOM     53  C   UNL     1      10.935  12.601   1.647  1.00  0.00     0.074 A 
ATOM     54  C   UNL     1      10.220  11.904   2.695  1.00  0.00     0.031 C 
ATOM     55  C   UNL     1      15.480   8.376  -0.035  1.00  0.00     0.029 A 
ATOM     56  C   UNL     1      15.250   9.706  -0.592  1.00  0.00     0.049 A 
ATOM     57  H   UNL     1      13.853  11.116   0.040  1.00  0.00     0.167 HD
ATOM     58  C   UNL     1      10.638  13.852   1.223  1.00  0.00     0.037 A 
ATOM     59  C   UNL     1      15.927  10.250  -1.622  1.00  0.00     0.037 A 
ATOM     60  C   UNL     1      11.363  14.546   0.192  1.00  0.00     0.049 A 
ATOM     61  C   UNL     1      15.550  11.624  -2.109  1.00  0.00     0.074 A 
ATOM     62  C   UNL     1      11.166  15.830  -0.284  1.00  0.00     0.029 A 
ATOM     63  N   UNL     1      12.425  14.011  -0.523  1.00  0.00    -0.354 N 
ATOM     64  N   UNL     1      14.615  12.430  -1.668  1.00  0.00    -0.248 NA
ATOM     65  C   UNL     1      16.321  12.164  -3.239  1.00  0.00     0.031 C 
ATOM     66  C   UNL     1      12.075  16.054  -1.323  1.00  0.00     0.029 A 
ATOM     67  C   UNL     1      12.880  14.934  -1.450  1.00  0.00     0.049 A 
ATOM     68  H   UNL     1      12.798  13.110  -0.391  1.00  0.00     0.167 HD
ATOM     69  C   UNL     1      14.716  13.586  -2.431  1.00  0.00     0.074 A 
ATOM     70  C   UNL     1      15.799  13.376  -3.368  1.00  0.00     0.031 C 
ATOM     71  C   UNL     1      13.981  14.722  -2.355  1.00  0.00     0.037 A 
BRANCH  58  72
ATOM     72  C   UNL     1       9.473  14.543   1.872  1.00  0.00     0.057 A 
ATOM     73  C   UNL     1       9.507  14.951   3.212  1.00  0.00     0.134 A 
ATOM     74  C   UNL     1       8.309  14.820   1.143  1.00  0.00     0.134 A 
ATOM     75  F   UNL     1      10.586  14.707   3.971  1.00  0.00    -0.206 F 
ATOM     76  C   UNL     1       8.412  15.575   3.814  1.00  0.00     0.040 A 
ATOM     77  C   UNL     1       7.221  15.473   1.725  1.00  0.00     0.040 A 
ATOM     78  F   UNL     1       8.212  14.466  -0.147  1.00  0.00    -0.206 F 
ATOM     79  C   UNL     1       7.267  15.843   3.067  1.00  0.00     0.006 A 
ENDBRANCH  58  72
BRANCH  59  80
ATOM     80  C   UNL     1      17.042   9.503  -2.260  1.00  0.00     0.057 A 
ATOM     81  C   UNL     1      18.367   9.934  -2.120  1.00  0.00     0.134 A 
ATOM     82  C   UNL     1      16.817   8.354  -3.028  1.00  0.00     0.134 A 
ATOM     83  F   UNL     1      18.645  11.039  -1.413  1.00  0.00    -0.206 F 
ATOM     84  C   UNL     1      19.425   9.264  -2.738  1.00  0.00     0.040 A 
ATOM     85  C   UNL     1      17.868   7.658  -3.629  1.00  0.00     0.040 A 
ATOM     86  F   UNL     1      15.572   7.884  -3.196  1.00  0.00    -0.206 F 
ATOM     87  C   UNL     1      19.176   8.118  -3.491  1.00  0.00     0.006 A 
ENDBRANCH  59  80
BRANCH  71  88
ATOM     88  C   UNL     1      14.362  15.863  -3.254  1.00  0.00     0.057 A 
ATOM     89  C   UNL     1      14.095  15.854  -4.628  1.00  0.00     0.134 A 
ATOM     90  C   UNL     1      14.928  17.026  -2.712  1.00  0.00     0.134 A 
ATOM     91  F   UNL     1      13.566  14.768  -5.211  1.00  0.00    -0.206 F 
ATOM     92  C   UNL     1      14.386  16.957  -5.433  1.00  0.00     0.040 A 
ATOM     93  C   UNL     1      15.198  18.144  -3.501  1.00  0.00     0.040 A 
ATOM     94  F   UNL     1      15.200  17.103  -1.400  1.00  0.00    -0.206 F 
ATOM     95  C   UNL     1      14.928  18.110  -4.867  1.00  0.00     0.006 A 
ENDBRANCH  71  88
ENDBRANCH  45  46
ENDBRANCH  37  40
ENDBRANCH  35  36
ENDBRANCH  34  35
ENDBRANCH   1  34
TORSDOF 15
