REMARK SMILES CC(C)(C)OC(=O)[C@@H](C(=O)NCCCCNC(=O)c1ccc(-c2c3nc(c(-c4c(F)cccc4F)c4ccc([nH]4)c(-c4c(F)cccc4F)c4nc(c(-c5c(F)cccc5F)c5ccc2[nH]5)C=C4)C=C3)cc1)[C@@H]([NH3+])Cc1cccc(F)c1
REMARK SMILES IDX 13 1 12 2 11 3 9 4 10 5 8 7 6 8 7 9 5 10 2 11 1 12 3 13 4 14
REMARK SMILES IDX 73 15 74 16 75 20 76 21 77 22 82 23 78 24 80 25 79 26 81 27
REMARK SMILES IDX 14 28 15 29 16 30 17 31 18 33 19 34 20 35 72 36 21 37 71 38
REMARK SMILES IDX 22 39 23 40 24 41 65 42 25 43 70 44 64 45 66 46 26 47 69 48
REMARK SMILES IDX 63 49 62 50 27 52 53 53 36 54 52 55 37 56 40 57 51 58 67 59
REMARK SMILES IDX 38 60 39 61 50 63 68 64 41 65 28 66 29 67 34 68 30 69 31 70
REMARK SMILES IDX 33 71 35 72 32 73 54 74 55 75 60 76 56 77 57 78 59 79 61 80
REMARK SMILES IDX 58 81 42 82 43 83 48 84 44 85 45 86 47 87 49 88 46 89
REMARK H PARENT 11 6 74 17 74 18 74 19 16 32 66 51 40 62
REMARK Flexibility Score: inf
ROOT
ATOM      1  C   UNL     1      -2.875   2.219  -3.183  1.00  0.00     0.023 C 
ENDROOT
BRANCH   1   2
ATOM      2  C   UNL     1      -2.198   2.662  -4.484  1.00  0.00     0.116 C 
BRANCH   2   3
ATOM      3  N   UNL     1      -1.187   3.664  -4.203  1.00  0.00    -0.355 N 
ATOM      4  C   UNL     1       0.090   3.441  -3.769  1.00  0.00     0.240 C 
ATOM      5  O   UNL     1       0.511   4.221  -2.919  1.00  0.00    -0.274 OA
ATOM      6  H   UNL     1      -1.449   4.603  -4.338  1.00  0.00     0.163 HD
BRANCH   4   7
ATOM      7  C   UNL     1       0.891   2.274  -4.321  1.00  0.00     0.246 C 
BRANCH   7   8
ATOM      8  C   UNL     1       0.447   0.997  -3.640  1.00  0.00     0.325 C 
ATOM      9  O   UNL     1      -0.132   0.088  -4.229  1.00  0.00    -0.251 OA
BRANCH   8  10
ATOM     10  O   UNL     1       0.760   0.986  -2.318  1.00  0.00    -0.459 OA
BRANCH  10  11
ATOM     11  C   UNL     1       0.461  -0.168  -1.485  1.00  0.00     0.104 C 
ATOM     12  C   UNL     1       1.075   0.167  -0.118  1.00  0.00     0.056 C 
ATOM     13  C   UNL     1       1.125  -1.441  -2.020  1.00  0.00     0.056 C 
ATOM     14  C   UNL     1      -1.048  -0.359  -1.303  1.00  0.00     0.056 C 
ENDBRANCH  10  11
ENDBRANCH   8  10
ENDBRANCH   7   8
BRANCH   7  15
ATOM     15  C   UNL     1       2.444   2.412  -4.199  1.00  0.00     0.209 C 
BRANCH  15  16
ATOM     16  N   UNL     1       3.094   1.231  -4.838  1.00  0.00    -0.354 N 
ATOM     17  H   UNL     1       2.881   1.224  -5.835  1.00  0.00     0.344 HD
ATOM     18  H   UNL     1       2.742   0.376  -4.409  1.00  0.00     0.344 HD
ATOM     19  H   UNL     1       4.104   1.287  -4.707  1.00  0.00     0.344 HD
ENDBRANCH  15  16
BRANCH  15  20
ATOM     20  C   UNL     1       3.075   3.654  -4.906  1.00  0.00     0.102 C 
BRANCH  20  21
ATOM     21  C   UNL     1       3.017   5.010  -4.235  1.00  0.00    -0.039 A 
ATOM     22  C   UNL     1       2.916   6.164  -5.032  1.00  0.00     0.004 A 
ATOM     23  C   UNL     1       3.100   5.173  -2.846  1.00  0.00     0.043 A 
ATOM     24  C   UNL     1       2.786   7.430  -4.454  1.00  0.00     0.003 A 
ATOM     25  C   UNL     1       2.932   6.434  -2.277  1.00  0.00     0.123 A 
ATOM     26  C   UNL     1       2.763   7.562  -3.068  1.00  0.00     0.039 A 
ATOM     27  F   UNL     1       2.912   6.557  -0.943  1.00  0.00    -0.207 F 
ENDBRANCH  20  21
ENDBRANCH  15  20
ENDBRANCH   7  15
ENDBRANCH   4   7
ENDBRANCH   2   3
ENDBRANCH   1   2
BRANCH   1  28
ATOM     28  C   UNL     1      -3.584   3.328  -2.395  1.00  0.00     0.023 C 
BRANCH  28  29
ATOM     29  C   UNL     1      -4.551   4.183  -3.202  1.00  0.00     0.116 C 
BRANCH  29  30
ATOM     30  N   UNL     1      -5.554   3.391  -3.892  1.00  0.00    -0.352 N 
ATOM     31  C   UNL     1      -6.901   3.600  -4.018  1.00  0.00     0.251 C 
ATOM     32  H   UNL     1      -5.213   2.580  -4.336  1.00  0.00     0.163 HD
ATOM     33  O   UNL     1      -7.603   2.735  -4.541  1.00  0.00    -0.269 OA
BRANCH  31  34
ATOM     34  C   UNL     1      -7.523   4.837  -3.502  1.00  0.00     0.039 A 
ATOM     35  C   UNL     1      -8.741   4.730  -2.826  1.00  0.00     0.014 A 
ATOM     36  C   UNL     1      -6.933   6.091  -3.687  1.00  0.00     0.014 A 
ATOM     37  C   UNL     1      -9.338   5.870  -2.289  1.00  0.00     0.010 A 
ATOM     38  C   UNL     1      -7.492   7.218  -3.087  1.00  0.00     0.010 A 
ATOM     39  C   UNL     1      -8.701   7.119  -2.384  1.00  0.00    -0.014 A 
BRANCH  39  40
ATOM     40  C   UNL     1      -9.294   8.314  -1.733  1.00  0.00     0.031 A 
ATOM     41  C   UNL     1      -9.780   9.475  -2.556  1.00  0.00     0.074 A 
ATOM     42  C   UNL     1      -9.375   8.357  -0.389  1.00  0.00     0.049 A 
ATOM     43  N   UNL     1     -10.338  10.591  -2.159  1.00  0.00    -0.248 NA
ATOM     44  C   UNL     1      -9.600   9.381  -4.013  1.00  0.00     0.031 C 
ATOM     45  C   UNL     1      -8.883   7.320   0.521  1.00  0.00     0.029 A 
ATOM     46  N   UNL     1      -9.901   9.309   0.448  1.00  0.00    -0.354 N 
ATOM     47  C   UNL     1     -10.578  11.327  -3.312  1.00  0.00     0.074 A 
ATOM     48  C   UNL     1     -10.050  10.560  -4.419  1.00  0.00     0.031 C 
ATOM     49  C   UNL     1      -9.158   7.677   1.786  1.00  0.00     0.029 A 
ATOM     50  C   UNL     1      -9.816   8.979   1.779  1.00  0.00     0.049 A 
ATOM     51  H   UNL     1     -10.302  10.148   0.125  1.00  0.00     0.167 HD
ATOM     52  C   UNL     1     -11.207  12.519  -3.439  1.00  0.00     0.037 A 
ATOM     53  C   UNL     1     -10.223   9.652   2.872  1.00  0.00     0.037 A 
ATOM     54  C   UNL     1     -11.741  13.276  -2.337  1.00  0.00     0.049 A 
ATOM     55  C   UNL     1     -10.918  10.974   2.699  1.00  0.00     0.074 A 
ATOM     56  C   UNL     1     -12.429  14.477  -2.368  1.00  0.00     0.029 A 
ATOM     57  N   UNL     1     -11.647  12.904  -1.004  1.00  0.00    -0.354 N 
ATOM     58  N   UNL     1     -11.200  11.623   1.595  1.00  0.00    -0.248 NA
ATOM     59  C   UNL     1     -11.363  11.650   3.925  1.00  0.00     0.031 C 
ATOM     60  C   UNL     1     -12.716  14.852  -1.051  1.00  0.00     0.029 A 
ATOM     61  C   UNL     1     -12.250  13.861  -0.203  1.00  0.00     0.049 A 
ATOM     62  H   UNL     1     -11.215  12.082  -0.676  1.00  0.00     0.167 HD
ATOM     63  C   UNL     1     -11.872  12.772   1.992  1.00  0.00     0.074 A 
ATOM     64  C   UNL     1     -11.982  12.714   3.434  1.00  0.00     0.031 C 
ATOM     65  C   UNL     1     -12.349  13.788   1.232  1.00  0.00     0.037 A 
BRANCH  52  66
ATOM     66  C   UNL     1     -11.370  13.074  -4.825  1.00  0.00     0.057 A 
ATOM     67  C   UNL     1     -12.258  12.500  -5.745  1.00  0.00     0.134 A 
ATOM     68  C   UNL     1     -10.679  14.224  -5.227  1.00  0.00     0.134 A 
ATOM     69  F   UNL     1     -12.942  11.391  -5.428  1.00  0.00    -0.206 F 
ATOM     70  C   UNL     1     -12.439  13.040  -7.020  1.00  0.00     0.040 A 
ATOM     71  C   UNL     1     -10.871  14.788  -6.489  1.00  0.00     0.040 A 
ATOM     72  F   UNL     1      -9.817  14.827  -4.394  1.00  0.00    -0.206 F 
ATOM     73  C   UNL     1     -11.751  14.193  -7.391  1.00  0.00     0.006 A 
ENDBRANCH  52  66
BRANCH  53  74
ATOM     74  C   UNL     1     -10.000   9.085   4.226  1.00  0.00     0.057 A 
ATOM     75  C   UNL     1     -11.071   8.659   5.021  1.00  0.00     0.134 A 
ATOM     76  C   UNL     1      -8.714   8.985   4.771  1.00  0.00     0.134 A 
ATOM     77  F   UNL     1     -12.328   8.746   4.563  1.00  0.00    -0.206 F 
ATOM     78  C   UNL     1     -10.875   8.184   6.319  1.00  0.00     0.040 A 
ATOM     79  C   UNL     1      -8.501   8.485   6.056  1.00  0.00     0.040 A 
ATOM     80  F   UNL     1      -7.645   9.368   4.058  1.00  0.00    -0.206 F 
ATOM     81  C   UNL     1      -9.585   8.093   6.838  1.00  0.00     0.006 A 
ENDBRANCH  53  74
BRANCH  65  82
ATOM     82  C   UNL     1     -13.052  14.902   1.953  1.00  0.00     0.057 A 
ATOM     83  C   UNL     1     -12.360  15.809   2.766  1.00  0.00     0.134 A 
ATOM     84  C   UNL     1     -14.437  15.071   1.828  1.00  0.00     0.134 A 
ATOM     85  F   UNL     1     -11.034  15.693   2.938  1.00  0.00    -0.206 F 
ATOM     86  C   UNL     1     -13.025  16.822   3.459  1.00  0.00     0.040 A 
ATOM     87  C   UNL     1     -15.108  16.099   2.492  1.00  0.00     0.040 A 
ATOM     88  F   UNL     1     -15.159  14.244   1.057  1.00  0.00    -0.206 F 
ATOM     89  C   UNL     1     -14.403  16.971   3.319  1.00  0.00     0.006 A 
ENDBRANCH  65  82
ENDBRANCH  39  40
ENDBRANCH  31  34
ENDBRANCH  29  30
ENDBRANCH  28  29
ENDBRANCH   1  28
TORSDOF 18
