REMARK SMILES O=C(CCN1C(=O)/C(=C/C=C/c2ccco2)SC1=S)Nc1ccc(C(=O)NCCCCNC(=O)c2ccc(-c3c4nc(c(-c5c(F)cccc5F)c5ccc([nH]5)c(-c5c(F)cccc5F)c5nc(c(-c6c(F)cccc6F)c6ccc3[nH]6)C=C5)C=C4)cc2)c(O)c1
REMARK SMILES IDX 25 1 26 2 27 3 24 5 21 6 22 7 91 8 23 9 89 10 20 11 1 12
REMARK SMILES IDX 2 13 3 15 4 16 5 17 6 18 18 19 7 20 8 21 17 22 19 23 9 24
REMARK SMILES IDX 10 25 11 26 12 27 13 28 16 29 14 30 15 31 90 32 28 34 29 35
REMARK SMILES IDX 30 36 31 37 32 38 33 39 34 41 35 42 36 43 88 44 37 45 87 46
REMARK SMILES IDX 38 47 39 48 40 49 81 50 41 51 86 52 80 53 82 54 42 55 85 56
REMARK SMILES IDX 79 57 78 58 43 60 69 61 52 62 68 63 53 64 56 65 67 66 83 67
REMARK SMILES IDX 54 68 55 69 66 71 84 72 57 73 44 74 45 75 50 76 46 77 47 78
REMARK SMILES IDX 49 79 51 80 48 81 70 82 71 83 76 84 72 85 73 86 75 87 77 88
REMARK SMILES IDX 74 89 58 90 59 91 64 92 60 93 61 94 63 95 65 96 62 97
REMARK H PARENT 27 4 20 14 90 33 32 40 82 59 56 70
REMARK Flexibility Score: inf
ROOT
ATOM      1  C   UNL     1       0.425   4.758  -4.110  1.00  0.00     0.255 C 
ATOM      2  O   UNL     1      -0.227   5.679  -3.627  1.00  0.00    -0.269 OA
ATOM      3  N   UNL     1       0.590   4.688  -5.475  1.00  0.00    -0.352 N 
ATOM      4  H   UNL     1       0.162   5.414  -5.985  1.00  0.00     0.163 HD
ENDROOT
BRANCH   1   5
ATOM      5  C   UNL     1       0.993   3.719  -3.221  1.00  0.00     0.081 A 
ATOM      6  C   UNL     1       1.855   1.568  -1.629  1.00  0.00     0.044 A 
ATOM      7  C   UNL     1       0.590   2.117  -1.430  1.00  0.00     0.027 A 
ATOM      8  C   UNL     1       2.707   2.148  -2.577  1.00  0.00     0.073 A 
ATOM      9  C   UNL     1       0.155   3.180  -2.235  1.00  0.00     0.020 A 
ATOM     10  C   UNL     1       2.301   3.251  -3.321  1.00  0.00     0.130 A 
BRANCH   6  11
ATOM     11  N   UNL     1       2.387   0.494  -0.895  1.00  0.00    -0.326 N 
ATOM     12  O   UNL     1       0.678  -0.104   0.544  1.00  0.00    -0.275 OA
ATOM     13  C   UNL     1       1.847  -0.178   0.175  1.00  0.00     0.226 C 
ATOM     14  H   UNL     1       3.272   0.179  -1.190  1.00  0.00     0.169 HD
BRANCH  13  15
ATOM     15  C   UNL     1       2.862  -0.967   1.001  1.00  0.00     0.122 C 
BRANCH  15  16
ATOM     16  C   UNL     1       3.929  -1.777   0.258  1.00  0.00     0.137 C 
BRANCH  16  17
ATOM     17  N   UNL     1       4.973  -1.082  -0.525  1.00  0.00    -0.292 N 
ATOM     18  C   UNL     1       5.406   0.202  -0.225  1.00  0.00     0.266 C 
ATOM     19  C   UNL     1       5.696  -1.725  -1.522  1.00  0.00     0.148 C 
ATOM     20  O   UNL     1       5.077   0.876   0.732  1.00  0.00    -0.268 OA
ATOM     21  C   UNL     1       6.263   0.715  -1.329  1.00  0.00     0.080 C 
ATOM     22  S   UNL     1       6.779  -0.587  -2.314  1.00  0.00    -0.054 SA
ATOM     23  S   UNL     1       5.612  -3.323  -1.990  1.00  0.00    -0.052 S 
ATOM     24  C   UNL     1       6.415   2.029  -1.540  1.00  0.00     0.021 C 
BRANCH  24  25
ATOM     25  C   UNL     1       7.105   2.643  -2.658  1.00  0.00     0.005 C 
ATOM     26  C   UNL     1       7.172   3.973  -2.826  1.00  0.00     0.047 C 
BRANCH  26  27
ATOM     27  C   UNL     1       7.918   4.554  -3.889  1.00  0.00     0.126 A 
ATOM     28  C   UNL     1       8.183   4.102  -5.178  1.00  0.00     0.050 A 
ATOM     29  O   UNL     1       8.547   5.771  -3.746  1.00  0.00    -0.465 OA
ATOM     30  C   UNL     1       9.032   5.045  -5.806  1.00  0.00     0.042 A 
ATOM     31  C   UNL     1       9.230   6.039  -4.884  1.00  0.00     0.195 A 
ENDBRANCH  26  27
ENDBRANCH  24  25
ENDBRANCH  16  17
ENDBRANCH  15  16
ENDBRANCH  13  15
ENDBRANCH   6  11
BRANCH  10  32
ATOM     32  O   UNL     1       3.265   3.827  -4.102  1.00  0.00    -0.507 OA
ATOM     33  H   UNL     1       3.057   4.574  -4.628  1.00  0.00     0.293 HD
ENDBRANCH  10  32
ENDBRANCH   1   5
BRANCH   3  34
ATOM     34  C   UNL     1       1.302   3.703  -6.277  1.00  0.00     0.116 C 
BRANCH  34  35
ATOM     35  C   UNL     1       0.646   3.380  -7.616  1.00  0.00     0.023 C 
BRANCH  35  36
ATOM     36  C   UNL     1       0.361   4.563  -8.539  1.00  0.00     0.023 C 
BRANCH  36  37
ATOM     37  C   UNL     1       1.490   5.574  -8.714  1.00  0.00     0.116 C 
BRANCH  37  38
ATOM     38  N   UNL     1       2.689   5.017  -9.322  1.00  0.00    -0.352 N 
ATOM     39  C   UNL     1       3.266   5.256 -10.549  1.00  0.00     0.251 C 
ATOM     40  H   UNL     1       3.167   4.362  -8.764  1.00  0.00     0.163 HD
ATOM     41  O   UNL     1       4.245   4.603 -10.900  1.00  0.00    -0.269 OA
BRANCH  39  42
ATOM     42  C   UNL     1       2.684   6.253 -11.474  1.00  0.00     0.039 A 
ATOM     43  C   UNL     1       2.480   5.888 -12.808  1.00  0.00     0.014 A 
ATOM     44  C   UNL     1       2.317   7.527 -11.037  1.00  0.00     0.014 A 
ATOM     45  C   UNL     1       1.795   6.751 -13.668  1.00  0.00     0.010 A 
ATOM     46  C   UNL     1       1.565   8.353 -11.870  1.00  0.00     0.010 A 
ATOM     47  C   UNL     1       1.270   7.961 -13.185  1.00  0.00    -0.014 A 
BRANCH  47  48
ATOM     48  C   UNL     1       0.352   8.790 -14.010  1.00  0.00     0.031 A 
ATOM     49  C   UNL     1       0.719  10.195 -14.393  1.00  0.00     0.074 A 
ATOM     50  C   UNL     1      -0.863   8.302 -14.331  1.00  0.00     0.049 A 
ATOM     51  N   UNL     1      -0.001  11.096 -15.013  1.00  0.00    -0.248 NA
ATOM     52  C   UNL     1       2.061  10.657 -14.008  1.00  0.00     0.031 C 
ATOM     53  C   UNL     1      -1.365   6.972 -13.976  1.00  0.00     0.029 A 
ATOM     54  N   UNL     1      -1.908   8.876 -15.014  1.00  0.00    -0.354 N 
ATOM     55  C   UNL     1       0.793  12.234 -15.079  1.00  0.00     0.074 A 
ATOM     56  C   UNL     1       2.032  11.923 -14.398  1.00  0.00     0.031 C 
ATOM     57  C   UNL     1      -2.608   6.826 -14.459  1.00  0.00     0.029 A 
ATOM     58  C   UNL     1      -3.011   8.063 -15.117  1.00  0.00     0.049 A 
ATOM     59  H   UNL     1      -1.869   9.783 -15.394  1.00  0.00     0.167 HD
ATOM     60  C   UNL     1       0.521  13.422 -15.670  1.00  0.00     0.037 A 
ATOM     61  C   UNL     1      -4.220   8.292 -15.665  1.00  0.00     0.037 A 
ATOM     62  C   UNL     1      -0.703  13.723 -16.366  1.00  0.00     0.049 A 
ATOM     63  C   UNL     1      -4.503   9.626 -16.295  1.00  0.00     0.074 A 
ATOM     64  C   UNL     1      -1.040  14.874 -17.059  1.00  0.00     0.029 A 
ATOM     65  N   UNL     1      -1.794  12.872 -16.453  1.00  0.00    -0.354 N 
ATOM     66  N   UNL     1      -3.717  10.667 -16.411  1.00  0.00    -0.248 NA
ATOM     67  C   UNL     1      -5.844   9.817 -16.867  1.00  0.00     0.031 C 
ATOM     68  C   UNL     1      -2.350  14.736 -17.528  1.00  0.00     0.029 A 
ATOM     69  C   UNL     1      -2.816  13.483 -17.163  1.00  0.00     0.049 A 
ATOM     70  H   UNL     1      -1.837  11.967 -16.066  1.00  0.00     0.167 HD
ATOM     71  C   UNL     1      -4.458  11.630 -17.083  1.00  0.00     0.074 A 
ATOM     72  C   UNL     1      -5.752  11.042 -17.365  1.00  0.00     0.031 C 
ATOM     73  C   UNL     1      -4.099  12.889 -17.433  1.00  0.00     0.037 A 
BRANCH  60  74
ATOM     74  C   UNL     1       1.573  14.489 -15.595  1.00  0.00     0.057 A 
ATOM     75  C   UNL     1       2.764  14.402 -16.328  1.00  0.00     0.134 A 
ATOM     76  C   UNL     1       1.377  15.634 -14.813  1.00  0.00     0.134 A 
ATOM     77  F   UNL     1       3.017  13.326 -17.088  1.00  0.00    -0.206 F 
ATOM     78  C   UNL     1       3.732  15.406 -16.268  1.00  0.00     0.040 A 
ATOM     79  C   UNL     1       2.327  16.655 -14.764  1.00  0.00     0.040 A 
ATOM     80  F   UNL     1       0.256  15.783 -14.091  1.00  0.00    -0.206 F 
ATOM     81  C   UNL     1       3.512  16.540 -15.489  1.00  0.00     0.006 A 
ENDBRANCH  60  74
BRANCH  61  82
ATOM     82  C   UNL     1      -5.255   7.229 -15.649  1.00  0.00     0.057 A 
ATOM     83  C   UNL     1      -5.627   6.569 -16.826  1.00  0.00     0.134 A 
ATOM     84  C   UNL     1      -5.900   6.850 -14.465  1.00  0.00     0.134 A 
ATOM     85  F   UNL     1      -5.059   6.903 -17.994  1.00  0.00    -0.206 F 
ATOM     86  C   UNL     1      -6.613   5.581 -16.830  1.00  0.00     0.040 A 
ATOM     87  C   UNL     1      -6.871   5.848 -14.451  1.00  0.00     0.040 A 
ATOM     88  F   UNL     1      -5.583   7.441 -13.303  1.00  0.00    -0.206 F 
ATOM     89  C   UNL     1      -7.234   5.215 -15.638  1.00  0.00     0.006 A 
ENDBRANCH  61  82
BRANCH  73  90
ATOM     90  C   UNL     1      -5.114  13.709 -18.172  1.00  0.00     0.057 A 
ATOM     91  C   UNL     1      -6.232  14.252 -17.526  1.00  0.00     0.134 A 
ATOM     92  C   UNL     1      -4.952  13.991 -19.534  1.00  0.00     0.134 A 
ATOM     93  F   UNL     1      -6.452  14.005 -16.226  1.00  0.00    -0.206 F 
ATOM     94  C   UNL     1      -7.163  15.032 -18.213  1.00  0.00     0.040 A 
ATOM     95  C   UNL     1      -5.863  14.789 -20.227  1.00  0.00     0.040 A 
ATOM     96  F   UNL     1      -3.899  13.506 -20.209  1.00  0.00    -0.206 F 
ATOM     97  C   UNL     1      -6.975  15.308 -19.567  1.00  0.00     0.006 A 
ENDBRANCH  73  90
ENDBRANCH  47  48
ENDBRANCH  39  42
ENDBRANCH  37  38
ENDBRANCH  36  37
ENDBRANCH  35  36
ENDBRANCH  34  35
ENDBRANCH   3  34
TORSDOF 18
