REMARK SMILES C[C@@H](CC(=O)NCCCCNC(=O)c1ccc(-c2c3nc(c(-c4c(F)cccc4F)c4ccc([nH]4)c(-c4c(F)cccc4F)c4nc(c(-c5c(F)cccc5F)c5ccc2[nH]5)C=C4)C=C3)cc1)c1cn(C)c(=O)n(C)c1=O
REMARK SMILES IDX 8 1 7 2 6 3 4 4 5 5 3 7 2 8 1 9 68 10 69 11 76 12 70 13
REMARK SMILES IDX 74 14 77 15 71 16 72 17 75 18 73 19 9 20 10 21 11 22 12 23
REMARK SMILES IDX 13 25 14 26 15 27 67 28 16 29 66 30 17 31 18 32 19 33 60 34
REMARK SMILES IDX 20 35 65 36 59 37 61 38 21 39 64 40 58 41 57 42 22 44 48 45
REMARK SMILES IDX 31 46 47 47 32 48 35 49 46 50 62 51 33 52 34 53 45 55 63 56
REMARK SMILES IDX 36 57 23 58 24 59 29 60 25 61 26 62 28 63 30 64 27 65 49 66
REMARK SMILES IDX 50 67 55 68 51 69 52 70 54 71 56 72 53 73 37 74 38 75 43 76
REMARK SMILES IDX 39 77 40 78 42 79 44 80 41 81
REMARK H PARENT 6 6 11 24 61 43 35 54
REMARK Flexibility Score: inf
ROOT
ATOM      1  C   UNL     1       1.026  -0.003   2.304  1.00  0.00     0.023 C 
ENDROOT
BRANCH   1   2
ATOM      2  C   UNL     1       1.845  -1.180   1.778  1.00  0.00     0.116 C 
BRANCH   2   3
ATOM      3  N   UNL     1       0.982  -2.308   1.521  1.00  0.00    -0.356 N 
ATOM      4  C   UNL     1       0.509  -2.788   0.342  1.00  0.00     0.220 C 
ATOM      5  O   UNL     1      -0.348  -3.670   0.397  1.00  0.00    -0.275 OA
ATOM      6  H   UNL     1       0.692  -2.804   2.320  1.00  0.00     0.163 HD
BRANCH   4   7
ATOM      7  C   UNL     1       1.062  -2.285  -0.980  1.00  0.00     0.108 C 
BRANCH   7   8
ATOM      8  C   UNL     1       0.384  -1.062  -1.649  1.00  0.00     0.032 C 
ATOM      9  C   UNL     1       1.148   0.236  -1.327  1.00  0.00     0.013 C 
BRANCH   8  10
ATOM     10  C   UNL     1      -1.124  -0.946  -1.478  1.00  0.00     0.037 A 
ATOM     11  C   UNL     1      -1.807   0.178  -1.216  1.00  0.00     0.100 A 
ATOM     12  C   UNL     1      -1.948  -2.162  -1.739  1.00  0.00     0.259 A 
ATOM     13  N   UNL     1      -3.175   0.203  -1.086  1.00  0.00    -0.303 N 
ATOM     14  N   UNL     1      -3.235  -2.137  -1.242  1.00  0.00    -0.263 N 
ATOM     15  O   UNL     1      -1.479  -3.088  -2.397  1.00  0.00    -0.269 OA
ATOM     16  C   UNL     1      -3.874   1.475  -0.982  1.00  0.00     0.154 C 
ATOM     17  C   UNL     1      -3.941  -0.960  -1.045  1.00  0.00     0.330 A 
ATOM     18  C   UNL     1      -3.968  -3.382  -1.174  1.00  0.00     0.158 C 
ATOM     19  O   UNL     1      -5.161  -0.932  -0.877  1.00  0.00    -0.248 OA
ENDBRANCH   8  10
ENDBRANCH   7   8
ENDBRANCH   4   7
ENDBRANCH   2   3
ENDBRANCH   1   2
BRANCH   1  20
ATOM     20  C   UNL     1       0.508  -0.177   3.732  1.00  0.00     0.023 C 
BRANCH  20  21
ATOM     21  C   UNL     1       1.585  -0.417   4.779  1.00  0.00     0.116 C 
BRANCH  21  22
ATOM     22  N   UNL     1       2.606   0.620   4.800  1.00  0.00    -0.352 N 
ATOM     23  C   UNL     1       3.233   1.184   5.883  1.00  0.00     0.251 C 
ATOM     24  H   UNL     1       2.884   0.962   3.920  1.00  0.00     0.163 HD
ATOM     25  O   UNL     1       3.993   2.136   5.731  1.00  0.00    -0.269 OA
BRANCH  23  26
ATOM     26  C   UNL     1       2.959   0.658   7.234  1.00  0.00     0.039 A 
ATOM     27  C   UNL     1       2.699   1.559   8.269  1.00  0.00     0.014 A 
ATOM     28  C   UNL     1       2.931  -0.719   7.472  1.00  0.00     0.014 A 
ATOM     29  C   UNL     1       2.361   1.074   9.533  1.00  0.00     0.010 A 
ATOM     30  C   UNL     1       2.503  -1.198   8.703  1.00  0.00     0.010 A 
ATOM     31  C   UNL     1       2.234  -0.308   9.752  1.00  0.00    -0.014 A 
BRANCH  31  32
ATOM     32  C   UNL     1       1.862  -0.839  11.086  1.00  0.00     0.031 A 
ATOM     33  C   UNL     1       2.833  -1.701  11.846  1.00  0.00     0.074 A 
ATOM     34  C   UNL     1       0.640  -0.584  11.591  1.00  0.00     0.049 A 
ATOM     35  N   UNL     1       2.691  -2.276  13.013  1.00  0.00    -0.248 NA
ATOM     36  C   UNL     1       4.121  -1.985  11.192  1.00  0.00     0.031 C 
ATOM     37  C   UNL     1      -0.413   0.181  10.920  1.00  0.00     0.029 A 
ATOM     38  N   UNL     1       0.078  -0.942  12.790  1.00  0.00    -0.354 N 
ATOM     39  C   UNL     1       3.859  -2.998  13.221  1.00  0.00     0.074 A 
ATOM     40  C   UNL     1       4.670  -2.847  12.034  1.00  0.00     0.031 C 
ATOM     41  C   UNL     1      -1.480   0.265  11.732  1.00  0.00     0.029 A 
ATOM     42  C   UNL     1      -1.196  -0.460  12.966  1.00  0.00     0.049 A 
ATOM     43  H   UNL     1       0.543  -1.493  13.460  1.00  0.00     0.167 HD
ATOM     44  C   UNL     1       4.240  -3.698  14.316  1.00  0.00     0.037 A 
ATOM     45  C   UNL     1      -2.034  -0.582  14.013  1.00  0.00     0.037 A 
ATOM     46  C   UNL     1       3.447  -3.814  15.510  1.00  0.00     0.049 A 
ATOM     47  C   UNL     1      -1.574  -1.332  15.233  1.00  0.00     0.074 A 
ATOM     48  C   UNL     1       3.765  -4.445  16.700  1.00  0.00     0.029 A 
ATOM     49  N   UNL     1       2.177  -3.280  15.665  1.00  0.00    -0.354 N 
ATOM     50  N   UNL     1      -0.435  -1.944  15.447  1.00  0.00    -0.248 NA
ATOM     51  C   UNL     1      -2.512  -1.393  16.362  1.00  0.00     0.031 C 
ATOM     52  C   UNL     1       2.671  -4.321  17.564  1.00  0.00     0.029 A 
ATOM     53  C   UNL     1       1.691  -3.575  16.928  1.00  0.00     0.049 A 
ATOM     54  H   UNL     1       1.692  -2.766  14.980  1.00  0.00     0.167 HD
ATOM     55  C   UNL     1      -0.507  -2.438  16.743  1.00  0.00     0.074 A 
ATOM     56  C   UNL     1      -1.795  -2.038  17.271  1.00  0.00     0.031 C 
ATOM     57  C   UNL     1       0.409  -3.160  17.435  1.00  0.00     0.037 A 
BRANCH  44  58
ATOM     58  C   UNL     1       5.579  -4.375  14.270  1.00  0.00     0.057 A 
ATOM     59  C   UNL     1       6.776  -3.645  14.275  1.00  0.00     0.134 A 
ATOM     60  C   UNL     1       5.676  -5.771  14.231  1.00  0.00     0.134 A 
ATOM     61  F   UNL     1       6.755  -2.304  14.294  1.00  0.00    -0.206 F 
ATOM     62  C   UNL     1       8.019  -4.278  14.212  1.00  0.00     0.040 A 
ATOM     63  C   UNL     1       6.914  -6.416  14.197  1.00  0.00     0.040 A 
ATOM     64  F   UNL     1       4.571  -6.531  14.227  1.00  0.00    -0.206 F 
ATOM     65  C   UNL     1       8.090  -5.668  14.179  1.00  0.00     0.006 A 
ENDBRANCH  44  58
BRANCH  45  66
ATOM     66  C   UNL     1      -3.371   0.063  13.976  1.00  0.00     0.057 A 
ATOM     67  C   UNL     1      -3.656   1.176  14.776  1.00  0.00     0.134 A 
ATOM     68  C   UNL     1      -4.394  -0.419  13.153  1.00  0.00     0.134 A 
ATOM     69  F   UNL     1      -2.721   1.674  15.598  1.00  0.00    -0.206 F 
ATOM     70  C   UNL     1      -4.918   1.772  14.777  1.00  0.00     0.040 A 
ATOM     71  C   UNL     1      -5.654   0.182  13.126  1.00  0.00     0.040 A 
ATOM     72  F   UNL     1      -4.181  -1.476  12.355  1.00  0.00    -0.206 F 
ATOM     73  C   UNL     1      -5.921   1.276  13.946  1.00  0.00     0.006 A 
ENDBRANCH  45  66
BRANCH  57  74
ATOM     74  C   UNL     1       0.062  -3.526  18.848  1.00  0.00     0.057 A 
ATOM     75  C   UNL     1      -0.909  -4.491  19.145  1.00  0.00     0.134 A 
ATOM     76  C   UNL     1       0.725  -2.921  19.923  1.00  0.00     0.134 A 
ATOM     77  F   UNL     1      -1.588  -5.098  18.160  1.00  0.00    -0.206 F 
ATOM     78  C   UNL     1      -1.229  -4.820  20.463  1.00  0.00     0.040 A 
ATOM     79  C   UNL     1       0.434  -3.262  21.244  1.00  0.00     0.040 A 
ATOM     80  F   UNL     1       1.673  -1.997  19.706  1.00  0.00    -0.206 F 
ATOM     81  C   UNL     1      -0.552  -4.208  21.517  1.00  0.00     0.006 A 
ENDBRANCH  57  74
ENDBRANCH  31  32
ENDBRANCH  23  26
ENDBRANCH  21  22
ENDBRANCH  20  21
ENDBRANCH   1  20
TORSDOF 13
