REMARK SMILES COc1ccccc1S(=O)(=O)[C@@H](C)[C@H](C)C(=O)NCCCCNC(=O)c1ccc(-c2c3nc(c(-c4c(F)cccc4F)c4ccc([nH]4)c(-c4c(F)cccc4F)c4nc(c(-c5c(F)cccc5F)c5ccc2[nH]5)C=C4)C=C3)cc1
REMARK SMILES IDX 19 1 18 2 16 3 17 4 14 6 15 7 12 8 13 9 9 10 10 11 11 12
REMARK SMILES IDX 8 13 3 14 4 15 5 16 7 17 6 18 2 19 1 20 20 21 21 22 22 23
REMARK SMILES IDX 23 24 24 25 25 27 26 28 27 29 79 30 28 31 78 32 29 33 30 34
REMARK SMILES IDX 31 35 72 36 32 37 77 38 71 39 73 40 33 41 76 42 70 43 69 44
REMARK SMILES IDX 34 46 60 47 43 48 59 49 44 50 47 51 58 52 74 53 45 54 46 55
REMARK SMILES IDX 57 57 75 58 48 59 35 60 36 61 41 62 37 63 38 64 40 65 42 66
REMARK SMILES IDX 39 67 61 68 62 69 67 70 63 71 64 72 66 73 68 74 65 75 49 76
REMARK SMILES IDX 50 77 55 78 51 79 52 80 54 81 56 82 53 83
REMARK H PARENT 18 5 23 26 73 45 47 56
REMARK Flexibility Score: inf
ROOT
ATOM      1  C   UNL     1       3.257   0.403   3.204  1.00  0.00     0.116 C 
ENDROOT
BRANCH   1   2
ATOM      2  N   UNL     1       1.918  -0.115   3.324  1.00  0.00    -0.356 N 
ATOM      3  C   UNL     1       1.327  -1.085   2.562  1.00  0.00     0.224 C 
ATOM      4  O   UNL     1       0.318  -1.625   3.022  1.00  0.00    -0.275 OA
ATOM      5  H   UNL     1       1.363   0.275   4.038  1.00  0.00     0.163 HD
BRANCH   3   6
ATOM      6  C   UNL     1       1.868  -1.501   1.178  1.00  0.00     0.093 C 
ATOM      7  C   UNL     1       1.865  -0.319   0.213  1.00  0.00     0.019 C 
BRANCH   6   8
ATOM      8  C   UNL     1       3.049  -2.511   1.188  1.00  0.00     0.122 C 
ATOM      9  C   UNL     1       3.902  -2.696   2.447  1.00  0.00     0.026 C 
BRANCH   8  10
ATOM     10  S   UNL     1       3.951  -2.834  -0.321  1.00  0.00     0.185 S 
ATOM     11  O   UNL     1       2.952  -3.313  -1.265  1.00  0.00    -0.223 OA
ATOM     12  O   UNL     1       5.070  -3.700   0.015  1.00  0.00    -0.223 OA
BRANCH  10  13
ATOM     13  C   UNL     1       4.707  -1.442  -1.131  1.00  0.00     0.109 A 
ATOM     14  C   UNL     1       5.171  -0.304  -0.487  1.00  0.00     0.137 A 
ATOM     15  C   UNL     1       5.642   0.788  -1.232  1.00  0.00     0.048 A 
ATOM     16  C   UNL     1       5.775   0.691  -2.616  1.00  0.00     0.004 A 
ATOM     17  C   UNL     1       4.888  -1.550  -2.521  1.00  0.00     0.024 A 
ATOM     18  C   UNL     1       5.435  -0.496  -3.257  1.00  0.00     0.002 A 
BRANCH  14  19
ATOM     19  O   UNL     1       5.158  -0.221   0.866  1.00  0.00    -0.495 OA
ATOM     20  C   UNL     1       6.476  -0.267   1.415  1.00  0.00     0.278 C 
ENDBRANCH  14  19
ENDBRANCH  10  13
ENDBRANCH   8  10
ENDBRANCH   6   8
ENDBRANCH   3   6
ENDBRANCH   1   2
BRANCH   1  21
ATOM     21  C   UNL     1       3.396   1.916   3.257  1.00  0.00     0.023 C 
BRANCH  21  22
ATOM     22  C   UNL     1       3.306   2.533   4.649  1.00  0.00     0.023 C 
BRANCH  22  23
ATOM     23  C   UNL     1       4.206   1.921   5.717  1.00  0.00     0.116 C 
BRANCH  23  24
ATOM     24  N   UNL     1       5.628   1.959   5.404  1.00  0.00    -0.352 N 
ATOM     25  C   UNL     1       6.691   2.303   6.216  1.00  0.00     0.251 C 
ATOM     26  H   UNL     1       5.865   1.704   4.484  1.00  0.00     0.163 HD
ATOM     27  O   UNL     1       7.825   2.330   5.765  1.00  0.00    -0.269 OA
BRANCH  25  28
ATOM     28  C   UNL     1       6.438   2.694   7.624  1.00  0.00     0.039 A 
ATOM     29  C   UNL     1       7.027   3.862   8.114  1.00  0.00     0.014 A 
ATOM     30  C   UNL     1       5.579   1.950   8.434  1.00  0.00     0.014 A 
ATOM     31  C   UNL     1       6.672   4.336   9.380  1.00  0.00     0.010 A 
ATOM     32  C   UNL     1       5.154   2.472   9.653  1.00  0.00     0.010 A 
ATOM     33  C   UNL     1       5.691   3.673  10.138  1.00  0.00    -0.014 A 
BRANCH  33  34
ATOM     34  C   UNL     1       5.206   4.234  11.427  1.00  0.00     0.031 A 
ATOM     35  C   UNL     1       5.383   3.466  12.708  1.00  0.00     0.074 A 
ATOM     36  C   UNL     1       4.547   5.410  11.438  1.00  0.00     0.049 A 
ATOM     37  N   UNL     1       5.013   3.786  13.923  1.00  0.00    -0.248 NA
ATOM     38  C   UNL     1       6.033   2.151  12.607  1.00  0.00     0.031 C 
ATOM     39  C   UNL     1       4.247   6.225  10.260  1.00  0.00     0.029 A 
ATOM     40  N   UNL     1       4.014   6.126  12.481  1.00  0.00    -0.354 N 
ATOM     41  C   UNL     1       5.372   2.708  14.723  1.00  0.00     0.074 A 
ATOM     42  C   UNL     1       5.924   1.699  13.846  1.00  0.00     0.031 C 
ATOM     43  C   UNL     1       3.631   7.353  10.650  1.00  0.00     0.029 A 
ATOM     44  C   UNL     1       3.463   7.326  12.100  1.00  0.00     0.049 A 
ATOM     45  H   UNL     1       4.025   5.810  13.413  1.00  0.00     0.167 HD
ATOM     46  C   UNL     1       5.282   2.580  16.069  1.00  0.00     0.037 A 
ATOM     47  C   UNL     1       2.902   8.302  12.837  1.00  0.00     0.037 A 
ATOM     48  C   UNL     1       4.753   3.591  16.945  1.00  0.00     0.049 A 
ATOM     49  C   UNL     1       2.818   8.142  14.329  1.00  0.00     0.074 A 
ATOM     50  C   UNL     1       4.671   3.582  18.327  1.00  0.00     0.029 A 
ATOM     51  N   UNL     1       4.212   4.796  16.522  1.00  0.00    -0.354 N 
ATOM     52  N   UNL     1       3.231   7.151  15.081  1.00  0.00    -0.248 NA
ATOM     53  C   UNL     1       2.195   9.245  15.075  1.00  0.00     0.031 C 
ATOM     54  C   UNL     1       4.046   4.766  18.737  1.00  0.00     0.029 A 
ATOM     55  C   UNL     1       3.779   5.532  17.613  1.00  0.00     0.049 A 
ATOM     56  H   UNL     1       4.145   5.086  15.583  1.00  0.00     0.167 HD
ATOM     57  C   UNL     1       2.949   7.523  16.389  1.00  0.00     0.074 A 
ATOM     58  C   UNL     1       2.341   8.836  16.328  1.00  0.00     0.031 C 
ATOM     59  C   UNL     1       3.177   6.839  17.538  1.00  0.00     0.037 A 
BRANCH  46  60
ATOM     60  C   UNL     1       5.779   1.293  16.664  1.00  0.00     0.057 A 
ATOM     61  C   UNL     1       7.141   0.958  16.665  1.00  0.00     0.134 A 
ATOM     62  C   UNL     1       4.889   0.372  17.230  1.00  0.00     0.134 A 
ATOM     63  F   UNL     1       8.045   1.789  16.125  1.00  0.00    -0.206 F 
ATOM     64  C   UNL     1       7.593  -0.264  17.166  1.00  0.00     0.040 A 
ATOM     65  C   UNL     1       5.333  -0.840  17.762  1.00  0.00     0.040 A 
ATOM     66  F   UNL     1       3.573   0.630  17.268  1.00  0.00    -0.206 F 
ATOM     67  C   UNL     1       6.688  -1.166  17.720  1.00  0.00     0.006 A 
ENDBRANCH  46  60
BRANCH  47  68
ATOM     68  C   UNL     1       2.437   9.552  12.185  1.00  0.00     0.057 A 
ATOM     69  C   UNL     1       3.141  10.750  12.359  1.00  0.00     0.134 A 
ATOM     70  C   UNL     1       1.292   9.586  11.382  1.00  0.00     0.134 A 
ATOM     71  F   UNL     1       4.235  10.783  13.133  1.00  0.00    -0.206 F 
ATOM     72  C   UNL     1       2.715  11.941  11.770  1.00  0.00     0.040 A 
ATOM     73  C   UNL     1       0.867  10.766  10.768  1.00  0.00     0.040 A 
ATOM     74  F   UNL     1       0.579   8.470  11.171  1.00  0.00    -0.206 F 
ATOM     75  C   UNL     1       1.576  11.949  10.967  1.00  0.00     0.006 A 
ENDBRANCH  47  68
BRANCH  59  76
ATOM     76  C   UNL     1       2.799   7.520  18.821  1.00  0.00     0.057 A 
ATOM     77  C   UNL     1       1.462   7.699  19.199  1.00  0.00     0.134 A 
ATOM     78  C   UNL     1       3.787   7.994  19.692  1.00  0.00     0.134 A 
ATOM     79  F   UNL     1       0.468   7.281  18.402  1.00  0.00    -0.206 F 
ATOM     80  C   UNL     1       1.122   8.354  20.385  1.00  0.00     0.040 A 
ATOM     81  C   UNL     1       3.460   8.626  20.893  1.00  0.00     0.040 A 
ATOM     82  F   UNL     1       5.087   7.848  19.393  1.00  0.00    -0.206 F 
ATOM     83  C   UNL     1       2.123   8.815  21.237  1.00  0.00     0.006 A 
ENDBRANCH  59  76
ENDBRANCH  33  34
ENDBRANCH  25  28
ENDBRANCH  23  24
ENDBRANCH  22  23
ENDBRANCH  21  22
ENDBRANCH   1  21
TORSDOF 15
