REMARK SMILES O=C(C[C@H]1S/C(=[NH+]\c2ccccc2)N(NC(=O)c2ccc([N+](=O)[O-])cc2)C1=O)NCCCCNC(=O)c1ccc(-c2c3nc(c(-c4c(F)cccc4F)c4ccc([nH]4)c(-c4c(F)cccc4F)c4nc(c(-c5c(F)cccc5F)c5ccc2[nH]5)C=C4)C=C3)cc1
REMARK SMILES IDX 30 1 29 2 1 3 2 4 3 6 4 7 5 8 27 9 6 10 14 11 28 12 7 13
REMARK SMILES IDX 15 15 16 16 17 18 18 19 19 20 26 21 20 22 25 23 21 24 22 25
REMARK SMILES IDX 23 26 24 27 8 28 9 29 13 30 10 31 12 32 11 33 31 34 32 35
REMARK SMILES IDX 33 36 34 37 35 38 36 40 37 41 38 42 90 43 39 44 89 45 40 46
REMARK SMILES IDX 41 47 42 48 83 49 43 50 88 51 82 52 84 53 44 54 87 55 81 56
REMARK SMILES IDX 80 57 45 59 71 60 54 61 70 62 55 63 58 64 69 65 85 66 56 67
REMARK SMILES IDX 57 68 68 70 86 71 59 72 46 73 47 74 52 75 48 76 49 77 51 78
REMARK SMILES IDX 53 79 50 80 72 81 73 82 78 83 74 84 75 85 77 86 79 87 76 88
REMARK SMILES IDX 60 89 61 90 66 91 62 92 63 93 65 94 67 95 64 96
REMARK H PARENT 29 5 7 14 15 17 34 39 84 58 58 69
REMARK Flexibility Score: inf
ROOT
ATOM      1  C   UNL     1       2.091  -2.435  -0.847  1.00  0.00     0.116 C 
ENDROOT
BRANCH   1   2
ATOM      2  N   UNL     1       2.780  -1.178  -0.618  1.00  0.00    -0.356 N 
ATOM      3  O   UNL     1       1.011  -0.072   0.366  1.00  0.00    -0.275 OA
ATOM      4  C   UNL     1       2.176  -0.096  -0.008  1.00  0.00     0.221 C 
ATOM      5  H   UNL     1       3.717  -1.093  -0.909  1.00  0.00     0.163 HD
BRANCH   4   6
ATOM      6  C   UNL     1       3.106   1.081   0.194  1.00  0.00     0.127 C 
BRANCH   6   7
ATOM      7  C   UNL     1       3.719   1.163   1.591  1.00  0.00     0.185 C 
ATOM      8  S   UNL     1       4.225  -0.423   2.318  1.00  0.00    -0.019 SA
ATOM      9  C   UNL     1       5.004   1.961   1.506  1.00  0.00     0.347 C 
ATOM     10  C   UNL     1       5.934  -0.125   2.116  1.00  0.00     0.343 C 
ATOM     11  N   UNL     1       6.130   1.175   1.708  1.00  0.00    -0.078 N 
ATOM     12  O   UNL     1       5.032   3.163   1.252  1.00  0.00    -0.243 OA
ATOM     13  N   UNL     1       6.882  -0.980   2.286  1.00  0.00    -0.233 N 
ATOM     14  H   UNL     1       7.808  -0.646   2.265  1.00  0.00     0.313 HD
BRANCH  11  15
ATOM     15  N   UNL     1       7.362   1.861   1.664  1.00  0.00    -0.182 N 
ATOM     16  C   UNL     1       8.579   1.516   1.125  1.00  0.00     0.286 C 
ATOM     17  H   UNL     1       7.349   2.745   2.098  1.00  0.00     0.217 HD
ATOM     18  O   UNL     1       9.478   2.354   1.059  1.00  0.00    -0.266 OA
BRANCH  16  19
ATOM     19  C   UNL     1       8.893   0.157   0.678  1.00  0.00     0.043 A 
ATOM     20  C   UNL     1       9.860  -0.555   1.411  1.00  0.00     0.021 A 
ATOM     21  C   UNL     1       8.252  -0.415  -0.423  1.00  0.00     0.021 A 
ATOM     22  C   UNL     1      10.112  -1.892   1.115  1.00  0.00     0.086 A 
ATOM     23  C   UNL     1       8.507  -1.751  -0.728  1.00  0.00     0.086 A 
ATOM     24  C   UNL     1       9.407  -2.488   0.066  1.00  0.00     0.269 A 
BRANCH  24  25
ATOM     25  N   UNL     1       9.547  -3.919  -0.179  1.00  0.00     0.062 N 
ATOM     26  O   UNL     1      10.092  -4.615   0.689  1.00  0.00    -0.258 OA
ATOM     27  O   UNL     1       9.046  -4.350  -1.225  1.00  0.00    -0.258 OA
ENDBRANCH  24  25
ENDBRANCH  16  19
ENDBRANCH  11  15
BRANCH  13  28
ATOM     28  C   UNL     1       6.689  -2.354   2.497  1.00  0.00     0.125 A 
ATOM     29  C   UNL     1       7.483  -3.002   3.446  1.00  0.00     0.051 A 
ATOM     30  C   UNL     1       5.878  -3.141   1.669  1.00  0.00     0.051 A 
ATOM     31  C   UNL     1       7.449  -4.394   3.584  1.00  0.00     0.004 A 
ATOM     32  C   UNL     1       5.797  -4.522   1.846  1.00  0.00     0.004 A 
ATOM     33  C   UNL     1       6.598  -5.154   2.789  1.00  0.00     0.000 A 
ENDBRANCH  13  28
ENDBRANCH   6   7
ENDBRANCH   4   6
ENDBRANCH   1   2
BRANCH   1  34
ATOM     34  C   UNL     1       2.357  -2.996  -2.247  1.00  0.00     0.023 C 
BRANCH  34  35
ATOM     35  C   UNL     1       3.811  -3.402  -2.539  1.00  0.00     0.023 C 
BRANCH  35  36
ATOM     36  C   UNL     1       4.341  -4.598  -1.742  1.00  0.00     0.116 C 
BRANCH  36  37
ATOM     37  N   UNL     1       3.739  -5.862  -2.131  1.00  0.00    -0.352 N 
ATOM     38  C   UNL     1       4.327  -7.085  -2.379  1.00  0.00     0.251 C 
ATOM     39  H   UNL     1       2.760  -5.843  -2.233  1.00  0.00     0.163 HD
ATOM     40  O   UNL     1       3.643  -8.015  -2.792  1.00  0.00    -0.269 OA
BRANCH  38  41
ATOM     41  C   UNL     1       5.782  -7.285  -2.179  1.00  0.00     0.039 A 
ATOM     42  C   UNL     1       6.548  -7.839  -3.205  1.00  0.00     0.014 A 
ATOM     43  C   UNL     1       6.395  -6.963  -0.972  1.00  0.00     0.014 A 
ATOM     44  C   UNL     1       7.939  -7.964  -3.055  1.00  0.00     0.010 A 
ATOM     45  C   UNL     1       7.789  -7.027  -0.852  1.00  0.00     0.010 A 
ATOM     46  C   UNL     1       8.597  -7.486  -1.906  1.00  0.00    -0.014 A 
BRANCH  46  47
ATOM     47  C   UNL     1      10.100  -7.369  -1.858  1.00  0.00     0.031 A 
ATOM     48  C   UNL     1      10.926  -7.895  -0.703  1.00  0.00     0.074 A 
ATOM     49  C   UNL     1      10.751  -6.669  -2.817  1.00  0.00     0.049 A 
ATOM     50  N   UNL     1      12.225  -7.827  -0.512  1.00  0.00    -0.248 NA
ATOM     51  C   UNL     1      10.204  -8.548   0.398  1.00  0.00     0.031 C 
ATOM     52  C   UNL     1      10.116  -5.961  -3.932  1.00  0.00     0.029 A 
ATOM     53  N   UNL     1      12.094  -6.421  -3.004  1.00  0.00    -0.354 N 
ATOM     54  C   UNL     1      12.463  -8.377   0.743  1.00  0.00     0.074 A 
ATOM     55  C   UNL     1      11.170  -8.736   1.286  1.00  0.00     0.031 C 
ATOM     56  C   UNL     1      11.062  -5.419  -4.714  1.00  0.00     0.029 A 
ATOM     57  C   UNL     1      12.374  -5.697  -4.141  1.00  0.00     0.049 A 
ATOM     58  H   UNL     1      12.790  -6.733  -2.382  1.00  0.00     0.167 HD
ATOM     59  C   UNL     1      13.641  -8.595   1.381  1.00  0.00     0.037 A 
ATOM     60  C   UNL     1      13.543  -5.298  -4.678  1.00  0.00     0.037 A 
ATOM     61  C   UNL     1      14.944  -8.310   0.835  1.00  0.00     0.049 A 
ATOM     62  C   UNL     1      14.843  -5.631  -4.002  1.00  0.00     0.074 A 
ATOM     63  C   UNL     1      16.186  -8.629   1.362  1.00  0.00     0.029 A 
ATOM     64  N   UNL     1      15.179  -7.641  -0.354  1.00  0.00    -0.354 N 
ATOM     65  N   UNL     1      15.049  -6.269  -2.878  1.00  0.00    -0.248 NA
ATOM     66  C   UNL     1      16.075  -5.192  -4.676  1.00  0.00     0.031 C 
ATOM     67  C   UNL     1      17.173  -8.122   0.510  1.00  0.00     0.029 A 
ATOM     68  C   UNL     1      16.545  -7.526  -0.570  1.00  0.00     0.049 A 
ATOM     69  H   UNL     1      14.481  -7.298  -0.957  1.00  0.00     0.167 HD
ATOM     70  C   UNL     1      16.428  -6.337  -2.727  1.00  0.00     0.074 A 
ATOM     71  C   UNL     1      17.012  -5.685  -3.878  1.00  0.00     0.031 C 
ATOM     72  C   UNL     1      17.140  -6.893  -1.718  1.00  0.00     0.037 A 
BRANCH  59  73
ATOM     73  C   UNL     1      13.589  -9.214   2.752  1.00  0.00     0.057 A 
ATOM     74  C   UNL     1      13.206 -10.548   2.943  1.00  0.00     0.134 A 
ATOM     75  C   UNL     1      13.992  -8.492   3.883  1.00  0.00     0.134 A 
ATOM     76  F   UNL     1      12.812 -11.299   1.903  1.00  0.00    -0.206 F 
ATOM     77  C   UNL     1      13.190 -11.130   4.212  1.00  0.00     0.040 A 
ATOM     78  C   UNL     1      14.011  -9.073   5.153  1.00  0.00     0.040 A 
ATOM     79  F   UNL     1      14.395  -7.217   3.772  1.00  0.00    -0.206 F 
ATOM     80  C   UNL     1      13.600 -10.393   5.321  1.00  0.00     0.006 A 
ENDBRANCH  59  73
BRANCH  60  81
ATOM     81  C   UNL     1      13.554  -4.579  -5.978  1.00  0.00     0.057 A 
ATOM     82  C   UNL     1      14.005  -5.217  -7.140  1.00  0.00     0.134 A 
ATOM     83  C   UNL     1      13.143  -3.247  -6.089  1.00  0.00     0.134 A 
ATOM     84  F   UNL     1      14.433  -6.487  -7.089  1.00  0.00    -0.206 F 
ATOM     85  C   UNL     1      14.068  -4.550  -8.363  1.00  0.00     0.040 A 
ATOM     86  C   UNL     1      13.177  -2.574  -7.312  1.00  0.00     0.040 A 
ATOM     87  F   UNL     1      12.693  -2.583  -5.014  1.00  0.00    -0.206 F 
ATOM     88  C   UNL     1      13.649  -3.224  -8.452  1.00  0.00     0.006 A 
ENDBRANCH  60  81
BRANCH  72  89
ATOM     89  C   UNL     1      18.637  -6.868  -1.825  1.00  0.00     0.057 A 
ATOM     90  C   UNL     1      19.375  -5.688  -1.662  1.00  0.00     0.134 A 
ATOM     91  C   UNL     1      19.354  -8.048  -2.063  1.00  0.00     0.134 A 
ATOM     92  F   UNL     1      18.751  -4.520  -1.446  1.00  0.00    -0.206 F 
ATOM     93  C   UNL     1      20.769  -5.680  -1.750  1.00  0.00     0.040 A 
ATOM     94  C   UNL     1      20.748  -8.057  -2.130  1.00  0.00     0.040 A 
ATOM     95  F   UNL     1      18.712  -9.215  -2.225  1.00  0.00    -0.206 F 
ATOM     96  C   UNL     1      21.460  -6.869  -1.978  1.00  0.00     0.006 A 
ENDBRANCH  72  89
ENDBRANCH  46  47
ENDBRANCH  38  41
ENDBRANCH  36  37
ENDBRANCH  35  36
ENDBRANCH  34  35
ENDBRANCH   1  34
TORSDOF 16
