REMARK SMILES Cc1cc(OCC(=O)N[C@@H](Cc2ccc(Cl)cc2)C(=O)NCCCCNC(=O)c2ccc(-c3c4nc(c(-c5c(F)cccc5F)c5ccc([nH]5)c(-c5c(F)cccc5F)c5nc(c(-c6c(F)cccc6F)c6ccc3[nH]6)C=C5)C=C4)cc2)c2c(C)c(C)c(=O)oc2c1
REMARK SMILES IDX 22 1 21 2 19 3 20 4 10 6 9 7 7 8 8 9 6 11 5 12 4 13 1 14
REMARK SMILES IDX 2 15 3 16 92 17 91 18 83 19 90 20 84 21 88 22 85 23 86 24
REMARK SMILES IDX 89 25 87 26 11 27 12 28 13 29 18 30 14 31 17 32 15 33 16 34
REMARK SMILES IDX 23 35 24 36 25 37 26 38 27 39 28 41 29 42 30 43 82 44 31 45
REMARK SMILES IDX 81 46 32 47 33 48 34 49 75 50 35 51 80 52 74 53 76 54 36 55
REMARK SMILES IDX 79 56 73 57 72 58 37 60 63 61 46 62 62 63 47 64 50 65 61 66
REMARK SMILES IDX 77 67 48 68 49 69 60 71 78 72 51 73 38 74 39 75 44 76 40 77
REMARK SMILES IDX 41 78 43 79 45 80 42 81 64 82 65 83 70 84 66 85 67 86 69 87
REMARK SMILES IDX 71 88 68 89 52 90 53 91 58 92 54 93 55 94 57 95 59 96 56 97
REMARK H PARENT 21 5 9 10 26 40 76 59 50 70
REMARK Flexibility Score: inf
ROOT
ATOM      1  C   UNL     1       5.008   4.689   4.830  1.00  0.00     0.116 C 
ENDROOT
BRANCH   1   2
ATOM      2  N   UNL     1       5.104   5.866   3.990  1.00  0.00    -0.354 N 
ATOM      3  C   UNL     1       4.242   6.358   3.055  1.00  0.00     0.242 C 
ATOM      4  O   UNL     1       4.355   7.557   2.773  1.00  0.00    -0.273 OA
ATOM      5  H   UNL     1       5.924   6.396   4.115  1.00  0.00     0.163 HD
BRANCH   3   6
ATOM      6  C   UNL     1       3.090   5.532   2.433  1.00  0.00     0.175 C 
BRANCH   6   7
ATOM      7  N   UNL     1       3.488   4.174   2.064  1.00  0.00    -0.341 N 
ATOM      8  C   UNL     1       3.790   3.689   0.828  1.00  0.00     0.258 C 
ATOM      9  O   UNL     1       4.411   2.626   0.758  1.00  0.00    -0.271 OA
ATOM     10  H   UNL     1       3.546   3.527   2.804  1.00  0.00     0.164 HD
BRANCH   8  11
ATOM     11  C   UNL     1       3.332   4.435  -0.436  1.00  0.00     0.329 C 
BRANCH  11  12
ATOM     12  O   UNL     1       1.948   4.750  -0.556  1.00  0.00    -0.483 OA
BRANCH  12  13
ATOM     13  C   UNL     1       1.018   3.764  -0.340  1.00  0.00     0.131 A 
ATOM     14  C   UNL     1       0.855  -0.061  -0.229  1.00  0.00     0.044 C 
ATOM     15  C   UNL     1       0.454   1.382  -0.155  1.00  0.00    -0.044 A 
ATOM     16  C   UNL     1       1.362   2.399  -0.454  1.00  0.00     0.050 A 
ATOM     17  C   UNL     1      -0.846   1.738   0.171  1.00  0.00     0.051 A 
ATOM     18  C   UNL     1      -1.205   3.090   0.219  1.00  0.00     0.142 A 
ATOM     19  C   UNL     1      -0.309   4.143  -0.014  1.00  0.00     0.063 A 
ATOM     20  O   UNL     1      -2.561   3.305   0.513  1.00  0.00    -0.422 OA
ATOM     21  C   UNL     1      -0.854   5.530   0.111  1.00  0.00    -0.026 A 
ATOM     22  C   UNL     1      -3.112   4.565   0.511  1.00  0.00     0.339 A 
ATOM     23  C   UNL     1       0.056   6.727  -0.004  1.00  0.00     0.046 C 
ATOM     24  C   UNL     1      -2.179   5.706   0.329  1.00  0.00     0.038 A 
ATOM     25  O   UNL     1      -4.315   4.731   0.683  1.00  0.00    -0.246 OA
ATOM     26  C   UNL     1      -2.892   7.034   0.403  1.00  0.00     0.052 C 
ENDBRANCH  12  13
ENDBRANCH  11  12
ENDBRANCH   8  11
ENDBRANCH   6   7
BRANCH   6  27
ATOM     27  C   UNL     1       1.766   5.621   3.220  1.00  0.00     0.070 C 
BRANCH  27  28
ATOM     28  C   UNL     1       1.749   5.025   4.607  1.00  0.00    -0.045 A 
ATOM     29  C   UNL     1       1.942   5.844   5.731  1.00  0.00     0.005 A 
ATOM     30  C   UNL     1       1.573   3.645   4.790  1.00  0.00     0.005 A 
ATOM     31  C   UNL     1       2.009   5.286   7.010  1.00  0.00     0.021 A 
ATOM     32  C   UNL     1       1.650   3.087   6.069  1.00  0.00     0.021 A 
ATOM     33  C   UNL     1       1.878   3.909   7.171  1.00  0.00     0.041 A 
ATOM     34  Cl  UNL     1       2.021   3.217   8.738  1.00  0.00    -0.084 Cl
ENDBRANCH  27  28
ENDBRANCH   6  27
ENDBRANCH   3   6
ENDBRANCH   1   2
BRANCH   1  35
ATOM     35  C   UNL     1       6.296   3.885   4.917  1.00  0.00     0.023 C 
BRANCH  35  36
ATOM     36  C   UNL     1       7.377   4.502   5.802  1.00  0.00     0.023 C 
BRANCH  36  37
ATOM     37  C   UNL     1       6.935   4.925   7.201  1.00  0.00     0.116 C 
BRANCH  37  38
ATOM     38  N   UNL     1       6.286   3.878   7.979  1.00  0.00    -0.352 N 
ATOM     39  C   UNL     1       6.355   3.664   9.341  1.00  0.00     0.251 C 
ATOM     40  H   UNL     1       5.730   3.245   7.470  1.00  0.00     0.163 HD
ATOM     41  O   UNL     1       5.809   2.700   9.858  1.00  0.00    -0.269 OA
BRANCH  39  42
ATOM     42  C   UNL     1       7.170   4.589  10.157  1.00  0.00     0.039 A 
ATOM     43  C   UNL     1       6.988   5.968  10.047  1.00  0.00     0.014 A 
ATOM     44  C   UNL     1       8.212   4.066  10.927  1.00  0.00     0.014 A 
ATOM     45  C   UNL     1       7.970   6.823  10.534  1.00  0.00     0.010 A 
ATOM     46  C   UNL     1       9.156   4.933  11.481  1.00  0.00     0.010 A 
ATOM     47  C   UNL     1       9.084   6.311  11.222  1.00  0.00    -0.014 A 
BRANCH  47  48
ATOM     48  C   UNL     1      10.203   7.221  11.576  1.00  0.00     0.031 A 
ATOM     49  C   UNL     1      11.544   7.075  10.901  1.00  0.00     0.074 A 
ATOM     50  C   UNL     1       9.992   8.233  12.438  1.00  0.00     0.049 A 
ATOM     51  N   UNL     1      12.634   7.781  11.066  1.00  0.00    -0.248 NA
ATOM     52  C   UNL     1      11.678   5.994   9.910  1.00  0.00     0.031 C 
ATOM     53  C   UNL     1       8.732   8.503  13.130  1.00  0.00     0.029 A 
ATOM     54  N   UNL     1      10.825   9.239  12.853  1.00  0.00    -0.354 N 
ATOM     55  C   UNL     1      13.584   7.222  10.219  1.00  0.00     0.074 A 
ATOM     56  C   UNL     1      12.952   6.101   9.558  1.00  0.00     0.031 C 
ATOM     57  C   UNL     1       8.859   9.631  13.847  1.00  0.00     0.029 A 
ATOM     58  C   UNL     1      10.223  10.131  13.706  1.00  0.00     0.049 A 
ATOM     59  H   UNL     1      11.764   9.315  12.568  1.00  0.00     0.167 HD
ATOM     60  C   UNL     1      14.863   7.613   9.999  1.00  0.00     0.037 A 
ATOM     61  C   UNL     1      10.718  11.223  14.314  1.00  0.00     0.037 A 
ATOM     62  C   UNL     1      15.489   8.742  10.634  1.00  0.00     0.049 A 
ATOM     63  C   UNL     1      12.152  11.606  14.088  1.00  0.00     0.074 A 
ATOM     64  C   UNL     1      16.783   9.213  10.482  1.00  0.00     0.029 A 
ATOM     65  N   UNL     1      14.861   9.585  11.537  1.00  0.00    -0.354 N 
ATOM     66  N   UNL     1      13.043  11.051  13.304  1.00  0.00    -0.248 NA
ATOM     67  C   UNL     1      12.652  12.763  14.845  1.00  0.00     0.031 C 
ATOM     68  C   UNL     1      16.944  10.328  11.312  1.00  0.00     0.029 A 
ATOM     69  C   UNL     1      15.742  10.569  11.957  1.00  0.00     0.049 A 
ATOM     70  H   UNL     1      13.928   9.498  11.836  1.00  0.00     0.167 HD
ATOM     71  C   UNL     1      14.203  11.795  13.463  1.00  0.00     0.074 A 
ATOM     72  C   UNL     1      13.897  12.855  14.402  1.00  0.00     0.031 C 
ATOM     73  C   UNL     1      15.417  11.615  12.889  1.00  0.00     0.037 A 
BRANCH  60  74
ATOM     74  C   UNL     1      15.676   6.804   9.032  1.00  0.00     0.057 A 
ATOM     75  C   UNL     1      16.687   5.950   9.487  1.00  0.00     0.134 A 
ATOM     76  C   UNL     1      15.482   6.899   7.648  1.00  0.00     0.134 A 
ATOM     77  F   UNL     1      16.926   5.816  10.800  1.00  0.00    -0.206 F 
ATOM     78  C   UNL     1      17.480   5.220   8.600  1.00  0.00     0.040 A 
ATOM     79  C   UNL     1      16.256   6.160   6.751  1.00  0.00     0.040 A 
ATOM     80  F   UNL     1      14.519   7.688   7.149  1.00  0.00    -0.206 F 
ATOM     81  C   UNL     1      17.263   5.322   7.227  1.00  0.00     0.006 A 
ENDBRANCH  60  74
BRANCH  61  82
ATOM     82  C   UNL     1       9.854  12.033  15.206  1.00  0.00     0.057 A 
ATOM     83  C   UNL     1       9.440  11.550  16.453  1.00  0.00     0.134 A 
ATOM     84  C   UNL     1       9.439  13.317  14.837  1.00  0.00     0.134 A 
ATOM     85  F   UNL     1       9.805  10.326  16.861  1.00  0.00    -0.206 F 
ATOM     86  C   UNL     1       8.636  12.314  17.300  1.00  0.00     0.040 A 
ATOM     87  C   UNL     1       8.654  14.101  15.684  1.00  0.00     0.040 A 
ATOM     88  F   UNL     1       9.823  13.839  13.663  1.00  0.00    -0.206 F 
ATOM     89  C   UNL     1       8.248  13.596  16.918  1.00  0.00     0.006 A 
ENDBRANCH  61  82
BRANCH  73  90
ATOM     90  C   UNL     1      16.487  12.598  13.251  1.00  0.00     0.057 A 
ATOM     91  C   UNL     1      16.875  13.596  12.350  1.00  0.00     0.134 A 
ATOM     92  C   UNL     1      17.136  12.552  14.491  1.00  0.00     0.134 A 
ATOM     93  F   UNL     1      16.294  13.690  11.145  1.00  0.00    -0.206 F 
ATOM     94  C   UNL     1      17.870  14.520  12.672  1.00  0.00     0.040 A 
ATOM     95  C   UNL     1      18.119  13.482  14.832  1.00  0.00     0.040 A 
ATOM     96  F   UNL     1      16.795  11.629  15.403  1.00  0.00    -0.206 F 
ATOM     97  C   UNL     1      18.490  14.468  13.919  1.00  0.00     0.006 A 
ENDBRANCH  73  90
ENDBRANCH  47  48
ENDBRANCH  39  42
ENDBRANCH  37  38
ENDBRANCH  36  37
ENDBRANCH  35  36
ENDBRANCH   1  35
TORSDOF 17
