REMARK SMILES COc1ccc(C(=O)N2CSC[C@H]2C(=O)NCCCCNC(=O)c2ccc(-c3c4nc(c(-c5c(F)cccc5F)c5ccc([nH]5)c(-c5c(F)cccc5F)c5nc(c(-c6c(F)cccc6F)c6ccc3[nH]6)C=C5)C=C4)cc2)cc1C#N
REMARK SMILES IDX 18 1 17 2 16 3 14 4 15 5 13 7 9 8 10 9 11 10 12 11 7 12 8 13
REMARK SMILES IDX 6 14 3 15 4 16 79 17 5 18 78 19 2 20 1 21 80 22 81 23 19 24
REMARK SMILES IDX 20 25 21 26 22 27 23 29 24 30 25 31 77 32 26 33 76 34 27 35
REMARK SMILES IDX 28 36 29 37 70 38 30 39 75 40 69 41 71 42 31 43 74 44 68 45
REMARK SMILES IDX 67 46 32 48 58 49 41 50 57 51 42 52 45 53 56 54 72 55 43 56
REMARK SMILES IDX 44 57 55 59 73 60 46 61 33 62 34 63 39 64 35 65 36 66 38 67
REMARK SMILES IDX 40 68 37 69 59 70 60 71 65 72 61 73 62 74 64 75 66 76 63 77
REMARK SMILES IDX 47 78 48 79 53 80 49 81 50 82 52 83 54 84 51 85
REMARK H PARENT 16 6 21 28 71 47 45 58
REMARK Flexibility Score: inf
ROOT
ATOM      1  C   UNL     1       4.463   3.997  -8.718  1.00  0.00     0.023 C 
ENDROOT
BRANCH   1   2
ATOM      2  C   UNL     1       5.102   5.130  -7.926  1.00  0.00     0.116 C 
BRANCH   2   3
ATOM      3  N   UNL     1       4.151   6.162  -7.600  1.00  0.00    -0.354 N 
ATOM      4  C   UNL     1       3.559   6.463  -6.412  1.00  0.00     0.243 C 
ATOM      5  O   UNL     1       2.942   7.533  -6.358  1.00  0.00    -0.273 OA
ATOM      6  H   UNL     1       3.889   6.739  -8.353  1.00  0.00     0.163 HD
BRANCH   4   7
ATOM      7  C   UNL     1       3.777   5.620  -5.138  1.00  0.00     0.185 C 
ATOM      8  N   UNL     1       3.378   4.207  -5.173  1.00  0.00    -0.317 N 
ATOM      9  C   UNL     1       4.462   3.248  -5.140  1.00  0.00     0.190 C 
ATOM     10  S   UNL     1       5.816   4.060  -4.274  1.00  0.00    -0.138 SA
ATOM     11  C   UNL     1       5.213   5.744  -4.621  1.00  0.00     0.106 C 
BRANCH   8  12
ATOM     12  C   UNL     1       2.031   3.929  -4.981  1.00  0.00     0.255 C 
ATOM     13  O   UNL     1       1.145   4.612  -5.486  1.00  0.00    -0.269 OA
BRANCH  12  14
ATOM     14  C   UNL     1       1.643   2.863  -4.014  1.00  0.00     0.041 A 
ATOM     15  C   UNL     1       0.898   0.882  -2.147  1.00  0.00     0.136 A 
ATOM     16  C   UNL     1       0.033   1.263  -3.188  1.00  0.00     0.048 A 
ATOM     17  C   UNL     1       2.138   1.518  -2.034  1.00  0.00     0.095 A 
ATOM     18  C   UNL     1       0.401   2.240  -4.120  1.00  0.00     0.018 A 
ATOM     19  C   UNL     1       2.463   2.548  -2.925  1.00  0.00     0.037 A 
BRANCH  15  20
ATOM     20  O   UNL     1       0.409  -0.141  -1.382  1.00  0.00    -0.495 OA
ATOM     21  C   UNL     1       0.780  -0.175  -0.007  1.00  0.00     0.278 C 
ENDBRANCH  15  20
BRANCH  17  22
ATOM     22  C   UNL     1       3.166   1.147  -1.106  1.00  0.00     0.103 C 
ATOM     23  N   UNL     1       4.033   0.873  -0.388  1.00  0.00    -0.192 NA
ENDBRANCH  17  22
ENDBRANCH  12  14
ENDBRANCH   8  12
ENDBRANCH   4   7
ENDBRANCH   2   3
ENDBRANCH   1   2
BRANCH   1  24
ATOM     24  C   UNL     1       4.243   4.340 -10.188  1.00  0.00     0.023 C 
BRANCH  24  25
ATOM     25  C   UNL     1       5.505   4.761 -10.931  1.00  0.00     0.116 C 
BRANCH  25  26
ATOM     26  N   UNL     1       6.555   3.750 -10.893  1.00  0.00    -0.352 N 
ATOM     27  C   UNL     1       7.341   3.306 -11.930  1.00  0.00     0.251 C 
ATOM     28  H   UNL     1       6.722   3.334 -10.016  1.00  0.00     0.163 HD
ATOM     29  O   UNL     1       8.091   2.347 -11.790  1.00  0.00    -0.269 OA
BRANCH  27  30
ATOM     30  C   UNL     1       7.226   3.987 -13.233  1.00  0.00     0.039 A 
ATOM     31  C   UNL     1       6.926   3.231 -14.366  1.00  0.00     0.014 A 
ATOM     32  C   UNL     1       7.298   5.382 -13.298  1.00  0.00     0.014 A 
ATOM     33  C   UNL     1       6.602   3.885 -15.554  1.00  0.00     0.010 A 
ATOM     34  C   UNL     1       6.894   6.030 -14.457  1.00  0.00     0.010 A 
ATOM     35  C   UNL     1       6.526   5.288 -15.591  1.00  0.00    -0.014 A 
BRANCH  35  36
ATOM     36  C   UNL     1       6.019   6.002 -16.789  1.00  0.00     0.031 A 
ATOM     37  C   UNL     1       6.906   6.963 -17.524  1.00  0.00     0.074 A 
ATOM     38  C   UNL     1       4.732   5.846 -17.159  1.00  0.00     0.049 A 
ATOM     39  N   UNL     1       6.615   7.754 -18.525  1.00  0.00    -0.248 NA
ATOM     40  C   UNL     1       8.298   7.068 -17.058  1.00  0.00     0.031 C 
ATOM     41  C   UNL     1       3.761   4.968 -16.502  1.00  0.00     0.029 A 
ATOM     42  N   UNL     1       4.013   6.433 -18.171  1.00  0.00    -0.354 N 
ATOM     43  C   UNL     1       7.782   8.453 -18.803  1.00  0.00     0.074 A 
ATOM     44  C   UNL     1       8.768   8.035 -17.831  1.00  0.00     0.031 C 
ATOM     45  C   UNL     1       2.583   5.059 -17.138  1.00  0.00     0.029 A 
ATOM     46  C   UNL     1       2.696   6.043 -18.210  1.00  0.00     0.049 A 
ATOM     47  H   UNL     1       4.405   7.074 -18.808  1.00  0.00     0.167 HD
ATOM     48  C   UNL     1       8.013   9.347 -19.793  1.00  0.00     0.037 A 
ATOM     49  C   UNL     1       1.686   6.450 -19.002  1.00  0.00     0.037 A 
ATOM     50  C   UNL     1       7.027   9.756 -20.758  1.00  0.00     0.049 A 
ATOM     51  C   UNL     1       1.955   7.493 -20.054  1.00  0.00     0.074 A 
ATOM     52  C   UNL     1       7.179  10.616 -21.831  1.00  0.00     0.029 A 
ATOM     53  N   UNL     1       5.701   9.347 -20.757  1.00  0.00    -0.354 N 
ATOM     54  N   UNL     1       3.083   8.087 -20.358  1.00  0.00    -0.248 NA
ATOM     55  C   UNL     1       0.810   7.926 -20.868  1.00  0.00     0.031 C 
ATOM     56  C   UNL     1       5.930  10.784 -22.435  1.00  0.00     0.029 A 
ATOM     57  C   UNL     1       5.014   9.975 -21.783  1.00  0.00     0.049 A 
ATOM     58  H   UNL     1       5.308   8.705 -20.122  1.00  0.00     0.167 HD
ATOM     59  C   UNL     1       2.790   8.945 -21.411  1.00  0.00     0.074 A 
ATOM     60  C   UNL     1       1.383   8.777 -21.707  1.00  0.00     0.031 C 
ATOM     61  C   UNL     1       3.612   9.798 -22.069  1.00  0.00     0.037 A 
BRANCH  48  62
ATOM     62  C   UNL     1       9.384   9.957 -19.874  1.00  0.00     0.057 A 
ATOM     63  C   UNL     1      10.511   9.204 -20.232  1.00  0.00     0.134 A 
ATOM     64  C   UNL     1       9.572  11.324 -19.633  1.00  0.00     0.134 A 
ATOM     65  F   UNL     1      10.404   7.888 -20.468  1.00  0.00    -0.206 F 
ATOM     66  C   UNL     1      11.778   9.783 -20.319  1.00  0.00     0.040 A 
ATOM     67  C   UNL     1      10.828  11.920 -19.749  1.00  0.00     0.040 A 
ATOM     68  F   UNL     1       8.536  12.105 -19.294  1.00  0.00    -0.206 F 
ATOM     69  C   UNL     1      11.937  11.147 -20.085  1.00  0.00     0.006 A 
ENDBRANCH  48  62
BRANCH  49  70
ATOM     70  C   UNL     1       0.323   5.884 -18.827  1.00  0.00     0.057 A 
ATOM     71  C   UNL     1      -0.266   5.091 -19.819  1.00  0.00     0.134 A 
ATOM     72  C   UNL     1      -0.432   6.135 -17.674  1.00  0.00     0.134 A 
ATOM     73  F   UNL     1       0.397   4.830 -20.955  1.00  0.00    -0.206 F 
ATOM     74  C   UNL     1      -1.562   4.590 -19.683  1.00  0.00     0.040 A 
ATOM     75  C   UNL     1      -1.716   5.612 -17.510  1.00  0.00     0.040 A 
ATOM     76  F   UNL     1       0.074   6.880 -16.680  1.00  0.00    -0.206 F 
ATOM     77  C   UNL     1      -2.288   4.846 -18.523  1.00  0.00     0.006 A 
ENDBRANCH  49  70
BRANCH  61  78
ATOM     78  C   UNL     1       3.022  10.607 -23.189  1.00  0.00     0.057 A 
ATOM     79  C   UNL     1       2.132  11.661 -22.948  1.00  0.00     0.134 A 
ATOM     80  C   UNL     1       3.406  10.375 -24.516  1.00  0.00     0.134 A 
ATOM     81  F   UNL     1       1.714  11.928 -21.702  1.00  0.00    -0.206 F 
ATOM     82  C   UNL     1       1.633  12.446 -23.989  1.00  0.00     0.040 A 
ATOM     83  C   UNL     1       2.939  11.173 -25.561  1.00  0.00     0.040 A 
ATOM     84  F   UNL     1       4.263   9.388 -24.816  1.00  0.00    -0.206 F 
ATOM     85  C   UNL     1       2.047  12.210 -25.299  1.00  0.00     0.006 A 
ENDBRANCH  61  78
ENDBRANCH  35  36
ENDBRANCH  27  30
ENDBRANCH  25  26
ENDBRANCH  24  25
ENDBRANCH   1  24
TORSDOF 15
