REMARK SMILES CC[C@@]1(C)C[C@@H]([NH2+]C[C@H]2CC[C@@H](C(=O)NCCCCNC(=O)c3ccc(-c4c5nc(c(-c6c(F)cccc6F)c6ccc([nH]6)c(-c6c(F)cccc6F)c6nc(c(-c7c(F)cccc7F)c7ccc4[nH]7)C=C6)C=C5)cc3)CC2)CCO1
REMARK SMILES IDX 16 1 15 2 13 3 14 4 12 6 9 7 10 8 78 9 11 10 77 11 8 12 7 13
REMARK SMILES IDX 6 16 3 17 4 18 5 19 81 20 80 21 79 22 2 23 1 24 17 25 18 26
REMARK SMILES IDX 19 27 20 28 21 29 22 31 23 32 24 33 76 34 25 35 75 36 26 37
REMARK SMILES IDX 27 38 28 39 69 40 29 41 74 42 68 43 70 44 30 45 73 46 67 47
REMARK SMILES IDX 66 48 31 50 57 51 40 52 56 53 41 54 44 55 55 56 71 57 42 58
REMARK SMILES IDX 43 59 54 61 72 62 45 63 32 64 33 65 38 66 34 67 35 68 37 69
REMARK SMILES IDX 39 70 36 71 58 72 59 73 64 74 60 75 61 76 63 77 65 78 62 79
REMARK SMILES IDX 46 80 47 81 52 82 48 83 49 84 51 85 53 86 50 87
REMARK H PARENT 15 5 7 14 7 15 20 30 70 49 44 60
REMARK Flexibility Score: inf
ROOT
ATOM      1  C   UNL     1      -4.355  -2.541  -0.200  1.00  0.00     0.116 C 
ENDROOT
BRANCH   1   2
ATOM      2  N   UNL     1      -3.752  -3.862  -0.169  1.00  0.00    -0.356 N 
ATOM      3  C   UNL     1      -2.471  -4.240  -0.443  1.00  0.00     0.223 C 
ATOM      4  O   UNL     1      -2.185  -5.436  -0.394  1.00  0.00    -0.275 OA
ATOM      5  H   UNL     1      -4.359  -4.594   0.088  1.00  0.00     0.163 HD
BRANCH   3   6
ATOM      6  C   UNL     1      -1.425  -3.190  -0.774  1.00  0.00     0.078 C 
ATOM      7  C   UNL     1      -0.832  -0.304  -1.186  1.00  0.00     0.044 C 
ATOM      8  C   UNL     1      -0.483  -0.991   0.135  1.00  0.00     0.010 C 
ATOM      9  C   UNL     1      -0.892  -1.277  -2.366  1.00  0.00     0.010 C 
ATOM     10  C   UNL     1      -1.230  -2.269   0.438  1.00  0.00     0.014 C 
ATOM     11  C   UNL     1      -1.728  -2.514  -2.117  1.00  0.00     0.014 C 
BRANCH   7  12
ATOM     12  C   UNL     1      -2.028   0.679  -1.146  1.00  0.00     0.264 C 
BRANCH  12  13
ATOM     13  N   UNL     1      -1.705   2.061  -0.770  1.00  0.00    -0.343 N 
ATOM     14  H   UNL     1      -2.576   2.520  -0.503  1.00  0.00     0.346 HD
ATOM     15  H   UNL     1      -1.017   1.982  -0.021  1.00  0.00     0.346 HD
BRANCH  13  16
ATOM     16  C   UNL     1      -1.060   2.893  -1.800  1.00  0.00     0.187 C 
ATOM     17  C   UNL     1       1.515   2.760  -1.343  1.00  0.00     0.071 C 
ATOM     18  C   UNL     1       2.808   2.478  -2.128  1.00  0.00     0.042 C 
ATOM     19  C   UNL     1       0.334   2.488  -2.313  1.00  0.00     0.100 C 
ATOM     20  O   UNL     1       1.480   4.182  -1.079  1.00  0.00    -0.375 OA
ATOM     21  C   UNL     1       0.264   4.631  -0.469  1.00  0.00     0.167 C 
ATOM     22  C   UNL     1      -0.956   4.361  -1.344  1.00  0.00     0.093 C 
BRANCH  17  23
ATOM     23  C   UNL     1       1.561   2.032   0.035  1.00  0.00     0.032 C 
ATOM     24  C   UNL     1       2.416   0.777   0.165  1.00  0.00     0.007 C 
ENDBRANCH  17  23
ENDBRANCH  13  16
ENDBRANCH  12  13
ENDBRANCH   7  12
ENDBRANCH   3   6
ENDBRANCH   1   2
BRANCH   1  25
ATOM     25  C   UNL     1      -5.474  -2.459  -1.226  1.00  0.00     0.023 C 
BRANCH  25  26
ATOM     26  C   UNL     1      -6.675  -3.327  -0.877  1.00  0.00     0.023 C 
BRANCH  26  27
ATOM     27  C   UNL     1      -7.208  -3.103   0.529  1.00  0.00     0.116 C 
BRANCH  27  28
ATOM     28  N   UNL     1      -7.602  -1.722   0.769  1.00  0.00    -0.352 N 
ATOM     29  C   UNL     1      -8.732  -1.275   1.408  1.00  0.00     0.251 C 
ATOM     30  H   UNL     1      -6.988  -1.029   0.435  1.00  0.00     0.163 HD
ATOM     31  O   UNL     1      -9.030  -0.087   1.423  1.00  0.00    -0.269 OA
BRANCH  29  32
ATOM     32  C   UNL     1      -9.596  -2.277   2.053  1.00  0.00     0.039 A 
ATOM     33  C   UNL     1     -10.946  -2.335   1.707  1.00  0.00     0.014 A 
ATOM     34  C   UNL     1      -9.032  -3.217   2.921  1.00  0.00     0.014 A 
ATOM     35  C   UNL     1     -11.729  -3.376   2.203  1.00  0.00     0.010 A 
ATOM     36  C   UNL     1      -9.790  -4.302   3.335  1.00  0.00     0.010 A 
ATOM     37  C   UNL     1     -11.150  -4.379   2.999  1.00  0.00    -0.014 A 
BRANCH  37  38
ATOM     38  C   UNL     1     -11.961  -5.494   3.539  1.00  0.00     0.031 A 
ATOM     39  C   UNL     1     -12.125  -5.635   5.026  1.00  0.00     0.074 A 
ATOM     40  C   UNL     1     -12.492  -6.408   2.705  1.00  0.00     0.049 A 
ATOM     41  N   UNL     1     -12.739  -6.567   5.707  1.00  0.00    -0.248 NA
ATOM     42  C   UNL     1     -11.476  -4.611   5.860  1.00  0.00     0.031 C 
ATOM     43  C   UNL     1     -12.349  -6.413   1.248  1.00  0.00     0.029 A 
ATOM     44  N   UNL     1     -13.253  -7.518   2.970  1.00  0.00    -0.354 N 
ATOM     45  C   UNL     1     -12.530  -6.253   7.043  1.00  0.00     0.074 A 
ATOM     46  C   UNL     1     -11.675  -5.088   7.078  1.00  0.00     0.031 C 
ATOM     47  C   UNL     1     -13.022  -7.460   0.746  1.00  0.00     0.029 A 
ATOM     48  C   UNL     1     -13.618  -8.215   1.845  1.00  0.00     0.049 A 
ATOM     49  H   UNL     1     -13.512  -7.789   3.880  1.00  0.00     0.167 HD
ATOM     50  C   UNL     1     -13.032  -6.859   8.145  1.00  0.00     0.037 A 
ATOM     51  C   UNL     1     -14.353  -9.335   1.718  1.00  0.00     0.037 A 
ATOM     52  C   UNL     1     -13.908  -7.999   8.103  1.00  0.00     0.049 A 
ATOM     53  C   UNL     1     -14.924  -9.979   2.950  1.00  0.00     0.074 A 
ATOM     54  C   UNL     1     -14.523  -8.655   9.153  1.00  0.00     0.029 A 
ATOM     55  N   UNL     1     -14.291  -8.653   6.940  1.00  0.00    -0.354 N 
ATOM     56  N   UNL     1     -14.782  -9.630   4.207  1.00  0.00    -0.248 NA
ATOM     57  C   UNL     1     -15.771 -11.162   2.747  1.00  0.00     0.031 C 
ATOM     58  C   UNL     1     -15.247  -9.731   8.629  1.00  0.00     0.029 A 
ATOM     59  C   UNL     1     -15.124  -9.714   7.248  1.00  0.00     0.049 A 
ATOM     60  H   UNL     1     -14.012  -8.399   6.031  1.00  0.00     0.167 HD
ATOM     61  C   UNL     1     -15.545 -10.530   4.941  1.00  0.00     0.074 A 
ATOM     62  C   UNL     1     -16.154 -11.434   3.986  1.00  0.00     0.031 C 
ATOM     63  C   UNL     1     -15.728 -10.598   6.283  1.00  0.00     0.037 A 
BRANCH  50  64
ATOM     64  C   UNL     1     -12.638  -6.289   9.477  1.00  0.00     0.057 A 
ATOM     65  C   UNL     1     -13.068  -5.022   9.898  1.00  0.00     0.134 A 
ATOM     66  C   UNL     1     -11.805  -7.007  10.344  1.00  0.00     0.134 A 
ATOM     67  F   UNL     1     -13.853  -4.273   9.109  1.00  0.00    -0.206 F 
ATOM     68  C   UNL     1     -12.647  -4.472  11.111  1.00  0.00     0.040 A 
ATOM     69  C   UNL     1     -11.405  -6.481  11.574  1.00  0.00     0.040 A 
ATOM     70  F   UNL     1     -11.360  -8.227  10.007  1.00  0.00    -0.206 F 
ATOM     71  C   UNL     1     -11.816  -5.205  11.954  1.00  0.00     0.006 A 
ENDBRANCH  50  64
BRANCH  51  72
ATOM     72  C   UNL     1     -14.626  -9.887   0.367  1.00  0.00     0.057 A 
ATOM     73  C   UNL     1     -15.897  -9.789  -0.208  1.00  0.00     0.134 A 
ATOM     74  C   UNL     1     -13.621 -10.503  -0.388  1.00  0.00     0.134 A 
ATOM     75  F   UNL     1     -16.904  -9.222   0.472  1.00  0.00    -0.206 F 
ATOM     76  C   UNL     1     -16.165 -10.295  -1.481  1.00  0.00     0.040 A 
ATOM     77  C   UNL     1     -13.868 -10.993  -1.671  1.00  0.00     0.040 A 
ATOM     78  F   UNL     1     -12.378 -10.617   0.104  1.00  0.00    -0.206 F 
ATOM     79  C   UNL     1     -15.146 -10.894  -2.219  1.00  0.00     0.006 A 
ENDBRANCH  51  72
BRANCH  63  80
ATOM     80  C   UNL     1     -16.658 -11.659   6.795  1.00  0.00     0.057 A 
ATOM     81  C   UNL     1     -16.311 -13.015   6.794  1.00  0.00     0.134 A 
ATOM     82  C   UNL     1     -17.902 -11.309   7.335  1.00  0.00     0.134 A 
ATOM     83  F   UNL     1     -15.138 -13.418   6.281  1.00  0.00    -0.206 F 
ATOM     84  C   UNL     1     -17.180 -13.989   7.288  1.00  0.00     0.040 A 
ATOM     85  C   UNL     1     -18.768 -12.270   7.857  1.00  0.00     0.040 A 
ATOM     86  F   UNL     1     -18.291 -10.025   7.375  1.00  0.00    -0.206 F 
ATOM     87  C   UNL     1     -18.410 -13.616   7.829  1.00  0.00     0.006 A 
ENDBRANCH  63  80
ENDBRANCH  37  38
ENDBRANCH  29  32
ENDBRANCH  27  28
ENDBRANCH  26  27
ENDBRANCH  25  26
ENDBRANCH   1  25
TORSDOF 15
