REMARK SMILES [NH3+][C@@H](Cc1c[nH]c2ccccc12)C(=O)N[C@@H](CS)C(=O)N[C@@H](CO)C(=O)NCCCCNC(=O)c1ccc(-c2c3nc(c(-c4c(F)cccc4F)c4ccc([nH]4)c(-c4c(F)cccc4F)c4nc(c(-c5c(F)cccc5F)c5ccc2[nH]5)C=C4)C=C3)cc1
REMARK SMILES IDX 25 1 26 2 27 3 22 5 21 6 19 7 20 8 16 10 15 11 13 12 14 13
REMARK SMILES IDX 2 15 1 16 3 20 4 21 5 22 12 23 6 24 7 25 11 26 8 28 10 29
REMARK SMILES IDX 9 30 17 31 18 32 23 34 24 35 28 37 29 38 30 39 31 40 32 41
REMARK SMILES IDX 33 42 34 44 35 45 36 46 88 47 37 48 87 49 38 50 39 51 40 52
REMARK SMILES IDX 81 53 41 54 86 55 80 56 82 57 42 58 85 59 79 60 78 61 43 63
REMARK SMILES IDX 69 64 52 65 68 66 53 67 56 68 67 69 83 70 54 71 55 72 66 74
REMARK SMILES IDX 84 75 57 76 44 77 45 78 50 79 46 80 47 81 49 82 51 83 48 84
REMARK SMILES IDX 70 85 71 86 76 87 72 88 73 89 75 90 77 91 74 92 58 93 59 94
REMARK SMILES IDX 64 95 60 96 61 97 63 98 65 99 62 100
REMARK H PARENT 27 4 21 9 15 14 1 17 1 18 1 19 6 27 18 33 24 36 32 43 82 62
REMARK H PARENT 56 73
REMARK Flexibility Score: inf
ROOT
ATOM      1  C   UNL     1      -5.248  -3.836   1.562  1.00  0.00     0.244 C 
ATOM      2  O   UNL     1      -5.630  -3.262   2.588  1.00  0.00    -0.273 OA
ATOM      3  N   UNL     1      -5.424  -5.180   1.507  1.00  0.00    -0.354 N 
ATOM      4  H   UNL     1      -5.702  -5.592   2.357  1.00  0.00     0.163 HD
ENDROOT
BRANCH   1   5
ATOM      5  C   UNL     1      -4.676  -3.014   0.400  1.00  0.00     0.197 C 
BRANCH   5   6
ATOM      6  N   UNL     1      -3.391  -3.485  -0.093  1.00  0.00    -0.340 N 
ATOM      7  C   UNL     1      -2.354  -2.783  -0.602  1.00  0.00     0.244 C 
ATOM      8  O   UNL     1      -1.746  -3.370  -1.509  1.00  0.00    -0.273 OA
ATOM      9  H   UNL     1      -3.256  -4.459  -0.050  1.00  0.00     0.164 HD
BRANCH   7  10
ATOM     10  C   UNL     1      -1.913  -1.370  -0.142  1.00  0.00     0.181 C 
BRANCH  10  11
ATOM     11  N   UNL     1      -1.775  -0.508  -1.302  1.00  0.00    -0.338 N 
ATOM     12  C   UNL     1      -0.639  -0.110  -1.931  1.00  0.00     0.279 C 
ATOM     13  O   UNL     1      -0.789   0.547  -2.970  1.00  0.00    -0.268 OA
ATOM     14  H   UNL     1      -2.616  -0.168  -1.683  1.00  0.00     0.164 HD
BRANCH  12  15
ATOM     15  C   UNL     1       0.794  -0.330  -1.358  1.00  0.00     0.275 C 
BRANCH  15  16
ATOM     16  N   UNL     1       1.007   0.503  -0.158  1.00  0.00    -0.347 N 
ATOM     17  H   UNL     1       1.948   0.346   0.202  1.00  0.00     0.345 HD
ATOM     18  H   UNL     1       0.324   0.252   0.556  1.00  0.00     0.345 HD
ATOM     19  H   UNL     1       0.897   1.487  -0.403  1.00  0.00     0.345 HD
ENDBRANCH  15  16
BRANCH  15  20
ATOM     20  C   UNL     1       1.416  -1.740  -1.348  1.00  0.00     0.113 C 
BRANCH  20  21
ATOM     21  C   UNL     1       1.198  -2.785  -0.270  1.00  0.00    -0.016 A 
ATOM     22  C   UNL     1       1.226  -4.137  -0.581  1.00  0.00     0.087 A 
ATOM     23  C   UNL     1       0.922  -2.725   1.151  1.00  0.00     0.003 A 
ATOM     24  N   UNL     1       0.839  -4.859   0.508  1.00  0.00    -0.361 N 
ATOM     25  C   UNL     1       0.560  -4.017   1.553  1.00  0.00     0.046 A 
ATOM     26  C   UNL     1       0.816  -1.708   2.128  1.00  0.00     0.010 A 
ATOM     27  H   UNL     1       0.769  -5.840   0.539  1.00  0.00     0.166 HD
ATOM     28  C   UNL     1       0.011  -4.312   2.809  1.00  0.00     0.026 A 
ATOM     29  C   UNL     1       0.259  -1.980   3.386  1.00  0.00     0.001 A 
ATOM     30  C   UNL     1      -0.162  -3.263   3.710  1.00  0.00     0.002 A 
ENDBRANCH  20  21
ENDBRANCH  15  20
ENDBRANCH  12  15
ENDBRANCH  10  11
BRANCH  10  31
ATOM     31  C   UNL     1      -2.460  -0.684   1.114  1.00  0.00     0.101 C 
BRANCH  31  32
ATOM     32  S   UNL     1      -3.793   0.538   0.818  1.00  0.00    -0.177 SA
ATOM     33  H   UNL     1      -3.312   1.560   0.061  1.00  0.00     0.102 HD
ENDBRANCH  31  32
ENDBRANCH  10  31
ENDBRANCH   7  10
ENDBRANCH   5   6
BRANCH   5  34
ATOM     34  C   UNL     1      -5.688  -2.785  -0.732  1.00  0.00     0.191 C 
BRANCH  34  35
ATOM     35  O   UNL     1      -5.767  -3.880  -1.641  1.00  0.00    -0.394 OA
ATOM     36  H   UNL     1      -4.906  -4.008  -2.069  1.00  0.00     0.210 HD
ENDBRANCH  34  35
ENDBRANCH   5  34
ENDBRANCH   1   5
BRANCH   3  37
ATOM     37  C   UNL     1      -5.272  -6.110   0.408  1.00  0.00     0.116 C 
BRANCH  37  38
ATOM     38  C   UNL     1      -4.421  -7.313   0.797  1.00  0.00     0.023 C 
BRANCH  38  39
ATOM     39  C   UNL     1      -5.010  -8.184   1.905  1.00  0.00     0.023 C 
BRANCH  39  40
ATOM     40  C   UNL     1      -6.480  -8.543   1.730  1.00  0.00     0.116 C 
BRANCH  40  41
ATOM     41  N   UNL     1      -6.774  -9.144   0.440  1.00  0.00    -0.352 N 
ATOM     42  C   UNL     1      -7.653 -10.161   0.148  1.00  0.00     0.251 C 
ATOM     43  H   UNL     1      -6.279  -8.774  -0.327  1.00  0.00     0.163 HD
ATOM     44  O   UNL     1      -7.725 -10.621  -0.978  1.00  0.00    -0.269 OA
BRANCH  42  45
ATOM     45  C   UNL     1      -8.479 -10.715   1.240  1.00  0.00     0.039 A 
ATOM     46  C   UNL     1      -8.493 -12.097   1.430  1.00  0.00     0.014 A 
ATOM     47  C   UNL     1      -9.191  -9.868   2.093  1.00  0.00     0.014 A 
ATOM     48  C   UNL     1      -9.184 -12.630   2.517  1.00  0.00     0.010 A 
ATOM     49  C   UNL     1      -9.809 -10.394   3.221  1.00  0.00     0.010 A 
ATOM     50  C   UNL     1      -9.822 -11.780   3.436  1.00  0.00    -0.014 A 
BRANCH  50  51
ATOM     51  C   UNL     1     -10.539 -12.332   4.609  1.00  0.00     0.031 A 
ATOM     52  C   UNL     1     -12.028 -12.156   4.725  1.00  0.00     0.074 A 
ATOM     53  C   UNL     1      -9.848 -12.952   5.585  1.00  0.00     0.049 A 
ATOM     54  N   UNL     1     -12.833 -12.538   5.682  1.00  0.00    -0.248 NA
ATOM     55  C   UNL     1     -12.695 -11.427   3.634  1.00  0.00     0.031 C 
ATOM     56  C   UNL     1      -8.395 -13.135   5.610  1.00  0.00     0.029 A 
ATOM     57  N   UNL     1     -10.277 -13.543   6.745  1.00  0.00    -0.354 N 
ATOM     58  C   UNL     1     -14.094 -12.085   5.315  1.00  0.00     0.074 A 
ATOM     59  C   UNL     1     -13.938 -11.345   4.083  1.00  0.00     0.031 C 
ATOM     60  C   UNL     1      -8.059 -13.823   6.714  1.00  0.00     0.029 A 
ATOM     61  C   UNL     1      -9.265 -14.102   7.486  1.00  0.00     0.049 A 
ATOM     62  H   UNL     1     -11.222 -13.565   7.021  1.00  0.00     0.167 HD
ATOM     63  C   UNL     1     -15.281 -12.295   5.931  1.00  0.00     0.037 A 
ATOM     64  C   UNL     1      -9.310 -14.770   8.654  1.00  0.00     0.037 A 
ATOM     65  C   UNL     1     -15.435 -13.057   7.141  1.00  0.00     0.049 A 
ATOM     66  C   UNL     1     -10.643 -15.003   9.311  1.00  0.00     0.074 A 
ATOM     67  C   UNL     1     -16.598 -13.368   7.824  1.00  0.00     0.029 A 
ATOM     68  N   UNL     1     -14.389 -13.632   7.847  1.00  0.00    -0.354 N 
ATOM     69  N   UNL     1     -11.836 -14.625   8.919  1.00  0.00    -0.248 NA
ATOM     70  C   UNL     1     -10.636 -15.767  10.566  1.00  0.00     0.031 C 
ATOM     71  C   UNL     1     -16.251 -14.104   8.962  1.00  0.00     0.029 A 
ATOM     72  C   UNL     1     -14.878 -14.290   8.963  1.00  0.00     0.049 A 
ATOM     73  H   UNL     1     -13.440 -13.581   7.593  1.00  0.00     0.167 HD
ATOM     74  C   UNL     1     -12.723 -15.136   9.857  1.00  0.00     0.074 A 
ATOM     75  C   UNL     1     -11.931 -15.860  10.830  1.00  0.00     0.031 C 
ATOM     76  C   UNL     1     -14.073 -15.018   9.910  1.00  0.00     0.037 A 
BRANCH  63  77
ATOM     77  C   UNL     1     -16.502 -11.698   5.295  1.00  0.00     0.057 A 
ATOM     78  C   UNL     1     -17.012 -12.181   4.082  1.00  0.00     0.134 A 
ATOM     79  C   UNL     1     -17.188 -10.642   5.907  1.00  0.00     0.134 A 
ATOM     80  F   UNL     1     -16.394 -13.181   3.434  1.00  0.00    -0.206 F 
ATOM     81  C   UNL     1     -18.142 -11.617   3.487  1.00  0.00     0.040 A 
ATOM     82  C   UNL     1     -18.335 -10.088   5.337  1.00  0.00     0.040 A 
ATOM     83  F   UNL     1     -16.756 -10.133   7.071  1.00  0.00    -0.206 F 
ATOM     84  C   UNL     1     -18.811 -10.571   4.119  1.00  0.00     0.006 A 
ENDBRANCH  63  77
BRANCH  64  85
ATOM     85  C   UNL     1      -8.063 -15.306   9.257  1.00  0.00     0.057 A 
ATOM     86  C   UNL     1      -7.818 -16.683   9.301  1.00  0.00     0.134 A 
ATOM     87  C   UNL     1      -7.098 -14.461   9.816  1.00  0.00     0.134 A 
ATOM     88  F   UNL     1      -8.714 -17.544   8.796  1.00  0.00    -0.206 F 
ATOM     89  C   UNL     1      -6.671 -17.204   9.902  1.00  0.00     0.040 A 
ATOM     90  C   UNL     1      -5.934 -14.967  10.399  1.00  0.00     0.040 A 
ATOM     91  F   UNL     1      -7.268 -13.131   9.797  1.00  0.00    -0.206 F 
ATOM     92  C   UNL     1      -5.723 -16.344  10.451  1.00  0.00     0.006 A 
ENDBRANCH  64  85
BRANCH  76  93
ATOM     93  C   UNL     1     -14.778 -15.729  11.027  1.00  0.00     0.057 A 
ATOM     94  C   UNL     1     -14.703 -15.287  12.353  1.00  0.00     0.134 A 
ATOM     95  C   UNL     1     -15.566 -16.857  10.763  1.00  0.00     0.134 A 
ATOM     96  F   UNL     1     -13.954 -14.221  12.674  1.00  0.00    -0.206 F 
ATOM     97  C   UNL     1     -15.363 -15.960  13.383  1.00  0.00     0.040 A 
ATOM     98  C   UNL     1     -16.253 -17.521  11.779  1.00  0.00     0.040 A 
ATOM     99  F   UNL     1     -15.688 -17.326   9.512  1.00  0.00    -0.206 F 
ATOM    100  C   UNL     1     -16.145 -17.077  13.096  1.00  0.00     0.006 A 
ENDBRANCH  76  93
ENDBRANCH  50  51
ENDBRANCH  42  45
ENDBRANCH  40  41
ENDBRANCH  39  40
ENDBRANCH  38  39
ENDBRANCH  37  38
ENDBRANCH   3  37
TORSDOF 22
