REMARK SMILES COc1cccc(-c2nn(-c3cc4c(cc3C(N)=O)OCO4)cc2C(=O)NCCCCNC(=O)c2ccc(-c3c4nc(c(-c5c(F)cccc5F)c5ccc([nH]5)c(-c5c(F)cccc5F)c5nc(c(-c6c(F)cccc6F)c6ccc3[nH]6)C=C5)C=C4)cc2)c1
REMARK SMILES IDX 29 1 28 2 27 3 25 4 26 5 24 7 8 8 9 9 10 10 23 11 7 12 3 13
REMARK SMILES IDX 4 14 89 15 5 16 6 17 2 18 1 19 11 20 12 21 16 22 13 23 15 24
REMARK SMILES IDX 14 25 22 26 20 27 21 28 17 29 18 30 19 31 30 34 31 35 32 36
REMARK SMILES IDX 33 37 34 39 35 40 36 41 88 42 37 43 87 44 38 45 39 46 40 47
REMARK SMILES IDX 81 48 41 49 86 50 80 51 82 52 42 53 85 54 79 55 78 56 43 58
REMARK SMILES IDX 69 59 52 60 68 61 53 62 56 63 67 64 83 65 54 66 55 67 66 69
REMARK SMILES IDX 84 70 57 71 44 72 45 73 50 74 46 75 47 76 49 77 51 78 48 79
REMARK SMILES IDX 70 80 71 81 76 82 72 83 73 84 75 85 77 86 74 87 58 88 59 89
REMARK SMILES IDX 64 90 60 91 61 92 63 93 65 94 62 95
REMARK H PARENT 27 6 18 32 18 33 32 38 82 57 56 68
REMARK Flexibility Score: inf
ROOT
ATOM      1  C   UNL     1       6.500   7.262  -3.224  1.00  0.00     0.023 C 
ENDROOT
BRANCH   1   2
ATOM      2  C   UNL     1       6.020   6.466  -2.009  1.00  0.00     0.116 C 
BRANCH   2   3
ATOM      3  N   UNL     1       4.617   6.126  -2.110  1.00  0.00    -0.352 N 
ATOM      4  C   UNL     1       3.953   4.995  -2.520  1.00  0.00     0.255 C 
ATOM      5  O   UNL     1       2.726   5.050  -2.429  1.00  0.00    -0.269 OA
ATOM      6  H   UNL     1       4.016   6.852  -1.827  1.00  0.00     0.163 HD
BRANCH   4   7
ATOM      7  C   UNL     1       4.645   3.801  -2.988  1.00  0.00     0.086 A 
ATOM      8  C   UNL     1       4.093   2.491  -3.227  1.00  0.00     0.106 A 
ATOM      9  N   UNL     1       5.056   1.592  -3.527  1.00  0.00    -0.167 NA
ATOM     10  N   UNL     1       6.200   2.275  -3.311  1.00  0.00    -0.239 N 
ATOM     11  C   UNL     1       5.972   3.629  -3.317  1.00  0.00     0.129 A 
BRANCH   8  12
ATOM     12  C   UNL     1       2.684   2.098  -3.168  1.00  0.00     0.007 A 
ATOM     13  C   UNL     1       0.893   0.822  -2.147  1.00  0.00     0.119 A 
ATOM     14  C   UNL     1      -0.035   1.463  -2.971  1.00  0.00     0.046 A 
ATOM     15  C   UNL     1       2.254   1.121  -2.259  1.00  0.00     0.056 A 
ATOM     16  C   UNL     1       0.388   2.421  -3.890  1.00  0.00     0.005 A 
ATOM     17  C   UNL     1       1.744   2.732  -3.991  1.00  0.00     0.011 A 
BRANCH  13  18
ATOM     18  O   UNL     1       0.382  -0.127  -1.302  1.00  0.00    -0.497 OA
ATOM     19  C   UNL     1       0.907  -0.065   0.021  1.00  0.00     0.278 C 
ENDBRANCH  13  18
ENDBRANCH   8  12
BRANCH  10  20
ATOM     20  C   UNL     1       7.479   1.670  -3.265  1.00  0.00     0.081 A 
ATOM     21  C   UNL     1       7.806   0.737  -4.266  1.00  0.00     0.079 A 
ATOM     22  C   UNL     1       8.446   2.070  -2.292  1.00  0.00     0.069 A 
ATOM     23  C   UNL     1       9.115   0.302  -4.322  1.00  0.00     0.167 A 
ATOM     24  C   UNL     1       9.781   1.667  -2.452  1.00  0.00     0.066 A 
ATOM     25  C   UNL     1      10.075   0.778  -3.460  1.00  0.00     0.166 A 
ATOM     26  O   UNL     1       9.631  -0.599  -5.202  1.00  0.00    -0.454 OA
ATOM     27  O   UNL     1      11.302   0.240  -3.690  1.00  0.00    -0.454 OA
ATOM     28  C   UNL     1      10.964  -0.761  -4.670  1.00  0.00     0.468 C 
BRANCH  22  29
ATOM     29  C   UNL     1       8.059   2.737  -1.001  1.00  0.00     0.251 C 
ATOM     30  N   UNL     1       8.922   2.648   0.056  1.00  0.00    -0.366 N 
ATOM     31  O   UNL     1       6.985   3.297  -0.812  1.00  0.00    -0.269 OA
ATOM     32  H   UNL     1       9.794   2.205  -0.057  1.00  0.00     0.159 HD
ATOM     33  H   UNL     1       8.671   3.026   0.930  1.00  0.00     0.159 HD
ENDBRANCH  22  29
ENDBRANCH  10  20
ENDBRANCH   4   7
ENDBRANCH   2   3
ENDBRANCH   1   2
BRANCH   1  34
ATOM     34  C   UNL     1       5.981   8.707  -3.297  1.00  0.00     0.023 C 
BRANCH  34  35
ATOM     35  C   UNL     1       6.412   9.608  -2.142  1.00  0.00     0.116 C 
BRANCH  35  36
ATOM     36  N   UNL     1       7.865   9.736  -2.026  1.00  0.00    -0.352 N 
ATOM     37  C   UNL     1       8.602  10.277  -0.988  1.00  0.00     0.251 C 
ATOM     38  H   UNL     1       8.386   9.391  -2.787  1.00  0.00     0.163 HD
ATOM     39  O   UNL     1       9.741  10.678  -1.167  1.00  0.00    -0.269 OA
BRANCH  37  40
ATOM     40  C   UNL     1       7.992  10.350   0.351  1.00  0.00     0.039 A 
ATOM     41  C   UNL     1       8.153  11.471   1.169  1.00  0.00     0.014 A 
ATOM     42  C   UNL     1       7.227   9.268   0.773  1.00  0.00     0.014 A 
ATOM     43  C   UNL     1       7.460  11.524   2.377  1.00  0.00     0.010 A 
ATOM     44  C   UNL     1       6.426   9.385   1.880  1.00  0.00     0.010 A 
ATOM     45  C   UNL     1       6.576  10.485   2.715  1.00  0.00    -0.014 A 
BRANCH  45  46
ATOM     46  C   UNL     1       5.697  10.598   3.874  1.00  0.00     0.031 A 
ATOM     47  C   UNL     1       4.867  11.834   3.887  1.00  0.00     0.074 A 
ATOM     48  C   UNL     1       5.474   9.583   4.739  1.00  0.00     0.049 A 
ATOM     49  N   UNL     1       4.954  12.830   4.704  1.00  0.00    -0.248 NA
ATOM     50  C   UNL     1       3.931  12.059   2.773  1.00  0.00     0.031 C 
ATOM     51  C   UNL     1       5.971   8.203   4.666  1.00  0.00     0.029 A 
ATOM     52  N   UNL     1       4.655   9.540   5.827  1.00  0.00    -0.354 N 
ATOM     53  C   UNL     1       3.927  13.702   4.351  1.00  0.00     0.074 A 
ATOM     54  C   UNL     1       3.475  13.283   3.051  1.00  0.00     0.031 C 
ATOM     55  C   UNL     1       5.266   7.418   5.508  1.00  0.00     0.029 A 
ATOM     56  C   UNL     1       4.395   8.260   6.306  1.00  0.00     0.049 A 
ATOM     57  H   UNL     1       4.279  10.350   6.241  1.00  0.00     0.167 HD
ATOM     58  C   UNL     1       3.353  14.510   5.285  1.00  0.00     0.037 A 
ATOM     59  C   UNL     1       3.514   7.914   7.277  1.00  0.00     0.037 A 
ATOM     60  C   UNL     1       4.189  14.614   6.458  1.00  0.00     0.049 A 
ATOM     61  C   UNL     1       3.225   9.137   8.062  1.00  0.00     0.074 A 
ATOM     62  C   UNL     1       5.486  15.023   6.704  1.00  0.00     0.029 A 
ATOM     63  N   UNL     1       3.812  13.892   7.563  1.00  0.00    -0.354 N 
ATOM     64  N   UNL     1       4.096   9.733   8.825  1.00  0.00    -0.248 NA
ATOM     65  C   UNL     1       2.095   9.952   7.646  1.00  0.00     0.031 C 
ATOM     66  C   UNL     1       5.972  14.125   7.702  1.00  0.00     0.029 A 
ATOM     67  C   UNL     1       4.927  13.274   8.062  1.00  0.00     0.049 A 
ATOM     68  H   UNL     1       2.901  13.830   7.932  1.00  0.00     0.167 HD
ATOM     69  C   UNL     1       3.878  11.085   8.610  1.00  0.00     0.074 A 
ATOM     70  C   UNL     1       2.571  11.159   7.960  1.00  0.00     0.031 C 
ATOM     71  C   UNL     1       4.903  11.983   8.710  1.00  0.00     0.037 A 
BRANCH  58  72
ATOM     72  C   UNL     1       1.875  14.838   5.336  1.00  0.00     0.057 A 
ATOM     73  C   UNL     1       1.414  15.729   6.326  1.00  0.00     0.134 A 
ATOM     74  C   UNL     1       0.864  14.094   4.693  1.00  0.00     0.134 A 
ATOM     75  F   UNL     1       2.272  16.497   7.014  1.00  0.00    -0.206 F 
ATOM     76  C   UNL     1       0.071  15.790   6.718  1.00  0.00     0.040 A 
ATOM     77  C   UNL     1      -0.486  14.187   5.041  1.00  0.00     0.040 A 
ATOM     78  F   UNL     1       1.125  13.165   3.768  1.00  0.00    -0.206 F 
ATOM     79  C   UNL     1      -0.883  15.007   6.084  1.00  0.00     0.006 A 
ENDBRANCH  58  72
BRANCH  59  80
ATOM     80  C   UNL     1       2.692   6.688   7.411  1.00  0.00     0.057 A 
ATOM     81  C   UNL     1       2.045   6.379   8.617  1.00  0.00     0.134 A 
ATOM     82  C   UNL     1       2.279   5.954   6.286  1.00  0.00     0.134 A 
ATOM     83  F   UNL     1       2.344   7.048   9.741  1.00  0.00    -0.206 F 
ATOM     84  C   UNL     1       1.021   5.425   8.694  1.00  0.00     0.040 A 
ATOM     85  C   UNL     1       1.262   4.995   6.349  1.00  0.00     0.040 A 
ATOM     86  F   UNL     1       2.783   6.210   5.070  1.00  0.00    -0.206 F 
ATOM     87  C   UNL     1       0.616   4.740   7.553  1.00  0.00     0.006 A 
ENDBRANCH  59  80
BRANCH  71  88
ATOM     88  C   UNL     1       6.185  11.520   9.347  1.00  0.00     0.057 A 
ATOM     89  C   UNL     1       7.013  10.511   8.831  1.00  0.00     0.134 A 
ATOM     90  C   UNL     1       6.666  12.224  10.456  1.00  0.00     0.134 A 
ATOM     91  F   UNL     1       6.687   9.842   7.718  1.00  0.00    -0.206 F 
ATOM     92  C   UNL     1       8.243  10.194   9.418  1.00  0.00     0.040 A 
ATOM     93  C   UNL     1       7.907  11.941  11.030  1.00  0.00     0.040 A 
ATOM     94  F   UNL     1       5.953  13.237  10.973  1.00  0.00    -0.206 F 
ATOM     95  C   UNL     1       8.696  10.915  10.518  1.00  0.00     0.006 A 
ENDBRANCH  71  88
ENDBRANCH  45  46
ENDBRANCH  37  40
ENDBRANCH  35  36
ENDBRANCH  34  35
ENDBRANCH   1  34
TORSDOF 15
