REMARK SMILES C[C@@H]([N@@H+](C)[C@@H]1COC[C@@H]1C(=O)NCCCCNC(=O)c1ccc(-c2c3nc(c(-c4c(F)cccc4F)c4ccc([nH]4)c(-c4c(F)cccc4F)c4nc(c(-c5c(F)cccc5F)c5ccc2[nH]5)C=C4)C=C3)cc1)C1(C)CC1
REMARK SMILES IDX 14 1 13 2 12 3 10 4 11 5 9 7 5 8 6 9 7 10 8 11 3 12 4 13
REMARK SMILES IDX 2 15 1 16 74 17 75 18 76 19 77 20 15 21 16 22 17 23 18 24
REMARK SMILES IDX 19 26 20 27 21 28 73 29 22 30 72 31 23 32 24 33 25 34 66 35
REMARK SMILES IDX 26 36 71 37 65 38 67 39 27 40 70 41 64 42 63 43 28 45 54 46
REMARK SMILES IDX 37 47 53 48 38 49 41 50 52 51 68 52 39 53 40 54 51 56 69 57
REMARK SMILES IDX 42 58 29 59 30 60 35 61 31 62 32 63 34 64 36 65 33 66 55 67
REMARK SMILES IDX 56 68 61 69 57 70 58 71 60 72 62 73 59 74 43 75 44 76 49 77
REMARK SMILES IDX 45 78 46 79 48 80 50 81 47 82
REMARK H PARENT 12 6 3 14 17 25 67 44 41 55
REMARK Flexibility Score: inf
ROOT
ATOM      1  C   UNL     1      -0.107   6.012  -0.307  1.00  0.00     0.023 C 
ENDROOT
BRANCH   1   2
ATOM      2  C   UNL     1       1.233   6.108   0.443  1.00  0.00     0.116 C 
BRANCH   2   3
ATOM      3  N   UNL     1       1.440   5.162   1.536  1.00  0.00    -0.356 N 
ATOM      4  C   UNL     1       2.207   4.033   1.670  1.00  0.00     0.231 C 
ATOM      5  O   UNL     1       2.220   3.497   2.780  1.00  0.00    -0.274 OA
ATOM      6  H   UNL     1       0.922   5.380   2.344  1.00  0.00     0.163 HD
BRANCH   4   7
ATOM      7  C   UNL     1       2.998   3.471   0.496  1.00  0.00     0.164 C 
ATOM      8  C   UNL     1       2.569   2.059  -0.005  1.00  0.00     0.225 C 
ATOM      9  C   UNL     1       3.460   1.145   0.839  1.00  0.00     0.226 C 
ATOM     10  O   UNL     1       4.693   1.848   1.052  1.00  0.00    -0.374 OA
ATOM     11  C   UNL     1       4.446   3.253   0.936  1.00  0.00     0.180 C 
BRANCH   8  12
ATOM     12  N   UNL     1       1.145   1.720  -0.311  1.00  0.00    -0.330 N 
ATOM     13  C   UNL     1       0.359   2.917  -0.425  1.00  0.00     0.333 C 
ATOM     14  H   UNL     1       1.196   1.262  -1.221  1.00  0.00     0.348 HD
BRANCH  12  15
ATOM     15  C   UNL     1       0.494   0.617   0.425  1.00  0.00     0.186 C 
ATOM     16  C   UNL     1       0.928  -0.730  -0.172  1.00  0.00     0.076 C 
BRANCH  15  17
ATOM     17  C   UNL     1      -1.070   0.651   0.584  1.00  0.00     0.019 C 
ATOM     18  C   UNL     1      -1.494   0.811   2.033  1.00  0.00     0.018 C 
ATOM     19  C   UNL     1      -2.045   1.171  -0.481  1.00  0.00     0.013 C 
ATOM     20  C   UNL     1      -1.960  -0.290  -0.238  1.00  0.00     0.013 C 
ENDBRANCH  15  17
ENDBRANCH  12  15
ENDBRANCH   8  12
ENDBRANCH   4   7
ENDBRANCH   2   3
ENDBRANCH   1   2
BRANCH   1  21
ATOM     21  C   UNL     1      -1.354   5.733   0.539  1.00  0.00     0.023 C 
BRANCH  21  22
ATOM     22  C   UNL     1      -2.074   7.008   0.931  1.00  0.00     0.116 C 
BRANCH  22  23
ATOM     23  N   UNL     1      -2.580   7.716  -0.239  1.00  0.00    -0.352 N 
ATOM     24  C   UNL     1      -3.714   8.473  -0.382  1.00  0.00     0.251 C 
ATOM     25  H   UNL     1      -2.023   7.638  -1.048  1.00  0.00     0.163 HD
ATOM     26  O   UNL     1      -4.050   8.881  -1.480  1.00  0.00    -0.269 OA
BRANCH  24  27
ATOM     27  C   UNL     1      -4.542   8.750   0.806  1.00  0.00     0.039 A 
ATOM     28  C   UNL     1      -5.930   8.653   0.691  1.00  0.00     0.014 A 
ATOM     29  C   UNL     1      -3.947   9.079   2.026  1.00  0.00     0.014 A 
ATOM     30  C   UNL     1      -6.723   8.842   1.819  1.00  0.00     0.010 A 
ATOM     31  C   UNL     1      -4.728   9.163   3.166  1.00  0.00     0.010 A 
ATOM     32  C   UNL     1      -6.123   9.068   3.068  1.00  0.00    -0.014 A 
BRANCH  32  33
ATOM     33  C   UNL     1      -6.931   9.253   4.291  1.00  0.00     0.031 A 
ATOM     34  C   UNL     1      -6.859  10.561   5.026  1.00  0.00     0.074 A 
ATOM     35  C   UNL     1      -7.652   8.224   4.770  1.00  0.00     0.049 A 
ATOM     36  N   UNL     1      -7.391  10.895   6.172  1.00  0.00    -0.248 NA
ATOM     37  C   UNL     1      -6.042  11.622   4.411  1.00  0.00     0.031 C 
ATOM     38  C   UNL     1      -7.745   6.896   4.157  1.00  0.00     0.029 A 
ATOM     39  N   UNL     1      -8.432   8.129   5.891  1.00  0.00    -0.354 N 
ATOM     40  C   UNL     1      -6.955  12.190   6.422  1.00  0.00     0.074 A 
ATOM     41  C   UNL     1      -6.063  12.557   5.347  1.00  0.00     0.031 C 
ATOM     42  C   UNL     1      -8.559   6.128   4.898  1.00  0.00     0.029 A 
ATOM     43  C   UNL     1      -9.007   6.893   6.056  1.00  0.00     0.049 A 
ATOM     44  H   UNL     1      -8.567   8.875   6.519  1.00  0.00     0.167 HD
ATOM     45  C   UNL     1      -7.295  13.008   7.445  1.00  0.00     0.037 A 
ATOM     46  C   UNL     1      -9.800   6.433   7.040  1.00  0.00     0.037 A 
ATOM     47  C   UNL     1      -8.211  12.635   8.489  1.00  0.00     0.049 A 
ATOM     48  C   UNL     1     -10.167   7.362   8.163  1.00  0.00     0.074 A 
ATOM     49  C   UNL     1      -8.677  13.400   9.542  1.00  0.00     0.029 A 
ATOM     50  N   UNL     1      -8.802  11.385   8.606  1.00  0.00    -0.354 N 
ATOM     51  N   UNL     1      -9.802   8.608   8.358  1.00  0.00    -0.248 NA
ATOM     52  C   UNL     1     -11.061   6.828   9.198  1.00  0.00     0.031 C 
ATOM     53  C   UNL     1      -9.513  12.597  10.324  1.00  0.00     0.029 A 
ATOM     54  C   UNL     1      -9.614  11.350   9.725  1.00  0.00     0.049 A 
ATOM     55  H   UNL     1      -8.663  10.634   7.984  1.00  0.00     0.167 HD
ATOM     56  C   UNL     1     -10.447   9.017   9.517  1.00  0.00     0.074 A 
ATOM     57  C   UNL     1     -11.234   7.889   9.974  1.00  0.00     0.031 C 
ATOM     58  C   UNL     1     -10.396  10.216  10.148  1.00  0.00     0.037 A 
BRANCH  45  59
ATOM     59  C   UNL     1      -6.676  14.376   7.474  1.00  0.00     0.057 A 
ATOM     60  C   UNL     1      -6.991  15.354   6.520  1.00  0.00     0.134 A 
ATOM     61  C   UNL     1      -5.766  14.728   8.479  1.00  0.00     0.134 A 
ATOM     62  F   UNL     1      -7.843  15.079   5.520  1.00  0.00    -0.206 F 
ATOM     63  C   UNL     1      -6.400  16.618   6.545  1.00  0.00     0.040 A 
ATOM     64  C   UNL     1      -5.192  15.999   8.533  1.00  0.00     0.040 A 
ATOM     65  F   UNL     1      -5.420  13.843   9.426  1.00  0.00    -0.206 F 
ATOM     66  C   UNL     1      -5.503  16.946   7.559  1.00  0.00     0.006 A 
ENDBRANCH  45  59
BRANCH  46  67
ATOM     67  C   UNL     1     -10.319   5.043   6.991  1.00  0.00     0.057 A 
ATOM     68  C   UNL     1     -11.677   4.788   6.766  1.00  0.00     0.134 A 
ATOM     69  C   UNL     1      -9.476   3.938   7.160  1.00  0.00     0.134 A 
ATOM     70  F   UNL     1     -12.537   5.805   6.607  1.00  0.00    -0.206 F 
ATOM     71  C   UNL     1     -12.182   3.487   6.734  1.00  0.00     0.040 A 
ATOM     72  C   UNL     1      -9.963   2.631   7.104  1.00  0.00     0.040 A 
ATOM     73  F   UNL     1      -8.162   4.112   7.364  1.00  0.00    -0.206 F 
ATOM     74  C   UNL     1     -11.323   2.403   6.899  1.00  0.00     0.006 A 
ENDBRANCH  46  67
BRANCH  58  75
ATOM     75  C   UNL     1     -11.251  10.383  11.369  1.00  0.00     0.057 A 
ATOM     76  C   UNL     1     -10.944   9.753  12.581  1.00  0.00     0.134 A 
ATOM     77  C   UNL     1     -12.368  11.228  11.341  1.00  0.00     0.134 A 
ATOM     78  F   UNL     1      -9.894   8.922  12.670  1.00  0.00    -0.206 F 
ATOM     79  C   UNL     1     -11.732   9.940  13.717  1.00  0.00     0.040 A 
ATOM     80  C   UNL     1     -13.145  11.447  12.478  1.00  0.00     0.040 A 
ATOM     81  F   UNL     1     -12.708  11.870  10.213  1.00  0.00    -0.206 F 
ATOM     82  C   UNL     1     -12.832  10.796  13.669  1.00  0.00     0.006 A 
ENDBRANCH  58  75
ENDBRANCH  32  33
ENDBRANCH  24  27
ENDBRANCH  22  23
ENDBRANCH  21  22
ENDBRANCH   1  21
TORSDOF 14
