REMARK SMILES CC1C[NH+]([C@H]2COC[C@@H]2C(=O)NCCCCNC(=O)c2ccc(-c3c4nc(c(-c5c(F)cccc5F)c5ccc([nH]5)c(-c5c(F)cccc5F)c5nc(c(-c6c(F)cccc6F)c6ccc3[nH]6)C=C5)C=C4)cc2)C1
REMARK SMILES IDX 15 1 14 2 13 3 12 4 10 5 11 6 9 8 5 9 6 10 7 11 8 12 4 13
REMARK SMILES IDX 1 14 2 15 3 16 74 17 16 19 17 20 18 21 19 23 20 24 21 25
REMARK SMILES IDX 73 26 22 27 72 28 23 29 24 30 25 31 66 32 26 33 71 34 65 35
REMARK SMILES IDX 67 36 27 37 70 38 64 39 63 40 28 42 54 43 37 44 53 45 38 46
REMARK SMILES IDX 41 47 52 48 68 49 39 50 40 51 51 53 69 54 42 55 29 56 30 57
REMARK SMILES IDX 35 58 31 59 32 60 34 61 36 62 33 63 55 64 56 65 61 66 57 67
REMARK SMILES IDX 58 68 60 69 62 70 59 71 43 72 44 73 49 74 45 75 46 76 48 77
REMARK SMILES IDX 50 78 47 79
REMARK H PARENT 12 7 4 18 17 22 67 41 41 52
REMARK Flexibility Score: inf
ROOT
ATOM      1  C   UNL     1       1.978   6.651  -4.904  1.00  0.00     0.023 C 
ENDROOT
BRANCH   1   2
ATOM      2  C   UNL     1       1.159   5.744  -5.822  1.00  0.00     0.023 C 
BRANCH   2   3
ATOM      3  C   UNL     1       1.252   4.248  -5.544  1.00  0.00     0.116 C 
BRANCH   3   4
ATOM      4  N   UNL     1       0.863   3.866  -4.200  1.00  0.00    -0.356 N 
ATOM      5  C   UNL     1       0.335   2.685  -3.755  1.00  0.00     0.231 C 
ATOM      6  O   UNL     1       0.250   2.537  -2.535  1.00  0.00    -0.274 OA
ATOM      7  H   UNL     1       0.999   4.555  -3.509  1.00  0.00     0.163 HD
BRANCH   5   8
ATOM      8  C   UNL     1      -0.195   1.650  -4.748  1.00  0.00     0.164 C 
ATOM      9  C   UNL     1      -0.680   0.373  -4.040  1.00  0.00     0.225 C 
ATOM     10  C   UNL     1       0.635  -0.418  -3.964  1.00  0.00     0.226 C 
ATOM     11  O   UNL     1       1.386  -0.115  -5.145  1.00  0.00    -0.374 OA
ATOM     12  C   UNL     1       0.899   1.126  -5.668  1.00  0.00     0.180 C 
BRANCH   9  13
ATOM     13  N   UNL     1      -1.852  -0.230  -4.723  1.00  0.00    -0.329 N 
ATOM     14  C   UNL     1      -2.005  -3.405  -6.005  1.00  0.00     0.020 C 
ATOM     15  C   UNL     1      -2.503  -2.029  -5.605  1.00  0.00     0.096 C 
ATOM     16  C   UNL     1      -2.214  -1.553  -4.162  1.00  0.00     0.271 C 
ATOM     17  C   UNL     1      -1.598  -0.852  -6.035  1.00  0.00     0.271 C 
ATOM     18  H   UNL     1      -2.483   0.570  -4.677  1.00  0.00     0.348 HD
ENDBRANCH   9  13
ENDBRANCH   5   8
ENDBRANCH   3   4
ENDBRANCH   2   3
ENDBRANCH   1   2
BRANCH   1  19
ATOM     19  C   UNL     1       3.452   6.289  -4.742  1.00  0.00     0.116 C 
BRANCH  19  20
ATOM     20  N   UNL     1       4.200   6.341  -5.989  1.00  0.00    -0.352 N 
ATOM     21  C   UNL     1       5.248   7.149  -6.370  1.00  0.00     0.251 C 
ATOM     22  H   UNL     1       3.909   5.693  -6.671  1.00  0.00     0.163 HD
ATOM     23  O   UNL     1       5.653   7.115  -7.525  1.00  0.00    -0.269 OA
BRANCH  21  24
ATOM     24  C   UNL     1       5.863   8.088  -5.404  1.00  0.00     0.039 A 
ATOM     25  C   UNL     1       6.131   9.396  -5.818  1.00  0.00     0.014 A 
ATOM     26  C   UNL     1       6.174   7.693  -4.102  1.00  0.00     0.014 A 
ATOM     27  C   UNL     1       6.618  10.330  -4.899  1.00  0.00     0.010 A 
ATOM     28  C   UNL     1       6.577   8.644  -3.166  1.00  0.00     0.010 A 
ATOM     29  C   UNL     1       6.794   9.976  -3.551  1.00  0.00    -0.014 A 
BRANCH  29  30
ATOM     30  C   UNL     1       7.174  10.988  -2.529  1.00  0.00     0.031 A 
ATOM     31  C   UNL     1       8.458  10.849  -1.757  1.00  0.00     0.074 A 
ATOM     32  C   UNL     1       6.325  11.997  -2.243  1.00  0.00     0.049 A 
ATOM     33  N   UNL     1       8.917  11.586  -0.776  1.00  0.00    -0.248 NA
ATOM     34  C   UNL     1       9.329   9.718  -2.115  1.00  0.00     0.031 C 
ATOM     35  C   UNL     1       5.025  12.217  -2.881  1.00  0.00     0.029 A 
ATOM     36  N   UNL     1       6.421  13.020  -1.331  1.00  0.00    -0.354 N 
ATOM     37  C   UNL     1      10.117  11.002  -0.393  1.00  0.00     0.074 A 
ATOM     38  C   UNL     1      10.293   9.821  -1.210  1.00  0.00     0.031 C 
ATOM     39  C   UNL     1       4.456  13.315  -2.357  1.00  0.00     0.029 A 
ATOM     40  C   UNL     1       5.326  13.852  -1.317  1.00  0.00     0.049 A 
ATOM     41  H   UNL     1       7.201  13.146  -0.744  1.00  0.00     0.167 HD
ATOM     42  C   UNL     1      11.004  11.422   0.541  1.00  0.00     0.037 A 
ATOM     43  C   UNL     1       5.047  14.918  -0.542  1.00  0.00     0.037 A 
ATOM     44  C   UNL     1      10.841  12.611   1.336  1.00  0.00     0.049 A 
ATOM     45  C   UNL     1       6.045  15.355   0.495  1.00  0.00     0.074 A 
ATOM     46  C   UNL     1      11.718  13.155   2.259  1.00  0.00     0.029 A 
ATOM     47  N   UNL     1       9.728  13.437   1.308  1.00  0.00    -0.354 N 
ATOM     48  N   UNL     1       7.213  14.837   0.789  1.00  0.00    -0.248 NA
ATOM     49  C   UNL     1       5.689  16.530   1.304  1.00  0.00     0.031 C 
ATOM     50  C   UNL     1      11.113  14.280   2.828  1.00  0.00     0.029 A 
ATOM     51  C   UNL     1       9.884  14.470   2.218  1.00  0.00     0.049 A 
ATOM     52  H   UNL     1       8.944  13.308   0.727  1.00  0.00     0.167 HD
ATOM     53  C   UNL     1       7.742  15.639   1.794  1.00  0.00     0.074 A 
ATOM     54  C   UNL     1       6.777  16.688   2.045  1.00  0.00     0.031 C 
ATOM     55  C   UNL     1       8.921  15.515   2.450  1.00  0.00     0.037 A 
BRANCH  42  56
ATOM     56  C   UNL     1      12.240  10.597   0.754  1.00  0.00     0.057 A 
ATOM     57  C   UNL     1      13.265  10.540  -0.200  1.00  0.00     0.134 A 
ATOM     58  C   UNL     1      12.437   9.902   1.954  1.00  0.00     0.134 A 
ATOM     59  F   UNL     1      13.136  11.175  -1.375  1.00  0.00    -0.206 F 
ATOM     60  C   UNL     1      14.432   9.808   0.025  1.00  0.00     0.040 A 
ATOM     61  C   UNL     1      13.612   9.189   2.202  1.00  0.00     0.040 A 
ATOM     62  F   UNL     1      11.500   9.920   2.914  1.00  0.00    -0.206 F 
ATOM     63  C   UNL     1      14.612   9.138   1.233  1.00  0.00     0.006 A 
ENDBRANCH  42  56
BRANCH  43  64
ATOM     64  C   UNL     1       3.767  15.655  -0.713  1.00  0.00     0.057 A 
ATOM     65  C   UNL     1       3.747  16.970  -1.196  1.00  0.00     0.134 A 
ATOM     66  C   UNL     1       2.539  15.080  -0.365  1.00  0.00     0.134 A 
ATOM     67  F   UNL     1       4.892  17.584  -1.528  1.00  0.00    -0.206 F 
ATOM     68  C   UNL     1       2.558  17.695  -1.298  1.00  0.00     0.040 A 
ATOM     69  C   UNL     1       1.339  15.783  -0.490  1.00  0.00     0.040 A 
ATOM     70  F   UNL     1       2.487  13.822   0.097  1.00  0.00    -0.206 F 
ATOM     71  C   UNL     1       1.349  17.099  -0.947  1.00  0.00     0.006 A 
ENDBRANCH  43  64
BRANCH  55  72
ATOM     72  C   UNL     1       9.252  16.561   3.475  1.00  0.00     0.057 A 
ATOM     73  C   UNL     1       8.582  16.638   4.702  1.00  0.00     0.134 A 
ATOM     74  C   UNL     1      10.284  17.481   3.244  1.00  0.00     0.134 A 
ATOM     75  F   UNL     1       7.575  15.796   4.981  1.00  0.00    -0.206 F 
ATOM     76  C   UNL     1       8.908  17.607   5.652  1.00  0.00     0.040 A 
ATOM     77  C   UNL     1      10.640  18.434   4.199  1.00  0.00     0.040 A 
ATOM     78  F   UNL     1      10.974  17.457   2.094  1.00  0.00    -0.206 F 
ATOM     79  C   UNL     1       9.946  18.503   5.404  1.00  0.00     0.006 A 
ENDBRANCH  55  72
ENDBRANCH  29  30
ENDBRANCH  21  24
ENDBRANCH  19  20
ENDBRANCH   1  19
TORSDOF 12
