REMARK SMILES CC1(C)[C@H](C(=O)NCCCCNC(=O)c2ccc(-c3c4nc(c(-c5c(F)cccc5F)c5ccc([nH]5)c(-c5c(F)cccc5F)c5nc(c(-c6c(F)cccc6F)c6ccc3[nH]6)C=C5)C=C4)cc2)[C@@H]1c1nc2ccc(F)cc2s1
REMARK SMILES IDX 10 1 9 2 8 3 7 4 5 5 6 6 4 8 1 9 2 10 3 11 69 12 70 13 71 14
REMARK SMILES IDX 79 15 72 16 78 17 73 18 77 19 74 20 75 21 76 22 11 23 12 24
REMARK SMILES IDX 13 25 14 27 15 28 16 29 68 30 17 31 67 32 18 33 19 34 20 35
REMARK SMILES IDX 61 36 21 37 66 38 60 39 62 40 22 41 65 42 59 43 58 44 23 46
REMARK SMILES IDX 49 47 32 48 48 49 33 50 36 51 47 52 63 53 34 54 35 55 46 57
REMARK SMILES IDX 64 58 37 59 24 60 25 61 30 62 26 63 27 64 29 65 31 66 28 67
REMARK SMILES IDX 50 68 51 69 56 70 52 71 53 72 55 73 57 74 54 75 38 76 39 77
REMARK SMILES IDX 44 78 40 79 41 80 43 81 45 82 42 83
REMARK H PARENT 7 7 12 26 62 45 36 56
REMARK Flexibility Score: inf
ROOT
ATOM      1  C   UNL     1      -0.473   5.226  -1.890  1.00  0.00     0.023 C 
ENDROOT
BRANCH   1   2
ATOM      2  C   UNL     1       0.049   4.037  -1.093  1.00  0.00     0.023 C 
BRANCH   2   3
ATOM      3  C   UNL     1      -1.027   3.094  -0.566  1.00  0.00     0.116 C 
BRANCH   3   4
ATOM      4  N   UNL     1      -1.460   2.129  -1.537  1.00  0.00    -0.356 N 
ATOM      5  C   UNL     1      -1.505   0.763  -1.547  1.00  0.00     0.224 C 
ATOM      6  O   UNL     1      -1.959   0.268  -2.582  1.00  0.00    -0.275 OA
ATOM      7  H   UNL     1      -1.795   2.535  -2.369  1.00  0.00     0.163 HD
BRANCH   5   8
ATOM      8  C   UNL     1      -1.070  -0.197  -0.494  1.00  0.00     0.095 C 
ATOM      9  C   UNL     1       0.947  -1.579   0.318  1.00  0.00     0.013 C 
ATOM     10  C   UNL     1       0.255  -0.228   0.287  1.00  0.00    -0.013 C 
ATOM     11  C   UNL     1       1.248   0.895   0.152  1.00  0.00     0.013 C 
ATOM     12  C   UNL     1      -1.086  -0.130   1.000  1.00  0.00     0.068 C 
BRANCH  12  13
ATOM     13  C   UNL     1      -1.754   0.986   1.780  1.00  0.00     0.098 A 
ATOM     14  N   UNL     1      -3.067   1.042   1.785  1.00  0.00    -0.241 NA
ATOM     15  S   UNL     1      -0.973   2.103   2.818  1.00  0.00    -0.118 S 
ATOM     16  C   UNL     1      -3.487   2.174   2.454  1.00  0.00     0.082 A 
ATOM     17  C   UNL     1      -2.468   2.943   3.022  1.00  0.00     0.057 A 
ATOM     18  C   UNL     1      -4.823   2.612   2.572  1.00  0.00     0.033 A 
ATOM     19  C   UNL     1      -2.728   4.174   3.644  1.00  0.00     0.060 A 
ATOM     20  C   UNL     1      -5.096   3.832   3.196  1.00  0.00     0.041 A 
ATOM     21  C   UNL     1      -4.056   4.598   3.703  1.00  0.00     0.124 A 
ATOM     22  F   UNL     1      -4.337   5.780   4.267  1.00  0.00    -0.207 F 
ENDBRANCH  12  13
ENDBRANCH   5   8
ENDBRANCH   3   4
ENDBRANCH   2   3
ENDBRANCH   1   2
BRANCH   1  23
ATOM     23  C   UNL     1      -1.490   6.104  -1.167  1.00  0.00     0.116 C 
BRANCH  23  24
ATOM     24  N   UNL     1      -1.047   6.570   0.141  1.00  0.00    -0.352 N 
ATOM     25  C   UNL     1      -1.120   7.838   0.679  1.00  0.00     0.251 C 
ATOM     26  H   UNL     1      -0.639   5.886   0.720  1.00  0.00     0.163 HD
ATOM     27  O   UNL     1      -0.640   8.085   1.771  1.00  0.00    -0.269 OA
BRANCH  25  28
ATOM     28  C   UNL     1      -1.747   8.907  -0.126  1.00  0.00     0.039 A 
ATOM     29  C   UNL     1      -1.000  10.048  -0.427  1.00  0.00     0.014 A 
ATOM     30  C   UNL     1      -3.020   8.720  -0.670  1.00  0.00     0.014 A 
ATOM     31  C   UNL     1      -1.484  10.950  -1.375  1.00  0.00     0.010 A 
ATOM     32  C   UNL     1      -3.468   9.584  -1.663  1.00  0.00     0.010 A 
ATOM     33  C   UNL     1      -2.689  10.688  -2.046  1.00  0.00    -0.014 A 
BRANCH  33  34
ATOM     34  C   UNL     1      -3.132  11.509  -3.199  1.00  0.00     0.031 A 
ATOM     35  C   UNL     1      -4.410  12.289  -3.123  1.00  0.00     0.074 A 
ATOM     36  C   UNL     1      -2.438  11.457  -4.354  1.00  0.00     0.049 A 
ATOM     37  N   UNL     1      -5.038  12.940  -4.068  1.00  0.00    -0.248 NA
ATOM     38  C   UNL     1      -5.088  12.316  -1.817  1.00  0.00     0.031 C 
ATOM     39  C   UNL     1      -1.205  10.697  -4.571  1.00  0.00     0.029 A 
ATOM     40  N   UNL     1      -2.687  12.038  -5.572  1.00  0.00    -0.354 N 
ATOM     41  C   UNL     1      -6.193  13.435  -3.480  1.00  0.00     0.074 A 
ATOM     42  C   UNL     1      -6.199  12.978  -2.106  1.00  0.00     0.031 C 
ATOM     43  C   UNL     1      -0.799  10.869  -5.839  1.00  0.00     0.029 A 
ATOM     44  C   UNL     1      -1.763  11.714  -6.536  1.00  0.00     0.049 A 
ATOM     45  H   UNL     1      -3.455  12.631  -5.740  1.00  0.00     0.167 HD
ATOM     46  C   UNL     1      -7.154  14.213  -4.031  1.00  0.00     0.037 A 
ATOM     47  C   UNL     1      -1.708  12.044  -7.840  1.00  0.00     0.037 A 
ATOM     48  C   UNL     1      -7.130  14.694  -5.386  1.00  0.00     0.049 A 
ATOM     49  C   UNL     1      -2.795  12.895  -8.431  1.00  0.00     0.074 A 
ATOM     50  C   UNL     1      -8.012  15.560  -6.009  1.00  0.00     0.029 A 
ATOM     51  N   UNL     1      -6.175  14.347  -6.329  1.00  0.00    -0.354 N 
ATOM     52  N   UNL     1      -3.851  13.406  -7.848  1.00  0.00    -0.248 NA
ATOM     53  C   UNL     1      -2.688  13.206  -9.864  1.00  0.00     0.031 C 
ATOM     54  C   UNL     1      -7.609  15.711  -7.340  1.00  0.00     0.029 A 
ATOM     55  C   UNL     1      -6.460  14.961  -7.537  1.00  0.00     0.049 A 
ATOM     56  H   UNL     1      -5.408  13.753  -6.164  1.00  0.00     0.167 HD
ATOM     57  C   UNL     1      -4.528  14.108  -8.835  1.00  0.00     0.074 A 
ATOM     58  C   UNL     1      -3.756  13.969 -10.053  1.00  0.00     0.031 C 
ATOM     59  C   UNL     1      -5.685  14.806  -8.740  1.00  0.00     0.037 A 
BRANCH  46  60
ATOM     60  C   UNL     1      -8.309  14.596  -3.159  1.00  0.00     0.057 A 
ATOM     61  C   UNL     1      -8.174  15.541  -2.134  1.00  0.00     0.134 A 
ATOM     62  C   UNL     1      -9.575  14.032  -3.359  1.00  0.00     0.134 A 
ATOM     63  F   UNL     1      -6.984  16.107  -1.884  1.00  0.00    -0.206 F 
ATOM     64  C   UNL     1      -9.253  15.895  -1.323  1.00  0.00     0.040 A 
ATOM     65  C   UNL     1     -10.666  14.393  -2.568  1.00  0.00     0.040 A 
ATOM     66  F   UNL     1      -9.770  13.122  -4.325  1.00  0.00    -0.206 F 
ATOM     67  C   UNL     1     -10.505  15.324  -1.543  1.00  0.00     0.006 A 
ENDBRANCH  46  60
BRANCH  47  68
ATOM     68  C   UNL     1      -0.579  11.572  -8.676  1.00  0.00     0.057 A 
ATOM     69  C   UNL     1       0.427  12.453  -9.085  1.00  0.00     0.134 A 
ATOM     70  C   UNL     1      -0.476  10.236  -9.083  1.00  0.00     0.134 A 
ATOM     71  F   UNL     1       0.370  13.748  -8.741  1.00  0.00    -0.206 F 
ATOM     72  C   UNL     1       1.494  12.026  -9.877  1.00  0.00     0.040 A 
ATOM     73  C   UNL     1       0.594   9.792  -9.861  1.00  0.00     0.040 A 
ATOM     74  F   UNL     1      -1.409   9.344  -8.719  1.00  0.00    -0.206 F 
ATOM     75  C   UNL     1       1.581  10.690 -10.264  1.00  0.00     0.006 A 
ENDBRANCH  47  68
BRANCH  59  76
ATOM     76  C   UNL     1      -6.181  15.478  -9.983  1.00  0.00     0.057 A 
ATOM     77  C   UNL     1      -6.814  14.754 -11.001  1.00  0.00     0.134 A 
ATOM     78  C   UNL     1      -6.068  16.864 -10.143  1.00  0.00     0.134 A 
ATOM     79  F   UNL     1      -6.938  13.422 -10.912  1.00  0.00    -0.206 F 
ATOM     80  C   UNL     1      -7.309  15.387 -12.142  1.00  0.00     0.040 A 
ATOM     81  C   UNL     1      -6.575  17.510 -11.270  1.00  0.00     0.040 A 
ATOM     82  F   UNL     1      -5.475  17.611  -9.199  1.00  0.00    -0.206 F 
ATOM     83  C   UNL     1      -7.197  16.771 -12.275  1.00  0.00     0.006 A 
ENDBRANCH  59  76
ENDBRANCH  33  34
ENDBRANCH  25  28
ENDBRANCH  23  24
ENDBRANCH   1  23
TORSDOF 12
