REMARK SMILES O=C(Cn1nc(-c2ccc(Br)cc2)ccc1=O)N[C@H](C(=O)NCCCCNC(=O)c1ccc(-c2c3nc(c(-c4c(F)cccc4F)c4ccc([nH]4)c(-c4c(F)cccc4F)c4nc(c(-c5c(F)cccc5F)c5ccc2[nH]5)C=C4)C=C3)cc1)c1ccccc1
REMARK SMILES IDX 23 1 22 2 20 3 21 4 19 6 18 7 1 8 2 9 3 11 4 12 5 13 16 14
REMARK SMILES IDX 6 15 15 16 17 17 14 18 7 19 8 20 13 21 9 22 12 23 10 24
REMARK SMILES IDX 11 25 84 26 85 27 89 28 86 29 88 30 87 31 24 32 25 33 26 34
REMARK SMILES IDX 27 35 28 36 29 38 30 39 31 40 83 41 32 42 82 43 33 44 34 45
REMARK SMILES IDX 35 46 76 47 36 48 81 49 75 50 77 51 37 52 80 53 74 54 73 55
REMARK SMILES IDX 38 57 64 58 47 59 63 60 48 61 51 62 62 63 78 64 49 65 50 66
REMARK SMILES IDX 61 68 79 69 52 70 39 71 40 72 45 73 41 74 42 75 44 76 46 77
REMARK SMILES IDX 43 78 65 79 66 80 71 81 67 82 68 83 70 84 72 85 69 86 53 87
REMARK SMILES IDX 54 88 59 89 55 90 56 91 58 92 60 93 57 94
REMARK H PARENT 22 5 18 10 27 37 77 56 51 67
REMARK Flexibility Score: inf
ROOT
ATOM      1  C   UNL     1       2.070   1.459  -2.076  1.00  0.00     0.116 C 
ENDROOT
BRANCH   1   2
ATOM      2  N   UNL     1       2.538   0.681  -0.949  1.00  0.00    -0.354 N 
ATOM      3  C   UNL     1       2.837  -0.661  -0.913  1.00  0.00     0.247 C 
ATOM      4  O   UNL     1       3.133  -1.129   0.190  1.00  0.00    -0.272 OA
ATOM      5  H   UNL     1       2.657   1.172  -0.105  1.00  0.00     0.163 HD
BRANCH   3   6
ATOM      6  C   UNL     1       2.563  -1.541  -2.172  1.00  0.00     0.202 C 
BRANCH   6   7
ATOM      7  N   UNL     1       3.042  -1.059  -3.472  1.00  0.00    -0.339 N 
ATOM      8  O   UNL     1       5.012  -0.170  -2.727  1.00  0.00    -0.273 OA
ATOM      9  C   UNL     1       4.322  -0.582  -3.659  1.00  0.00     0.242 C 
ATOM     10  H   UNL     1       2.426  -1.077  -4.240  1.00  0.00     0.164 HD
BRANCH   9  11
ATOM     11  C   UNL     1       4.738  -0.344  -5.113  1.00  0.00     0.248 C 
BRANCH  11  12
ATOM     12  N   UNL     1       4.288  -1.380  -6.037  1.00  0.00    -0.220 N 
ATOM     13  N   UNL     1       3.835  -0.942  -7.271  1.00  0.00    -0.169 NA
ATOM     14  C   UNL     1       4.731  -2.683  -5.825  1.00  0.00     0.267 A 
ATOM     15  C   UNL     1       3.633  -1.843  -8.183  1.00  0.00     0.091 A 
ATOM     16  C   UNL     1       4.288  -3.684  -6.814  1.00  0.00     0.075 A 
ATOM     17  O   UNL     1       5.420  -3.043  -4.877  1.00  0.00    -0.268 OA
ATOM     18  C   UNL     1       3.743  -3.300  -7.968  1.00  0.00     0.036 A 
BRANCH  15  19
ATOM     19  C   UNL     1       3.369  -1.431  -9.578  1.00  0.00     0.002 A 
ATOM     20  C   UNL     1       4.361  -0.692 -10.235  1.00  0.00     0.011 A 
ATOM     21  C   UNL     1       2.213  -1.829 -10.255  1.00  0.00     0.011 A 
ATOM     22  C   UNL     1       4.208  -0.369 -11.584  1.00  0.00     0.016 A 
ATOM     23  C   UNL     1       2.058  -1.493 -11.604  1.00  0.00     0.016 A 
ATOM     24  C   UNL     1       3.059  -0.774 -12.262  1.00  0.00     0.018 A 
ATOM     25  Br  UNL     1       2.861  -0.353 -14.095  1.00  0.00    -0.051 Br
ENDBRANCH  15  19
ENDBRANCH  11  12
ENDBRANCH   9  11
ENDBRANCH   6   7
BRANCH   6  26
ATOM     26  C   UNL     1       2.868  -3.022  -1.988  1.00  0.00    -0.016 A 
ATOM     27  C   UNL     1       4.183  -3.507  -1.988  1.00  0.00     0.006 A 
ATOM     28  C   UNL     1       1.818  -3.945  -1.836  1.00  0.00     0.006 A 
ATOM     29  C   UNL     1       4.440  -4.876  -1.887  1.00  0.00     0.000 A 
ATOM     30  C   UNL     1       2.077  -5.312  -1.722  1.00  0.00     0.000 A 
ATOM     31  C   UNL     1       3.388  -5.779  -1.759  1.00  0.00     0.000 A 
ENDBRANCH   6  26
ENDBRANCH   3   6
ENDBRANCH   1   2
BRANCH   1  32
ATOM     32  C   UNL     1       1.425   2.779  -1.663  1.00  0.00     0.023 C 
BRANCH  32  33
ATOM     33  C   UNL     1       2.343   3.747  -0.917  1.00  0.00     0.023 C 
BRANCH  33  34
ATOM     34  C   UNL     1       3.650   4.084  -1.628  1.00  0.00     0.116 C 
BRANCH  34  35
ATOM     35  N   UNL     1       3.451   4.863  -2.846  1.00  0.00    -0.352 N 
ATOM     36  C   UNL     1       3.836   6.153  -3.134  1.00  0.00     0.251 C 
ATOM     37  H   UNL     1       2.971   4.397  -3.568  1.00  0.00     0.163 HD
ATOM     38  O   UNL     1       3.466   6.699  -4.169  1.00  0.00    -0.269 OA
BRANCH  36  39
ATOM     39  C   UNL     1       4.659   6.899  -2.159  1.00  0.00     0.039 A 
ATOM     40  C   UNL     1       5.798   6.315  -1.605  1.00  0.00     0.014 A 
ATOM     41  C   UNL     1       4.240   8.164  -1.738  1.00  0.00     0.014 A 
ATOM     42  C   UNL     1       6.384   6.891  -0.483  1.00  0.00     0.010 A 
ATOM     43  C   UNL     1       4.889   8.785  -0.668  1.00  0.00     0.010 A 
ATOM     44  C   UNL     1       5.918   8.118   0.017  1.00  0.00    -0.014 A 
BRANCH  44  45
ATOM     45  C   UNL     1       6.473   8.648   1.290  1.00  0.00     0.031 A 
ATOM     46  C   UNL     1       5.596   8.779   2.511  1.00  0.00     0.074 A 
ATOM     47  C   UNL     1       7.784   8.944   1.375  1.00  0.00     0.049 A 
ATOM     48  N   UNL     1       5.903   9.217   3.707  1.00  0.00    -0.248 NA
ATOM     49  C   UNL     1       4.190   8.368   2.370  1.00  0.00     0.031 C 
ATOM     50  C   UNL     1       8.746   8.837   0.277  1.00  0.00     0.029 A 
ATOM     51  N   UNL     1       8.537   9.371   2.438  1.00  0.00    -0.354 N 
ATOM     52  C   UNL     1       4.729   9.157   4.449  1.00  0.00     0.074 A 
ATOM     53  C   UNL     1       3.696   8.667   3.563  1.00  0.00     0.031 C 
ATOM     54  C   UNL     1       9.970   9.140   0.736  1.00  0.00     0.029 A 
ATOM     55  C   UNL     1       9.869   9.522   2.140  1.00  0.00     0.049 A 
ATOM     56  H   UNL     1       8.160   9.552   3.330  1.00  0.00     0.167 HD
ATOM     57  C   UNL     1       4.530   9.467   5.753  1.00  0.00     0.037 A 
ATOM     58  C   UNL     1      10.893   9.938   2.907  1.00  0.00     0.037 A 
ATOM     59  C   UNL     1       5.561   9.924   6.648  1.00  0.00     0.049 A 
ATOM     60  C   UNL     1      10.636  10.321   4.335  1.00  0.00     0.074 A 
ATOM     61  C   UNL     1       5.461  10.241   7.992  1.00  0.00     0.029 A 
ATOM     62  N   UNL     1       6.886  10.121   6.289  1.00  0.00    -0.354 N 
ATOM     63  N   UNL     1       9.519  10.265   5.018  1.00  0.00    -0.248 NA
ATOM     64  C   UNL     1      11.782  10.839   5.095  1.00  0.00     0.031 C 
ATOM     65  C   UNL     1       6.719  10.665   8.437  1.00  0.00     0.029 A 
ATOM     66  C   UNL     1       7.609  10.576   7.380  1.00  0.00     0.049 A 
ATOM     67  H   UNL     1       7.257   9.962   5.391  1.00  0.00     0.167 HD
ATOM     68  C   UNL     1       9.829  10.729   6.289  1.00  0.00     0.074 A 
ATOM     69  C   UNL     1      11.243  11.042   6.288  1.00  0.00     0.031 C 
ATOM     70  C   UNL     1       9.014  10.887   7.360  1.00  0.00     0.037 A 
BRANCH  57  71
ATOM     71  C   UNL     1       3.134   9.338   6.290  1.00  0.00     0.057 A 
ATOM     72  C   UNL     1       2.377  10.479   6.589  1.00  0.00     0.134 A 
ATOM     73  C   UNL     1       2.548   8.091   6.542  1.00  0.00     0.134 A 
ATOM     74  F   UNL     1       2.879  11.704   6.378  1.00  0.00    -0.206 F 
ATOM     75  C   UNL     1       1.089  10.383   7.119  1.00  0.00     0.040 A 
ATOM     76  C   UNL     1       1.252   7.982   7.051  1.00  0.00     0.040 A 
ATOM     77  F   UNL     1       3.214   6.960   6.265  1.00  0.00    -0.206 F 
ATOM     78  C   UNL     1       0.521   9.131   7.346  1.00  0.00     0.006 A 
ENDBRANCH  57  71
BRANCH  58  79
ATOM     79  C   UNL     1      12.258  10.029   2.333  1.00  0.00     0.057 A 
ATOM     80  C   UNL     1      12.581  10.998   1.375  1.00  0.00     0.134 A 
ATOM     81  C   UNL     1      13.272   9.154   2.736  1.00  0.00     0.134 A 
ATOM     82  F   UNL     1      11.650  11.864   0.947  1.00  0.00    -0.206 F 
ATOM     83  C   UNL     1      13.861  11.086   0.829  1.00  0.00     0.040 A 
ATOM     84  C   UNL     1      14.564   9.247   2.216  1.00  0.00     0.040 A 
ATOM     85  F   UNL     1      13.028   8.220   3.667  1.00  0.00    -0.206 F 
ATOM     86  C   UNL     1      14.859  10.212   1.255  1.00  0.00     0.006 A 
ENDBRANCH  58  79
BRANCH  70  87
ATOM     87  C   UNL     1       9.643  11.406   8.618  1.00  0.00     0.057 A 
ATOM     88  C   UNL     1       9.870  10.557   9.708  1.00  0.00     0.134 A 
ATOM     89  C   UNL     1      10.013  12.750   8.754  1.00  0.00     0.134 A 
ATOM     90  F   UNL     1       9.533   9.260   9.643  1.00  0.00    -0.206 F 
ATOM     91  C   UNL     1      10.445  11.026  10.889  1.00  0.00     0.040 A 
ATOM     92  C   UNL     1      10.610  13.226   9.922  1.00  0.00     0.040 A 
ATOM     93  F   UNL     1       9.836  13.610   7.739  1.00  0.00    -0.206 F 
ATOM     94  C   UNL     1      10.823  12.363  10.996  1.00  0.00     0.006 A 
ENDBRANCH  70  87
ENDBRANCH  44  45
ENDBRANCH  36  39
ENDBRANCH  34  35
ENDBRANCH  33  34
ENDBRANCH  32  33
ENDBRANCH   1  32
TORSDOF 16
