REMARK SMILES CCc1sc(NC(=O)[C@H]2CC(C)=C(C)C[C@H]2C(=O)NCCCCNC(=O)c2ccc(-c3c4nc(c(-c5c(F)cccc5F)c5ccc([nH]5)c(-c5c(F)cccc5F)c5nc(c(-c6c(F)cccc6F)c6ccc3[nH]6)C=C5)C=C4)cc2)nc1-c1ccccc1
REMARK SMILES IDX 21 1 20 2 19 3 17 4 18 5 16 7 9 8 10 9 11 10 15 11 12 12
REMARK SMILES IDX 13 13 14 14 7 15 6 16 8 18 5 19 3 20 4 21 82 22 81 23 2 24
REMARK SMILES IDX 1 25 83 26 84 27 88 28 85 29 87 30 86 31 22 32 23 33 24 34
REMARK SMILES IDX 25 35 26 37 27 38 28 39 80 40 29 41 79 42 30 43 31 44 32 45
REMARK SMILES IDX 73 46 33 47 78 48 72 49 74 50 34 51 77 52 71 53 70 54 35 56
REMARK SMILES IDX 61 57 44 58 60 59 45 60 48 61 59 62 75 63 46 64 47 65 58 67
REMARK SMILES IDX 76 68 49 69 36 70 37 71 42 72 38 73 39 74 41 75 43 76 40 77
REMARK SMILES IDX 62 78 63 79 68 80 64 81 65 82 67 83 69 84 66 85 50 86 51 87
REMARK SMILES IDX 56 88 52 89 53 90 55 91 57 92 54 93
REMARK H PARENT 19 6 6 17 24 36 74 55 48 66
REMARK Flexibility Score: inf
ROOT
ATOM      1  C   UNL     1       1.471   2.327   9.312  1.00  0.00     0.023 C 
ENDROOT
BRANCH   1   2
ATOM      2  C   UNL     1       1.055   0.934   8.866  1.00  0.00     0.116 C 
BRANCH   2   3
ATOM      3  N   UNL     1       0.328   0.956   7.621  1.00  0.00    -0.356 N 
ATOM      4  C   UNL     1       0.635   0.408   6.424  1.00  0.00     0.224 C 
ATOM      5  O   UNL     1      -0.209   0.511   5.530  1.00  0.00    -0.275 OA
ATOM      6  H   UNL     1      -0.524   1.448   7.647  1.00  0.00     0.163 HD
BRANCH   4   7
ATOM      7  C   UNL     1       1.943  -0.333   6.160  1.00  0.00     0.095 C 
ATOM      8  C   UNL     1       3.235   0.507   6.094  1.00  0.00     0.095 C 
ATOM      9  C   UNL     1       4.154   0.324   7.335  1.00  0.00     0.045 C 
ATOM     10  C   UNL     1       4.028  -0.935   8.163  1.00  0.00    -0.074 C 
ATOM     11  C   UNL     1       2.019  -1.684   6.884  1.00  0.00     0.045 C 
ATOM     12  C   UNL     1       5.009  -0.997   9.310  1.00  0.00     0.039 C 
ATOM     13  C   UNL     1       3.058  -1.847   7.957  1.00  0.00    -0.074 C 
ATOM     14  C   UNL     1       2.877  -3.077   8.809  1.00  0.00     0.039 C 
BRANCH   8  15
ATOM     15  C   UNL     1       3.047   2.023   5.841  1.00  0.00     0.230 C 
ATOM     16  N   UNL     1       2.400   2.589   4.798  1.00  0.00    -0.302 N 
ATOM     17  H   UNL     1       2.270   3.557   4.921  1.00  0.00     0.172 HD
ATOM     18  O   UNL     1       3.524   2.845   6.639  1.00  0.00    -0.274 OA
BRANCH  16  19
ATOM     19  C   UNL     1       1.885   2.146   3.618  1.00  0.00     0.190 A 
ATOM     20  C   UNL     1       1.006   0.861   1.785  1.00  0.00     0.034 A 
ATOM     21  S   UNL     1       2.236   0.629   2.956  1.00  0.00    -0.101 S 
ATOM     22  C   UNL     1       0.625   2.194   1.815  1.00  0.00     0.087 A 
ATOM     23  N   UNL     1       1.161   2.933   2.857  1.00  0.00    -0.220 NA
BRANCH  20  24
ATOM     24  C   UNL     1       0.578  -0.279   0.920  1.00  0.00     0.046 C 
ATOM     25  C   UNL     1       1.182  -0.213  -0.469  1.00  0.00     0.010 C 
ENDBRANCH  20  24
BRANCH  22  26
ATOM     26  C   UNL     1      -0.188   2.818   0.787  1.00  0.00     0.001 A 
ATOM     27  C   UNL     1      -1.495   2.392   0.524  1.00  0.00     0.010 A 
ATOM     28  C   UNL     1       0.388   3.810  -0.015  1.00  0.00     0.010 A 
ATOM     29  C   UNL     1      -2.192   2.908  -0.570  1.00  0.00     0.001 A 
ATOM     30  C   UNL     1      -0.310   4.325  -1.108  1.00  0.00     0.001 A 
ATOM     31  C   UNL     1      -1.594   3.863  -1.393  1.00  0.00     0.000 A 
ENDBRANCH  22  26
ENDBRANCH  16  19
ENDBRANCH   8  15
ENDBRANCH   4   7
ENDBRANCH   2   3
ENDBRANCH   1   2
BRANCH   1  32
ATOM     32  C   UNL     1       0.319   3.203   9.789  1.00  0.00     0.023 C 
BRANCH  32  33
ATOM     33  C   UNL     1      -0.548   2.571  10.867  1.00  0.00     0.116 C 
BRANCH  33  34
ATOM     34  N   UNL     1       0.213   2.091  12.013  1.00  0.00    -0.352 N 
ATOM     35  C   UNL     1      -0.106   2.187  13.345  1.00  0.00     0.251 C 
ATOM     36  H   UNL     1       1.064   1.641  11.806  1.00  0.00     0.163 HD
ATOM     37  O   UNL     1       0.678   1.822  14.214  1.00  0.00    -0.269 OA
BRANCH  35  38
ATOM     38  C   UNL     1      -1.404   2.781  13.708  1.00  0.00     0.039 A 
ATOM     39  C   UNL     1      -1.428   3.869  14.582  1.00  0.00     0.014 A 
ATOM     40  C   UNL     1      -2.575   2.319  13.101  1.00  0.00     0.014 A 
ATOM     41  C   UNL     1      -2.628   4.546  14.793  1.00  0.00     0.010 A 
ATOM     42  C   UNL     1      -3.748   3.044  13.248  1.00  0.00     0.010 A 
ATOM     43  C   UNL     1      -3.786   4.162  14.096  1.00  0.00    -0.014 A 
BRANCH  43  44
ATOM     44  C   UNL     1      -5.055   4.913  14.240  1.00  0.00     0.031 A 
ATOM     45  C   UNL     1      -6.261   4.232  14.819  1.00  0.00     0.074 A 
ATOM     46  C   UNL     1      -5.145   6.170  13.765  1.00  0.00     0.049 A 
ATOM     47  N   UNL     1      -7.482   4.682  14.947  1.00  0.00    -0.248 NA
ATOM     48  C   UNL     1      -6.080   2.844  15.275  1.00  0.00     0.031 C 
ATOM     49  C   UNL     1      -4.064   6.909  13.109  1.00  0.00     0.029 A 
ATOM     50  N   UNL     1      -6.204   7.040  13.743  1.00  0.00    -0.354 N 
ATOM     51  C   UNL     1      -8.218   3.625  15.467  1.00  0.00     0.074 A 
ATOM     52  C   UNL     1      -7.320   2.498  15.582  1.00  0.00     0.031 C 
ATOM     53  C   UNL     1      -4.512   8.126  12.763  1.00  0.00     0.029 A 
ATOM     54  C   UNL     1      -5.916   8.243  13.147  1.00  0.00     0.049 A 
ATOM     55  H   UNL     1      -7.088   6.824  14.120  1.00  0.00     0.167 HD
ATOM     56  C   UNL     1      -9.520   3.604  15.837  1.00  0.00     0.037 A 
ATOM     57  C   UNL     1      -6.698   9.317  12.931  1.00  0.00     0.037 A 
ATOM     58  C   UNL     1     -10.394   4.743  15.765  1.00  0.00     0.049 A 
ATOM     59  C   UNL     1      -8.123   9.292  13.404  1.00  0.00     0.074 A 
ATOM     60  C   UNL     1     -11.699   4.858  16.211  1.00  0.00     0.029 A 
ATOM     61  N   UNL     1     -10.049   5.966  15.211  1.00  0.00    -0.354 N 
ATOM     62  N   UNL     1      -8.783   8.318  13.982  1.00  0.00    -0.248 NA
ATOM     63  C   UNL     1      -8.909  10.518  13.205  1.00  0.00     0.031 C 
ATOM     64  C   UNL     1     -12.155   6.142  15.895  1.00  0.00     0.029 A 
ATOM     65  C   UNL     1     -11.122   6.838  15.285  1.00  0.00     0.049 A 
ATOM     66  H   UNL     1      -9.171   6.183  14.823  1.00  0.00     0.167 HD
ATOM     67  C   UNL     1     -10.055   8.816  14.233  1.00  0.00     0.074 A 
ATOM     68  C   UNL     1     -10.068  10.185  13.757  1.00  0.00     0.031 C 
ATOM     69  C   UNL     1     -11.115   8.196  14.805  1.00  0.00     0.037 A 
BRANCH  56  70
ATOM     70  C   UNL     1     -10.064   2.306  16.355  1.00  0.00     0.057 A 
ATOM     71  C   UNL     1      -9.681   1.786  17.598  1.00  0.00     0.134 A 
ATOM     72  C   UNL     1     -10.986   1.569  15.602  1.00  0.00     0.134 A 
ATOM     73  F   UNL     1      -8.789   2.435  18.361  1.00  0.00    -0.206 F 
ATOM     74  C   UNL     1     -10.167   0.561  18.058  1.00  0.00     0.040 A 
ATOM     75  C   UNL     1     -11.500   0.356  16.064  1.00  0.00     0.040 A 
ATOM     76  F   UNL     1     -11.398   2.011  14.405  1.00  0.00    -0.206 F 
ATOM     77  C   UNL     1     -11.084  -0.155  17.292  1.00  0.00     0.006 A 
ENDBRANCH  56  70
BRANCH  57  78
ATOM     78  C   UNL     1      -6.134  10.514  12.261  1.00  0.00     0.057 A 
ATOM     79  C   UNL     1      -5.847  11.677  12.985  1.00  0.00     0.134 A 
ATOM     80  C   UNL     1      -5.849  10.518  10.891  1.00  0.00     0.134 A 
ATOM     81  F   UNL     1      -6.113  11.737  14.298  1.00  0.00    -0.206 F 
ATOM     82  C   UNL     1      -5.306  12.806  12.369  1.00  0.00     0.040 A 
ATOM     83  C   UNL     1      -5.290  11.634  10.265  1.00  0.00     0.040 A 
ATOM     84  F   UNL     1      -6.094   9.431  10.146  1.00  0.00    -0.206 F 
ATOM     85  C   UNL     1      -5.021  12.784  11.005  1.00  0.00     0.006 A 
ENDBRANCH  57  78
BRANCH  69  86
ATOM     86  C   UNL     1     -12.372   8.997  14.963  1.00  0.00     0.057 A 
ATOM     87  C   UNL     1     -13.199   9.289  13.871  1.00  0.00     0.134 A 
ATOM     88  C   UNL     1     -12.781   9.442  16.226  1.00  0.00     0.134 A 
ATOM     89  F   UNL     1     -12.855   8.901  12.634  1.00  0.00    -0.206 F 
ATOM     90  C   UNL     1     -14.383  10.011  14.029  1.00  0.00     0.040 A 
ATOM     91  C   UNL     1     -13.974  10.144  16.399  1.00  0.00     0.040 A 
ATOM     92  F   UNL     1     -12.036   9.187  17.312  1.00  0.00    -0.206 F 
ATOM     93  C   UNL     1     -14.777  10.434  15.298  1.00  0.00     0.006 A 
ENDBRANCH  69  86
ENDBRANCH  43  44
ENDBRANCH  35  38
ENDBRANCH  33  34
ENDBRANCH  32  33
ENDBRANCH   1  32
TORSDOF 15
