REMARK SMILES O=C(NCCCCNC(=O)[C@H]1CC(=O)N(Cc2ccccc2CN2CCCC2=O)C1)c1ccc(-c2c3nc(c(-c4c(F)cccc4F)c4ccc([nH]4)c(-c4c(F)cccc4F)c4nc(c(-c5c(F)cccc5F)c5ccc2[nH]5)C=C4)C=C3)cc1
REMARK SMILES IDX 6 1 5 2 4 3 3 4 1 5 2 6 31 8 32 9 84 10 33 11 83 12 34 13
REMARK SMILES IDX 35 14 36 15 77 16 37 17 82 18 76 19 78 20 38 21 81 22 75 23
REMARK SMILES IDX 74 24 39 26 65 27 48 28 64 29 49 30 52 31 63 32 79 33 50 34
REMARK SMILES IDX 51 35 62 37 80 38 53 39 40 40 41 41 46 42 42 43 43 44 45 45
REMARK SMILES IDX 47 46 44 47 66 48 67 49 72 50 68 51 69 52 71 53 73 54 70 55
REMARK SMILES IDX 54 56 55 57 60 58 56 59 57 60 59 61 61 62 58 63 7 64 8 65
REMARK SMILES IDX 9 66 10 68 11 69 12 70 30 71 13 72 15 73 14 74 16 75 17 76
REMARK SMILES IDX 18 77 22 78 19 79 21 80 20 81 23 82 24 83 25 84 28 85 26 86
REMARK SMILES IDX 27 87 29 88
REMARK H PARENT 3 7 78 25 52 36 8 67
REMARK Flexibility Score: inf
ROOT
ATOM      1  C   UNL     1       8.171   5.082   4.647  1.00  0.00     0.023 C 
ENDROOT
BRANCH   1   2
ATOM      2  C   UNL     1       8.431   5.995   5.845  1.00  0.00     0.023 C 
BRANCH   2   3
ATOM      3  C   UNL     1       7.329   6.010   6.894  1.00  0.00     0.116 C 
BRANCH   3   4
ATOM      4  N   UNL     1       7.046   4.689   7.431  1.00  0.00    -0.352 N 
ATOM      5  O   UNL     1       6.908   3.089   9.017  1.00  0.00    -0.269 OA
ATOM      6  C   UNL     1       7.026   4.277   8.741  1.00  0.00     0.251 C 
ATOM      7  H   UNL     1       6.839   3.995   6.765  1.00  0.00     0.163 HD
BRANCH   6   8
ATOM      8  C   UNL     1       7.179   5.282   9.811  1.00  0.00     0.039 A 
ATOM      9  C   UNL     1       6.454   6.474   9.763  1.00  0.00     0.014 A 
ATOM     10  C   UNL     1       8.077   5.039  10.852  1.00  0.00     0.014 A 
ATOM     11  C   UNL     1       6.739   7.486  10.668  1.00  0.00     0.010 A 
ATOM     12  C   UNL     1       8.284   6.019  11.825  1.00  0.00     0.010 A 
ATOM     13  C   UNL     1       7.634   7.260  11.726  1.00  0.00    -0.014 A 
BRANCH  13  14
ATOM     14  C   UNL     1       7.796   8.306  12.766  1.00  0.00     0.031 A 
ATOM     15  C   UNL     1       9.116   8.981  13.004  1.00  0.00     0.074 A 
ATOM     16  C   UNL     1       6.713   8.652  13.489  1.00  0.00     0.049 A 
ATOM     17  N   UNL     1       9.417   9.909  13.877  1.00  0.00    -0.248 NA
ATOM     18  C   UNL     1      10.248   8.561  12.163  1.00  0.00     0.031 C 
ATOM     19  C   UNL     1       5.381   8.053  13.351  1.00  0.00     0.029 A 
ATOM     20  N   UNL     1       6.549   9.594  14.470  1.00  0.00    -0.354 N 
ATOM     21  C   UNL     1      10.770  10.173  13.705  1.00  0.00     0.074 A 
ATOM     22  C   UNL     1      11.240   9.290  12.659  1.00  0.00     0.031 C 
ATOM     23  C   UNL     1       4.531   8.671  14.181  1.00  0.00     0.029 A 
ATOM     24  C   UNL     1       5.269   9.651  14.965  1.00  0.00     0.049 A 
ATOM     25  H   UNL     1       7.278  10.173  14.790  1.00  0.00     0.167 HD
ATOM     26  C   UNL     1      11.541  11.075  14.358  1.00  0.00     0.037 A 
ATOM     27  C   UNL     1       4.750  10.388  15.963  1.00  0.00     0.037 A 
ATOM     28  C   UNL     1      11.058  11.956  15.393  1.00  0.00     0.049 A 
ATOM     29  C   UNL     1       5.643  11.345  16.695  1.00  0.00     0.074 A 
ATOM     30  C   UNL     1      11.754  12.930  16.088  1.00  0.00     0.029 A 
ATOM     31  N   UNL     1       9.762  11.964  15.887  1.00  0.00    -0.354 N 
ATOM     32  N   UNL     1       6.910  11.615  16.490  1.00  0.00    -0.248 NA
ATOM     33  C   UNL     1       5.036  12.100  17.798  1.00  0.00     0.031 C 
ATOM     34  C   UNL     1      10.897  13.485  17.043  1.00  0.00     0.029 A 
ATOM     35  C   UNL     1       9.648  12.904  16.899  1.00  0.00     0.049 A 
ATOM     36  H   UNL     1       9.031  11.387  15.567  1.00  0.00     0.167 HD
ATOM     37  C   UNL     1       7.244  12.588  17.421  1.00  0.00     0.074 A 
ATOM     38  C   UNL     1       6.042  12.876  18.175  1.00  0.00     0.031 C 
ATOM     39  C   UNL     1       8.441  13.186  17.636  1.00  0.00     0.037 A 
BRANCH  26  40
ATOM     40  C   UNL     1      12.998  11.152  13.997  1.00  0.00     0.057 A 
ATOM     41  C   UNL     1      13.435  11.695  12.783  1.00  0.00     0.134 A 
ATOM     42  C   UNL     1      13.980  10.751  14.914  1.00  0.00     0.134 A 
ATOM     43  F   UNL     1      12.549  12.092  11.857  1.00  0.00    -0.206 F 
ATOM     44  C   UNL     1      14.794  11.826  12.488  1.00  0.00     0.040 A 
ATOM     45  C   UNL     1      15.341  10.900  14.641  1.00  0.00     0.040 A 
ATOM     46  F   UNL     1      13.632  10.230  16.100  1.00  0.00    -0.206 F 
ATOM     47  C   UNL     1      15.751  11.438  13.423  1.00  0.00     0.006 A 
ENDBRANCH  26  40
BRANCH  27  48
ATOM     48  C   UNL     1       3.324  10.228  16.343  1.00  0.00     0.057 A 
ATOM     49  C   UNL     1       2.403  11.267  16.169  1.00  0.00     0.134 A 
ATOM     50  C   UNL     1       2.850   9.036  16.907  1.00  0.00     0.134 A 
ATOM     51  F   UNL     1       2.798  12.437  15.646  1.00  0.00    -0.206 F 
ATOM     52  C   UNL     1       1.072  11.139  16.569  1.00  0.00     0.040 A 
ATOM     53  C   UNL     1       1.515   8.881  17.279  1.00  0.00     0.040 A 
ATOM     54  F   UNL     1       3.679   7.996  17.090  1.00  0.00    -0.206 F 
ATOM     55  C   UNL     1       0.625   9.940  17.122  1.00  0.00     0.006 A 
ENDBRANCH  27  48
BRANCH  39  56
ATOM     56  C   UNL     1       8.493  14.243  18.700  1.00  0.00     0.057 A 
ATOM     57  C   UNL     1       8.389  13.934  20.062  1.00  0.00     0.134 A 
ATOM     58  C   UNL     1       8.672  15.590  18.355  1.00  0.00     0.134 A 
ATOM     59  F   UNL     1       8.201  12.666  20.459  1.00  0.00    -0.206 F 
ATOM     60  C   UNL     1       8.431  14.928  21.041  1.00  0.00     0.040 A 
ATOM     61  C   UNL     1       8.748  16.588  19.326  1.00  0.00     0.040 A 
ATOM     62  F   UNL     1       8.787  15.955  17.069  1.00  0.00    -0.206 F 
ATOM     63  C   UNL     1       8.618  16.259  20.673  1.00  0.00     0.006 A 
ENDBRANCH  39  56
ENDBRANCH  13  14
ENDBRANCH   6   8
ENDBRANCH   3   4
ENDBRANCH   2   3
ENDBRANCH   1   2
BRANCH   1  64
ATOM     64  C   UNL     1       6.780   5.212   4.033  1.00  0.00     0.116 C 
BRANCH  64  65
ATOM     65  N   UNL     1       6.512   6.574   3.645  1.00  0.00    -0.356 N 
ATOM     66  C   UNL     1       6.453   7.109   2.407  1.00  0.00     0.225 C 
ATOM     67  H   UNL     1       6.349   7.201   4.386  1.00  0.00     0.163 HD
ATOM     68  O   UNL     1       6.479   8.339   2.337  1.00  0.00    -0.275 OA
BRANCH  66  69
ATOM     69  C   UNL     1       6.434   6.210   1.184  1.00  0.00     0.107 C 
ATOM     70  C   UNL     1       5.241   5.273   1.023  1.00  0.00     0.115 C 
ATOM     71  C   UNL     1       6.286   7.125  -0.006  1.00  0.00     0.133 C 
ATOM     72  C   UNL     1       4.932   5.309  -0.465  1.00  0.00     0.223 C 
ATOM     73  N   UNL     1       5.564   6.411  -1.006  1.00  0.00    -0.338 N 
ATOM     74  O   UNL     1       4.235   4.501  -1.055  1.00  0.00    -0.275 OA
BRANCH  73  75
ATOM     75  C   UNL     1       5.452   6.901  -2.379  1.00  0.00     0.155 C 
BRANCH  75  76
ATOM     76  C   UNL     1       4.485   8.062  -2.611  1.00  0.00    -0.024 A 
ATOM     77  C   UNL     1       3.296   7.759  -3.314  1.00  0.00     0.006 A 
ATOM     78  C   UNL     1       4.708   9.416  -2.222  1.00  0.00    -0.024 A 
ATOM     79  C   UNL     1       2.346   8.738  -3.609  1.00  0.00     0.000 A 
ATOM     80  C   UNL     1       3.710  10.373  -2.497  1.00  0.00     0.006 A 
ATOM     81  C   UNL     1       2.547  10.043  -3.188  1.00  0.00     0.000 A 
BRANCH  78  82
ATOM     82  C   UNL     1       5.893   9.877  -1.404  1.00  0.00     0.155 C 
BRANCH  82  83
ATOM     83  N   UNL     1       6.816  10.837  -1.966  1.00  0.00    -0.338 N 
ATOM     84  C   UNL     1       8.189  10.467  -2.228  1.00  0.00     0.120 C 
ATOM     85  C   UNL     1       6.640  12.213  -1.958  1.00  0.00     0.222 C 
ATOM     86  C   UNL     1       8.953  11.766  -2.082  1.00  0.00     0.031 C 
ATOM     87  C   UNL     1       7.928  12.824  -2.453  1.00  0.00     0.102 C 
ATOM     88  O   UNL     1       5.652  12.836  -1.628  1.00  0.00    -0.275 OA
ENDBRANCH  82  83
ENDBRANCH  78  82
ENDBRANCH  75  76
ENDBRANCH  73  75
ENDBRANCH  66  69
ENDBRANCH  64  65
ENDBRANCH   1  64
TORSDOF 15
