REMARK SMILES CC(C)(CC(=O)NCCCCNC(=O)c1ccc(-c2c3nc(c(-c4c(F)cccc4F)c4ccc([nH]4)c(-c4c(F)cccc4F)c4nc(c(-c5c(F)cccc5F)c5ccc2[nH]5)C=C4)C=C3)cc1)CC(=O)N1CCN(c2nc3ccc(Cl)cc3s2)CC1
REMARK SMILES IDX 8 1 7 2 5 3 6 4 4 6 2 7 1 8 3 9 69 10 70 11 71 12 72 13
REMARK SMILES IDX 73 14 87 15 74 16 86 17 75 18 76 19 77 20 85 21 78 22 84 23
REMARK SMILES IDX 79 24 83 25 80 26 81 27 82 28 9 29 10 30 11 31 12 32 13 33
REMARK SMILES IDX 14 35 15 36 16 37 68 38 17 39 67 40 18 41 19 42 20 43 61 44
REMARK SMILES IDX 21 45 66 46 60 47 62 48 22 49 65 50 59 51 58 52 23 54 49 55
REMARK SMILES IDX 32 56 48 57 33 58 36 59 47 60 63 61 34 62 35 63 46 65 64 66
REMARK SMILES IDX 37 67 24 68 25 69 30 70 26 71 27 72 29 73 31 74 28 75 50 76
REMARK SMILES IDX 51 77 56 78 52 79 53 80 55 81 57 82 54 83 38 84 39 85 44 86
REMARK SMILES IDX 40 87 41 88 43 89 45 90 42 91
REMARK H PARENT 7 5 12 34 62 53 36 64
REMARK Flexibility Score: inf
ROOT
ATOM      1  C   UNL     1       0.111  -1.582  -0.931  1.00  0.00     0.116 C 
ENDROOT
BRANCH   1   2
ATOM      2  N   UNL     1      -0.945  -0.856  -0.274  1.00  0.00    -0.356 N 
ATOM      3  C   UNL     1      -1.189   0.480  -0.399  1.00  0.00     0.220 C 
ATOM      4  O   UNL     1      -2.355   0.882  -0.418  1.00  0.00    -0.275 OA
ATOM      5  H   UNL     1      -1.543  -1.368   0.316  1.00  0.00     0.163 HD
BRANCH   3   6
ATOM      6  C   UNL     1      -0.054   1.466  -0.465  1.00  0.00     0.107 C 
BRANCH   6   7
ATOM      7  C   UNL     1       0.913   1.588   0.753  1.00  0.00    -0.018 C 
ATOM      8  C   UNL     1       2.193   0.753   0.537  1.00  0.00     0.012 C 
ATOM      9  C   UNL     1       1.412   3.073   0.689  1.00  0.00     0.012 C 
BRANCH   7  10
ATOM     10  C   UNL     1       0.247   1.430   2.172  1.00  0.00     0.107 C 
BRANCH  10  11
ATOM     11  C   UNL     1      -0.133   0.103   2.901  1.00  0.00     0.223 C 
ATOM     12  O   UNL     1       0.715  -0.731   3.212  1.00  0.00    -0.275 OA
ATOM     13  N   UNL     1      -1.427   0.066   3.417  1.00  0.00    -0.339 N 
ATOM     14  C   UNL     1      -1.801  -0.240   4.806  1.00  0.00     0.141 C 
ATOM     15  C   UNL     1      -2.573   0.001   2.544  1.00  0.00     0.141 C 
ATOM     16  C   UNL     1      -3.101   0.546   5.281  1.00  0.00     0.140 C 
ATOM     17  C   UNL     1      -3.504   1.137   2.893  1.00  0.00     0.140 C 
ATOM     18  N   UNL     1      -4.079   0.808   4.200  1.00  0.00    -0.345 N 
BRANCH  18  19
ATOM     19  C   UNL     1      -5.356   0.336   4.158  1.00  0.00     0.186 A 
ATOM     20  N   UNL     1      -5.835  -0.228   3.069  1.00  0.00    -0.220 NA
ATOM     21  S   UNL     1      -6.546   0.622   5.371  1.00  0.00    -0.097 S 
ATOM     22  C   UNL     1      -7.208  -0.209   3.059  1.00  0.00     0.084 A 
ATOM     23  C   UNL     1      -7.801   0.253   4.233  1.00  0.00     0.058 A 
ATOM     24  C   UNL     1      -8.021  -0.568   1.964  1.00  0.00     0.031 A 
ATOM     25  C   UNL     1      -9.197   0.376   4.347  1.00  0.00     0.042 A 
ATOM     26  C   UNL     1      -9.408  -0.428   2.055  1.00  0.00     0.023 A 
ATOM     27  C   UNL     1      -9.980   0.041   3.233  1.00  0.00     0.042 A 
ATOM     28  Cl  UNL     1     -11.691   0.229   3.315  1.00  0.00    -0.084 Cl
ENDBRANCH  18  19
ENDBRANCH  10  11
ENDBRANCH   7  10
ENDBRANCH   6   7
ENDBRANCH   3   6
ENDBRANCH   1   2
BRANCH   1  29
ATOM     29  C   UNL     1       1.076  -2.294   0.010  1.00  0.00     0.023 C 
BRANCH  29  30
ATOM     30  C   UNL     1       0.561  -3.535   0.723  1.00  0.00     0.023 C 
BRANCH  30  31
ATOM     31  C   UNL     1      -0.123  -4.550  -0.170  1.00  0.00     0.116 C 
BRANCH  31  32
ATOM     32  N   UNL     1       0.615  -4.827  -1.396  1.00  0.00    -0.352 N 
ATOM     33  C   UNL     1       0.914  -6.024  -1.984  1.00  0.00     0.251 C 
ATOM     34  H   UNL     1       0.949  -4.032  -1.872  1.00  0.00     0.163 HD
ATOM     35  O   UNL     1       1.656  -6.060  -2.967  1.00  0.00    -0.269 OA
BRANCH  33  36
ATOM     36  C   UNL     1       0.365  -7.269  -1.424  1.00  0.00     0.039 A 
ATOM     37  C   UNL     1       1.189  -8.393  -1.338  1.00  0.00     0.014 A 
ATOM     38  C   UNL     1      -0.958  -7.324  -0.977  1.00  0.00     0.014 A 
ATOM     39  C   UNL     1       0.691  -9.564  -0.770  1.00  0.00     0.010 A 
ATOM     40  C   UNL     1      -1.411  -8.448  -0.307  1.00  0.00     0.010 A 
ATOM     41  C   UNL     1      -0.607  -9.593  -0.235  1.00  0.00    -0.014 A 
BRANCH  41  42
ATOM     42  C   UNL     1      -1.179 -10.836   0.329  1.00  0.00     0.031 A 
ATOM     43  C   UNL     1      -2.391 -11.449  -0.320  1.00  0.00     0.074 A 
ATOM     44  C   UNL     1      -0.645 -11.381   1.437  1.00  0.00     0.049 A 
ATOM     45  N   UNL     1      -3.084 -12.497   0.042  1.00  0.00    -0.248 NA
ATOM     46  C   UNL     1      -2.919 -10.769  -1.516  1.00  0.00     0.031 C 
ATOM     47  C   UNL     1       0.497 -10.846   2.182  1.00  0.00     0.029 A 
ATOM     48  N   UNL     1      -0.997 -12.509   2.132  1.00  0.00    -0.354 N 
ATOM     49  C   UNL     1      -4.133 -12.585  -0.864  1.00  0.00     0.074 A 
ATOM     50  C   UNL     1      -4.033 -11.445  -1.745  1.00  0.00     0.031 C 
ATOM     51  C   UNL     1       0.772 -11.665   3.210  1.00  0.00     0.029 A 
ATOM     52  C   UNL     1      -0.194 -12.758   3.218  1.00  0.00     0.049 A 
ATOM     53  H   UNL     1      -1.753 -13.085   1.878  1.00  0.00     0.167 HD
ATOM     54  C   UNL     1      -5.076 -13.549  -0.977  1.00  0.00     0.037 A 
ATOM     55  C   UNL     1      -0.236 -13.761   4.114  1.00  0.00     0.037 A 
ATOM     56  C   UNL     1      -5.145 -14.700  -0.119  1.00  0.00     0.049 A 
ATOM     57  C   UNL     1      -1.287 -14.828   3.963  1.00  0.00     0.074 A 
ATOM     58  C   UNL     1      -6.022 -15.767  -0.176  1.00  0.00     0.029 A 
ATOM     59  N   UNL     1      -4.295 -14.934   0.952  1.00  0.00    -0.354 N 
ATOM     60  N   UNL     1      -2.233 -14.936   3.061  1.00  0.00    -0.248 NA
ATOM     61  C   UNL     1      -1.266 -15.919   4.946  1.00  0.00     0.031 C 
ATOM     62  C   UNL     1      -5.733 -16.625   0.890  1.00  0.00     0.029 A 
ATOM     63  C   UNL     1      -4.637 -16.122   1.575  1.00  0.00     0.049 A 
ATOM     64  H   UNL     1      -3.558 -14.342   1.229  1.00  0.00     0.167 HD
ATOM     65  C   UNL     1      -2.895 -16.124   3.344  1.00  0.00     0.074 A 
ATOM     66  C   UNL     1      -2.233 -16.705   4.494  1.00  0.00     0.031 C 
ATOM     67  C   UNL     1      -3.952 -16.688   2.709  1.00  0.00     0.037 A 
BRANCH  54  68
ATOM     68  C   UNL     1      -6.094 -13.398  -2.071  1.00  0.00     0.057 A 
ATOM     69  C   UNL     1      -5.748 -13.500  -3.426  1.00  0.00     0.134 A 
ATOM     70  C   UNL     1      -7.440 -13.158  -1.766  1.00  0.00     0.134 A 
ATOM     71  F   UNL     1      -4.474 -13.711  -3.789  1.00  0.00    -0.206 F 
ATOM     72  C   UNL     1      -6.697 -13.338  -4.437  1.00  0.00     0.040 A 
ATOM     73  C   UNL     1      -8.403 -13.027  -2.768  1.00  0.00     0.040 A 
ATOM     74  F   UNL     1      -7.842 -13.051  -0.491  1.00  0.00    -0.206 F 
ATOM     75  C   UNL     1      -8.031 -13.107  -4.109  1.00  0.00     0.006 A 
ENDBRANCH  54  68
BRANCH  55  76
ATOM     76  C   UNL     1       0.766 -13.828   5.208  1.00  0.00     0.057 A 
ATOM     77  C   UNL     1       1.745 -14.829   5.231  1.00  0.00     0.134 A 
ATOM     78  C   UNL     1       0.766 -12.904   6.260  1.00  0.00     0.134 A 
ATOM     79  F   UNL     1       1.789 -15.752   4.260  1.00  0.00    -0.206 F 
ATOM     80  C   UNL     1       2.669 -14.926   6.273  1.00  0.00     0.040 A 
ATOM     81  C   UNL     1       1.701 -12.972   7.293  1.00  0.00     0.040 A 
ATOM     82  F   UNL     1      -0.138 -11.913   6.291  1.00  0.00    -0.206 F 
ATOM     83  C   UNL     1       2.650 -13.992   7.307  1.00  0.00     0.006 A 
ENDBRANCH  55  76
BRANCH  67  84
ATOM     84  C   UNL     1      -4.420 -18.024   3.207  1.00  0.00     0.057 A 
ATOM     85  C   UNL     1      -5.080 -18.173   4.433  1.00  0.00     0.134 A 
ATOM     86  C   UNL     1      -4.238 -19.173   2.426  1.00  0.00     0.134 A 
ATOM     87  F   UNL     1      -5.277 -17.114   5.233  1.00  0.00    -0.206 F 
ATOM     88  C   UNL     1      -5.516 -19.422   4.878  1.00  0.00     0.040 A 
ATOM     89  C   UNL     1      -4.698 -20.421   2.845  1.00  0.00     0.040 A 
ATOM     90  F   UNL     1      -3.625 -19.098   1.235  1.00  0.00    -0.206 F 
ATOM     91  C   UNL     1      -5.332 -20.549   4.079  1.00  0.00     0.006 A 
ENDBRANCH  67  84
ENDBRANCH  41  42
ENDBRANCH  33  36
ENDBRANCH  31  32
ENDBRANCH  30  31
ENDBRANCH  29  30
ENDBRANCH   1  29
TORSDOF 15
