REMARK SMILES CC(C)(C)OC(=O)N1CCN(N[C@@H](C(=O)NCCCCNC(=O)c2ccc(-c3c4nc(c(-c5c(F)cccc5F)c5ccc([nH]5)c(-c5c(F)cccc5F)c5nc(c(-c6c(F)cccc6F)c6ccc3[nH]6)C=C5)C=C4)cc2)c2ccccc2Cl)CC1
REMARK SMILES IDX 17 1 16 2 14 3 15 4 13 6 12 7 11 9 6 10 7 11 8 12 9 13 86 14
REMARK SMILES IDX 10 15 85 16 5 17 2 18 1 19 3 20 4 21 78 22 79 23 83 24 80 25
REMARK SMILES IDX 82 26 84 27 81 28 18 29 19 30 20 31 21 32 22 33 23 35 24 36
REMARK SMILES IDX 25 37 77 38 26 39 76 40 27 41 28 42 29 43 70 44 30 45 75 46
REMARK SMILES IDX 69 47 71 48 31 49 74 50 68 51 67 52 32 54 58 55 41 56 57 57
REMARK SMILES IDX 42 58 45 59 56 60 72 61 43 62 44 63 55 65 73 66 46 67 33 68
REMARK SMILES IDX 34 69 39 70 35 71 36 72 38 73 40 74 37 75 59 76 60 77 65 78
REMARK SMILES IDX 61 79 62 80 64 81 66 82 63 83 47 84 48 85 53 86 49 87 50 88
REMARK SMILES IDX 52 89 54 90 51 91
REMARK H PARENT 16 5 12 8 21 34 71 53 45 64
REMARK Flexibility Score: inf
ROOT
ATOM      1  C   UNL     1       0.549  -6.072  -6.357  1.00  0.00     0.116 C 
ENDROOT
BRANCH   1   2
ATOM      2  N   UNL     1       1.568  -7.056  -6.667  1.00  0.00    -0.354 N 
ATOM      3  C   UNL     1       2.347  -7.783  -5.800  1.00  0.00     0.243 C 
ATOM      4  O   UNL     1       3.358  -8.307  -6.277  1.00  0.00    -0.273 OA
ATOM      5  H   UNL     1       1.722  -7.226  -7.624  1.00  0.00     0.163 HD
BRANCH   3   6
ATOM      6  C   UNL     1       1.923  -7.984  -4.311  1.00  0.00     0.190 C 
BRANCH   6   7
ATOM      7  N   UNL     1       2.407  -6.877  -3.446  1.00  0.00    -0.238 NA
ATOM      8  H   UNL     1       2.467  -7.227  -2.489  1.00  0.00     0.143 HD
BRANCH   7   9
ATOM      9  N   UNL     1       1.575  -5.696  -3.438  1.00  0.00    -0.240 NA
ATOM     10  C   UNL     1       0.616  -3.701  -0.023  1.00  0.00     0.410 C 
ATOM     11  O   UNL     1      -0.398  -3.946   0.608  1.00  0.00    -0.224 OA
ATOM     12  N   UNL     1       1.312  -4.657  -0.731  1.00  0.00    -0.306 N 
ATOM     13  C   UNL     1       0.649  -5.902  -1.083  1.00  0.00     0.140 C 
ATOM     14  C   UNL     1       2.571  -4.442  -1.433  1.00  0.00     0.140 C 
ATOM     15  C   UNL     1       0.368  -5.892  -2.593  1.00  0.00     0.124 C 
ATOM     16  C   UNL     1       2.358  -4.519  -2.956  1.00  0.00     0.124 C 
BRANCH  10  17
ATOM     17  O   UNL     1       1.165  -2.464  -0.153  1.00  0.00    -0.444 OA
BRANCH  17  18
ATOM     18  C   UNL     1       0.613  -1.334   0.571  1.00  0.00     0.106 C 
ATOM     19  C   UNL     1       1.316  -0.103  -0.021  1.00  0.00     0.056 C 
ATOM     20  C   UNL     1       0.981  -1.463   2.051  1.00  0.00     0.056 C 
ATOM     21  C   UNL     1      -0.899  -1.151   0.372  1.00  0.00     0.056 C 
ENDBRANCH  17  18
ENDBRANCH  10  17
ENDBRANCH   7   9
ENDBRANCH   6   7
BRANCH   6  22
ATOM     22  C   UNL     1       2.390  -9.364  -3.806  1.00  0.00    -0.002 A 
ATOM     23  C   UNL     1       1.652 -10.481  -4.267  1.00  0.00     0.007 A 
ATOM     24  C   UNL     1       3.500  -9.625  -2.976  1.00  0.00     0.046 A 
ATOM     25  C   UNL     1       1.984 -11.787  -3.897  1.00  0.00     0.000 A 
ATOM     26  C   UNL     1       3.806 -10.938  -2.584  1.00  0.00     0.021 A 
ATOM     27  Cl  UNL     1       4.602  -8.422  -2.392  1.00  0.00    -0.084 Cl
ATOM     28  C   UNL     1       3.054 -12.015  -3.042  1.00  0.00     0.002 A 
ENDBRANCH   6  22
ENDBRANCH   3   6
ENDBRANCH   1   2
BRANCH   1  29
ATOM     29  C   UNL     1       1.181  -4.685  -6.196  1.00  0.00     0.023 C 
BRANCH  29  30
ATOM     30  C   UNL     1       1.316  -3.882  -7.482  1.00  0.00     0.023 C 
BRANCH  30  31
ATOM     31  C   UNL     1      -0.007  -3.384  -8.039  1.00  0.00     0.116 C 
BRANCH  31  32
ATOM     32  N   UNL     1      -0.713  -2.465  -7.154  1.00  0.00    -0.352 N 
ATOM     33  C   UNL     1      -1.525  -1.411  -7.508  1.00  0.00     0.251 C 
ATOM     34  H   UNL     1      -0.595  -2.616  -6.189  1.00  0.00     0.163 HD
ATOM     35  O   UNL     1      -2.006  -0.668  -6.661  1.00  0.00    -0.269 OA
BRANCH  33  36
ATOM     36  C   UNL     1      -1.758  -1.159  -8.944  1.00  0.00     0.039 A 
ATOM     37  C   UNL     1      -1.477   0.106  -9.462  1.00  0.00     0.014 A 
ATOM     38  C   UNL     1      -2.138  -2.207  -9.786  1.00  0.00     0.014 A 
ATOM     39  C   UNL     1      -1.491   0.297 -10.844  1.00  0.00     0.010 A 
ATOM     40  C   UNL     1      -2.062  -2.039 -11.162  1.00  0.00     0.010 A 
ATOM     41  C   UNL     1      -1.734  -0.787 -11.705  1.00  0.00    -0.014 A 
BRANCH  41  42
ATOM     42  C   UNL     1      -1.652  -0.639 -13.178  1.00  0.00     0.031 A 
ATOM     43  C   UNL     1      -2.873  -0.883 -14.020  1.00  0.00     0.074 A 
ATOM     44  C   UNL     1      -0.467  -0.372 -13.761  1.00  0.00     0.049 A 
ATOM     45  N   UNL     1      -2.989  -0.899 -15.323  1.00  0.00    -0.248 NA
ATOM     46  C   UNL     1      -4.122  -1.185 -13.302  1.00  0.00     0.031 C 
ATOM     47  C   UNL     1       0.802  -0.176 -13.057  1.00  0.00     0.029 A 
ATOM     48  N   UNL     1      -0.136  -0.231 -15.085  1.00  0.00    -0.354 N 
ATOM     49  C   UNL     1      -4.312  -1.234 -15.578  1.00  0.00     0.074 A 
ATOM     50  C   UNL     1      -4.945  -1.469 -14.299  1.00  0.00     0.031 C 
ATOM     51  C   UNL     1       1.767   0.086 -13.954  1.00  0.00     0.029 A 
ATOM     52  C   UNL     1       1.194   0.042 -15.296  1.00  0.00     0.049 A 
ATOM     53  H   UNL     1      -0.790  -0.317 -15.816  1.00  0.00     0.167 HD
ATOM     54  C   UNL     1      -4.951  -1.311 -16.768  1.00  0.00     0.037 A 
ATOM     55  C   UNL     1       1.874   0.232 -16.442  1.00  0.00     0.037 A 
ATOM     56  C   UNL     1      -4.329  -1.037 -18.036  1.00  0.00     0.049 A 
ATOM     57  C   UNL     1       1.137   0.161 -17.751  1.00  0.00     0.074 A 
ATOM     58  C   UNL     1      -4.906  -1.019 -19.293  1.00  0.00     0.029 A 
ATOM     59  N   UNL     1      -2.988  -0.728 -18.204  1.00  0.00    -0.354 N 
ATOM     60  N   UNL     1      -0.130  -0.088 -17.974  1.00  0.00    -0.248 NA
ATOM     61  C   UNL     1       1.925   0.404 -18.968  1.00  0.00     0.031 C 
ATOM     62  C   UNL     1      -3.905  -0.732 -20.227  1.00  0.00     0.029 A 
ATOM     63  C   UNL     1      -2.715  -0.531 -19.547  1.00  0.00     0.049 A 
ATOM     64  H   UNL     1      -2.328  -0.658 -17.477  1.00  0.00     0.167 HD
ATOM     65  C   UNL     1      -0.299  -0.004 -19.349  1.00  0.00     0.074 A 
ATOM     66  C   UNL     1       0.995   0.330 -19.910  1.00  0.00     0.031 C 
ATOM     67  C   UNL     1      -1.423  -0.187 -20.084  1.00  0.00     0.037 A 
BRANCH  54  68
ATOM     68  C   UNL     1      -6.401  -1.695 -16.748  1.00  0.00     0.057 A 
ATOM     69  C   UNL     1      -7.386  -0.829 -16.253  1.00  0.00     0.134 A 
ATOM     70  C   UNL     1      -6.820  -2.935 -17.244  1.00  0.00     0.134 A 
ATOM     71  F   UNL     1      -7.048   0.367 -15.748  1.00  0.00    -0.206 F 
ATOM     72  C   UNL     1      -8.732  -1.194 -16.226  1.00  0.00     0.040 A 
ATOM     73  C   UNL     1      -8.167  -3.300 -17.248  1.00  0.00     0.040 A 
ATOM     74  F   UNL     1      -5.930  -3.809 -17.735  1.00  0.00    -0.206 F 
ATOM     75  C   UNL     1      -9.127  -2.432 -16.730  1.00  0.00     0.006 A 
ENDBRANCH  54  68
BRANCH  55  76
ATOM     76  C   UNL     1       3.325   0.541 -16.406  1.00  0.00     0.057 A 
ATOM     77  C   UNL     1       3.796   1.819 -16.728  1.00  0.00     0.134 A 
ATOM     78  C   UNL     1       4.274  -0.427 -16.059  1.00  0.00     0.134 A 
ATOM     79  F   UNL     1       2.936   2.784 -17.086  1.00  0.00    -0.206 F 
ATOM     80  C   UNL     1       5.159   2.119 -16.727  1.00  0.00     0.040 A 
ATOM     81  C   UNL     1       5.639  -0.136 -16.031  1.00  0.00     0.040 A 
ATOM     82  F   UNL     1       3.886  -1.669 -15.732  1.00  0.00    -0.206 F 
ATOM     83  C   UNL     1       6.085   1.140 -16.373  1.00  0.00     0.006 A 
ENDBRANCH  55  76
BRANCH  67  84
ATOM     84  C   UNL     1      -1.313   0.005 -21.566  1.00  0.00     0.057 A 
ATOM     85  C   UNL     1      -0.679  -0.934 -22.388  1.00  0.00     0.134 A 
ATOM     86  C   UNL     1      -1.890   1.123 -22.183  1.00  0.00     0.134 A 
ATOM     87  F   UNL     1      -0.096  -2.019 -21.856  1.00  0.00    -0.206 F 
ATOM     88  C   UNL     1      -0.606  -0.759 -23.771  1.00  0.00     0.040 A 
ATOM     89  C   UNL     1      -1.845   1.297 -23.566  1.00  0.00     0.040 A 
ATOM     90  F   UNL     1      -2.519   2.055 -21.451  1.00  0.00    -0.206 F 
ATOM     91  C   UNL     1      -1.196   0.356 -24.364  1.00  0.00     0.006 A 
ENDBRANCH  67  84
ENDBRANCH  41  42
ENDBRANCH  33  36
ENDBRANCH  31  32
ENDBRANCH  30  31
ENDBRANCH  29  30
ENDBRANCH   1  29
TORSDOF 16
