REMARK SMILES C[C@@H](C(=O)NCCCCNC(=O)c1ccc(-c2c3nc(c(-c4c(F)cccc4F)c4ccc([nH]4)c(-c4c(F)cccc4F)c4nc(c(-c5c(F)cccc5F)c5ccc2[nH]5)C=C4)C=C3)cc1)c1ccc(Cc2ccsc2)cc1F
REMARK SMILES IDX 7 1 6 2 5 3 3 4 4 5 2 7 1 8 67 9 68 10 78 11 69 12 77 13
REMARK SMILES IDX 79 14 70 15 71 16 72 17 73 18 76 19 74 20 75 21 8 22 9 23
REMARK SMILES IDX 10 24 11 25 12 27 13 28 14 29 66 30 15 31 65 32 16 33 17 34
REMARK SMILES IDX 18 35 59 36 19 37 64 38 58 39 60 40 20 41 63 42 57 43 56 44
REMARK SMILES IDX 21 46 47 47 30 48 46 49 31 50 34 51 45 52 61 53 32 54 33 55
REMARK SMILES IDX 44 57 62 58 35 59 22 60 23 61 28 62 24 63 25 64 27 65 29 66
REMARK SMILES IDX 26 67 48 68 49 69 54 70 50 71 51 72 53 73 55 74 52 75 36 76
REMARK SMILES IDX 37 77 42 78 38 79 39 80 41 81 43 82 40 83
REMARK H PARENT 5 6 10 26 60 45 34 56
REMARK Flexibility Score: inf
ROOT
ATOM      1  C   UNL     1       4.246   1.167   0.165  1.00  0.00     0.023 C 
ENDROOT
BRANCH   1   2
ATOM      2  C   UNL     1       3.449   1.016   1.464  1.00  0.00     0.116 C 
BRANCH   2   3
ATOM      3  N   UNL     1       2.474   2.076   1.608  1.00  0.00    -0.356 N 
ATOM      4  C   UNL     1       1.117   2.075   1.464  1.00  0.00     0.227 C 
ATOM      5  O   UNL     1       0.583   3.178   1.594  1.00  0.00    -0.274 OA
ATOM      6  H   UNL     1       2.856   2.949   1.853  1.00  0.00     0.163 HD
BRANCH   4   7
ATOM      7  C   UNL     1       0.357   0.761   1.194  1.00  0.00     0.108 C 
ATOM      8  C   UNL     1       0.651   0.202  -0.202  1.00  0.00     0.023 C 
BRANCH   7   9
ATOM      9  C   UNL     1      -1.162   0.807   1.364  1.00  0.00    -0.000 A 
ATOM     10  C   UNL     1      -1.941   1.935   1.078  1.00  0.00     0.008 A 
ATOM     11  C   UNL     1      -1.845  -0.369   1.708  1.00  0.00     0.127 A 
ATOM     12  C   UNL     1      -3.336   1.891   1.157  1.00  0.00     0.004 A 
ATOM     13  C   UNL     1      -3.239  -0.425   1.783  1.00  0.00     0.043 A 
ATOM     14  F   UNL     1      -1.150  -1.497   1.921  1.00  0.00    -0.207 F 
ATOM     15  C   UNL     1      -4.007   0.712   1.509  1.00  0.00    -0.041 A 
BRANCH  15  16
ATOM     16  C   UNL     1      -5.515   0.662   1.511  1.00  0.00     0.072 C 
BRANCH  16  17
ATOM     17  C   UNL     1      -6.009   1.211   2.820  1.00  0.00    -0.033 A 
ATOM     18  C   UNL     1      -5.877   2.572   3.269  1.00  0.00     0.015 A 
ATOM     19  C   UNL     1      -6.746   0.481   3.737  1.00  0.00     0.068 A 
ATOM     20  C   UNL     1      -6.481   2.801   4.485  1.00  0.00     0.065 A 
ATOM     21  S   UNL     1      -7.235   1.398   5.095  1.00  0.00    -0.152 S 
ENDBRANCH  16  17
ENDBRANCH  15  16
ENDBRANCH   7   9
ENDBRANCH   4   7
ENDBRANCH   2   3
ENDBRANCH   1   2
BRANCH   1  22
ATOM     22  C   UNL     1       5.010   2.486   0.022  1.00  0.00     0.023 C 
BRANCH  22  23
ATOM     23  C   UNL     1       5.955   2.817   1.169  1.00  0.00     0.116 C 
BRANCH  23  24
ATOM     24  N   UNL     1       6.968   1.794   1.373  1.00  0.00    -0.352 N 
ATOM     25  C   UNL     1       8.325   1.936   1.528  1.00  0.00     0.251 C 
ATOM     26  H   UNL     1       6.634   0.869   1.406  1.00  0.00     0.163 HD
ATOM     27  O   UNL     1       9.050   0.945   1.541  1.00  0.00    -0.269 OA
BRANCH  25  28
ATOM     28  C   UNL     1       8.915   3.285   1.645  1.00  0.00     0.039 A 
ATOM     29  C   UNL     1      10.053   3.590   0.895  1.00  0.00     0.014 A 
ATOM     30  C   UNL     1       8.343   4.250   2.479  1.00  0.00     0.014 A 
ATOM     31  C   UNL     1      10.579   4.882   0.931  1.00  0.00     0.010 A 
ATOM     32  C   UNL     1       8.820   5.557   2.454  1.00  0.00     0.010 A 
ATOM     33  C   UNL     1       9.944   5.886   1.681  1.00  0.00    -0.014 A 
BRANCH  33  34
ATOM     34  C   UNL     1      10.439   7.286   1.662  1.00  0.00     0.031 A 
ATOM     35  C   UNL     1      10.953   7.926   2.921  1.00  0.00     0.074 A 
ATOM     36  C   UNL     1      10.369   8.001   0.522  1.00  0.00     0.049 A 
ATOM     37  N   UNL     1      11.374   9.150   3.115  1.00  0.00    -0.248 NA
ATOM     38  C   UNL     1      10.972   7.087   4.130  1.00  0.00     0.031 C 
ATOM     39  C   UNL     1       9.847   7.510  -0.755  1.00  0.00     0.029 A 
ATOM     40  N   UNL     1      10.731   9.298   0.255  1.00  0.00    -0.354 N 
ATOM     41  C   UNL     1      11.697   9.230   4.463  1.00  0.00     0.074 A 
ATOM     42  C   UNL     1      11.368   7.951   5.053  1.00  0.00     0.031 C 
ATOM     43  C   UNL     1       9.946   8.484  -1.674  1.00  0.00     0.029 A 
ATOM     44  C   UNL     1      10.499   9.679  -1.044  1.00  0.00     0.049 A 
ATOM     45  H   UNL     1      11.121   9.898   0.931  1.00  0.00     0.167 HD
ATOM     46  C   UNL     1      12.241  10.267   5.144  1.00  0.00     0.037 A 
ATOM     47  C   UNL     1      10.700  10.860  -1.658  1.00  0.00     0.037 A 
ATOM     48  C   UNL     1      12.581  11.534   4.550  1.00  0.00     0.049 A 
ATOM     49  C   UNL     1      11.284  12.004  -0.875  1.00  0.00     0.074 A 
ATOM     50  C   UNL     1      13.189  12.627   5.142  1.00  0.00     0.029 A 
ATOM     51  N   UNL     1      12.335  11.880   3.230  1.00  0.00    -0.354 N 
ATOM     52  N   UNL     1      11.654  12.042   0.383  1.00  0.00    -0.248 NA
ATOM     53  C   UNL     1      11.485  13.267  -1.598  1.00  0.00     0.031 C 
ATOM     54  C   UNL     1      13.261  13.653   4.195  1.00  0.00     0.029 A 
ATOM     55  C   UNL     1      12.752  13.180   2.996  1.00  0.00     0.049 A 
ATOM     56  H   UNL     1      11.924  11.289   2.558  1.00  0.00     0.167 HD
ATOM     57  C   UNL     1      12.155  13.320   0.594  1.00  0.00     0.074 A 
ATOM     58  C   UNL     1      12.058  14.020  -0.670  1.00  0.00     0.031 C 
ATOM     59  C   UNL     1      12.652  13.864   1.732  1.00  0.00     0.037 A 
BRANCH  46  60
ATOM     60  C   UNL     1      12.499  10.073   6.611  1.00  0.00     0.057 A 
ATOM     61  C   UNL     1      13.491   9.199   7.079  1.00  0.00     0.134 A 
ATOM     62  C   UNL     1      11.770  10.790   7.567  1.00  0.00     0.134 A 
ATOM     63  F   UNL     1      14.219   8.472   6.217  1.00  0.00    -0.206 F 
ATOM     64  C   UNL     1      13.726   9.023   8.444  1.00  0.00     0.040 A 
ATOM     65  C   UNL     1      12.017  10.646   8.934  1.00  0.00     0.040 A 
ATOM     66  F   UNL     1      10.811  11.650   7.191  1.00  0.00    -0.206 F 
ATOM     67  C   UNL     1      12.992   9.754   9.376  1.00  0.00     0.006 A 
ENDBRANCH  46  60
BRANCH  47  68
ATOM     68  C   UNL     1      10.362  11.020  -3.095  1.00  0.00     0.057 A 
ATOM     69  C   UNL     1      11.363  11.188  -4.059  1.00  0.00     0.134 A 
ATOM     70  C   UNL     1       9.034  11.019  -3.540  1.00  0.00     0.134 A 
ATOM     71  F   UNL     1      12.653  11.217  -3.693  1.00  0.00    -0.206 F 
ATOM     72  C   UNL     1      11.058  11.370  -5.408  1.00  0.00     0.040 A 
ATOM     73  C   UNL     1       8.715  11.172  -4.890  1.00  0.00     0.040 A 
ATOM     74  F   UNL     1       8.028  10.854  -2.669  1.00  0.00    -0.206 F 
ATOM     75  C   UNL     1       9.729  11.357  -5.828  1.00  0.00     0.006 A 
ENDBRANCH  47  68
BRANCH  59  76
ATOM     76  C   UNL     1      13.159  15.276   1.655  1.00  0.00     0.057 A 
ATOM     77  C   UNL     1      12.293  16.368   1.511  1.00  0.00     0.134 A 
ATOM     78  C   UNL     1      14.529  15.547   1.764  1.00  0.00     0.134 A 
ATOM     79  F   UNL     1      10.971  16.177   1.388  1.00  0.00    -0.206 F 
ATOM     80  C   UNL     1      12.775  17.677   1.454  1.00  0.00     0.040 A 
ATOM     81  C   UNL     1      15.019  16.854   1.738  1.00  0.00     0.040 A 
ATOM     82  F   UNL     1      15.412  14.549   1.912  1.00  0.00    -0.206 F 
ATOM     83  C   UNL     1      14.141  17.923   1.576  1.00  0.00     0.006 A 
ENDBRANCH  59  76
ENDBRANCH  33  34
ENDBRANCH  25  28
ENDBRANCH  23  24
ENDBRANCH  22  23
ENDBRANCH   1  22
TORSDOF 14
