REMARK SMILES COc1ccc(CCN2/C(=[NH+]/C(=O)CCC(=O)NCCCCNC(=O)c3ccc(-c4c5nc(c(-c6c(F)cccc6F)c6ccc([nH]6)c(-c6c(F)cccc6F)c6nc(c(-c7c(F)cccc7F)c7ccc4[nH]7)C=C6)C=C5)cc3)S[C@@H]3CS(=O)(=O)C[C@@H]32)cc1
REMARK SMILES IDX 16 1 17 2 18 3 15 5 14 6 12 7 9 8 10 9 87 10 11 11 80 12
REMARK SMILES IDX 81 13 86 14 82 16 83 17 13 18 84 19 85 20 8 21 7 22 6 23
REMARK SMILES IDX 3 24 4 25 89 26 5 27 88 28 2 29 1 30 19 31 20 32 21 33 22 34
REMARK SMILES IDX 23 35 24 36 25 38 26 39 27 40 79 41 28 42 78 43 29 44 30 45
REMARK SMILES IDX 31 46 72 47 32 48 77 49 71 50 73 51 33 52 76 53 70 54 69 55
REMARK SMILES IDX 34 57 60 58 43 59 59 60 44 61 47 62 58 63 74 64 45 65 46 66
REMARK SMILES IDX 57 68 75 69 48 70 35 71 36 72 41 73 37 74 38 75 40 76 42 77
REMARK SMILES IDX 39 78 61 79 62 80 67 81 63 82 64 83 66 84 68 85 65 86 49 87
REMARK SMILES IDX 50 88 55 89 51 90 52 91 54 92 56 93 53 94
REMARK H PARENT 18 4 11 15 23 37 73 56 47 67
REMARK Flexibility Score: inf
ROOT
ATOM      1  C   UNL     1      -0.496   4.722  -3.562  1.00  0.00     0.220 C 
ATOM      2  O   UNL     1       0.598   5.288  -3.573  1.00  0.00    -0.275 OA
ATOM      3  N   UNL     1      -0.601   3.517  -2.930  1.00  0.00    -0.356 N 
ATOM      4  H   UNL     1       0.173   3.281  -2.371  1.00  0.00     0.163 HD
ENDROOT
BRANCH   1   5
ATOM      5  C   UNL     1      -1.718   5.352  -4.185  1.00  0.00     0.112 C 
BRANCH   5   6
ATOM      6  C   UNL     1      -1.488   5.832  -5.625  1.00  0.00     0.138 C 
BRANCH   6   7
ATOM      7  C   UNL     1      -1.811   4.799  -6.705  1.00  0.00     0.308 C 
ATOM      8  N   UNL     1       0.393   2.131  -7.895  1.00  0.00    -0.251 N 
ATOM      9  C   UNL     1      -0.740   2.996  -7.841  1.00  0.00     0.314 C 
ATOM     10  C   UNL     1       0.180   0.768  -8.527  1.00  0.00     0.206 C 
ATOM     11  N   UNL     1      -0.693   4.170  -7.256  1.00  0.00    -0.205 N 
ATOM     12  S   UNL     1      -2.317   2.219  -8.318  1.00  0.00    -0.030 SA
ATOM     13  C   UNL     1      -1.768   0.542  -8.766  1.00  0.00     0.120 C 
ATOM     14  C   UNL     1       0.989  -0.649  -7.356  1.00  0.00     0.187 C 
ATOM     15  H   UNL     1       0.175   4.630  -7.204  1.00  0.00     0.316 HD
ATOM     16  C   UNL     1      -2.537  -0.981  -7.671  1.00  0.00     0.156 C 
ATOM     17  S   UNL     1      -0.789  -2.058  -6.580  1.00  0.00     0.155 S 
ATOM     18  O   UNL     1      -2.998   4.552  -6.912  1.00  0.00    -0.247 OA
ATOM     19  O   UNL     1      -0.992  -1.983  -5.138  1.00  0.00    -0.229 OA
ATOM     20  O   UNL     1      -0.749  -3.426  -7.074  1.00  0.00    -0.229 OA
BRANCH   8  21
ATOM     21  C   UNL     1       1.799   2.430  -7.348  1.00  0.00     0.242 C 
BRANCH  21  22
ATOM     22  C   UNL     1       2.448   2.275  -5.742  1.00  0.00     0.081 C 
BRANCH  22  23
ATOM     23  C   UNL     1       2.582   1.357  -4.402  1.00  0.00    -0.044 A 
ATOM     24  C   UNL     1       2.882   0.222  -1.685  1.00  0.00     0.118 A 
ATOM     25  C   UNL     1       1.724   0.074  -2.378  1.00  0.00     0.046 A 
ATOM     26  C   UNL     1       3.943   0.819  -2.361  1.00  0.00     0.046 A 
ATOM     27  C   UNL     1       1.597   0.712  -3.622  1.00  0.00     0.007 A 
ATOM     28  C   UNL     1       3.800   1.365  -3.687  1.00  0.00     0.007 A 
BRANCH  24  29
ATOM     29  O   UNL     1       2.991  -0.144  -0.374  1.00  0.00    -0.497 OA
ATOM     30  C   UNL     1       1.833   0.174   0.423  1.00  0.00     0.278 C 
ENDBRANCH  24  29
ENDBRANCH  22  23
ENDBRANCH  21  22
ENDBRANCH   8  21
ENDBRANCH   6   7
ENDBRANCH   5   6
ENDBRANCH   1   5
BRANCH   3  31
ATOM     31  C   UNL     1      -1.673   2.512  -2.942  1.00  0.00     0.116 C 
BRANCH  31  32
ATOM     32  C   UNL     1      -2.009   1.918  -4.322  1.00  0.00     0.023 C 
BRANCH  32  33
ATOM     33  C   UNL     1      -0.778   1.825  -5.158  1.00  0.00     0.023 C 
BRANCH  33  34
ATOM     34  C   UNL     1      -0.258   0.539  -5.789  1.00  0.00     0.116 C 
BRANCH  34  35
ATOM     35  N   UNL     1      -0.862  -0.090  -7.133  1.00  0.00    -0.352 N 
ATOM     36  C   UNL     1      -0.533  -1.276  -8.620  1.00  0.00     0.251 C 
ATOM     37  H   UNL     1      -1.769   0.277  -7.246  1.00  0.00     0.163 HD
ATOM     38  O   UNL     1      -1.324  -1.457  -9.572  1.00  0.00    -0.269 OA
BRANCH  36  39
ATOM     39  C   UNL     1       0.730  -2.402  -9.010  1.00  0.00     0.039 A 
ATOM     40  C   UNL     1       0.988  -2.617 -10.373  1.00  0.00     0.014 A 
ATOM     41  C   UNL     1       1.686  -2.970  -8.119  1.00  0.00     0.014 A 
ATOM     42  C   UNL     1       2.243  -3.101 -10.804  1.00  0.00     0.010 A 
ATOM     43  C   UNL     1       2.985  -3.211  -8.541  1.00  0.00     0.010 A 
ATOM     44  C   UNL     1       3.294  -3.286  -9.892  1.00  0.00    -0.014 A 
BRANCH  44  45
ATOM     45  C   UNL     1       4.718  -3.518 -10.271  1.00  0.00     0.031 A 
ATOM     46  C   UNL     1       5.500  -4.659  -9.652  1.00  0.00     0.074 A 
ATOM     47  C   UNL     1       5.370  -2.607 -11.026  1.00  0.00     0.049 A 
ATOM     48  N   UNL     1       6.761  -4.980  -9.810  1.00  0.00    -0.248 NA
ATOM     49  C   UNL     1       4.797  -5.510  -8.674  1.00  0.00     0.031 C 
ATOM     50  C   UNL     1       4.801  -1.362 -11.549  1.00  0.00     0.029 A 
ATOM     51  N   UNL     1       6.671  -2.580 -11.473  1.00  0.00    -0.354 N 
ATOM     52  C   UNL     1       6.987  -6.051  -8.951  1.00  0.00     0.074 A 
ATOM     53  C   UNL     1       5.784  -6.238  -8.179  1.00  0.00     0.031 C 
ATOM     54  C   UNL     1       5.726  -0.726 -12.287  1.00  0.00     0.029 A 
ATOM     55  C   UNL     1       6.961  -1.502 -12.277  1.00  0.00     0.049 A 
ATOM     56  H   UNL     1       7.333  -3.270 -11.239  1.00  0.00     0.167 HD
ATOM     57  C   UNL     1       8.068  -6.860  -8.857  1.00  0.00     0.037 A 
ATOM     58  C   UNL     1       8.088  -1.189 -12.948  1.00  0.00     0.037 A 
ATOM     59  C   UNL     1       9.255  -6.699  -9.649  1.00  0.00     0.049 A 
ATOM     60  C   UNL     1       9.268  -2.123 -12.873  1.00  0.00     0.074 A 
ATOM     61  C   UNL     1      10.368  -7.516  -9.714  1.00  0.00     0.029 A 
ATOM     62  N   UNL     1       9.479  -5.639 -10.513  1.00  0.00    -0.354 N 
ATOM     63  N   UNL     1       9.405  -3.231 -12.186  1.00  0.00    -0.248 NA
ATOM     64  C   UNL     1      10.443  -1.774 -13.685  1.00  0.00     0.031 C 
ATOM     65  C   UNL     1      11.291  -6.921 -10.579  1.00  0.00     0.029 A 
ATOM     66  C   UNL     1      10.726  -5.766 -11.098  1.00  0.00     0.049 A 
ATOM     67  H   UNL     1       8.846  -4.905 -10.685  1.00  0.00     0.167 HD
ATOM     68  C   UNL     1      10.661  -3.730 -12.510  1.00  0.00     0.074 A 
ATOM     69  C   UNL     1      11.240  -2.811 -13.467  1.00  0.00     0.031 C 
ATOM     70  C   UNL     1      11.281  -4.848 -12.059  1.00  0.00     0.037 A 
BRANCH  57  71
ATOM     71  C   UNL     1       7.987  -8.018  -7.900  1.00  0.00     0.057 A 
ATOM     72  C   UNL     1       7.081  -9.072  -8.097  1.00  0.00     0.134 A 
ATOM     73  C   UNL     1       8.826  -8.095  -6.782  1.00  0.00     0.134 A 
ATOM     74  F   UNL     1       6.240  -9.061  -9.143  1.00  0.00    -0.206 F 
ATOM     75  C   UNL     1       6.982 -10.134  -7.197  1.00  0.00     0.040 A 
ATOM     76  C   UNL     1       8.762  -9.172  -5.894  1.00  0.00     0.040 A 
ATOM     77  F   UNL     1       9.724  -7.130  -6.535  1.00  0.00    -0.206 F 
ATOM     78  C   UNL     1       7.831 -10.189  -6.094  1.00  0.00     0.006 A 
ENDBRANCH  57  71
BRANCH  58  79
ATOM     79  C   UNL     1       8.136   0.018 -13.818  1.00  0.00     0.057 A 
ATOM     80  C   UNL     1       8.192  -0.101 -15.213  1.00  0.00     0.134 A 
ATOM     81  C   UNL     1       8.152   1.313 -13.286  1.00  0.00     0.134 A 
ATOM     82  F   UNL     1       8.195  -1.314 -15.786  1.00  0.00    -0.206 F 
ATOM     83  C   UNL     1       8.293   1.016 -16.044  1.00  0.00     0.040 A 
ATOM     84  C   UNL     1       8.226   2.441 -14.107  1.00  0.00     0.040 A 
ATOM     85  F   UNL     1       8.087   1.501 -11.960  1.00  0.00    -0.206 F 
ATOM     86  C   UNL     1       8.307   2.294 -15.491  1.00  0.00     0.006 A 
ENDBRANCH  58  79
BRANCH  70  87
ATOM     87  C   UNL     1      12.637  -5.166 -12.618  1.00  0.00     0.057 A 
ATOM     88  C   UNL     1      13.770  -4.410 -12.295  1.00  0.00     0.134 A 
ATOM     89  C   UNL     1      12.818  -6.284 -13.444  1.00  0.00     0.134 A 
ATOM     90  F   UNL     1      13.663  -3.324 -11.515  1.00  0.00    -0.206 F 
ATOM     91  C   UNL     1      15.032  -4.741 -12.792  1.00  0.00     0.040 A 
ATOM     92  C   UNL     1      14.079  -6.642 -13.921  1.00  0.00     0.040 A 
ATOM     93  F   UNL     1      11.776  -7.058 -13.782  1.00  0.00    -0.206 F 
ATOM     94  C   UNL     1      15.190  -5.865 -13.600  1.00  0.00     0.006 A 
ENDBRANCH  70  87
ENDBRANCH  44  45
ENDBRANCH  36  39
ENDBRANCH  34  35
ENDBRANCH  33  34
ENDBRANCH  32  33
ENDBRANCH  31  32
ENDBRANCH   3  31
TORSDOF 17
