REMARK SMILES COc1ccccc1[C@@H]1CN(C(=O)c2cc(C(C)C)nc(N)n2)C[C@H]1C(=O)NCCCCNC(=O)c1ccc(-c2c3nc(c(-c4c(F)cccc4F)c4ccc([nH]4)c(-c4c(F)cccc4F)c4nc(c(-c5c(F)cccc5F)c5ccc2[nH]5)C=C4)C=C3)cc1
REMARK SMILES IDX 30 1 29 2 28 3 26 4 27 5 25 7 9 8 10 9 11 10 24 11 8 12 3 13
REMARK SMILES IDX 4 14 5 15 7 16 6 17 2 18 1 19 12 20 13 21 14 22 15 23 23 24
REMARK SMILES IDX 16 25 21 26 20 27 17 28 18 29 19 30 22 31 31 34 32 35 33 36
REMARK SMILES IDX 34 37 35 39 36 40 37 41 89 42 38 43 88 44 39 45 40 46 41 47
REMARK SMILES IDX 82 48 42 49 87 50 81 51 83 52 43 53 86 54 80 55 79 56 44 58
REMARK SMILES IDX 70 59 53 60 69 61 54 62 57 63 68 64 84 65 55 66 56 67 67 69
REMARK SMILES IDX 85 70 58 71 45 72 46 73 51 74 47 75 48 76 50 77 52 78 49 79
REMARK SMILES IDX 71 80 72 81 77 82 73 83 74 84 76 85 78 86 75 87 59 88 60 89
REMARK SMILES IDX 65 90 61 91 62 92 64 93 66 94 63 95
REMARK H PARENT 28 6 22 32 22 33 33 38 83 57 57 68
REMARK Flexibility Score: inf
ROOT
ATOM      1  C   UNL     1       6.388   2.485  -0.388  1.00  0.00     0.023 C 
ENDROOT
BRANCH   1   2
ATOM      2  C   UNL     1       5.769   1.539   0.637  1.00  0.00     0.116 C 
BRANCH   2   3
ATOM      3  N   UNL     1       4.617   2.144   1.274  1.00  0.00    -0.356 N 
ATOM      4  C   UNL     1       3.299   1.836   1.201  1.00  0.00     0.225 C 
ATOM      5  O   UNL     1       2.518   2.566   1.818  1.00  0.00    -0.275 OA
ATOM      6  H   UNL     1       4.827   2.908   1.858  1.00  0.00     0.163 HD
BRANCH   4   7
ATOM      7  C   UNL     1       2.778   0.645   0.423  1.00  0.00     0.107 C 
ATOM      8  C   UNL     1       3.013   0.700  -1.100  1.00  0.00     0.057 C 
ATOM      9  C   UNL     1       3.244  -0.759  -1.496  1.00  0.00     0.129 C 
ATOM     10  N   UNL     1       3.893  -1.319  -0.320  1.00  0.00    -0.336 N 
ATOM     11  C   UNL     1       3.398  -0.676   0.888  1.00  0.00     0.134 C 
BRANCH   8  12
ATOM     12  C   UNL     1       1.994   1.460  -1.917  1.00  0.00    -0.000 A 
ATOM     13  C   UNL     1       0.690   1.019  -2.187  1.00  0.00     0.122 A 
ATOM     14  C   UNL     1      -0.173   1.785  -2.980  1.00  0.00     0.047 A 
ATOM     15  C   UNL     1       0.254   2.994  -3.527  1.00  0.00     0.004 A 
ATOM     16  C   UNL     1       2.402   2.688  -2.481  1.00  0.00     0.008 A 
ATOM     17  C   UNL     1       1.548   3.440  -3.288  1.00  0.00     0.001 A 
BRANCH  13  18
ATOM     18  O   UNL     1       0.267  -0.244  -1.874  1.00  0.00    -0.496 OA
ATOM     19  C   UNL     1      -0.292  -0.359  -0.570  1.00  0.00     0.278 C 
ENDBRANCH  13  18
ENDBRANCH   8  12
BRANCH  10  20
ATOM     20  C   UNL     1       4.781  -2.382  -0.254  1.00  0.00     0.272 C 
ATOM     21  O   UNL     1       5.219  -2.814   0.809  1.00  0.00    -0.267 OA
BRANCH  20  22
ATOM     22  C   UNL     1       5.260  -2.967  -1.533  1.00  0.00     0.134 A 
ATOM     23  C   UNL     1       6.034  -2.195  -2.372  1.00  0.00     0.058 A 
ATOM     24  N   UNL     1       4.867  -4.227  -1.796  1.00  0.00    -0.208 NA
ATOM     25  C   UNL     1       6.344  -2.769  -3.583  1.00  0.00     0.049 A 
ATOM     26  C   UNL     1       5.262  -4.712  -2.967  1.00  0.00     0.220 A 
ATOM     27  N   UNL     1       5.967  -4.031  -3.880  1.00  0.00    -0.218 NA
BRANCH  25  28
ATOM     28  C   UNL     1       7.069  -2.001  -4.670  1.00  0.00     0.032 C 
ATOM     29  C   UNL     1       6.242  -0.802  -5.145  1.00  0.00     0.014 C 
ATOM     30  C   UNL     1       8.465  -1.562  -4.227  1.00  0.00     0.014 C 
ENDBRANCH  25  28
BRANCH  26  31
ATOM     31  N   UNL     1       4.925  -5.999  -3.264  1.00  0.00    -0.368 N 
ATOM     32  H   UNL     1       5.199  -6.394  -4.122  1.00  0.00     0.159 HD
ATOM     33  H   UNL     1       4.407  -6.533  -2.619  1.00  0.00     0.159 HD
ENDBRANCH  26  31
ENDBRANCH  20  22
ENDBRANCH  10  20
ENDBRANCH   4   7
ENDBRANCH   2   3
ENDBRANCH   1   2
BRANCH   1  34
ATOM     34  C   UNL     1       6.973   3.759   0.217  1.00  0.00     0.023 C 
BRANCH  34  35
ATOM     35  C   UNL     1       7.907   3.522   1.393  1.00  0.00     0.116 C 
BRANCH  35  36
ATOM     36  N   UNL     1       8.972   2.584   1.077  1.00  0.00    -0.352 N 
ATOM     37  C   UNL     1      10.310   2.673   1.365  1.00  0.00     0.251 C 
ATOM     38  H   UNL     1       8.695   1.774   0.591  1.00  0.00     0.163 HD
ATOM     39  O   UNL     1      11.102   1.875   0.881  1.00  0.00    -0.269 OA
BRANCH  37  40
ATOM     40  C   UNL     1      10.781   3.759   2.245  1.00  0.00     0.039 A 
ATOM     41  C   UNL     1      11.923   4.471   1.881  1.00  0.00     0.014 A 
ATOM     42  C   UNL     1      10.086   4.076   3.416  1.00  0.00     0.014 A 
ATOM     43  C   UNL     1      12.352   5.527   2.682  1.00  0.00     0.010 A 
ATOM     44  C   UNL     1      10.456   5.191   4.155  1.00  0.00     0.010 A 
ATOM     45  C   UNL     1      11.613   5.905   3.816  1.00  0.00    -0.014 A 
BRANCH  45  46
ATOM     46  C   UNL     1      12.078   7.008   4.688  1.00  0.00     0.031 A 
ATOM     47  C   UNL     1      12.475   6.721   6.110  1.00  0.00     0.074 A 
ATOM     48  C   UNL     1      12.122   8.265   4.208  1.00  0.00     0.049 A 
ATOM     49  N   UNL     1      12.939   7.539   7.020  1.00  0.00    -0.248 NA
ATOM     50  C   UNL     1      12.300   5.338   6.583  1.00  0.00     0.031 C 
ATOM     51  C   UNL     1      11.711   8.674   2.864  1.00  0.00     0.029 A 
ATOM     52  N   UNL     1      12.547   9.429   4.796  1.00  0.00    -0.354 N 
ATOM     53  C   UNL     1      13.094   6.774   8.170  1.00  0.00     0.074 A 
ATOM     54  C   UNL     1      12.608   5.447   7.865  1.00  0.00     0.031 C 
ATOM     55  C   UNL     1      11.954   9.986   2.712  1.00  0.00     0.029 A 
ATOM     56  C   UNL     1      12.504  10.514   3.956  1.00  0.00     0.049 A 
ATOM     57  H   UNL     1      12.852   9.481   5.730  1.00  0.00     0.167 HD
ATOM     58  C   UNL     1      13.622   7.134   9.363  1.00  0.00     0.037 A 
ATOM     59  C   UNL     1      12.884  11.788   4.165  1.00  0.00     0.037 A 
ATOM     60  C   UNL     1      14.126   8.450   9.650  1.00  0.00     0.049 A 
ATOM     61  C   UNL     1      13.473  12.164   5.497  1.00  0.00     0.074 A 
ATOM     62  C   UNL     1      14.739   8.908  10.803  1.00  0.00     0.029 A 
ATOM     63  N   UNL     1      14.067   9.524   8.774  1.00  0.00    -0.354 N 
ATOM     64  N   UNL     1      13.693  11.413   6.549  1.00  0.00    -0.248 NA
ATOM     65  C   UNL     1      13.881  13.565   5.662  1.00  0.00     0.031 C 
ATOM     66  C   UNL     1      15.000  10.273  10.645  1.00  0.00     0.029 A 
ATOM     67  C   UNL     1      14.611  10.651   9.369  1.00  0.00     0.049 A 
ATOM     68  H   UNL     1      13.694   9.491   7.864  1.00  0.00     0.167 HD
ATOM     69  C   UNL     1      14.305  12.238   7.485  1.00  0.00     0.074 A 
ATOM     70  C   UNL     1      14.427  13.544   6.870  1.00  0.00     0.031 C 
ATOM     71  C   UNL     1      14.733  11.941   8.737  1.00  0.00     0.037 A 
BRANCH  58  72
ATOM     72  C   UNL     1      13.666   6.088  10.441  1.00  0.00     0.057 A 
ATOM     73  C   UNL     1      14.485   4.953  10.348  1.00  0.00     0.134 A 
ATOM     74  C   UNL     1      12.876   6.216  11.591  1.00  0.00     0.134 A 
ATOM     75  F   UNL     1      15.257   4.758   9.267  1.00  0.00    -0.206 F 
ATOM     76  C   UNL     1      14.484   3.966  11.335  1.00  0.00     0.040 A 
ATOM     77  C   UNL     1      12.893   5.252  12.601  1.00  0.00     0.040 A 
ATOM     78  F   UNL     1      12.072   7.278  11.751  1.00  0.00    -0.206 F 
ATOM     79  C   UNL     1      13.690   4.117  12.469  1.00  0.00     0.006 A 
ENDBRANCH  58  72
BRANCH  59  80
ATOM     80  C   UNL     1      12.780  12.786   3.070  1.00  0.00     0.057 A 
ATOM     81  C   UNL     1      13.928  13.301   2.456  1.00  0.00     0.134 A 
ATOM     82  C   UNL     1      11.541  13.251   2.615  1.00  0.00     0.134 A 
ATOM     83  F   UNL     1      15.145  12.905   2.858  1.00  0.00    -0.206 F 
ATOM     84  C   UNL     1      13.849  14.260   1.445  1.00  0.00     0.040 A 
ATOM     85  C   UNL     1      11.447  14.190   1.586  1.00  0.00     0.040 A 
ATOM     86  F   UNL     1      10.404  12.788   3.154  1.00  0.00    -0.206 F 
ATOM     87  C   UNL     1      12.604  14.704   1.004  1.00  0.00     0.006 A 
ENDBRANCH  59  80
BRANCH  71  88
ATOM     88  C   UNL     1      15.429  13.033   9.499  1.00  0.00     0.057 A 
ATOM     89  C   UNL     1      14.753  14.164   9.973  1.00  0.00     0.134 A 
ATOM     90  C   UNL     1      16.800  12.938   9.776  1.00  0.00     0.134 A 
ATOM     91  F   UNL     1      13.442  14.323   9.734  1.00  0.00    -0.206 F 
ATOM     92  C   UNL     1      15.422  15.180  10.658  1.00  0.00     0.040 A 
ATOM     93  C   UNL     1      17.472  13.930  10.490  1.00  0.00     0.040 A 
ATOM     94  F   UNL     1      17.507  11.874   9.364  1.00  0.00    -0.206 F 
ATOM     95  C   UNL     1      16.785  15.061  10.923  1.00  0.00     0.006 A 
ENDBRANCH  71  88
ENDBRANCH  45  46
ENDBRANCH  37  40
ENDBRANCH  35  36
ENDBRANCH  34  35
ENDBRANCH   1  34
TORSDOF 17
