REMARK SMILES NC(=O)C[C@H](NC(=O)[C@@H]1CCC[NH2+]1)C(=O)NCCCCNC(=O)c1ccc(-c2c3nc(c(-c4c(F)cccc4F)c4ccc([nH]4)c(-c4c(F)cccc4F)c4nc(c(-c5c(F)cccc5F)c5ccc2[nH]5)C=C4)C=C3)cc1
REMARK SMILES IDX 18 1 17 2 16 3 14 4 15 5 5 7 4 8 2 9 1 10 3 13 6 14 7 15
REMARK SMILES IDX 8 17 9 18 10 19 13 20 11 21 12 22 19 25 20 26 21 27 22 28
REMARK SMILES IDX 23 30 24 31 25 32 77 33 26 34 76 35 27 36 28 37 29 38 70 39
REMARK SMILES IDX 30 40 75 41 69 42 71 43 31 44 74 45 68 46 67 47 32 49 58 50
REMARK SMILES IDX 41 51 57 52 42 53 45 54 56 55 72 56 43 57 44 58 55 60 73 61
REMARK SMILES IDX 46 62 33 63 34 64 39 65 35 66 36 67 38 68 40 69 37 70 59 71
REMARK SMILES IDX 60 72 65 73 61 74 62 75 64 76 66 77 63 78 47 79 48 80 53 81
REMARK SMILES IDX 49 82 50 83 52 84 54 85 51 86
REMARK H PARENT 16 6 1 11 1 12 6 16 13 23 13 24 21 29 71 48 45 59
REMARK Flexibility Score: inf
ROOT
ATOM      1  C   UNL     1       3.054   4.969   1.423  1.00  0.00     0.023 C 
ENDROOT
BRANCH   1   2
ATOM      2  C   UNL     1       3.498   3.529   1.627  1.00  0.00     0.116 C 
BRANCH   2   3
ATOM      3  N   UNL     1       3.309   3.050   2.979  1.00  0.00    -0.354 N 
ATOM      4  C   UNL     1       2.775   1.884   3.437  1.00  0.00     0.243 C 
ATOM      5  O   UNL     1       3.015   1.578   4.610  1.00  0.00    -0.273 OA
ATOM      6  H   UNL     1       3.617   3.667   3.682  1.00  0.00     0.163 HD
BRANCH   4   7
ATOM      7  C   UNL     1       1.964   0.917   2.545  1.00  0.00     0.180 C 
BRANCH   7   8
ATOM      8  C   UNL     1       2.824  -0.060   1.743  1.00  0.00     0.134 C 
BRANCH   8   9
ATOM      9  C   UNL     1       3.621   0.541   0.618  1.00  0.00     0.220 C 
ATOM     10  N   UNL     1       2.933   0.804  -0.527  1.00  0.00    -0.370 N 
ATOM     11  H   UNL     1       3.397   1.198  -1.301  1.00  0.00     0.159 HD
ATOM     12  H   UNL     1       1.971   0.601  -0.581  1.00  0.00     0.159 HD
ATOM     13  O   UNL     1       4.812   0.812   0.712  1.00  0.00    -0.275 OA
ENDBRANCH   8   9
ENDBRANCH   7   8
BRANCH   7  14
ATOM     14  N   UNL     1       0.911   1.590   1.776  1.00  0.00    -0.339 N 
ATOM     15  C   UNL     1      -0.431   1.701   2.000  1.00  0.00     0.278 C 
ATOM     16  H   UNL     1       1.226   2.038   0.958  1.00  0.00     0.164 HD
ATOM     17  O   UNL     1      -1.020   2.587   1.372  1.00  0.00    -0.268 OA
BRANCH  15  18
ATOM     18  C   UNL     1      -1.194   0.756   2.942  1.00  0.00     0.272 C 
ATOM     19  C   UNL     1      -0.866   0.904   4.416  1.00  0.00     0.081 C 
ATOM     20  N   UNL     1      -0.953  -0.657   2.579  1.00  0.00    -0.336 N 
ATOM     21  C   UNL     1      -0.960  -0.501   4.984  1.00  0.00     0.068 C 
ATOM     22  C   UNL     1      -1.121  -1.440   3.800  1.00  0.00     0.261 C 
ATOM     23  H   UNL     1      -0.006  -0.771   2.216  1.00  0.00     0.346 HD
ATOM     24  H   UNL     1      -1.601  -0.965   1.853  1.00  0.00     0.346 HD
ENDBRANCH  15  18
ENDBRANCH   7  14
ENDBRANCH   4   7
ENDBRANCH   2   3
ENDBRANCH   1   2
BRANCH   1  25
ATOM     25  C   UNL     1       3.959   6.017   2.061  1.00  0.00     0.023 C 
BRANCH  25  26
ATOM     26  C   UNL     1       5.446   5.871   1.757  1.00  0.00     0.116 C 
BRANCH  26  27
ATOM     27  N   UNL     1       5.751   5.812   0.335  1.00  0.00    -0.352 N 
ATOM     28  C   UNL     1       6.763   6.436  -0.358  1.00  0.00     0.251 C 
ATOM     29  H   UNL     1       5.152   5.247  -0.205  1.00  0.00     0.163 HD
ATOM     30  O   UNL     1       6.827   6.351  -1.577  1.00  0.00    -0.269 OA
BRANCH  28  31
ATOM     31  C   UNL     1       7.750   7.245   0.386  1.00  0.00     0.039 A 
ATOM     32  C   UNL     1       8.052   8.530  -0.070  1.00  0.00     0.014 A 
ATOM     33  C   UNL     1       8.343   6.750   1.550  1.00  0.00     0.014 A 
ATOM     34  C   UNL     1       8.902   9.344   0.681  1.00  0.00     0.010 A 
ATOM     35  C   UNL     1       9.113   7.592   2.342  1.00  0.00     0.010 A 
ATOM     36  C   UNL     1       9.413   8.893   1.909  1.00  0.00    -0.014 A 
BRANCH  36  37
ATOM     37  C   UNL     1      10.298   9.749   2.737  1.00  0.00     0.031 A 
ATOM     38  C   UNL     1      11.714   9.317   3.006  1.00  0.00     0.074 A 
ATOM     39  C   UNL     1       9.817  10.878   3.293  1.00  0.00     0.049 A 
ATOM     40  N   UNL     1      12.627   9.886   3.751  1.00  0.00    -0.248 NA
ATOM     41  C   UNL     1      12.151   8.057   2.383  1.00  0.00     0.031 C 
ATOM     42  C   UNL     1       8.447  11.377   3.156  1.00  0.00     0.029 A 
ATOM     43  N   UNL     1      10.430  11.809   4.094  1.00  0.00    -0.354 N 
ATOM     44  C   UNL     1      13.731   9.046   3.700  1.00  0.00     0.074 A 
ATOM     45  C   UNL     1      13.355   7.897   2.907  1.00  0.00     0.031 C 
ATOM     46  C   UNL     1       8.333  12.536   3.824  1.00  0.00     0.029 A 
ATOM     47  C   UNL     1       9.609  12.847   4.461  1.00  0.00     0.049 A 
ATOM     48  H   UNL     1      11.370  11.739   4.379  1.00  0.00     0.167 HD
ATOM     49  C   UNL     1      14.960   9.228   4.239  1.00  0.00     0.037 A 
ATOM     50  C   UNL     1       9.860  13.928   5.223  1.00  0.00     0.037 A 
ATOM     51  C   UNL     1      15.344  10.389   4.996  1.00  0.00     0.049 A 
ATOM     52  C   UNL     1      11.240  14.120   5.792  1.00  0.00     0.074 A 
ATOM     53  C   UNL     1      16.579  10.696   5.538  1.00  0.00     0.029 A 
ATOM     54  N   UNL     1      14.494  11.438   5.312  1.00  0.00    -0.354 N 
ATOM     55  N   UNL     1      12.295  13.350   5.680  1.00  0.00    -0.248 NA
ATOM     56  C   UNL     1      11.467  15.339   6.581  1.00  0.00     0.031 C 
ATOM     57  C   UNL     1      16.468  11.916   6.213  1.00  0.00     0.029 A 
ATOM     58  C   UNL     1      15.176  12.391   6.050  1.00  0.00     0.049 A 
ATOM     59  H   UNL     1      13.547  11.496   5.051  1.00  0.00     0.167 HD
ATOM     60  C   UNL     1      13.319  14.007   6.351  1.00  0.00     0.074 A 
ATOM     61  C   UNL     1      12.759  15.243   6.859  1.00  0.00     0.031 C 
ATOM     62  C   UNL     1      14.607  13.624   6.529  1.00  0.00     0.037 A 
BRANCH  49  63
ATOM     63  C   UNL     1      15.978   8.147   4.013  1.00  0.00     0.057 A 
ATOM     64  C   UNL     1      16.530   7.906   2.747  1.00  0.00     0.134 A 
ATOM     65  C   UNL     1      16.423   7.349   5.073  1.00  0.00     0.134 A 
ATOM     66  F   UNL     1      16.135   8.625   1.685  1.00  0.00    -0.206 F 
ATOM     67  C   UNL     1      17.462   6.889   2.538  1.00  0.00     0.040 A 
ATOM     68  C   UNL     1      17.378   6.348   4.882  1.00  0.00     0.040 A 
ATOM     69  F   UNL     1      15.940   7.528   6.312  1.00  0.00    -0.206 F 
ATOM     70  C   UNL     1      17.894   6.111   3.609  1.00  0.00     0.006 A 
ENDBRANCH  49  63
BRANCH  50  71
ATOM     71  C   UNL     1       8.798  14.938   5.459  1.00  0.00     0.057 A 
ATOM     72  C   UNL     1       8.871  16.210   4.876  1.00  0.00     0.134 A 
ATOM     73  C   UNL     1       7.696  14.668   6.278  1.00  0.00     0.134 A 
ATOM     74  F   UNL     1       9.912  16.535   4.095  1.00  0.00    -0.206 F 
ATOM     75  C   UNL     1       7.900  17.183   5.117  1.00  0.00     0.040 A 
ATOM     76  C   UNL     1       6.705  15.623   6.509  1.00  0.00     0.040 A 
ATOM     77  F   UNL     1       7.563  13.466   6.859  1.00  0.00    -0.206 F 
ATOM     78  C   UNL     1       6.810  16.889   5.934  1.00  0.00     0.006 A 
ENDBRANCH  50  71
BRANCH  62  79
ATOM     79  C   UNL     1      15.512  14.575   7.255  1.00  0.00     0.057 A 
ATOM     80  C   UNL     1      15.411  14.790   8.635  1.00  0.00     0.134 A 
ATOM     81  C   UNL     1      16.524  15.255   6.565  1.00  0.00     0.134 A 
ATOM     82  F   UNL     1      14.457  14.177   9.351  1.00  0.00    -0.206 F 
ATOM     83  C   UNL     1      16.269  15.669   9.299  1.00  0.00     0.040 A 
ATOM     84  C   UNL     1      17.404  16.115   7.223  1.00  0.00     0.040 A 
ATOM     85  F   UNL     1      16.680  15.086   5.244  1.00  0.00    -0.206 F 
ATOM     86  C   UNL     1      17.273  16.329   8.593  1.00  0.00     0.006 A 
ENDBRANCH  62  79
ENDBRANCH  36  37
ENDBRANCH  28  31
ENDBRANCH  26  27
ENDBRANCH  25  26
ENDBRANCH   1  25
TORSDOF 15
