REMARK SMILES Cc1cc2c(c(C)c1Cl)C=C(C(=O)NCCCCNC(=O)c1ccc(-c3c4nc(c(-c5c(F)cccc5F)c5ccc([nH]5)c(-c5c(F)cccc5F)c5nc(c(-c6c(F)cccc6F)c6ccc3[nH]6)C=C5)C=C4)cc1)[C@H](C(F)(F)F)O2
REMARK SMILES IDX 17 1 16 2 15 3 14 4 12 5 13 6 11 8 1 9 2 10 3 11 8 12 4 13
REMARK SMILES IDX 6 14 9 15 5 16 81 17 7 18 10 19 76 20 77 21 78 22 79 23
REMARK SMILES IDX 80 24 18 25 19 26 20 27 21 29 22 30 23 31 75 32 24 33 74 34
REMARK SMILES IDX 25 35 26 36 27 37 68 38 28 39 73 40 67 41 69 42 29 43 72 44
REMARK SMILES IDX 66 45 65 46 30 48 56 49 39 50 55 51 40 52 43 53 54 54 70 55
REMARK SMILES IDX 41 56 42 57 53 59 71 60 44 61 31 62 32 63 37 64 33 65 34 66
REMARK SMILES IDX 36 67 38 68 35 69 57 70 58 71 63 72 59 73 60 74 62 75 64 76
REMARK SMILES IDX 61 77 45 78 46 79 51 80 47 81 48 82 50 83 52 84 49 85
REMARK H PARENT 14 7 19 28 69 47 43 58
REMARK Flexibility Score: inf
ROOT
ATOM      1  C   UNL     1      -4.093  -1.763  -9.703  1.00  0.00     0.023 C 
ENDROOT
BRANCH   1   2
ATOM      2  C   UNL     1      -3.369  -1.859  -8.360  1.00  0.00     0.023 C 
BRANCH   2   3
ATOM      3  C   UNL     1      -1.908  -1.415  -8.400  1.00  0.00     0.116 C 
BRANCH   3   4
ATOM      4  N   UNL     1      -1.780   0.024  -8.265  1.00  0.00    -0.352 N 
ATOM      5  C   UNL     1      -1.392   0.898  -7.308  1.00  0.00     0.251 C 
ATOM      6  O   UNL     1      -1.374   2.081  -7.664  1.00  0.00    -0.270 OA
ATOM      7  H   UNL     1      -2.048   0.488  -9.090  1.00  0.00     0.163 HD
BRANCH   5   8
ATOM      8  C   UNL     1      -1.006   0.545  -5.909  1.00  0.00     0.067 C 
ATOM      9  C   UNL     1       1.097   0.320   0.250  1.00  0.00     0.046 C 
ATOM     10  C   UNL     1       0.684   0.706  -1.144  1.00  0.00    -0.028 A 
ATOM     11  C   UNL     1       0.285  -0.305  -2.023  1.00  0.00     0.052 A 
ATOM     12  C   UNL     1       0.713   2.038  -1.606  1.00  0.00     0.047 A 
ATOM     13  C   UNL     1      -0.099   0.003  -3.323  1.00  0.00     0.128 A 
ATOM     14  C   UNL     1       0.330   2.364  -2.930  1.00  0.00    -0.021 A 
ATOM     15  Cl  UNL     1       1.249   3.278  -0.511  1.00  0.00    -0.084 Cl
ATOM     16  C   UNL     1      -0.066   1.317  -3.798  1.00  0.00     0.022 A 
ATOM     17  O   UNL     1      -0.466  -1.063  -4.096  1.00  0.00    -0.475 OA
ATOM     18  C   UNL     1       0.339   3.787  -3.437  1.00  0.00     0.047 C 
ATOM     19  C   UNL     1      -0.413   1.531  -5.208  1.00  0.00     0.026 C 
ATOM     20  C   UNL     1      -1.312  -0.760  -5.236  1.00  0.00     0.314 C 
BRANCH  20  21
ATOM     21  C   UNL     1      -2.793  -0.924  -4.861  1.00  0.00     0.429 C 
ATOM     22  F   UNL     1      -3.069  -0.500  -3.608  1.00  0.00    -0.167 F 
ATOM     23  F   UNL     1      -3.616  -0.246  -5.693  1.00  0.00    -0.167 F 
ATOM     24  F   UNL     1      -3.153  -2.230  -4.937  1.00  0.00    -0.167 F 
ENDBRANCH  20  21
ENDBRANCH   5   8
ENDBRANCH   3   4
ENDBRANCH   2   3
ENDBRANCH   1   2
BRANCH   1  25
ATOM     25  C   UNL     1      -3.474  -2.580 -10.831  1.00  0.00     0.116 C 
BRANCH  25  26
ATOM     26  N   UNL     1      -3.264  -3.979 -10.490  1.00  0.00    -0.352 N 
ATOM     27  C   UNL     1      -3.394  -5.082 -11.300  1.00  0.00     0.251 C 
ATOM     28  H   UNL     1      -2.994  -4.159  -9.560  1.00  0.00     0.163 HD
ATOM     29  O   UNL     1      -3.266  -6.212 -10.851  1.00  0.00    -0.269 OA
BRANCH  27  30
ATOM     30  C   UNL     1      -3.732  -4.875 -12.721  1.00  0.00     0.039 A 
ATOM     31  C   UNL     1      -4.839  -5.537 -13.253  1.00  0.00     0.014 A 
ATOM     32  C   UNL     1      -2.993  -3.976 -13.495  1.00  0.00     0.014 A 
ATOM     33  C   UNL     1      -5.251  -5.244 -14.552  1.00  0.00     0.010 A 
ATOM     34  C   UNL     1      -3.446  -3.634 -14.761  1.00  0.00     0.010 A 
ATOM     35  C   UNL     1      -4.577  -4.265 -15.301  1.00  0.00    -0.014 A 
BRANCH  35  36
ATOM     36  C   UNL     1      -5.021  -3.897 -16.664  1.00  0.00     0.031 A 
ATOM     37  C   UNL     1      -4.129  -4.189 -17.836  1.00  0.00     0.074 A 
ATOM     38  C   UNL     1      -6.185  -3.242 -16.837  1.00  0.00     0.049 A 
ATOM     39  N   UNL     1      -4.277  -3.854 -19.091  1.00  0.00    -0.248 NA
ATOM     40  C   UNL     1      -2.890  -4.931 -17.551  1.00  0.00     0.031 C 
ATOM     41  C   UNL     1      -7.116  -2.870 -15.771  1.00  0.00     0.029 A 
ATOM     42  N   UNL     1      -6.778  -2.766 -17.979  1.00  0.00    -0.354 N 
ATOM     43  C   UNL     1      -3.144  -4.326 -19.740  1.00  0.00     0.074 A 
ATOM     44  C   UNL     1      -2.294  -4.925 -18.734  1.00  0.00     0.031 C 
ATOM     45  C   UNL     1      -8.176  -2.248 -16.312  1.00  0.00     0.029 A 
ATOM     46  C   UNL     1      -7.983  -2.147 -17.755  1.00  0.00     0.049 A 
ATOM     47  H   UNL     1      -6.378  -2.860 -18.873  1.00  0.00     0.167 HD
ATOM     48  C   UNL     1      -2.850  -4.285 -21.060  1.00  0.00     0.037 A 
ATOM     49  C   UNL     1      -8.834  -1.564 -18.620  1.00  0.00     0.037 A 
ATOM     50  C   UNL     1      -3.714  -3.721 -22.061  1.00  0.00     0.049 A 
ATOM     51  C   UNL     1      -8.491  -1.541 -20.083  1.00  0.00     0.074 A 
ATOM     52  C   UNL     1      -3.528  -3.668 -23.430  1.00  0.00     0.029 A 
ATOM     53  N   UNL     1      -4.937  -3.122 -21.797  1.00  0.00    -0.354 N 
ATOM     54  N   UNL     1      -7.429  -2.015 -20.689  1.00  0.00    -0.248 NA
ATOM     55  C   UNL     1      -9.463  -0.904 -20.983  1.00  0.00     0.031 C 
ATOM     56  C   UNL     1      -4.628  -3.014 -23.994  1.00  0.00     0.029 A 
ATOM     57  C   UNL     1      -5.514  -2.690 -22.978  1.00  0.00     0.049 A 
ATOM     58  H   UNL     1      -5.334  -3.018 -20.902  1.00  0.00     0.167 HD
ATOM     59  C   UNL     1      -7.612  -1.753 -22.039  1.00  0.00     0.074 A 
ATOM     60  C   UNL     1      -8.894  -1.089 -22.166  1.00  0.00     0.031 C 
ATOM     61  C   UNL     1      -6.793  -2.036 -23.081  1.00  0.00     0.037 A 
BRANCH  48  62
ATOM     62  C   UNL     1      -1.545  -4.883 -21.492  1.00  0.00     0.057 A 
ATOM     63  C   UNL     1      -1.337  -6.269 -21.492  1.00  0.00     0.134 A 
ATOM     64  C   UNL     1      -0.494  -4.070 -21.933  1.00  0.00     0.134 A 
ATOM     65  F   UNL     1      -2.299  -7.100 -21.064  1.00  0.00    -0.206 F 
ATOM     66  C   UNL     1      -0.122  -6.824 -21.895  1.00  0.00     0.040 A 
ATOM     67  C   UNL     1       0.717  -4.615 -22.362  1.00  0.00     0.040 A 
ATOM     68  F   UNL     1      -0.629  -2.736 -21.958  1.00  0.00    -0.206 F 
ATOM     69  C   UNL     1       0.907  -5.996 -22.338  1.00  0.00     0.006 A 
ENDBRANCH  48  62
BRANCH  49  70
ATOM     70  C   UNL     1     -10.110  -0.992 -18.127  1.00  0.00     0.057 A 
ATOM     71  C   UNL     1     -11.327  -1.638 -18.377  1.00  0.00     0.134 A 
ATOM     72  C   UNL     1     -10.148   0.194 -17.385  1.00  0.00     0.134 A 
ATOM     73  F   UNL     1     -11.354  -2.768 -19.098  1.00  0.00    -0.206 F 
ATOM     74  C   UNL     1     -12.537  -1.121 -17.914  1.00  0.00     0.040 A 
ATOM     75  C   UNL     1     -11.350   0.712 -16.898  1.00  0.00     0.040 A 
ATOM     76  F   UNL     1      -9.015   0.855 -17.107  1.00  0.00    -0.206 F 
ATOM     77  C   UNL     1     -12.550   0.055 -17.166  1.00  0.00     0.006 A 
ENDBRANCH  49  70
BRANCH  61  78
ATOM     78  C   UNL     1      -7.264  -1.649 -24.450  1.00  0.00     0.057 A 
ATOM     79  C   UNL     1      -7.239  -0.319 -24.886  1.00  0.00     0.134 A 
ATOM     80  C   UNL     1      -7.686  -2.625 -25.361  1.00  0.00     0.134 A 
ATOM     81  F   UNL     1      -6.854   0.662 -24.055  1.00  0.00    -0.206 F 
ATOM     82  C   UNL     1      -7.630   0.029 -26.179  1.00  0.00     0.040 A 
ATOM     83  C   UNL     1      -8.060  -2.292 -26.663  1.00  0.00     0.040 A 
ATOM     84  F   UNL     1      -7.724  -3.918 -25.005  1.00  0.00    -0.206 F 
ATOM     85  C   UNL     1      -8.035  -0.960 -27.074  1.00  0.00     0.006 A 
ENDBRANCH  61  78
ENDBRANCH  35  36
ENDBRANCH  27  30
ENDBRANCH  25  26
ENDBRANCH   1  25
TORSDOF 12
