REMARK SMILES CC(C)c1ccc(CCCC(=O)NCCCCNC(=O)c2ccc(-c3c4nc(c(-c5c(F)cccc5F)c5ccc([nH]5)c(-c5c(F)cccc5F)c5nc(c(-c6c(F)cccc6F)c6ccc3[nH]6)C=C5)C=C4)cc2)cc1
REMARK SMILES IDX 14 1 13 2 11 3 12 4 10 6 9 7 8 8 7 9 4 10 5 11 76 12 6 13
REMARK SMILES IDX 75 14 2 15 1 16 3 17 15 18 16 19 17 20 18 21 19 22 20 24
REMARK SMILES IDX 21 25 22 26 74 27 23 28 73 29 24 30 25 31 26 32 67 33 27 34
REMARK SMILES IDX 72 35 66 36 68 37 28 38 71 39 65 40 64 41 29 43 55 44 38 45
REMARK SMILES IDX 54 46 39 47 42 48 53 49 69 50 40 51 41 52 52 54 70 55 43 56
REMARK SMILES IDX 30 57 31 58 36 59 32 60 33 61 35 62 37 63 34 64 56 65 57 66
REMARK SMILES IDX 62 67 58 68 59 69 61 70 63 71 60 72 44 73 45 74 50 75 46 76
REMARK SMILES IDX 47 77 49 78 51 79 48 80
REMARK H PARENT 13 5 18 23 68 42 42 53
REMARK Flexibility Score: inf
ROOT
ATOM      1  C   UNL     1      -5.205   1.623  -2.986  1.00  0.00     0.116 C 
ENDROOT
BRANCH   1   2
ATOM      2  N   UNL     1      -6.386   2.267  -2.450  1.00  0.00    -0.356 N 
ATOM      3  C   UNL     1      -6.779   2.389  -1.152  1.00  0.00     0.220 C 
ATOM      4  O   UNL     1      -7.905   2.828  -0.916  1.00  0.00    -0.275 OA
ATOM      5  H   UNL     1      -6.987   2.673  -3.115  1.00  0.00     0.163 HD
BRANCH   3   6
ATOM      6  C   UNL     1      -5.808   2.069  -0.033  1.00  0.00     0.100 C 
BRANCH   6   7
ATOM      7  C   UNL     1      -5.827   0.642   0.523  1.00  0.00     0.015 C 
BRANCH   7   8
ATOM      8  C   UNL     1      -5.096  -0.491  -0.217  1.00  0.00     0.036 C 
BRANCH   8   9
ATOM      9  C   UNL     1      -3.595  -0.479  -0.425  1.00  0.00    -0.048 A 
ATOM     10  C   UNL     1      -0.805  -0.557  -1.049  1.00  0.00    -0.045 A 
ATOM     11  C   UNL     1      -1.416   0.599  -0.546  1.00  0.00     0.004 A 
ATOM     12  C   UNL     1      -1.613  -1.684  -1.228  1.00  0.00     0.004 A 
ATOM     13  C   UNL     1      -2.772   0.624  -0.202  1.00  0.00     0.004 A 
ATOM     14  C   UNL     1      -2.986  -1.639  -0.935  1.00  0.00     0.004 A 
BRANCH  10  15
ATOM     15  C   UNL     1       0.686  -0.521  -1.365  1.00  0.00     0.013 C 
ATOM     16  C   UNL     1       1.501  -0.202  -0.103  1.00  0.00     0.012 C 
ATOM     17  C   UNL     1       1.256  -1.784  -2.019  1.00  0.00     0.012 C 
ENDBRANCH  10  15
ENDBRANCH   8   9
ENDBRANCH   7   8
ENDBRANCH   6   7
ENDBRANCH   3   6
ENDBRANCH   1   2
BRANCH   1  18
ATOM     18  C   UNL     1      -5.584   0.298  -3.649  1.00  0.00     0.023 C 
BRANCH  18  19
ATOM     19  C   UNL     1      -5.995   0.444  -5.109  1.00  0.00     0.023 C 
BRANCH  19  20
ATOM     20  C   UNL     1      -4.851   0.824  -6.037  1.00  0.00     0.116 C 
BRANCH  20  21
ATOM     21  N   UNL     1      -3.814  -0.196  -6.128  1.00  0.00    -0.352 N 
ATOM     22  C   UNL     1      -3.173  -0.659  -7.258  1.00  0.00     0.251 C 
ATOM     23  H   UNL     1      -3.537  -0.606  -5.277  1.00  0.00     0.163 HD
ATOM     24  O   UNL     1      -2.378  -1.585  -7.205  1.00  0.00    -0.269 OA
BRANCH  22  25
ATOM     25  C   UNL     1      -3.516  -0.036  -8.552  1.00  0.00     0.039 A 
ATOM     26  C   UNL     1      -4.023  -0.842  -9.573  1.00  0.00     0.014 A 
ATOM     27  C   UNL     1      -3.468   1.353  -8.690  1.00  0.00     0.014 A 
ATOM     28  C   UNL     1      -4.590  -0.241 -10.697  1.00  0.00     0.010 A 
ATOM     29  C   UNL     1      -4.102   1.949  -9.773  1.00  0.00     0.010 A 
ATOM     30  C   UNL     1      -4.691   1.158 -10.773  1.00  0.00    -0.014 A 
BRANCH  30  31
ATOM     31  C   UNL     1      -5.457   1.823 -11.857  1.00  0.00     0.031 A 
ATOM     32  C   UNL     1      -4.763   2.763 -12.800  1.00  0.00     0.074 A 
ATOM     33  C   UNL     1      -6.794   1.667 -11.919  1.00  0.00     0.049 A 
ATOM     34  N   UNL     1      -5.277   3.538 -13.720  1.00  0.00    -0.248 NA
ATOM     35  C   UNL     1      -3.302   2.870 -12.668  1.00  0.00     0.031 C 
ATOM     36  C   UNL     1      -7.595   0.830 -11.023  1.00  0.00     0.029 A 
ATOM     37  N   UNL     1      -7.721   2.225 -12.764  1.00  0.00    -0.354 N 
ATOM     38  C   UNL     1      -4.208   4.240 -14.258  1.00  0.00     0.074 A 
ATOM     39  C   UNL     1      -3.024   3.833 -13.534  1.00  0.00     0.031 C 
ATOM     40  C   UNL     1      -8.888   0.917 -11.375  1.00  0.00     0.029 A 
ATOM     41  C   UNL     1      -9.014   1.846 -12.493  1.00  0.00     0.049 A 
ATOM     42  H   UNL     1      -7.483   2.840 -13.495  1.00  0.00     0.167 HD
ATOM     43  C   UNL     1      -4.212   5.130 -15.279  1.00  0.00     0.037 A 
ATOM     44  C   UNL     1     -10.173   2.218 -13.069  1.00  0.00     0.037 A 
ATOM     45  C   UNL     1      -5.383   5.503 -16.024  1.00  0.00     0.049 A 
ATOM     46  C   UNL     1     -10.149   3.205 -14.202  1.00  0.00     0.074 A 
ATOM     47  C   UNL     1      -5.472   6.324 -17.135  1.00  0.00     0.029 A 
ATOM     48  N   UNL     1      -6.671   5.080 -15.733  1.00  0.00    -0.354 N 
ATOM     49  N   UNL     1      -9.120   3.804 -14.751  1.00  0.00    -0.248 NA
ATOM     50  C   UNL     1     -11.444   3.572 -14.791  1.00  0.00     0.031 C 
ATOM     51  C   UNL     1      -6.820   6.428 -17.494  1.00  0.00     0.029 A 
ATOM     52  C   UNL     1      -7.565   5.645 -16.627  1.00  0.00     0.049 A 
ATOM     53  H   UNL     1      -6.914   4.470 -14.999  1.00  0.00     0.167 HD
ATOM     54  C   UNL     1      -9.641   4.605 -15.758  1.00  0.00     0.074 A 
ATOM     55  C   UNL     1     -11.076   4.404 -15.755  1.00  0.00     0.031 C 
ATOM     56  C   UNL     1      -8.990   5.435 -16.608  1.00  0.00     0.037 A 
BRANCH  43  57
ATOM     57  C   UNL     1      -2.901   5.753 -15.654  1.00  0.00     0.057 A 
ATOM     58  C   UNL     1      -1.901   5.024 -16.310  1.00  0.00     0.134 A 
ATOM     59  C   UNL     1      -2.649   7.104 -15.386  1.00  0.00     0.134 A 
ATOM     60  F   UNL     1      -2.076   3.723 -16.583  1.00  0.00    -0.206 F 
ATOM     61  C   UNL     1      -0.686   5.612 -16.665  1.00  0.00     0.040 A 
ATOM     62  C   UNL     1      -1.448   7.708 -15.757  1.00  0.00     0.040 A 
ATOM     63  F   UNL     1      -3.568   7.858 -14.763  1.00  0.00    -0.206 F 
ATOM     64  C   UNL     1      -0.460   6.960 -16.395  1.00  0.00     0.006 A 
ENDBRANCH  43  57
BRANCH  44  65
ATOM     65  C   UNL     1     -11.458   1.650 -12.590  1.00  0.00     0.057 A 
ATOM     66  C   UNL     1     -12.167   0.724 -13.364  1.00  0.00     0.134 A 
ATOM     67  C   UNL     1     -12.010   2.022 -11.359  1.00  0.00     0.134 A 
ATOM     68  F   UNL     1     -11.697   0.345 -14.561  1.00  0.00    -0.206 F 
ATOM     69  C   UNL     1     -13.388   0.198 -12.937  1.00  0.00     0.040 A 
ATOM     70  C   UNL     1     -13.219   1.488 -10.911  1.00  0.00     0.040 A 
ATOM     71  F   UNL     1     -11.375   2.901 -10.570  1.00  0.00    -0.206 F 
ATOM     72  C   UNL     1     -13.915   0.578 -11.704  1.00  0.00     0.006 A 
ENDBRANCH  44  65
BRANCH  56  73
ATOM     73  C   UNL     1      -9.819   6.178 -17.610  1.00  0.00     0.057 A 
ATOM     74  C   UNL     1     -10.597   7.282 -17.242  1.00  0.00     0.134 A 
ATOM     75  C   UNL     1      -9.797   5.820 -18.964  1.00  0.00     0.134 A 
ATOM     76  F   UNL     1     -10.670   7.665 -15.958  1.00  0.00    -0.206 F 
ATOM     77  C   UNL     1     -11.336   7.997 -18.185  1.00  0.00     0.040 A 
ATOM     78  C   UNL     1     -10.514   6.540 -19.919  1.00  0.00     0.040 A 
ATOM     79  F   UNL     1      -9.065   4.776 -19.380  1.00  0.00    -0.206 F 
ATOM     80  C   UNL     1     -11.289   7.632 -19.529  1.00  0.00     0.006 A 
ENDBRANCH  56  73
ENDBRANCH  30  31
ENDBRANCH  22  25
ENDBRANCH  20  21
ENDBRANCH  19  20
ENDBRANCH  18  19
ENDBRANCH   1  18
TORSDOF 15
