REMARK SMILES C[C@@H]1[C@H](C)CCC[C@H]1NC(=O)C(=O)NCCCCNC(=O)c1ccc(-c2c3nc(c(-c4c(F)cccc4F)c4ccc([nH]4)c(-c4c(F)cccc4F)c4nc(c(-c5c(F)cccc5F)c5ccc2[nH]5)C=C4)C=C3)cc1
REMARK SMILES IDX 17 1 16 2 15 3 14 4 12 5 13 6 10 8 9 9 11 11 8 12 1 13 2 14
REMARK SMILES IDX 3 15 4 16 5 17 7 18 6 19 18 20 19 21 20 22 21 24 22 25 23 26
REMARK SMILES IDX 75 27 24 28 74 29 25 30 26 31 27 32 68 33 28 34 73 35 67 36
REMARK SMILES IDX 69 37 29 38 72 39 66 40 65 41 30 43 56 44 39 45 55 46 40 47
REMARK SMILES IDX 43 48 54 49 70 50 41 51 42 52 53 54 71 55 44 56 31 57 32 58
REMARK SMILES IDX 37 59 33 60 34 61 36 62 38 63 35 64 57 65 58 66 63 67 59 68
REMARK SMILES IDX 60 69 62 70 64 71 61 72 45 73 46 74 51 75 47 76 48 77 50 78
REMARK SMILES IDX 52 79 49 80
REMARK H PARENT 14 7 9 10 19 23 69 42 43 53
REMARK Flexibility Score: inf
ROOT
ATOM      1  C   UNL     1       0.163   7.865   4.861  1.00  0.00     0.023 C 
ENDROOT
BRANCH   1   2
ATOM      2  C   UNL     1      -0.911   7.249   3.961  1.00  0.00     0.023 C 
BRANCH   2   3
ATOM      3  C   UNL     1      -0.614   7.333   2.466  1.00  0.00     0.116 C 
BRANCH   3   4
ATOM      4  N   UNL     1       0.572   6.577   2.105  1.00  0.00    -0.348 N 
ATOM      5  C   UNL     1       0.721   5.445   1.331  1.00  0.00     0.309 C 
ATOM      6  O   UNL     1       1.858   5.020   1.153  1.00  0.00    -0.264 OA
ATOM      7  H   UNL     1       1.412   6.932   2.476  1.00  0.00     0.163 HD
BRANCH   5   8
ATOM      8  C   UNL     1      -0.521   4.753   0.698  1.00  0.00     0.309 C 
ATOM      9  N   UNL     1      -0.412   3.555   0.040  1.00  0.00    -0.345 N 
ATOM     10  H   UNL     1      -1.270   3.213  -0.298  1.00  0.00     0.164 HD
ATOM     11  O   UNL     1      -1.640   5.251   0.754  1.00  0.00    -0.264 OA
BRANCH   9  12
ATOM     12  C   UNL     1       0.725   2.681  -0.261  1.00  0.00     0.085 C 
ATOM     13  C   UNL     1       1.676   0.375   0.217  1.00  0.00     0.010 C 
ATOM     14  C   UNL     1       0.405   1.238   0.203  1.00  0.00     0.011 C 
ATOM     15  C   UNL     1      -0.737   0.624  -0.650  1.00  0.00    -0.009 C 
ATOM     16  C   UNL     1      -1.077  -0.809  -0.239  1.00  0.00     0.008 C 
ATOM     17  C   UNL     1      -0.444   0.705  -2.157  1.00  0.00     0.004 C 
ATOM     18  C   UNL     1       1.034   2.737  -1.763  1.00  0.00     0.025 C 
ATOM     19  C   UNL     1      -0.078   2.118  -2.610  1.00  0.00     0.002 C 
ENDBRANCH   9  12
ENDBRANCH   5   8
ENDBRANCH   3   4
ENDBRANCH   2   3
ENDBRANCH   1   2
BRANCH   1  20
ATOM     20  C   UNL     1       0.543   9.305   4.534  1.00  0.00     0.116 C 
BRANCH  20  21
ATOM     21  N   UNL     1      -0.580  10.225   4.615  1.00  0.00    -0.352 N 
ATOM     22  C   UNL     1      -0.649  11.457   5.218  1.00  0.00     0.251 C 
ATOM     23  H   UNL     1      -1.407   9.922   4.175  1.00  0.00     0.163 HD
ATOM     24  O   UNL     1      -1.724  12.044   5.304  1.00  0.00    -0.269 OA
BRANCH  22  25
ATOM     25  C   UNL     1       0.569  12.064   5.797  1.00  0.00     0.039 A 
ATOM     26  C   UNL     1       0.499  12.626   7.074  1.00  0.00     0.014 A 
ATOM     27  C   UNL     1       1.776  12.069   5.093  1.00  0.00     0.014 A 
ATOM     28  C   UNL     1       1.655  13.134   7.671  1.00  0.00     0.010 A 
ATOM     29  C   UNL     1       2.940  12.506   5.719  1.00  0.00     0.010 A 
ATOM     30  C   UNL     1       2.893  13.044   7.014  1.00  0.00    -0.014 A 
BRANCH  30  31
ATOM     31  C   UNL     1       4.146  13.508   7.665  1.00  0.00     0.031 A 
ATOM     32  C   UNL     1       4.933  14.644   7.071  1.00  0.00     0.074 A 
ATOM     33  C   UNL     1       4.608  12.866   8.757  1.00  0.00     0.049 A 
ATOM     34  N   UNL     1       6.076  15.150   7.459  1.00  0.00    -0.248 NA
ATOM     35  C   UNL     1       4.374  15.282   5.868  1.00  0.00     0.031 C 
ATOM     36  C   UNL     1       3.962  11.722   9.406  1.00  0.00     0.029 A 
ATOM     37  N   UNL     1       5.736  13.079   9.511  1.00  0.00    -0.354 N 
ATOM     38  C   UNL     1       6.382  16.145   6.540  1.00  0.00     0.074 A 
ATOM     39  C   UNL     1       5.329  16.143   5.548  1.00  0.00     0.031 C 
ATOM     40  C   UNL     1       4.689  11.354  10.474  1.00  0.00     0.029 A 
ATOM     41  C   UNL     1       5.871  12.205  10.563  1.00  0.00     0.049 A 
ATOM     42  H   UNL     1       6.387  13.792   9.316  1.00  0.00     0.167 HD
ATOM     43  C   UNL     1       7.435  16.997   6.533  1.00  0.00     0.037 A 
ATOM     44  C   UNL     1       6.842  12.097  11.489  1.00  0.00     0.037 A 
ATOM     45  C   UNL     1       8.463  17.021   7.540  1.00  0.00     0.049 A 
ATOM     46  C   UNL     1       8.005  13.052  11.449  1.00  0.00     0.074 A 
ATOM     47  C   UNL     1       9.528  17.897   7.661  1.00  0.00     0.029 A 
ATOM     48  N   UNL     1       8.559  16.127   8.595  1.00  0.00    -0.354 N 
ATOM     49  N   UNL     1       8.237  14.041  10.621  1.00  0.00    -0.248 NA
ATOM     50  C   UNL     1       9.040  12.877  12.479  1.00  0.00     0.031 C 
ATOM     51  C   UNL     1      10.298  17.500   8.758  1.00  0.00     0.029 A 
ATOM     52  C   UNL     1       9.681  16.413   9.354  1.00  0.00     0.049 A 
ATOM     53  H   UNL     1       7.923  15.397   8.777  1.00  0.00     0.167 HD
ATOM     54  C   UNL     1       9.419  14.630  11.053  1.00  0.00     0.074 A 
ATOM     55  C   UNL     1       9.850  13.894  12.223  1.00  0.00     0.031 C 
ATOM     56  C   UNL     1      10.087  15.686  10.529  1.00  0.00     0.037 A 
BRANCH  43  57
ATOM     57  C   UNL     1       7.533  17.980   5.402  1.00  0.00     0.057 A 
ATOM     58  C   UNL     1       6.655  19.065   5.283  1.00  0.00     0.134 A 
ATOM     59  C   UNL     1       8.559  17.873   4.454  1.00  0.00     0.134 A 
ATOM     60  F   UNL     1       5.645  19.220   6.152  1.00  0.00    -0.206 F 
ATOM     61  C   UNL     1       6.781  19.997   4.251  1.00  0.00     0.040 A 
ATOM     62  C   UNL     1       8.712  18.814   3.434  1.00  0.00     0.040 A 
ATOM     63  F   UNL     1       9.439  16.862   4.512  1.00  0.00    -0.206 F 
ATOM     64  C   UNL     1       7.819  19.877   3.329  1.00  0.00     0.006 A 
ENDBRANCH  43  57
BRANCH  44  65
ATOM     65  C   UNL     1       6.761  11.061  12.552  1.00  0.00     0.057 A 
ATOM     66  C   UNL     1       6.581  11.418  13.894  1.00  0.00     0.134 A 
ATOM     67  C   UNL     1       6.904   9.699  12.262  1.00  0.00     0.134 A 
ATOM     68  F   UNL     1       6.458  12.708  14.238  1.00  0.00    -0.206 F 
ATOM     69  C   UNL     1       6.580  10.463  14.912  1.00  0.00     0.040 A 
ATOM     70  C   UNL     1       6.875   8.731  13.268  1.00  0.00     0.040 A 
ATOM     71  F   UNL     1       7.072   9.289  10.997  1.00  0.00    -0.206 F 
ATOM     72  C   UNL     1       6.725   9.114  14.599  1.00  0.00     0.006 A 
ENDBRANCH  44  65
BRANCH  56  73
ATOM     73  C   UNL     1      11.323  16.146  11.248  1.00  0.00     0.057 A 
ATOM     74  C   UNL     1      12.508  15.401  11.243  1.00  0.00     0.134 A 
ATOM     75  C   UNL     1      11.333  17.373  11.925  1.00  0.00     0.134 A 
ATOM     76  F   UNL     1      12.562  14.212  10.623  1.00  0.00    -0.206 F 
ATOM     77  C   UNL     1      13.652  15.846  11.908  1.00  0.00     0.040 A 
ATOM     78  C   UNL     1      12.479  17.843  12.568  1.00  0.00     0.040 A 
ATOM     79  F   UNL     1      10.234  18.142  11.960  1.00  0.00    -0.206 F 
ATOM     80  C   UNL     1      13.641  17.075  12.567  1.00  0.00     0.006 A 
ENDBRANCH  56  73
ENDBRANCH  30  31
ENDBRANCH  22  25
ENDBRANCH  20  21
ENDBRANCH   1  20
TORSDOF 12
