REMARK SMILES CCC(CC)Oc1ccc(OC)cc1/C=C/C(=O)NCCCCNC(=O)c1ccc(-c2c3nc(c(-c4c(F)cccc4F)c4ccc([nH]4)c(-c4c(F)cccc4F)c4nc(c(-c5c(F)cccc5F)c5ccc2[nH]5)C=C4)C=C3)cc1
REMARK SMILES IDX 20 1 19 2 17 3 18 4 16 6 15 7 14 8 7 9 8 10 9 11 13 12 10 13
REMARK SMILES IDX 6 14 3 15 2 16 1 17 4 18 5 19 11 20 12 21 21 22 22 23 23 24
REMARK SMILES IDX 24 25 25 26 26 28 27 29 28 30 80 31 29 32 79 33 30 34 31 35
REMARK SMILES IDX 32 36 73 37 33 38 78 39 72 40 74 41 34 42 77 43 71 44 70 45
REMARK SMILES IDX 35 47 61 48 44 49 60 50 45 51 48 52 59 53 75 54 46 55 47 56
REMARK SMILES IDX 58 58 76 59 49 60 36 61 37 62 42 63 38 64 39 65 41 66 43 67
REMARK SMILES IDX 40 68 62 69 63 70 68 71 64 72 65 73 67 74 69 75 66 76 50 77
REMARK SMILES IDX 51 78 56 79 52 80 53 81 55 82 57 83 54 84
REMARK H PARENT 19 5 24 27 74 46 48 57
REMARK Flexibility Score: inf
ROOT
ATOM      1  C   UNL     1       0.722  -1.629  -1.765  1.00  0.00     0.116 C 
ENDROOT
BRANCH   1   2
ATOM      2  N   UNL     1      -0.403  -2.353  -2.309  1.00  0.00    -0.353 N 
ATOM      3  C   UNL     1      -1.663  -2.470  -1.816  1.00  0.00     0.244 C 
ATOM      4  O   UNL     1      -2.572  -2.839  -2.557  1.00  0.00    -0.270 OA
ATOM      5  H   UNL     1      -0.233  -2.827  -3.155  1.00  0.00     0.163 HD
BRANCH   3   6
ATOM      6  C   UNL     1      -1.986  -2.113  -0.415  1.00  0.00     0.072 C 
ATOM      7  C   UNL     1      -1.321  -2.574   0.659  1.00  0.00     0.018 C 
BRANCH   7   8
ATOM      8  C   UNL     1      -1.832  -2.422   2.039  1.00  0.00     0.020 A 
ATOM      9  C   UNL     1      -1.006  -2.119   3.134  1.00  0.00     0.127 A 
ATOM     10  C   UNL     1      -1.499  -2.223   4.440  1.00  0.00     0.051 A 
ATOM     11  C   UNL     1      -2.843  -2.518   4.664  1.00  0.00     0.050 A 
ATOM     12  C   UNL     1      -3.187  -2.728   2.291  1.00  0.00     0.058 A 
ATOM     13  C   UNL     1      -3.701  -2.743   3.591  1.00  0.00     0.119 A 
BRANCH   9  14
ATOM     14  O   UNL     1       0.325  -1.847   2.996  1.00  0.00    -0.490 OA
BRANCH  14  15
ATOM     15  C   UNL     1       0.731  -0.458   2.932  1.00  0.00     0.172 C 
BRANCH  15  16
ATOM     16  C   UNL     1       0.863  -0.060   1.460  1.00  0.00     0.042 C 
ATOM     17  C   UNL     1       1.510   1.284   1.179  1.00  0.00     0.008 C 
ENDBRANCH  15  16
BRANCH  15  18
ATOM     18  C   UNL     1       0.013   0.577   3.825  1.00  0.00     0.042 C 
ATOM     19  C   UNL     1      -1.354   1.068   3.358  1.00  0.00     0.008 C 
ENDBRANCH  15  18
ENDBRANCH  14  15
ENDBRANCH   9  14
BRANCH  13  20
ATOM     20  O   UNL     1      -4.998  -3.010   3.933  1.00  0.00    -0.497 OA
ATOM     21  C   UNL     1      -5.958  -2.942   2.884  1.00  0.00     0.278 C 
ENDBRANCH  13  20
ENDBRANCH   7   8
ENDBRANCH   3   6
ENDBRANCH   1   2
BRANCH   1  22
ATOM     22  C   UNL     1       1.938  -2.523  -1.519  1.00  0.00     0.023 C 
BRANCH  22  23
ATOM     23  C   UNL     1       3.128  -2.173  -2.413  1.00  0.00     0.023 C 
BRANCH  23  24
ATOM     24  C   UNL     1       3.684  -0.763  -2.230  1.00  0.00     0.116 C 
BRANCH  24  25
ATOM     25  N   UNL     1       4.434  -0.576  -0.998  1.00  0.00    -0.352 N 
ATOM     26  C   UNL     1       5.651   0.057  -0.825  1.00  0.00     0.251 C 
ATOM     27  H   UNL     1       4.022  -0.947  -0.184  1.00  0.00     0.163 HD
ATOM     28  O   UNL     1       6.190   0.096   0.266  1.00  0.00    -0.269 OA
BRANCH  26  29
ATOM     29  C   UNL     1       6.321   0.641  -2.011  1.00  0.00     0.039 A 
ATOM     30  C   UNL     1       7.612   0.214  -2.332  1.00  0.00     0.014 A 
ATOM     31  C   UNL     1       5.638   1.524  -2.852  1.00  0.00     0.014 A 
ATOM     32  C   UNL     1       8.176   0.586  -3.555  1.00  0.00     0.010 A 
ATOM     33  C   UNL     1       6.173   1.835  -4.099  1.00  0.00     0.010 A 
ATOM     34  C   UNL     1       7.437   1.349  -4.474  1.00  0.00    -0.014 A 
BRANCH  34  35
ATOM     35  C   UNL     1       7.940   1.613  -5.848  1.00  0.00     0.031 A 
ATOM     36  C   UNL     1       8.203   3.021  -6.301  1.00  0.00     0.074 A 
ATOM     37  C   UNL     1       8.069   0.593  -6.721  1.00  0.00     0.049 A 
ATOM     38  N   UNL     1       8.524   3.460  -7.491  1.00  0.00    -0.248 NA
ATOM     39  C   UNL     1       8.055   4.077  -5.288  1.00  0.00     0.031 C 
ATOM     40  C   UNL     1       7.798  -0.816  -6.427  1.00  0.00     0.029 A 
ATOM     41  N   UNL     1       8.442   0.588  -8.043  1.00  0.00    -0.354 N 
ATOM     42  C   UNL     1       8.596   4.842  -7.376  1.00  0.00     0.074 A 
ATOM     43  C   UNL     1       8.242   5.171  -6.011  1.00  0.00     0.031 C 
ATOM     44  C   UNL     1       8.028  -1.548  -7.529  1.00  0.00     0.029 A 
ATOM     45  C   UNL     1       8.425  -0.660  -8.617  1.00  0.00     0.049 A 
ATOM     46  H   UNL     1       8.698   1.403  -8.532  1.00  0.00     0.167 HD
ATOM     47  C   UNL     1       8.944   5.753  -8.315  1.00  0.00     0.037 A 
ATOM     48  C   UNL     1       8.687  -1.046  -9.881  1.00  0.00     0.037 A 
ATOM     49  C   UNL     1       9.327   5.427  -9.663  1.00  0.00     0.049 A 
ATOM     50  C   UNL     1       9.078  -0.017 -10.903  1.00  0.00     0.074 A 
ATOM     51  C   UNL     1       9.756   6.278 -10.667  1.00  0.00     0.029 A 
ATOM     52  N   UNL     1       9.330   4.147 -10.195  1.00  0.00    -0.354 N 
ATOM     53  N   UNL     1       9.198   1.281 -10.764  1.00  0.00    -0.248 NA
ATOM     54  C   UNL     1       9.371  -0.504 -12.259  1.00  0.00     0.031 C 
ATOM     55  C   UNL     1       9.989   5.516 -11.817  1.00  0.00     0.029 A 
ATOM     56  C   UNL     1       9.739   4.187 -11.518  1.00  0.00     0.049 A 
ATOM     57  H   UNL     1       9.078   3.331  -9.706  1.00  0.00     0.167 HD
ATOM     58  C   UNL     1       9.604   1.761 -12.002  1.00  0.00     0.074 A 
ATOM     59  C   UNL     1       9.719   0.615 -12.879  1.00  0.00     0.031 C 
ATOM     60  C   UNL     1       9.860   3.037 -12.376  1.00  0.00     0.037 A 
BRANCH  47  61
ATOM     61  C   UNL     1       8.934   7.196  -7.908  1.00  0.00     0.057 A 
ATOM     62  C   UNL     1       9.903   7.724  -7.045  1.00  0.00     0.134 A 
ATOM     63  C   UNL     1       7.962   8.074  -8.403  1.00  0.00     0.134 A 
ATOM     64  F   UNL     1      10.854   6.932  -6.526  1.00  0.00    -0.206 F 
ATOM     65  C   UNL     1       9.890   9.067  -6.666  1.00  0.00     0.040 A 
ATOM     66  C   UNL     1       7.952   9.425  -8.052  1.00  0.00     0.040 A 
ATOM     67  F   UNL     1       7.008   7.634  -9.238  1.00  0.00    -0.206 F 
ATOM     68  C   UNL     1       8.915   9.923  -7.175  1.00  0.00     0.006 A 
ENDBRANCH  47  61
BRANCH  48  69
ATOM     69  C   UNL     1       8.605  -2.481 -10.250  1.00  0.00     0.057 A 
ATOM     70  C   UNL     1       9.764  -3.224 -10.505  1.00  0.00     0.134 A 
ATOM     71  C   UNL     1       7.376  -3.140 -10.363  1.00  0.00     0.134 A 
ATOM     72  F   UNL     1      10.969  -2.641 -10.432  1.00  0.00    -0.206 F 
ATOM     73  C   UNL     1       9.702  -4.569 -10.876  1.00  0.00     0.040 A 
ATOM     74  C   UNL     1       7.301  -4.490 -10.712  1.00  0.00     0.040 A 
ATOM     75  F   UNL     1       6.231  -2.484 -10.126  1.00  0.00    -0.206 F 
ATOM     76  C   UNL     1       8.467  -5.206 -10.976  1.00  0.00     0.006 A 
ENDBRANCH  48  69
BRANCH  60  77
ATOM     77  C   UNL     1      10.322   3.263 -13.784  1.00  0.00     0.057 A 
ATOM     78  C   UNL     1       9.439   3.201 -14.868  1.00  0.00     0.134 A 
ATOM     79  C   UNL     1      11.656   3.596 -14.050  1.00  0.00     0.134 A 
ATOM     80  F   UNL     1       8.152   2.872 -14.679  1.00  0.00    -0.206 F 
ATOM     81  C   UNL     1       9.870   3.452 -16.172  1.00  0.00     0.040 A 
ATOM     82  C   UNL     1      12.094   3.870 -15.347  1.00  0.00     0.040 A 
ATOM     83  F   UNL     1      12.550   3.678 -13.053  1.00  0.00    -0.206 F 
ATOM     84  C   UNL     1      11.199   3.795 -16.413  1.00  0.00     0.006 A 
ENDBRANCH  60  77
ENDBRANCH  34  35
ENDBRANCH  26  29
ENDBRANCH  24  25
ENDBRANCH  23  24
ENDBRANCH  22  23
ENDBRANCH   1  22
TORSDOF 17
