REMARK SMILES Cc1ccc2c(c1)C=C(C(=O)NCCCCNC(=O)c1ccc(-c3c4nc(c(-c5c(F)cccc5F)c5ccc([nH]5)c(-c5c(F)cccc5F)c5nc(c(-c6c(F)cccc6F)c6ccc3[nH]6)C=C5)C=C4)cc1)[C@@H](C(F)(F)F)O2
REMARK SMILES IDX 15 1 14 2 13 3 12 4 10 5 11 6 9 8 1 9 2 10 3 11 7 12 4 13
REMARK SMILES IDX 6 14 5 15 8 16 79 17 74 18 75 19 76 20 77 21 78 22 16 23
REMARK SMILES IDX 17 24 18 25 19 27 20 28 21 29 73 30 22 31 72 32 23 33 24 34
REMARK SMILES IDX 25 35 66 36 26 37 71 38 65 39 67 40 27 41 70 42 64 43 63 44
REMARK SMILES IDX 28 46 54 47 37 48 53 49 38 50 41 51 52 52 68 53 39 54 40 55
REMARK SMILES IDX 51 57 69 58 42 59 29 60 30 61 35 62 31 63 32 64 34 65 36 66
REMARK SMILES IDX 33 67 55 68 56 69 61 70 57 71 58 72 60 73 62 74 59 75 43 76
REMARK SMILES IDX 44 77 49 78 45 79 46 80 48 81 50 82 47 83
REMARK H PARENT 12 7 17 26 67 45 41 56
REMARK Flexibility Score: inf
ROOT
ATOM      1  C   UNL     1      -1.226  10.455  -3.090  1.00  0.00     0.023 C 
ENDROOT
BRANCH   1   2
ATOM      2  C   UNL     1      -1.170   8.950  -3.363  1.00  0.00     0.023 C 
BRANCH   2   3
ATOM      3  C   UNL     1       0.241   8.387  -3.520  1.00  0.00     0.116 C 
BRANCH   3   4
ATOM      4  N   UNL     1       0.852   8.076  -2.239  1.00  0.00    -0.352 N 
ATOM      5  C   UNL     1       1.100   6.965  -1.505  1.00  0.00     0.251 C 
ATOM      6  O   UNL     1       1.670   7.170  -0.428  1.00  0.00    -0.270 OA
ATOM      7  H   UNL     1       1.171   8.888  -1.784  1.00  0.00     0.163 HD
BRANCH   5   8
ATOM      8  C   UNL     1       0.741   5.568  -1.896  1.00  0.00     0.067 C 
ATOM      9  C   UNL     1       1.163  -0.245   0.177  1.00  0.00     0.044 C 
ATOM     10  C   UNL     1       0.720   0.864  -0.731  1.00  0.00    -0.050 A 
ATOM     11  C   UNL     1      -0.029   0.591  -1.882  1.00  0.00     0.007 A 
ATOM     12  C   UNL     1       1.056   2.193  -0.429  1.00  0.00     0.015 A 
ATOM     13  C   UNL     1      -0.434   1.630  -2.720  1.00  0.00     0.047 A 
ATOM     14  C   UNL     1       0.657   3.236  -1.272  1.00  0.00     0.017 A 
ATOM     15  C   UNL     1      -0.080   2.942  -2.419  1.00  0.00     0.128 A 
ATOM     16  C   UNL     1       0.961   4.627  -0.958  1.00  0.00     0.025 C 
ATOM     17  O   UNL     1      -0.526   3.912  -3.271  1.00  0.00    -0.475 OA
ATOM     18  C   UNL     1       0.207   5.168  -3.243  1.00  0.00     0.314 C 
BRANCH  18  19
ATOM     19  C   UNL     1       1.300   5.144  -4.329  1.00  0.00     0.429 C 
ATOM     20  F   UNL     1       0.739   5.115  -5.564  1.00  0.00    -0.167 F 
ATOM     21  F   UNL     1       2.089   6.245  -4.295  1.00  0.00    -0.167 F 
ATOM     22  F   UNL     1       2.118   4.072  -4.229  1.00  0.00    -0.167 F 
ENDBRANCH  18  19
ENDBRANCH   5   8
ENDBRANCH   3   4
ENDBRANCH   2   3
ENDBRANCH   1   2
BRANCH   1  23
ATOM     23  C   UNL     1      -0.526  11.339  -4.120  1.00  0.00     0.116 C 
BRANCH  23  24
ATOM     24  N   UNL     1      -0.949  11.120  -5.497  1.00  0.00    -0.352 N 
ATOM     25  C   UNL     1      -0.863  12.002  -6.554  1.00  0.00     0.251 C 
ATOM     26  H   UNL     1      -1.342  10.240  -5.696  1.00  0.00     0.163 HD
ATOM     27  O   UNL     1      -1.318  11.716  -7.655  1.00  0.00    -0.269 OA
BRANCH  25  28
ATOM     28  C   UNL     1      -0.271  13.333  -6.310  1.00  0.00     0.039 A 
ATOM     29  C   UNL     1       0.979  13.439  -5.701  1.00  0.00     0.014 A 
ATOM     30  C   UNL     1      -1.036  14.473  -6.568  1.00  0.00     0.014 A 
ATOM     31  C   UNL     1       1.371  14.658  -5.163  1.00  0.00     0.010 A 
ATOM     32  C   UNL     1      -0.600  15.714  -6.097  1.00  0.00     0.010 A 
ATOM     33  C   UNL     1       0.567  15.800  -5.322  1.00  0.00    -0.014 A 
BRANCH  33  34
ATOM     34  C   UNL     1       0.934  17.042  -4.593  1.00  0.00     0.031 A 
ATOM     35  C   UNL     1       0.068  17.556  -3.471  1.00  0.00     0.074 A 
ATOM     36  C   UNL     1       2.103  17.650  -4.871  1.00  0.00     0.049 A 
ATOM     37  N   UNL     1       0.273  18.571  -2.668  1.00  0.00    -0.248 NA
ATOM     38  C   UNL     1      -1.193  16.841  -3.217  1.00  0.00     0.031 C 
ATOM     39  C   UNL     1       3.035  17.244  -5.924  1.00  0.00     0.029 A 
ATOM     40  N   UNL     1       2.724  18.710  -4.263  1.00  0.00    -0.354 N 
ATOM     41  C   UNL     1      -0.839  18.629  -1.835  1.00  0.00     0.074 A 
ATOM     42  C   UNL     1      -1.728  17.564  -2.244  1.00  0.00     0.031 C 
ATOM     43  C   UNL     1       4.138  18.004  -5.847  1.00  0.00     0.029 A 
ATOM     44  C   UNL     1       3.972  18.976  -4.771  1.00  0.00     0.049 A 
ATOM     45  H   UNL     1       2.316  19.230  -3.534  1.00  0.00     0.167 HD
ATOM     46  C   UNL     1      -1.093  19.483  -0.813  1.00  0.00     0.037 A 
ATOM     47  C   UNL     1       4.883  19.895  -4.406  1.00  0.00     0.037 A 
ATOM     48  C   UNL     1      -0.200  20.525  -0.380  1.00  0.00     0.049 A 
ATOM     49  C   UNL     1       4.577  20.826  -3.270  1.00  0.00     0.074 A 
ATOM     50  C   UNL     1      -0.366  21.436   0.649  1.00  0.00     0.029 A 
ATOM     51  N   UNL     1       1.037  20.788  -0.949  1.00  0.00    -0.354 N 
ATOM     52  N   UNL     1       3.519  20.869  -2.498  1.00  0.00    -0.248 NA
ATOM     53  C   UNL     1       5.595  21.839  -2.959  1.00  0.00     0.031 C 
ATOM     54  C   UNL     1       0.761  22.265   0.689  1.00  0.00     0.029 A 
ATOM     55  C   UNL     1       1.642  21.850  -0.296  1.00  0.00     0.049 A 
ATOM     56  H   UNL     1       1.428  20.293  -1.705  1.00  0.00     0.167 HD
ATOM     57  C   UNL     1       3.746  21.907  -1.605  1.00  0.00     0.074 A 
ATOM     58  C   UNL     1       5.054  22.449  -1.914  1.00  0.00     0.031 C 
ATOM     59  C   UNL     1       2.941  22.377  -0.621  1.00  0.00     0.037 A 
BRANCH  46  60
ATOM     60  C   UNL     1      -2.404  19.329  -0.099  1.00  0.00     0.057 A 
ATOM     61  C   UNL     1      -3.435  20.257  -0.292  1.00  0.00     0.134 A 
ATOM     62  C   UNL     1      -2.639  18.277   0.795  1.00  0.00     0.134 A 
ATOM     63  F   UNL     1      -3.273  21.290  -1.133  1.00  0.00    -0.206 F 
ATOM     64  C   UNL     1      -4.654  20.144   0.379  1.00  0.00     0.040 A 
ATOM     65  C   UNL     1      -3.861  18.142   1.457  1.00  0.00     0.040 A 
ATOM     66  F   UNL     1      -1.698  17.345   1.011  1.00  0.00    -0.206 F 
ATOM     67  C   UNL     1      -4.871  19.080   1.253  1.00  0.00     0.006 A 
ENDBRANCH  46  60
BRANCH  47  68
ATOM     68  C   UNL     1       6.181  19.971  -5.117  1.00  0.00     0.057 A 
ATOM     69  C   UNL     1       6.266  20.451  -6.429  1.00  0.00     0.134 A 
ATOM     70  C   UNL     1       7.369  19.573  -4.494  1.00  0.00     0.134 A 
ATOM     71  F   UNL     1       5.160  20.843  -7.079  1.00  0.00    -0.206 F 
ATOM     72  C   UNL     1       7.485  20.524  -7.101  1.00  0.00     0.040 A 
ATOM     73  C   UNL     1       8.599  19.662  -5.147  1.00  0.00     0.040 A 
ATOM     74  F   UNL     1       7.351  19.123  -3.231  1.00  0.00    -0.206 F 
ATOM     75  C   UNL     1       8.658  20.134  -6.457  1.00  0.00     0.006 A 
ENDBRANCH  47  68
BRANCH  59  76
ATOM     76  C   UNL     1       3.469  23.521   0.190  1.00  0.00     0.057 A 
ATOM     77  C   UNL     1       3.930  23.318   1.496  1.00  0.00     0.134 A 
ATOM     78  C   UNL     1       3.531  24.821  -0.328  1.00  0.00     0.134 A 
ATOM     79  F   UNL     1       3.894  22.097   2.050  1.00  0.00    -0.206 F 
ATOM     80  C   UNL     1       4.445  24.369   2.257  1.00  0.00     0.040 A 
ATOM     81  C   UNL     1       4.062  25.875   0.416  1.00  0.00     0.040 A 
ATOM     82  F   UNL     1       3.119  25.074  -1.579  1.00  0.00    -0.206 F 
ATOM     83  C   UNL     1       4.520  25.650   1.713  1.00  0.00     0.006 A 
ENDBRANCH  59  76
ENDBRANCH  33  34
ENDBRANCH  25  28
ENDBRANCH  23  24
ENDBRANCH   1  23
TORSDOF 12
