REMARK SMILES O=C(NCCCCNC(=O)[C@H]1CCCCN1C(=O)CCc1cccnc1)c1ccc(-c2c3nc(c(-c4c(F)cccc4F)c4ccc([nH]4)c(-c4c(F)cccc4F)c4nc(c(-c5c(F)cccc5F)c5ccc2[nH]5)C=C4)C=C3)cc1
REMARK SMILES IDX 6 1 5 2 4 3 3 4 1 5 2 6 27 8 28 9 80 10 29 11 79 12 30 13
REMARK SMILES IDX 31 14 32 15 73 16 33 17 78 18 72 19 74 20 34 21 77 22 71 23
REMARK SMILES IDX 70 24 35 26 61 27 44 28 60 29 45 30 48 31 59 32 75 33 46 34
REMARK SMILES IDX 47 35 58 37 76 38 49 39 36 40 37 41 42 42 38 43 39 44 41 45
REMARK SMILES IDX 43 46 40 47 62 48 63 49 68 50 64 51 65 52 67 53 69 54 66 55
REMARK SMILES IDX 50 56 51 57 56 58 52 59 53 60 55 61 57 62 54 63 7 64 8 65
REMARK SMILES IDX 9 66 10 68 11 69 12 70 16 71 13 72 15 73 14 74 17 75 18 76
REMARK SMILES IDX 19 77 20 78 21 79 22 80 26 81 23 82 25 83 24 84
REMARK H PARENT 3 7 74 25 48 36 8 67
REMARK Flexibility Score: inf
ROOT
ATOM      1  C   UNL     1       5.035   7.025   0.926  1.00  0.00     0.023 C 
ENDROOT
BRANCH   1   2
ATOM      2  C   UNL     1       3.555   7.335   0.724  1.00  0.00     0.023 C 
BRANCH   2   3
ATOM      3  C   UNL     1       3.014   8.493   1.554  1.00  0.00     0.116 C 
BRANCH   3   4
ATOM      4  N   UNL     1       3.757   9.732   1.364  1.00  0.00    -0.352 N 
ATOM      5  O   UNL     1       4.059  11.884   0.733  1.00  0.00    -0.269 OA
ATOM      6  C   UNL     1       3.288  10.961   0.971  1.00  0.00     0.251 C 
ATOM      7  H   UNL     1       4.724   9.681   1.542  1.00  0.00     0.163 HD
BRANCH   6   8
ATOM      8  C   UNL     1       1.834  11.146   0.818  1.00  0.00     0.039 A 
ATOM      9  C   UNL     1       0.977  10.774   1.857  1.00  0.00     0.014 A 
ATOM     10  C   UNL     1       1.330  11.654  -0.381  1.00  0.00     0.014 A 
ATOM     11  C   UNL     1      -0.394  10.789   1.649  1.00  0.00     0.010 A 
ATOM     12  C   UNL     1      -0.051  11.745  -0.557  1.00  0.00     0.010 A 
ATOM     13  C   UNL     1      -0.921  11.297   0.450  1.00  0.00    -0.014 A 
BRANCH  13  14
ATOM     14  C   UNL     1      -2.386  11.467   0.324  1.00  0.00     0.031 A 
ATOM     15  C   UNL     1      -3.186  10.679  -0.670  1.00  0.00     0.074 A 
ATOM     16  C   UNL     1      -2.982  12.364   1.133  1.00  0.00     0.049 A 
ATOM     17  N   UNL     1      -4.469  10.742  -0.921  1.00  0.00    -0.248 NA
ATOM     18  C   UNL     1      -2.461   9.699  -1.494  1.00  0.00     0.031 C 
ATOM     19  C   UNL     1      -2.286  13.196   2.121  1.00  0.00     0.029 A 
ATOM     20  N   UNL     1      -4.295  12.728   1.260  1.00  0.00    -0.354 N 
ATOM     21  C   UNL     1      -4.703   9.833  -1.944  1.00  0.00     0.074 A 
ATOM     22  C   UNL     1      -3.428   9.232  -2.275  1.00  0.00     0.031 C 
ATOM     23  C   UNL     1      -3.181  13.954   2.767  1.00  0.00     0.029 A 
ATOM     24  C   UNL     1      -4.499  13.713   2.195  1.00  0.00     0.049 A 
ATOM     25  H   UNL     1      -5.022  12.324   0.733  1.00  0.00     0.167 HD
ATOM     26  C   UNL     1      -5.879   9.536  -2.545  1.00  0.00     0.037 A 
ATOM     27  C   UNL     1      -5.617  14.380   2.529  1.00  0.00     0.037 A 
ATOM     28  C   UNL     1      -7.144  10.123  -2.183  1.00  0.00     0.049 A 
ATOM     29  C   UNL     1      -6.896  14.043   1.824  1.00  0.00     0.074 A 
ATOM     30  C   UNL     1      -8.404   9.824  -2.672  1.00  0.00     0.029 A 
ATOM     31  N   UNL     1      -7.307  11.139  -1.253  1.00  0.00    -0.354 N 
ATOM     32  N   UNL     1      -7.112  13.137   0.902  1.00  0.00    -0.248 NA
ATOM     33  C   UNL     1      -8.080  14.828   2.193  1.00  0.00     0.031 C 
ATOM     34  C   UNL     1      -9.323  10.692  -2.074  1.00  0.00     0.029 A 
ATOM     35  C   UNL     1      -8.641  11.506  -1.184  1.00  0.00     0.049 A 
ATOM     36  H   UNL     1      -6.582  11.539  -0.720  1.00  0.00     0.167 HD
ATOM     37  C   UNL     1      -8.456  13.243   0.578  1.00  0.00     0.074 A 
ATOM     38  C   UNL     1      -9.011  14.279   1.426  1.00  0.00     0.031 C 
ATOM     39  C   UNL     1      -9.166  12.551  -0.345  1.00  0.00     0.037 A 
BRANCH  26  40
ATOM     40  C   UNL     1      -5.872   8.543  -3.669  1.00  0.00     0.057 A 
ATOM     41  C   UNL     1      -5.762   7.166  -3.441  1.00  0.00     0.134 A 
ATOM     42  C   UNL     1      -6.082   8.966  -4.988  1.00  0.00     0.134 A 
ATOM     43  F   UNL     1      -5.555   6.696  -2.202  1.00  0.00    -0.206 F 
ATOM     44  C   UNL     1      -5.860   6.245  -4.487  1.00  0.00     0.040 A 
ATOM     45  C   UNL     1      -6.198   8.055  -6.039  1.00  0.00     0.040 A 
ATOM     46  F   UNL     1      -6.202  10.272  -5.273  1.00  0.00    -0.206 F 
ATOM     47  C   UNL     1      -6.090   6.688  -5.789  1.00  0.00     0.006 A 
ENDBRANCH  26  40
BRANCH  27  48
ATOM     48  C   UNL     1      -5.556  15.461   3.541  1.00  0.00     0.057 A 
ATOM     49  C   UNL     1      -6.161  15.321   4.793  1.00  0.00     0.134 A 
ATOM     50  C   UNL     1      -4.879  16.660   3.280  1.00  0.00     0.134 A 
ATOM     51  F   UNL     1      -6.836  14.202   5.095  1.00  0.00    -0.206 F 
ATOM     52  C   UNL     1      -6.108  16.339   5.746  1.00  0.00     0.040 A 
ATOM     53  C   UNL     1      -4.794  17.674   4.232  1.00  0.00     0.040 A 
ATOM     54  F   UNL     1      -4.270  16.851   2.100  1.00  0.00    -0.206 F 
ATOM     55  C   UNL     1      -5.418  17.518   5.468  1.00  0.00     0.006 A 
ENDBRANCH  27  48
BRANCH  39  56
ATOM     56  C   UNL     1     -10.614  12.906  -0.484  1.00  0.00     0.057 A 
ATOM     57  C   UNL     1     -11.016  14.088  -1.118  1.00  0.00     0.134 A 
ATOM     58  C   UNL     1     -11.613  12.054   0.001  1.00  0.00     0.134 A 
ATOM     59  F   UNL     1     -10.104  14.954  -1.586  1.00  0.00    -0.206 F 
ATOM     60  C   UNL     1     -12.364  14.420  -1.248  1.00  0.00     0.040 A 
ATOM     61  C   UNL     1     -12.965  12.364  -0.144  1.00  0.00     0.040 A 
ATOM     62  F   UNL     1     -11.290  10.906   0.614  1.00  0.00    -0.206 F 
ATOM     63  C   UNL     1     -13.343  13.553  -0.766  1.00  0.00     0.006 A 
ENDBRANCH  39  56
ENDBRANCH  13  14
ENDBRANCH   6   8
ENDBRANCH   3   4
ENDBRANCH   2   3
ENDBRANCH   1   2
BRANCH   1  64
ATOM     64  C   UNL     1       5.444   6.775   2.371  1.00  0.00     0.116 C 
BRANCH  64  65
ATOM     65  N   UNL     1       4.970   5.506   2.878  1.00  0.00    -0.354 N 
ATOM     66  C   UNL     1       5.500   4.573   3.708  1.00  0.00     0.242 C 
ATOM     67  H   UNL     1       4.072   5.269   2.551  1.00  0.00     0.163 HD
ATOM     68  O   UNL     1       4.747   3.612   3.934  1.00  0.00    -0.273 OA
BRANCH  66  69
ATOM     69  C   UNL     1       6.905   4.631   4.393  1.00  0.00     0.174 C 
ATOM     70  C   UNL     1       7.806   5.867   4.325  1.00  0.00     0.035 C 
ATOM     71  N   UNL     1       6.717   4.345   5.836  1.00  0.00    -0.331 N 
ATOM     72  C   UNL     1       7.263   7.055   5.134  1.00  0.00     0.004 C 
ATOM     73  C   UNL     1       5.970   5.384   6.528  1.00  0.00     0.120 C 
ATOM     74  C   UNL     1       6.831   6.646   6.541  1.00  0.00     0.022 C 
BRANCH  71  75
ATOM     75  C   UNL     1       7.548   3.427   6.460  1.00  0.00     0.223 C 
ATOM     76  O   UNL     1       8.464   2.867   5.852  1.00  0.00    -0.275 OA
BRANCH  75  77
ATOM     77  C   UNL     1       7.321   3.085   7.930  1.00  0.00     0.105 C 
BRANCH  77  78
ATOM     78  C   UNL     1       8.177   3.898   8.919  1.00  0.00     0.047 C 
BRANCH  78  79
ATOM     79  C   UNL     1       7.521   5.115   9.528  1.00  0.00    -0.029 A 
ATOM     80  C   UNL     1       6.207   5.103  10.009  1.00  0.00     0.007 A 
ATOM     81  C   UNL     1       8.206   6.326   9.614  1.00  0.00     0.114 A 
ATOM     82  C   UNL     1       5.598   6.293  10.401  1.00  0.00     0.020 A 
ATOM     83  N   UNL     1       7.645   7.495  10.002  1.00  0.00    -0.264 NA
ATOM     84  C   UNL     1       6.346   7.455  10.364  1.00  0.00     0.111 A 
ENDBRANCH  78  79
ENDBRANCH  77  78
ENDBRANCH  75  77
ENDBRANCH  71  75
ENDBRANCH  66  69
ENDBRANCH  64  65
ENDBRANCH   1  64
TORSDOF 15
