REMARK SMILES COc1ccc(C[NH2+]Cc2cccn2-c2sc(C)c(C)c2C(=O)NCCCCNC(=O)c2ccc(-c3c4nc(c(-c5c(F)cccc5F)c5ccc([nH]5)c(-c5c(F)cccc5F)c5nc(c(-c6c(F)cccc6F)c6ccc3[nH]6)C=C5)C=C4)cc2)cc1
REMARK SMILES IDX 22 1 23 2 24 3 21 5 15 6 16 7 17 8 19 9 18 10 20 11 14 12
REMARK SMILES IDX 10 13 11 14 12 15 13 16 9 17 8 18 7 21 6 22 3 23 4 24 87 25
REMARK SMILES IDX 5 26 86 27 2 28 1 29 25 30 26 31 27 32 28 33 29 34 30 35
REMARK SMILES IDX 31 37 32 38 33 39 85 40 34 41 84 42 35 43 36 44 37 45 78 46
REMARK SMILES IDX 38 47 83 48 77 49 79 50 39 51 82 52 76 53 75 54 40 56 66 57
REMARK SMILES IDX 49 58 65 59 50 60 53 61 64 62 80 63 51 64 52 65 63 67 81 68
REMARK SMILES IDX 54 69 41 70 42 71 47 72 43 73 44 74 46 75 48 76 45 77 67 78
REMARK SMILES IDX 68 79 73 80 69 81 70 82 72 83 74 84 71 85 55 86 56 87 61 88
REMARK SMILES IDX 57 89 58 90 60 91 62 92 59 93
REMARK H PARENT 24 4 8 19 8 20 29 36 79 55 53 66
REMARK Flexibility Score: inf
ROOT
ATOM      1  C   UNL     1       4.439  -5.006  10.786  1.00  0.00     0.254 C 
ATOM      2  O   UNL     1       4.774  -6.042  11.364  1.00  0.00    -0.269 OA
ATOM      3  N   UNL     1       4.854  -3.835  11.398  1.00  0.00    -0.352 N 
ATOM      4  H   UNL     1       5.273  -3.941  12.283  1.00  0.00     0.163 HD
ENDROOT
BRANCH   1   5
ATOM      5  C   UNL     1       3.576  -5.067   9.573  1.00  0.00     0.078 A 
ATOM      6  C   UNL     1       3.507  -4.236   8.462  1.00  0.00     0.113 A 
ATOM      7  S   UNL     1       2.399  -4.730   7.278  1.00  0.00    -0.122 S 
ATOM      8  C   UNL     1       1.851  -6.029   8.212  1.00  0.00     0.007 A 
ATOM      9  C   UNL     1       2.579  -6.156   9.387  1.00  0.00    -0.022 A 
ATOM     10  C   UNL     1       0.729  -6.872   7.692  1.00  0.00     0.057 C 
ATOM     11  C   UNL     1       2.354  -7.275  10.366  1.00  0.00     0.046 C 
BRANCH   6  12
ATOM     12  N   UNL     1       4.272  -3.130   8.082  1.00  0.00    -0.306 N 
ATOM     13  C   UNL     1       3.861  -1.792   8.002  1.00  0.00     0.078 A 
ATOM     14  C   UNL     1       4.973  -1.021   7.700  1.00  0.00     0.029 A 
ATOM     15  C   UNL     1       6.067  -1.890   7.518  1.00  0.00     0.020 A 
ATOM     16  C   UNL     1       5.617  -3.169   7.756  1.00  0.00     0.092 A 
BRANCH  13  17
ATOM     17  C   UNL     1       2.467  -1.320   8.311  1.00  0.00     0.316 C 
BRANCH  17  18
ATOM     18  N   UNL     1       1.861  -0.655   7.159  1.00  0.00    -0.338 N 
ATOM     19  H   UNL     1       0.963  -0.257   7.435  1.00  0.00     0.346 HD
ATOM     20  H   UNL     1       2.488   0.082   6.836  1.00  0.00     0.346 HD
BRANCH  18  21
ATOM     21  C   UNL     1       1.650  -1.606   6.073  1.00  0.00     0.297 C 
BRANCH  21  22
ATOM     22  C   UNL     1       1.320  -0.943   4.768  1.00  0.00     0.006 A 
ATOM     23  C   UNL     1       0.669   0.072   2.244  1.00  0.00     0.118 A 
ATOM     24  C   UNL     1      -0.277   0.076   3.271  1.00  0.00     0.047 A 
ATOM     25  C   UNL     1       1.962  -0.385   2.496  1.00  0.00     0.047 A 
ATOM     26  C   UNL     1       0.043  -0.432   4.529  1.00  0.00     0.013 A 
ATOM     27  C   UNL     1       2.287  -0.886   3.755  1.00  0.00     0.013 A 
BRANCH  23  28
ATOM     28  O   UNL     1       0.237   0.568   1.044  1.00  0.00    -0.497 OA
ATOM     29  C   UNL     1       0.883   0.023  -0.102  1.00  0.00     0.278 C 
ENDBRANCH  23  28
ENDBRANCH  21  22
ENDBRANCH  18  21
ENDBRANCH  17  18
ENDBRANCH  13  17
ENDBRANCH   6  12
ENDBRANCH   1   5
BRANCH   3  30
ATOM     30  C   UNL     1       4.755  -2.488  10.916  1.00  0.00     0.116 C 
BRANCH  30  31
ATOM     31  C   UNL     1       4.725  -1.323  11.891  1.00  0.00     0.023 C 
BRANCH  31  32
ATOM     32  C   UNL     1       6.022  -0.968  12.620  1.00  0.00     0.023 C 
BRANCH  32  33
ATOM     33  C   UNL     1       7.265  -0.753  11.749  1.00  0.00     0.116 C 
BRANCH  33  34
ATOM     34  N   UNL     1       7.163   0.403  10.873  1.00  0.00    -0.352 N 
ATOM     35  C   UNL     1       8.180   1.109  10.265  1.00  0.00     0.251 C 
ATOM     36  H   UNL     1       6.250   0.723  10.690  1.00  0.00     0.163 HD
ATOM     37  O   UNL     1       7.968   2.228   9.821  1.00  0.00    -0.269 OA
BRANCH  35  38
ATOM     38  C   UNL     1       9.531   0.519  10.128  1.00  0.00     0.039 A 
ATOM     39  C   UNL     1      10.653   1.329  10.349  1.00  0.00     0.014 A 
ATOM     40  C   UNL     1       9.689  -0.802   9.694  1.00  0.00     0.014 A 
ATOM     41  C   UNL     1      11.932   0.795  10.198  1.00  0.00     0.010 A 
ATOM     42  C   UNL     1      10.962  -1.341   9.549  1.00  0.00     0.010 A 
ATOM     43  C   UNL     1      12.082  -0.548   9.822  1.00  0.00    -0.014 A 
BRANCH  43  44
ATOM     44  C   UNL     1      13.407  -1.193   9.979  1.00  0.00     0.031 A 
ATOM     45  C   UNL     1      13.653  -1.516  11.487  1.00  0.00     0.074 A 
ATOM     46  C   UNL     1      14.149  -1.390   8.838  1.00  0.00     0.049 A 
ATOM     47  N   UNL     1      14.759  -1.598  12.156  1.00  0.00    -0.248 NA
ATOM     48  C   UNL     1      12.488  -1.699  12.408  1.00  0.00     0.031 C 
ATOM     49  C   UNL     1      13.697  -1.062   7.462  1.00  0.00     0.029 A 
ATOM     50  N   UNL     1      15.409  -1.901   8.570  1.00  0.00    -0.354 N 
ATOM     51  C   UNL     1      14.455  -2.073  13.461  1.00  0.00     0.074 A 
ATOM     52  C   UNL     1      13.038  -1.967  13.596  1.00  0.00     0.031 C 
ATOM     53  C   UNL     1      14.673  -1.288   6.549  1.00  0.00     0.029 A 
ATOM     54  C   UNL     1      15.856  -1.798   7.213  1.00  0.00     0.049 A 
ATOM     55  H   UNL     1      15.964  -2.312   9.272  1.00  0.00     0.167 HD
ATOM     56  C   UNL     1      15.384  -2.700  14.252  1.00  0.00     0.037 A 
ATOM     57  C   UNL     1      17.100  -2.067   6.685  1.00  0.00     0.037 A 
ATOM     58  C   UNL     1      16.628  -2.710  13.562  1.00  0.00     0.049 A 
ATOM     59  C   UNL     1      17.823  -2.698   7.787  1.00  0.00     0.074 A 
ATOM     60  C   UNL     1      17.483  -1.706  13.191  1.00  0.00     0.029 A 
ATOM     61  N   UNL     1      16.863  -3.829  12.800  1.00  0.00    -0.354 N 
ATOM     62  N   UNL     1      17.623  -3.916   8.187  1.00  0.00    -0.248 NA
ATOM     63  C   UNL     1      18.795  -1.897   8.538  1.00  0.00     0.031 C 
ATOM     64  C   UNL     1      17.799  -2.069  11.868  1.00  0.00     0.029 A 
ATOM     65  C   UNL     1      17.430  -3.400  11.636  1.00  0.00     0.049 A 
ATOM     66  H   UNL     1      16.662  -4.760  13.047  1.00  0.00     0.167 HD
ATOM     67  C   UNL     1      18.154  -3.876   9.448  1.00  0.00     0.074 A 
ATOM     68  C   UNL     1      19.120  -2.793   9.466  1.00  0.00     0.031 C 
ATOM     69  C   UNL     1      17.370  -4.261  10.486  1.00  0.00     0.037 A 
BRANCH  56  70
ATOM     70  C   UNL     1      15.296  -3.630  15.441  1.00  0.00     0.057 A 
ATOM     71  C   UNL     1      16.515  -4.024  16.059  1.00  0.00     0.134 A 
ATOM     72  C   UNL     1      14.194  -4.439  15.726  1.00  0.00     0.134 A 
ATOM     73  F   UNL     1      17.632  -3.289  15.922  1.00  0.00    -0.206 F 
ATOM     74  C   UNL     1      16.665  -5.236  16.736  1.00  0.00     0.040 A 
ATOM     75  C   UNL     1      14.324  -5.631  16.458  1.00  0.00     0.040 A 
ATOM     76  F   UNL     1      12.979  -4.168  15.239  1.00  0.00    -0.206 F 
ATOM     77  C   UNL     1      15.568  -6.060  16.915  1.00  0.00     0.006 A 
ENDBRANCH  56  70
BRANCH  57  78
ATOM     78  C   UNL     1      17.948  -1.884   5.434  1.00  0.00     0.057 A 
ATOM     79  C   UNL     1      17.548  -1.306   4.231  1.00  0.00     0.134 A 
ATOM     80  C   UNL     1      19.345  -2.200   5.471  1.00  0.00     0.134 A 
ATOM     81  F   UNL     1      16.256  -1.064   3.978  1.00  0.00    -0.206 F 
ATOM     82  C   UNL     1      18.476  -0.951   3.220  1.00  0.00     0.040 A 
ATOM     83  C   UNL     1      20.280  -1.794   4.515  1.00  0.00     0.040 A 
ATOM     84  F   UNL     1      19.888  -2.920   6.463  1.00  0.00    -0.206 F 
ATOM     85  C   UNL     1      19.848  -1.142   3.383  1.00  0.00     0.006 A 
ENDBRANCH  57  78
BRANCH  69  86
ATOM     86  C   UNL     1      16.284  -5.268  10.134  1.00  0.00     0.057 A 
ATOM     87  C   UNL     1      16.631  -6.474   9.507  1.00  0.00     0.134 A 
ATOM     88  C   UNL     1      14.905  -5.049  10.278  1.00  0.00     0.134 A 
ATOM     89  F   UNL     1      17.923  -6.801   9.348  1.00  0.00    -0.206 F 
ATOM     90  C   UNL     1      15.676  -7.377   9.018  1.00  0.00     0.040 A 
ATOM     91  C   UNL     1      13.933  -5.944   9.799  1.00  0.00     0.040 A 
ATOM     92  F   UNL     1      14.444  -3.956  10.884  1.00  0.00    -0.206 F 
ATOM     93  C   UNL     1      14.319  -7.111   9.155  1.00  0.00     0.006 A 
ENDBRANCH  69  86
ENDBRANCH  43  44
ENDBRANCH  35  38
ENDBRANCH  33  34
ENDBRANCH  32  33
ENDBRANCH  31  32
ENDBRANCH  30  31
ENDBRANCH   3  30
TORSDOF 17
