REMARK SMILES CC[C@@H](NC(=O)[C@H](C)C[NH2+]C)C(=O)NCCCCNC(=O)c1ccc(-c2c3nc(c(-c4c(F)cccc4F)c4ccc([nH]4)c(-c4c(F)cccc4F)c4nc(c(-c5c(F)cccc5F)c5ccc2[nH]5)C=C4)C=C3)cc1
REMARK SMILES IDX 15 1 14 2 12 3 13 4 3 6 2 7 1 8 4 9 5 10 6 12 7 13 8 14 9 15
REMARK SMILES IDX 10 16 11 17 16 20 17 21 18 22 19 23 20 24 21 26 22 27 23 28
REMARK SMILES IDX 75 29 24 30 74 31 25 32 26 33 27 34 68 35 28 36 73 37 67 38
REMARK SMILES IDX 69 39 29 40 72 41 66 42 65 43 30 45 56 46 39 47 55 48 40 49
REMARK SMILES IDX 43 50 54 51 70 52 41 53 42 54 53 56 71 57 44 58 31 59 32 60
REMARK SMILES IDX 37 61 33 62 34 63 36 64 38 65 35 66 57 67 58 68 63 69 59 70
REMARK SMILES IDX 60 71 62 72 64 73 61 74 45 75 46 76 51 77 47 78 48 79 50 80
REMARK SMILES IDX 52 81 49 82
REMARK H PARENT 14 5 4 11 10 18 10 19 19 25 69 44 43 55
REMARK Flexibility Score: inf
ROOT
ATOM      1  C   UNL     1      -0.735  -4.358  -6.537  1.00  0.00     0.116 C 
ENDROOT
BRANCH   1   2
ATOM      2  N   UNL     1       0.338  -3.400  -6.726  1.00  0.00    -0.354 N 
ATOM      3  C   UNL     1       0.356  -2.070  -6.407  1.00  0.00     0.242 C 
ATOM      4  O   UNL     1       1.386  -1.432  -6.636  1.00  0.00    -0.273 OA
ATOM      5  H   UNL     1       1.160  -3.753  -7.137  1.00  0.00     0.163 HD
BRANCH   3   6
ATOM      6  C   UNL     1      -0.930  -1.363  -5.936  1.00  0.00     0.171 C 
BRANCH   6   7
ATOM      7  C   UNL     1      -1.760  -1.165  -7.229  1.00  0.00     0.031 C 
ATOM      8  C   UNL     1      -3.084  -0.440  -7.085  1.00  0.00     0.006 C 
ENDBRANCH   6   7
BRANCH   6   9
ATOM      9  N   UNL     1      -1.646  -2.064  -4.846  1.00  0.00    -0.344 N 
ATOM     10  C   UNL     1      -1.205  -1.994  -3.534  1.00  0.00     0.229 C 
ATOM     11  H   UNL     1      -2.450  -2.591  -5.058  1.00  0.00     0.164 HD
ATOM     12  O   UNL     1      -1.607  -1.073  -2.826  1.00  0.00    -0.275 OA
BRANCH  10  13
ATOM     13  C   UNL     1      -0.400  -3.184  -2.985  1.00  0.00     0.130 C 
ATOM     14  C   UNL     1      -0.584  -3.353  -1.468  1.00  0.00     0.024 C 
BRANCH  13  15
ATOM     15  C   UNL     1       1.093  -3.108  -3.327  1.00  0.00     0.273 C 
BRANCH  15  16
ATOM     16  N   UNL     1       1.737  -4.426  -3.187  1.00  0.00    -0.348 N 
ATOM     17  C   UNL     1       2.984  -4.482  -3.942  1.00  0.00     0.330 C 
ATOM     18  H   UNL     1       1.103  -5.145  -3.535  1.00  0.00     0.346 HD
ATOM     19  H   UNL     1       1.947  -4.581  -2.201  1.00  0.00     0.346 HD
ENDBRANCH  15  16
ENDBRANCH  13  15
ENDBRANCH  10  13
ENDBRANCH   6   9
ENDBRANCH   3   6
ENDBRANCH   1   2
BRANCH   1  20
ATOM     20  C   UNL     1      -0.535  -5.629  -7.351  1.00  0.00     0.023 C 
BRANCH  20  21
ATOM     21  C   UNL     1       0.620  -6.502  -6.864  1.00  0.00     0.023 C 
BRANCH  21  22
ATOM     22  C   UNL     1       0.493  -6.987  -5.423  1.00  0.00     0.116 C 
BRANCH  22  23
ATOM     23  N   UNL     1      -0.641  -7.876  -5.224  1.00  0.00    -0.352 N 
ATOM     24  C   UNL     1      -0.661  -9.180  -4.796  1.00  0.00     0.251 C 
ATOM     25  H   UNL     1      -1.522  -7.486  -5.426  1.00  0.00     0.163 HD
ATOM     26  O   UNL     1      -1.709  -9.820  -4.809  1.00  0.00    -0.269 OA
BRANCH  24  27
ATOM     27  C   UNL     1       0.591  -9.828  -4.356  1.00  0.00     0.039 A 
ATOM     28  C   UNL     1       0.914 -11.081  -4.881  1.00  0.00     0.014 A 
ATOM     29  C   UNL     1       1.448  -9.202  -3.447  1.00  0.00     0.014 A 
ATOM     30  C   UNL     1       2.132 -11.675  -4.549  1.00  0.00     0.010 A 
ATOM     31  C   UNL     1       2.694  -9.762  -3.174  1.00  0.00     0.010 A 
ATOM     32  C   UNL     1       3.049 -11.004  -3.723  1.00  0.00    -0.014 A 
BRANCH  32  33
ATOM     33  C   UNL     1       4.384 -11.589  -3.437  1.00  0.00     0.031 A 
ATOM     34  C   UNL     1       4.750 -11.997  -2.038  1.00  0.00     0.074 A 
ATOM     35  C   UNL     1       5.284 -11.713  -4.432  1.00  0.00     0.049 A 
ATOM     36  N   UNL     1       5.875 -12.497  -1.591  1.00  0.00    -0.248 NA
ATOM     37  C   UNL     1       3.726 -11.799  -1.000  1.00  0.00     0.031 C 
ATOM     38  C   UNL     1       5.067 -11.314  -5.824  1.00  0.00     0.029 A 
ATOM     39  N   UNL     1       6.565 -12.206  -4.423  1.00  0.00    -0.354 N 
ATOM     40  C   UNL     1       5.697 -12.665  -0.224  1.00  0.00     0.074 A 
ATOM     41  C   UNL     1       4.377 -12.165   0.095  1.00  0.00     0.031 C 
ATOM     42  C   UNL     1       6.168 -11.599  -6.539  1.00  0.00     0.029 A 
ATOM     43  C   UNL     1       7.180 -12.165  -5.652  1.00  0.00     0.049 A 
ATOM     44  H   UNL     1       7.003 -12.555  -3.614  1.00  0.00     0.167 HD
ATOM     45  C   UNL     1       6.547 -13.207   0.681  1.00  0.00     0.037 A 
ATOM     46  C   UNL     1       8.421 -12.535  -6.021  1.00  0.00     0.037 A 
ATOM     47  C   UNL     1       7.853 -13.719   0.360  1.00  0.00     0.049 A 
ATOM     48  C   UNL     1       9.352 -13.117  -4.994  1.00  0.00     0.074 A 
ATOM     49  C   UNL     1       8.765 -14.340   1.197  1.00  0.00     0.029 A 
ATOM     50  N   UNL     1       8.438 -13.664  -0.896  1.00  0.00    -0.354 N 
ATOM     51  N   UNL     1       9.143 -13.338  -3.719  1.00  0.00    -0.248 NA
ATOM     52  C   UNL     1      10.691 -13.508  -5.459  1.00  0.00     0.031 C 
ATOM     53  C   UNL     1       9.921 -14.614   0.459  1.00  0.00     0.029 A 
ATOM     54  C   UNL     1       9.709 -14.214  -0.850  1.00  0.00     0.049 A 
ATOM     55  H   UNL     1       8.014 -13.289  -1.701  1.00  0.00     0.167 HD
ATOM     56  C   UNL     1      10.309 -13.918  -3.236  1.00  0.00     0.074 A 
ATOM     57  C   UNL     1      11.217 -14.027  -4.359  1.00  0.00     0.031 C 
ATOM     58  C   UNL     1      10.601 -14.323  -1.976  1.00  0.00     0.037 A 
BRANCH  45  59
ATOM     59  C   UNL     1       6.087 -13.274   2.108  1.00  0.00     0.057 A 
ATOM     60  C   UNL     1       5.069 -14.145   2.518  1.00  0.00     0.134 A 
ATOM     61  C   UNL     1       6.695 -12.485   3.093  1.00  0.00     0.134 A 
ATOM     62  F   UNL     1       4.437 -14.921   1.623  1.00  0.00    -0.206 F 
ATOM     63  C   UNL     1       4.653 -14.209   3.849  1.00  0.00     0.040 A 
ATOM     64  C   UNL     1       6.308 -12.560   4.432  1.00  0.00     0.040 A 
ATOM     65  F   UNL     1       7.682 -11.634   2.772  1.00  0.00    -0.206 F 
ATOM     66  C   UNL     1       5.279 -13.420   4.812  1.00  0.00     0.006 A 
ENDBRANCH  45  59
BRANCH  46  67
ATOM     67  C   UNL     1       8.853 -12.381  -7.434  1.00  0.00     0.057 A 
ATOM     68  C   UNL     1       9.068 -13.497  -8.251  1.00  0.00     0.134 A 
ATOM     69  C   UNL     1       9.072 -11.118  -7.997  1.00  0.00     0.134 A 
ATOM     70  F   UNL     1       8.893 -14.734  -7.763  1.00  0.00    -0.206 F 
ATOM     71  C   UNL     1       9.505 -13.365  -9.570  1.00  0.00     0.040 A 
ATOM     72  C   UNL     1       9.483 -10.970  -9.322  1.00  0.00     0.040 A 
ATOM     73  F   UNL     1       8.877 -10.008  -7.269  1.00  0.00    -0.206 F 
ATOM     74  C   UNL     1       9.709 -12.097 -10.110  1.00  0.00     0.006 A 
ENDBRANCH  46  67
BRANCH  58  75
ATOM     75  C   UNL     1      11.944 -14.955  -1.750  1.00  0.00     0.057 A 
ATOM     76  C   UNL     1      13.128 -14.207  -1.766  1.00  0.00     0.134 A 
ATOM     77  C   UNL     1      12.048 -16.325  -1.472  1.00  0.00     0.134 A 
ATOM     78  F   UNL     1      13.099 -12.894  -2.038  1.00  0.00    -0.206 F 
ATOM     79  C   UNL     1      14.370 -14.802  -1.536  1.00  0.00     0.040 A 
ATOM     80  C   UNL     1      13.281 -16.925  -1.213  1.00  0.00     0.040 A 
ATOM     81  F   UNL     1      10.953 -17.098  -1.433  1.00  0.00    -0.206 F 
ATOM     82  C   UNL     1      14.447 -16.164  -1.251  1.00  0.00     0.006 A 
ENDBRANCH  58  75
ENDBRANCH  32  33
ENDBRANCH  24  27
ENDBRANCH  22  23
ENDBRANCH  21  22
ENDBRANCH  20  21
ENDBRANCH   1  20
TORSDOF 16
