REMARK SMILES O=C(Cc1ccn(-c2ccccc2F)c1)NCCCCNC(=O)c1ccc(-c2c3nc(c(-c4c(F)cccc4F)c4ccc([nH]4)c(-c4c(F)cccc4F)c4nc(c(-c5c(F)cccc5F)c5ccc2[nH]5)C=C4)C=C3)cc1
REMARK SMILES IDX 18 1 17 2 16 3 1 4 2 5 3 7 4 8 5 9 15 10 6 11 7 12 8 13 9 14
REMARK SMILES IDX 13 15 10 16 12 17 14 18 11 19 19 20 20 21 21 22 22 23 23 25
REMARK SMILES IDX 24 26 25 27 77 28 26 29 76 30 27 31 28 32 29 33 70 34 30 35
REMARK SMILES IDX 75 36 69 37 71 38 31 39 74 40 68 41 67 42 32 44 58 45 41 46
REMARK SMILES IDX 57 47 42 48 45 49 56 50 72 51 43 52 44 53 55 55 73 56 46 57
REMARK SMILES IDX 33 58 34 59 39 60 35 61 36 62 38 63 40 64 37 65 59 66 60 67
REMARK SMILES IDX 65 68 61 69 62 70 64 71 66 72 63 73 47 74 48 75 53 76 49 77
REMARK SMILES IDX 50 78 52 79 54 80 51 81
REMARK H PARENT 16 6 21 24 71 43 45 54
REMARK Flexibility Score: inf
ROOT
ATOM      1  C   UNL     1       2.501  -3.457  -1.093  1.00  0.00     0.023 C 
ENDROOT
BRANCH   1   2
ATOM      2  C   UNL     1       2.030  -2.416  -0.076  1.00  0.00     0.116 C 
BRANCH   2   3
ATOM      3  N   UNL     1       2.625  -1.115  -0.308  1.00  0.00    -0.356 N 
ATOM      4  O   UNL     1       0.780   0.128   0.273  1.00  0.00    -0.275 OA
ATOM      5  C   UNL     1       1.962   0.071  -0.049  1.00  0.00     0.224 C 
ATOM      6  H   UNL     1       3.542  -1.074  -0.665  1.00  0.00     0.163 HD
BRANCH   5   7
ATOM      7  C   UNL     1       2.841   1.314  -0.190  1.00  0.00     0.137 C 
BRANCH   7   8
ATOM      8  C   UNL     1       3.724   1.510   1.006  1.00  0.00    -0.021 A 
ATOM      9  C   UNL     1       3.858   2.682   1.801  1.00  0.00     0.024 A 
ATOM     10  C   UNL     1       4.577   0.579   1.565  1.00  0.00     0.095 A 
ATOM     11  C   UNL     1       4.672   2.376   2.873  1.00  0.00     0.091 A 
ATOM     12  N   UNL     1       5.109   1.080   2.732  1.00  0.00    -0.321 N 
BRANCH  12  13
ATOM     13  C   UNL     1       5.850   0.311   3.650  1.00  0.00     0.081 A 
ATOM     14  C   UNL     1       5.546   0.371   5.013  1.00  0.00     0.030 A 
ATOM     15  C   UNL     1       6.792  -0.608   3.178  1.00  0.00     0.147 A 
ATOM     16  C   UNL     1       6.146  -0.545   5.881  1.00  0.00     0.002 A 
ATOM     17  C   UNL     1       7.424  -1.479   4.052  1.00  0.00     0.041 A 
ATOM     18  F   UNL     1       7.129  -0.654   1.881  1.00  0.00    -0.205 F 
ATOM     19  C   UNL     1       7.080  -1.468   5.399  1.00  0.00     0.003 A 
ENDBRANCH  12  13
ENDBRANCH   7   8
ENDBRANCH   5   7
ENDBRANCH   2   3
ENDBRANCH   1   2
BRANCH   1  20
ATOM     20  C   UNL     1       4.013  -3.744  -1.090  1.00  0.00     0.023 C 
BRANCH  20  21
ATOM     21  C   UNL     1       4.543  -4.416   0.184  1.00  0.00     0.116 C 
BRANCH  21  22
ATOM     22  N   UNL     1       4.112  -5.800   0.266  1.00  0.00    -0.352 N 
ATOM     23  C   UNL     1       4.542  -6.839   1.054  1.00  0.00     0.251 C 
ATOM     24  H   UNL     1       3.384  -6.035  -0.353  1.00  0.00     0.163 HD
ATOM     25  O   UNL     1       4.289  -7.980   0.680  1.00  0.00    -0.269 OA
BRANCH  23  26
ATOM     26  C   UNL     1       5.295  -6.652   2.323  1.00  0.00     0.039 A 
ATOM     27  C   UNL     1       6.167  -7.686   2.706  1.00  0.00     0.014 A 
ATOM     28  C   UNL     1       5.100  -5.572   3.190  1.00  0.00     0.014 A 
ATOM     29  C   UNL     1       6.872  -7.617   3.909  1.00  0.00     0.010 A 
ATOM     30  C   UNL     1       5.816  -5.490   4.393  1.00  0.00     0.010 A 
ATOM     31  C   UNL     1       6.728  -6.497   4.740  1.00  0.00    -0.014 A 
BRANCH  31  32
ATOM     32  C   UNL     1       7.776  -6.256   5.774  1.00  0.00     0.031 A 
ATOM     33  C   UNL     1       9.032  -5.597   5.145  1.00  0.00     0.074 A 
ATOM     34  C   UNL     1       7.535  -6.644   7.066  1.00  0.00     0.049 A 
ATOM     35  N   UNL     1      10.215  -5.401   5.642  1.00  0.00    -0.248 NA
ATOM     36  C   UNL     1       8.961  -5.075   3.747  1.00  0.00     0.031 C 
ATOM     37  C   UNL     1       6.246  -7.168   7.560  1.00  0.00     0.029 A 
ATOM     38  N   UNL     1       8.298  -6.674   8.226  1.00  0.00    -0.354 N 
ATOM     39  C   UNL     1      10.945  -4.611   4.724  1.00  0.00     0.074 A 
ATOM     40  C   UNL     1      10.144  -4.494   3.550  1.00  0.00     0.031 C 
ATOM     41  C   UNL     1       6.335  -7.533   8.860  1.00  0.00     0.029 A 
ATOM     42  C   UNL     1       7.675  -7.277   9.357  1.00  0.00     0.049 A 
ATOM     43  H   UNL     1       9.209  -6.303   8.265  1.00  0.00     0.167 HD
ATOM     44  C   UNL     1      12.138  -4.022   5.029  1.00  0.00     0.037 A 
ATOM     45  C   UNL     1       8.202  -7.577  10.591  1.00  0.00     0.037 A 
ATOM     46  C   UNL     1      12.618  -4.526   6.263  1.00  0.00     0.049 A 
ATOM     47  C   UNL     1       9.508  -6.914  10.627  1.00  0.00     0.074 A 
ATOM     48  C   UNL     1      13.167  -5.735   6.594  1.00  0.00     0.029 A 
ATOM     49  N   UNL     1      12.240  -3.864   7.400  1.00  0.00    -0.354 N 
ATOM     50  N   UNL     1       9.680  -5.643  10.836  1.00  0.00    -0.248 NA
ATOM     51  C   UNL     1      10.716  -7.712  10.381  1.00  0.00     0.031 C 
ATOM     52  C   UNL     1      12.703  -5.960   7.901  1.00  0.00     0.029 A 
ATOM     53  C   UNL     1      12.080  -4.805   8.384  1.00  0.00     0.049 A 
ATOM     54  H   UNL     1      12.107  -2.893   7.494  1.00  0.00     0.167 HD
ATOM     55  C   UNL     1      10.963  -5.458  10.387  1.00  0.00     0.074 A 
ATOM     56  C   UNL     1      11.621  -6.741  10.467  1.00  0.00     0.031 C 
ATOM     57  C   UNL     1      11.209  -4.481   9.481  1.00  0.00     0.037 A 
BRANCH  44  58
ATOM     58  C   UNL     1      12.886  -2.877   4.406  1.00  0.00     0.057 A 
ATOM     59  C   UNL     1      12.253  -1.796   3.783  1.00  0.00     0.134 A 
ATOM     60  C   UNL     1      14.239  -2.671   4.768  1.00  0.00     0.134 A 
ATOM     61  F   UNL     1      10.971  -1.865   3.402  1.00  0.00    -0.206 F 
ATOM     62  C   UNL     1      12.895  -0.560   3.618  1.00  0.00     0.040 A 
ATOM     63  C   UNL     1      14.872  -1.431   4.650  1.00  0.00     0.040 A 
ATOM     64  F   UNL     1      14.967  -3.652   5.325  1.00  0.00    -0.206 F 
ATOM     65  C   UNL     1      14.189  -0.362   4.093  1.00  0.00     0.006 A 
ENDBRANCH  44  58
BRANCH  45  66
ATOM     66  C   UNL     1       7.858  -8.365  11.847  1.00  0.00     0.057 A 
ATOM     67  C   UNL     1       8.870  -8.660  12.813  1.00  0.00     0.134 A 
ATOM     68  C   UNL     1       6.619  -8.925  12.163  1.00  0.00     0.134 A 
ATOM     69  F   UNL     1      10.083  -8.094  12.775  1.00  0.00    -0.206 F 
ATOM     70  C   UNL     1       8.716  -9.550  13.881  1.00  0.00     0.040 A 
ATOM     71  C   UNL     1       6.436  -9.792  13.266  1.00  0.00     0.040 A 
ATOM     72  F   UNL     1       5.528  -8.649  11.442  1.00  0.00    -0.206 F 
ATOM     73  C   UNL     1       7.493 -10.142  14.102  1.00  0.00     0.006 A 
ENDBRANCH  45  66
BRANCH  57  74
ATOM     74  C   UNL     1      10.234  -3.333   9.541  1.00  0.00     0.057 A 
ATOM     75  C   UNL     1       9.119  -3.202   8.701  1.00  0.00     0.134 A 
ATOM     76  C   UNL     1      10.328  -2.412  10.590  1.00  0.00     0.134 A 
ATOM     77  F   UNL     1       8.950  -4.007   7.649  1.00  0.00    -0.206 F 
ATOM     78  C   UNL     1       8.131  -2.233   8.919  1.00  0.00     0.040 A 
ATOM     79  C   UNL     1       9.366  -1.416  10.796  1.00  0.00     0.040 A 
ATOM     80  F   UNL     1      11.361  -2.472  11.444  1.00  0.00    -0.206 F 
ATOM     81  C   UNL     1       8.255  -1.329   9.964  1.00  0.00     0.006 A 
ENDBRANCH  57  74
ENDBRANCH  31  32
ENDBRANCH  23  26
ENDBRANCH  21  22
ENDBRANCH  20  21
ENDBRANCH   1  20
TORSDOF 13
