REMARK SMILES CCCC[C@@H](Sc1nc(OCCC2CCCCC2)cc(OCCC2CCCCC2)n1)C(=O)NCCCCNC(=O)c1ccc(-c2c3nc(c(-c4c(F)cccc4F)c4ccc([nH]4)c(-c4c(F)cccc4F)c4nc(c(-c5c(F)cccc5F)c5ccc2[nH]5)C=C4)C=C3)cc1
REMARK SMILES IDX 31 1 32 2 33 3 5 5 4 6 3 7 2 8 1 9 6 10 7 11 8 12 30 13 9 14
REMARK SMILES IDX 20 15 19 16 10 17 11 18 12 19 13 20 14 21 18 22 15 23 17 24
REMARK SMILES IDX 16 25 21 26 22 27 23 28 24 29 25 30 29 31 26 32 28 33 27 34
REMARK SMILES IDX 34 35 35 36 36 37 37 38 38 39 39 40 40 42 41 43 42 44 94 45
REMARK SMILES IDX 43 46 93 47 44 48 45 49 46 50 87 51 47 52 92 53 86 54 88 55
REMARK SMILES IDX 48 56 91 57 85 58 84 59 49 61 75 62 58 63 74 64 59 65 62 66
REMARK SMILES IDX 73 67 89 68 60 69 61 70 72 72 90 73 63 74 50 75 51 76 56 77
REMARK SMILES IDX 52 78 53 79 55 80 57 81 54 82 76 83 77 84 82 85 78 86 79 87
REMARK SMILES IDX 81 88 83 89 80 90 64 91 65 92 70 93 66 94 67 95 69 96 71 97
REMARK SMILES IDX 68 98
REMARK H PARENT 33 4 38 41 88 60 62 71
REMARK Flexibility Score: inf
ROOT
ATOM      1  C   UNL     1      -1.348   0.602  -3.645  1.00  0.00     0.233 C 
ATOM      2  O   UNL     1      -1.899  -0.498  -3.745  1.00  0.00    -0.274 OA
ATOM      3  N   UNL     1      -1.147   1.314  -4.800  1.00  0.00    -0.355 N 
ATOM      4  H   UNL     1      -1.488   0.878  -5.615  1.00  0.00     0.163 HD
ENDROOT
BRANCH   1   5
ATOM      5  C   UNL     1      -0.928   1.166  -2.260  1.00  0.00     0.144 C 
BRANCH   5   6
ATOM      6  C   UNL     1       0.605   1.349  -2.282  1.00  0.00     0.025 C 
BRANCH   6   7
ATOM      7  C   UNL     1       1.437   1.455  -1.003  1.00  0.00     0.001 C 
BRANCH   7   8
ATOM      8  C   UNL     1       0.967   0.666   0.211  1.00  0.00    -0.003 C 
ATOM      9  C   UNL     1       1.254  -0.818   0.074  1.00  0.00     0.004 C 
ENDBRANCH   7   8
ENDBRANCH   6   7
ENDBRANCH   5   6
BRANCH   5  10
ATOM     10  S   UNL     1      -2.223   2.456  -1.970  1.00  0.00    -0.073 SA
BRANCH  10  11
ATOM     11  C   UNL     1      -1.679   3.550  -0.716  1.00  0.00     0.195 A 
ATOM     12  N   UNL     1      -2.530   4.562  -0.487  1.00  0.00    -0.187 NA
ATOM     13  N   UNL     1      -0.472   3.443  -0.168  1.00  0.00    -0.187 NA
ATOM     14  C   UNL     1      -2.073   5.601   0.211  1.00  0.00     0.221 A 
ATOM     15  C   UNL     1      -0.040   4.521   0.491  1.00  0.00     0.221 A 
ATOM     16  C   UNL     1      -0.760   5.682   0.565  1.00  0.00     0.136 A 
BRANCH  14  17
ATOM     17  O   UNL     1      -3.042   6.497   0.564  1.00  0.00    -0.477 OA
BRANCH  17  18
ATOM     18  C   UNL     1      -2.842   7.295   1.733  1.00  0.00     0.231 C 
BRANCH  18  19
ATOM     19  C   UNL     1      -3.272   6.680   3.086  1.00  0.00     0.045 C 
BRANCH  19  20
ATOM     20  C   UNL     1      -2.685   5.302   3.437  1.00  0.00    -0.008 C 
ATOM     21  C   UNL     1      -2.572   5.070   4.957  1.00  0.00     0.004 C 
ATOM     22  C   UNL     1      -3.506   4.149   2.845  1.00  0.00     0.004 C 
ATOM     23  C   UNL     1      -1.925   3.715   5.272  1.00  0.00     0.000 C 
ATOM     24  C   UNL     1      -2.773   2.828   3.049  1.00  0.00     0.000 C 
ATOM     25  C   UNL     1      -2.578   2.546   4.534  1.00  0.00     0.000 C 
ENDBRANCH  19  20
ENDBRANCH  18  19
ENDBRANCH  17  18
ENDBRANCH  14  17
BRANCH  15  26
ATOM     26  O   UNL     1       1.237   4.479   1.015  1.00  0.00    -0.477 OA
BRANCH  26  27
ATOM     27  C   UNL     1       1.238   4.211   2.431  1.00  0.00     0.231 C 
BRANCH  27  28
ATOM     28  C   UNL     1       2.243   5.116   3.189  1.00  0.00     0.045 C 
BRANCH  28  29
ATOM     29  C   UNL     1       2.228   6.586   2.740  1.00  0.00    -0.008 C 
ATOM     30  C   UNL     1       0.898   7.290   3.018  1.00  0.00     0.004 C 
ATOM     31  C   UNL     1       3.309   7.472   3.378  1.00  0.00     0.004 C 
ATOM     32  C   UNL     1       0.858   8.547   2.149  1.00  0.00     0.000 C 
ATOM     33  C   UNL     1       3.305   8.874   2.736  1.00  0.00     0.000 C 
ATOM     34  C   UNL     1       1.920   9.522   2.627  1.00  0.00     0.000 C 
ENDBRANCH  28  29
ENDBRANCH  27  28
ENDBRANCH  26  27
ENDBRANCH  15  26
ENDBRANCH  10  11
ENDBRANCH   5  10
ENDBRANCH   1   5
BRANCH   3  35
ATOM     35  C   UNL     1      -0.515   2.606  -5.021  1.00  0.00     0.116 C 
BRANCH  35  36
ATOM     36  C   UNL     1       0.875   2.442  -5.641  1.00  0.00     0.023 C 
BRANCH  36  37
ATOM     37  C   UNL     1       0.857   1.954  -7.089  1.00  0.00     0.023 C 
BRANCH  37  38
ATOM     38  C   UNL     1       0.142   2.883  -8.059  1.00  0.00     0.116 C 
BRANCH  38  39
ATOM     39  N   UNL     1       0.775   4.191  -8.170  1.00  0.00    -0.352 N 
ATOM     40  C   UNL     1       0.987   4.927  -9.312  1.00  0.00     0.251 C 
ATOM     41  H   UNL     1       1.088   4.595  -7.329  1.00  0.00     0.163 HD
ATOM     42  O   UNL     1       1.642   5.964  -9.290  1.00  0.00    -0.269 OA
BRANCH  40  43
ATOM     43  C   UNL     1       0.436   4.416 -10.581  1.00  0.00     0.039 A 
ATOM     44  C   UNL     1       1.294   4.200 -11.661  1.00  0.00     0.014 A 
ATOM     45  C   UNL     1      -0.911   4.053 -10.652  1.00  0.00     0.014 A 
ATOM     46  C   UNL     1       0.815   3.542 -12.794  1.00  0.00     0.010 A 
ATOM     47  C   UNL     1      -1.364   3.330 -11.747  1.00  0.00     0.010 A 
ATOM     48  C   UNL     1      -0.505   3.063 -12.826  1.00  0.00    -0.014 A 
BRANCH  48  49
ATOM     49  C   UNL     1      -1.035   2.289 -13.975  1.00  0.00     0.031 A 
ATOM     50  C   UNL     1      -2.187   2.843 -14.764  1.00  0.00     0.074 A 
ATOM     51  C   UNL     1      -0.561   1.056 -14.239  1.00  0.00     0.049 A 
ATOM     52  N   UNL     1      -2.920   2.264 -15.680  1.00  0.00    -0.248 NA
ATOM     53  C   UNL     1      -2.590   4.224 -14.454  1.00  0.00     0.031 C 
ATOM     54  C   UNL     1       0.536   0.396 -13.528  1.00  0.00     0.029 A 
ATOM     55  N   UNL     1      -0.963   0.125 -15.164  1.00  0.00    -0.354 N 
ATOM     56  C   UNL     1      -3.883   3.199 -16.034  1.00  0.00     0.074 A 
ATOM     57  C   UNL     1      -3.674   4.363 -15.202  1.00  0.00     0.031 C 
ATOM     58  C   UNL     1       0.724  -0.827 -14.049  1.00  0.00     0.029 A 
ATOM     59  C   UNL     1      -0.268  -1.059 -15.094  1.00  0.00     0.049 A 
ATOM     60  H   UNL     1      -1.682   0.290 -15.817  1.00  0.00     0.167 HD
ATOM     61  C   UNL     1      -4.845   3.102 -16.982  1.00  0.00     0.037 A 
ATOM     62  C   UNL     1      -0.431  -2.208 -15.778  1.00  0.00     0.037 A 
ATOM     63  C   UNL     1      -5.030   1.952 -17.825  1.00  0.00     0.049 A 
ATOM     64  C   UNL     1      -1.523  -2.300 -16.809  1.00  0.00     0.074 A 
ATOM     65  C   UNL     1      -5.943   1.773 -18.849  1.00  0.00     0.029 A 
ATOM     66  N   UNL     1      -4.286   0.785 -17.741  1.00  0.00    -0.354 N 
ATOM     67  N   UNL     1      -2.399  -1.393 -17.169  1.00  0.00    -0.248 NA
ATOM     68  C   UNL     1      -1.653  -3.576 -17.529  1.00  0.00     0.031 C 
ATOM     69  C   UNL     1      -5.781   0.481 -19.356  1.00  0.00     0.029 A 
ATOM     70  C   UNL     1      -4.731  -0.125 -18.684  1.00  0.00     0.049 A 
ATOM     71  H   UNL     1      -3.551   0.627 -17.105  1.00  0.00     0.167 HD
ATOM     72  C   UNL     1      -3.154  -1.972 -18.182  1.00  0.00     0.074 A 
ATOM     73  C   UNL     1      -2.634  -3.309 -18.379  1.00  0.00     0.031 C 
ATOM     74  C   UNL     1      -4.181  -1.441 -18.887  1.00  0.00     0.037 A 
BRANCH  61  75
ATOM     75  C   UNL     1      -5.767   4.273 -17.154  1.00  0.00     0.057 A 
ATOM     76  C   UNL     1      -5.324   5.490 -17.690  1.00  0.00     0.134 A 
ATOM     77  C   UNL     1      -7.120   4.174 -16.807  1.00  0.00     0.134 A 
ATOM     78  F   UNL     1      -4.037   5.655 -18.031  1.00  0.00    -0.206 F 
ATOM     79  C   UNL     1      -6.188   6.575 -17.846  1.00  0.00     0.040 A 
ATOM     80  C   UNL     1      -7.999   5.243 -16.986  1.00  0.00     0.040 A 
ATOM     81  F   UNL     1      -7.611   3.036 -16.294  1.00  0.00    -0.206 F 
ATOM     82  C   UNL     1      -7.531   6.450 -17.500  1.00  0.00     0.006 A 
ENDBRANCH  61  75
BRANCH  62  83
ATOM     83  C   UNL     1       0.467  -3.363 -15.522  1.00  0.00     0.057 A 
ATOM     84  C   UNL     1       1.398  -3.778 -16.482  1.00  0.00     0.134 A 
ATOM     85  C   UNL     1       0.409  -4.089 -14.326  1.00  0.00     0.134 A 
ATOM     86  F   UNL     1       1.488  -3.135 -17.655  1.00  0.00    -0.206 F 
ATOM     87  C   UNL     1       2.224  -4.883 -16.272  1.00  0.00     0.040 A 
ATOM     88  C   UNL     1       1.247  -5.181 -14.092  1.00  0.00     0.040 A 
ATOM     89  F   UNL     1      -0.457  -3.740 -13.363  1.00  0.00    -0.206 F 
ATOM     90  C   UNL     1       2.152  -5.586 -15.071  1.00  0.00     0.006 A 
ENDBRANCH  62  83
BRANCH  74  91
ATOM     91  C   UNL     1      -4.777  -2.273 -19.984  1.00  0.00     0.057 A 
ATOM     92  C   UNL     1      -5.615  -3.362 -19.720  1.00  0.00     0.134 A 
ATOM     93  C   UNL     1      -4.573  -1.921 -21.325  1.00  0.00     0.134 A 
ATOM     94  F   UNL     1      -5.840  -3.756 -18.457  1.00  0.00    -0.206 F 
ATOM     95  C   UNL     1      -6.223  -4.078 -20.752  1.00  0.00     0.040 A 
ATOM     96  C   UNL     1      -5.196  -2.613 -22.364  1.00  0.00     0.040 A 
ATOM     97  F   UNL     1      -3.788  -0.881 -21.645  1.00  0.00    -0.206 F 
ATOM     98  C   UNL     1      -6.023  -3.697 -22.078  1.00  0.00     0.006 A 
ENDBRANCH  74  91
ENDBRANCH  48  49
ENDBRANCH  40  43
ENDBRANCH  38  39
ENDBRANCH  37  38
ENDBRANCH  36  37
ENDBRANCH  35  36
ENDBRANCH   3  35
TORSDOF 24
