REMARK SMILES CCC(CC)(NC(=O)N(C)C1CC[NH2+]CC1)C(=O)NCCCCNC(=O)c1ccc(-c2c3nc(c(-c4c(F)cccc4F)c4ccc([nH]4)c(-c4c(F)cccc4F)c4nc(c(-c5c(F)cccc5F)c5ccc2[nH]5)C=C4)C=C3)cc1
REMARK SMILES IDX 21 1 20 2 19 3 17 4 18 5 3 7 2 8 1 9 4 10 5 11 6 12 7 13
REMARK SMILES IDX 8 15 9 16 10 17 11 18 12 19 16 20 13 21 15 22 14 23 22 26
REMARK SMILES IDX 23 27 24 28 25 29 26 31 27 32 28 33 80 34 29 35 79 36 30 37
REMARK SMILES IDX 31 38 32 39 73 40 33 41 78 42 72 43 74 44 34 45 77 46 71 47
REMARK SMILES IDX 70 48 35 50 61 51 44 52 60 53 45 54 48 55 59 56 75 57 46 58
REMARK SMILES IDX 47 59 58 61 76 62 49 63 36 64 37 65 42 66 38 67 39 68 41 69
REMARK SMILES IDX 43 70 40 71 62 72 63 73 68 74 64 75 65 76 67 77 69 78 66 79
REMARK SMILES IDX 50 80 51 81 56 82 52 83 53 84 55 85 57 86 54 87
REMARK H PARENT 19 6 6 14 14 24 14 25 24 30 74 49 48 60
REMARK Flexibility Score: inf
ROOT
ATOM      1  C   UNL     1       2.553   5.790  -2.545  1.00  0.00     0.023 C 
ENDROOT
BRANCH   1   2
ATOM      2  C   UNL     1       1.813   4.474  -2.746  1.00  0.00     0.116 C 
BRANCH   2   3
ATOM      3  N   UNL     1       2.538   3.299  -2.276  1.00  0.00    -0.354 N 
ATOM      4  C   UNL     1       2.178   2.310  -1.392  1.00  0.00     0.245 C 
ATOM      5  O   UNL     1       2.899   1.309  -1.378  1.00  0.00    -0.272 OA
ATOM      6  H   UNL     1       3.440   3.197  -2.656  1.00  0.00     0.163 HD
BRANCH   4   7
ATOM      7  C   UNL     1       0.858   2.413  -0.552  1.00  0.00     0.120 C 
BRANCH   7   8
ATOM      8  C   UNL     1       0.568   1.341   0.549  1.00  0.00     0.035 C 
ATOM      9  C   UNL     1       0.857  -0.114   0.200  1.00  0.00     0.007 C 
ENDBRANCH   7   8
BRANCH   7  10
ATOM     10  C   UNL     1      -0.277   2.251  -1.642  1.00  0.00     0.035 C 
ATOM     11  C   UNL     1      -1.715   2.527  -1.223  1.00  0.00     0.007 C 
ENDBRANCH   7  10
BRANCH   7  12
ATOM     12  N   UNL     1       0.864   3.762   0.095  1.00  0.00    -0.323 N 
ATOM     13  C   UNL     1       1.679   4.509   0.886  1.00  0.00     0.318 C 
ATOM     14  H   UNL     1       0.036   4.251  -0.113  1.00  0.00     0.166 HD
ATOM     15  O   UNL     1       1.139   5.538   1.304  1.00  0.00    -0.249 OA
BRANCH  13  16
ATOM     16  N   UNL     1       3.004   4.222   1.145  1.00  0.00    -0.324 N 
ATOM     17  C   UNL     1       3.517   2.861   1.245  1.00  0.00     0.149 C 
BRANCH  16  18
ATOM     18  C   UNL     1       3.881   5.230   1.864  1.00  0.00     0.097 C 
ATOM     19  C   UNL     1       3.769   6.736   1.516  1.00  0.00     0.086 C 
ATOM     20  C   UNL     1       5.396   4.895   1.803  1.00  0.00     0.086 C 
ATOM     21  C   UNL     1       4.581   7.197   0.306  1.00  0.00     0.262 C 
ATOM     22  C   UNL     1       5.971   5.229   0.431  1.00  0.00     0.262 C 
ATOM     23  N   UNL     1       5.941   6.672   0.233  1.00  0.00    -0.346 N 
ATOM     24  H   UNL     1       6.506   7.117   0.956  1.00  0.00     0.346 HD
ATOM     25  H   UNL     1       6.311   6.874  -0.696  1.00  0.00     0.346 HD
ENDBRANCH  16  18
ENDBRANCH  13  16
ENDBRANCH   7  12
ENDBRANCH   4   7
ENDBRANCH   2   3
ENDBRANCH   1   2
BRANCH   1  26
ATOM     26  C   UNL     1       3.983   5.823  -3.084  1.00  0.00     0.023 C 
BRANCH  26  27
ATOM     27  C   UNL     1       4.053   5.702  -4.600  1.00  0.00     0.116 C 
BRANCH  27  28
ATOM     28  N   UNL     1       3.898   6.986  -5.256  1.00  0.00    -0.352 N 
ATOM     29  C   UNL     1       4.742   8.055  -5.426  1.00  0.00     0.251 C 
ATOM     30  H   UNL     1       3.010   7.116  -5.661  1.00  0.00     0.163 HD
ATOM     31  O   UNL     1       4.254   9.093  -5.873  1.00  0.00    -0.269 OA
BRANCH  29  32
ATOM     32  C   UNL     1       6.195   8.034  -5.092  1.00  0.00     0.039 A 
ATOM     33  C   UNL     1       6.816   9.266  -4.825  1.00  0.00     0.014 A 
ATOM     34  C   UNL     1       6.996   6.894  -5.155  1.00  0.00     0.014 A 
ATOM     35  C   UNL     1       8.204   9.352  -4.654  1.00  0.00     0.010 A 
ATOM     36  C   UNL     1       8.367   6.963  -4.892  1.00  0.00     0.010 A 
ATOM     37  C   UNL     1       8.997   8.198  -4.692  1.00  0.00    -0.014 A 
BRANCH  37  38
ATOM     38  C   UNL     1      10.484   8.262  -4.638  1.00  0.00     0.031 A 
ATOM     39  C   UNL     1      11.298   7.781  -5.816  1.00  0.00     0.074 A 
ATOM     40  C   UNL     1      11.114   8.705  -3.534  1.00  0.00     0.049 A 
ATOM     41  N   UNL     1      12.595   7.626  -5.923  1.00  0.00    -0.248 NA
ATOM     42  C   UNL     1      10.550   7.393  -7.023  1.00  0.00     0.031 C 
ATOM     43  C   UNL     1      10.460   9.178  -2.315  1.00  0.00     0.029 A 
ATOM     44  N   UNL     1      12.455   8.816  -3.259  1.00  0.00    -0.354 N 
ATOM     45  C   UNL     1      12.809   7.084  -7.186  1.00  0.00     0.074 A 
ATOM     46  C   UNL     1      11.509   6.903  -7.794  1.00  0.00     0.031 C 
ATOM     47  C   UNL     1      11.400   9.545  -1.428  1.00  0.00     0.029 A 
ATOM     48  C   UNL     1      12.721   9.297  -2.001  1.00  0.00     0.049 A 
ATOM     49  H   UNL     1      13.159   8.573  -3.903  1.00  0.00     0.167 HD
ATOM     50  C   UNL     1      13.981   6.784  -7.796  1.00  0.00     0.037 A 
ATOM     51  C   UNL     1      13.894   9.505  -1.374  1.00  0.00     0.037 A 
ATOM     52  C   UNL     1      15.280   7.025  -7.227  1.00  0.00     0.049 A 
ATOM     53  C   UNL     1      15.183   9.197  -2.084  1.00  0.00     0.074 A 
ATOM     54  C   UNL     1      16.524   6.811  -7.795  1.00  0.00     0.029 A 
ATOM     55  N   UNL     1      15.501   7.550  -5.964  1.00  0.00    -0.354 N 
ATOM     56  N   UNL     1      15.369   8.706  -3.284  1.00  0.00    -0.248 NA
ATOM     57  C   UNL     1      16.427   9.476  -1.350  1.00  0.00     0.031 C 
ATOM     58  C   UNL     1      17.500   7.188  -6.865  1.00  0.00     0.029 A 
ATOM     59  C   UNL     1      16.862   7.664  -5.732  1.00  0.00     0.049 A 
ATOM     60  H   UNL     1      14.796   7.805  -5.326  1.00  0.00     0.167 HD
ATOM     61  C   UNL     1      16.746   8.636  -3.457  1.00  0.00     0.074 A 
ATOM     62  C   UNL     1      17.348   9.148  -2.244  1.00  0.00     0.031 C 
ATOM     63  C   UNL     1      17.447   8.185  -4.525  1.00  0.00     0.037 A 
BRANCH  50  64
ATOM     64  C   UNL     1      13.912   6.167  -9.163  1.00  0.00     0.057 A 
ATOM     65  C   UNL     1      13.541   6.910 -10.291  1.00  0.00     0.134 A 
ATOM     66  C   UNL     1      14.254   4.823  -9.358  1.00  0.00     0.134 A 
ATOM     67  F   UNL     1      13.189   8.199 -10.171  1.00  0.00    -0.206 F 
ATOM     68  C   UNL     1      13.488   6.331 -11.560  1.00  0.00     0.040 A 
ATOM     69  C   UNL     1      14.229   4.240 -10.626  1.00  0.00     0.040 A 
ATOM     70  F   UNL     1      14.626   4.057  -8.321  1.00  0.00    -0.206 F 
ATOM     71  C   UNL     1      13.839   4.993 -11.731  1.00  0.00     0.006 A 
ENDBRANCH  50  64
BRANCH  51  72
ATOM     72  C   UNL     1      13.906  10.050   0.005  1.00  0.00     0.057 A 
ATOM     73  C   UNL     1      14.303  11.369   0.254  1.00  0.00     0.134 A 
ATOM     74  C   UNL     1      13.524   9.270   1.102  1.00  0.00     0.134 A 
ATOM     75  F   UNL     1      14.701  12.155  -0.757  1.00  0.00    -0.206 F 
ATOM     76  C   UNL     1      14.333  11.890   1.548  1.00  0.00     0.040 A 
ATOM     77  C   UNL     1      13.527   9.785   2.399  1.00  0.00     0.040 A 
ATOM     78  F   UNL     1      13.131   8.000   0.926  1.00  0.00    -0.206 F 
ATOM     79  C   UNL     1      13.938  11.098   2.625  1.00  0.00     0.006 A 
ENDBRANCH  51  72
BRANCH  63  80
ATOM     80  C   UNL     1      18.942   8.253  -4.443  1.00  0.00     0.057 A 
ATOM     81  C   UNL     1      19.678   7.348  -3.669  1.00  0.00     0.134 A 
ATOM     82  C   UNL     1      19.654   9.209  -5.178  1.00  0.00     0.134 A 
ATOM     83  F   UNL     1      19.053   6.417  -2.934  1.00  0.00    -0.206 F 
ATOM     84  C   UNL     1      21.072   7.404  -3.615  1.00  0.00     0.040 A 
ATOM     85  C   UNL     1      21.047   9.261  -5.148  1.00  0.00     0.040 A 
ATOM     86  F   UNL     1      19.006  10.099  -5.945  1.00  0.00    -0.206 F 
ATOM     87  C   UNL     1      21.760   8.359  -4.361  1.00  0.00     0.006 A 
ENDBRANCH  63  80
ENDBRANCH  37  38
ENDBRANCH  29  32
ENDBRANCH  27  28
ENDBRANCH  26  27
ENDBRANCH   1  26
TORSDOF 16
