REMARK SMILES Cc1c(Cl)cccc1NC(=O)C[C@H](C(=O)NCCCCNC(=O)c1ccc(-c2c3nc(c(-c4c(F)cccc4F)c4ccc([nH]4)c(-c4c(F)cccc4F)c4nc(c(-c5c(F)cccc5F)c5ccc2[nH]5)C=C4)C=C3)cc1)[C@H](C)c1ccccc1
REMARK SMILES IDX 18 1 17 2 16 3 14 4 15 5 13 7 12 8 10 9 9 10 11 12 8 13 1 14
REMARK SMILES IDX 2 15 3 16 4 17 5 18 7 19 6 20 78 21 79 22 80 23 81 24 85 25
REMARK SMILES IDX 82 26 84 27 83 28 19 29 20 30 21 31 22 32 23 34 24 35 25 36
REMARK SMILES IDX 77 37 26 38 76 39 27 40 28 41 29 42 70 43 30 44 75 45 69 46
REMARK SMILES IDX 71 47 31 48 74 49 68 50 67 51 32 53 58 54 41 55 57 56 42 57
REMARK SMILES IDX 45 58 56 59 72 60 43 61 44 62 55 64 73 65 46 66 33 67 34 68
REMARK SMILES IDX 39 69 35 70 36 71 38 72 40 73 37 74 59 75 60 76 65 77 61 78
REMARK SMILES IDX 62 79 64 80 66 81 63 82 47 83 48 84 53 85 49 86 50 87 52 88
REMARK SMILES IDX 54 89 51 90
REMARK H PARENT 16 6 9 11 21 33 71 52 45 63
REMARK Flexibility Score: inf
ROOT
ATOM      1  C   UNL     1      -4.565   0.426   2.684  1.00  0.00     0.023 C 
ENDROOT
BRANCH   1   2
ATOM      2  C   UNL     1      -4.909  -0.752   0.877  1.00  0.00     0.116 C 
BRANCH   2   3
ATOM      3  N   UNL     1      -6.246  -1.400   0.257  1.00  0.00    -0.356 N 
ATOM      4  C   UNL     1      -6.909  -1.228  -0.917  1.00  0.00     0.224 C 
ATOM      5  O   UNL     1      -7.986  -1.815  -1.050  1.00  0.00    -0.275 OA
ATOM      6  H   UNL     1      -6.672  -2.058   0.852  1.00  0.00     0.163 HD
BRANCH   4   7
ATOM      7  C   UNL     1      -6.371  -0.310  -2.007  1.00  0.00     0.095 C 
BRANCH   7   8
ATOM      8  C   UNL     1      -6.793   1.132  -1.624  1.00  0.00     0.114 C 
BRANCH   8   9
ATOM      9  C   UNL     1      -5.812   2.247  -1.341  1.00  0.00     0.225 C 
ATOM     10  N   UNL     1      -5.158   2.369  -0.147  1.00  0.00    -0.326 N 
ATOM     11  H   UNL     1      -4.772   3.250   0.062  1.00  0.00     0.169 HD
ATOM     12  O   UNL     1      -5.559   3.084  -2.214  1.00  0.00    -0.275 OA
BRANCH  10  13
ATOM     13  C   UNL     1      -4.985   1.362   0.801  1.00  0.00     0.045 A 
ATOM     14  C   UNL     1      -2.133   1.468   0.438  1.00  0.00     0.048 C 
ATOM     15  C   UNL     1      -3.311   0.704   0.971  1.00  0.00    -0.009 A 
ATOM     16  C   UNL     1      -3.032  -0.821   1.878  1.00  0.00     0.046 A 
ATOM     17  Cl  UNL     1      -1.453  -1.486   1.996  1.00  0.00    -0.084 Cl
ATOM     18  C   UNL     1      -4.410  -1.671   2.670  1.00  0.00     0.021 A 
ATOM     19  C   UNL     1      -6.366   0.552   1.632  1.00  0.00     0.026 A 
ATOM     20  C   UNL     1      -6.080  -0.979   2.574  1.00  0.00     0.004 A 
ENDBRANCH  10  13
ENDBRANCH   8   9
ENDBRANCH   7   8
BRANCH   7  21
ATOM     21  C   UNL     1      -4.945  -0.794  -2.428  1.00  0.00     0.029 C 
ATOM     22  C   UNL     1      -3.845   0.253  -2.590  1.00  0.00     0.013 C 
BRANCH  21  23
ATOM     23  C   UNL     1      -4.916  -1.825  -3.564  1.00  0.00    -0.044 A 
ATOM     24  C   UNL     1      -5.312  -3.149  -3.299  1.00  0.00     0.004 A 
ATOM     25  C   UNL     1      -4.313  -1.546  -4.798  1.00  0.00     0.004 A 
ATOM     26  C   UNL     1      -5.013  -4.175  -4.197  1.00  0.00     0.000 A 
ATOM     27  C   UNL     1      -3.999  -2.575  -5.685  1.00  0.00     0.000 A 
ATOM     28  C   UNL     1      -4.328  -3.891  -5.375  1.00  0.00     0.000 A 
ENDBRANCH  21  23
ENDBRANCH   7  21
ENDBRANCH   4   7
ENDBRANCH   2   3
ENDBRANCH   1   2
BRANCH   1  29
ATOM     29  C   UNL     1      -5.019   0.344   4.340  1.00  0.00     0.023 C 
BRANCH  29  30
ATOM     30  C   UNL     1      -4.439  -0.717   5.267  1.00  0.00     0.116 C 
BRANCH  30  31
ATOM     31  N   UNL     1      -3.000  -0.903   5.129  1.00  0.00    -0.352 N 
ATOM     32  C   UNL     1      -2.194  -1.716   5.882  1.00  0.00     0.251 C 
ATOM     33  H   UNL     1      -2.558  -0.387   4.417  1.00  0.00     0.163 HD
ATOM     34  O   UNL     1      -0.997  -1.839   5.670  1.00  0.00    -0.269 OA
BRANCH  32  35
ATOM     35  C   UNL     1      -2.828  -2.364   7.030  1.00  0.00     0.039 A 
ATOM     36  C   UNL     1      -2.549  -1.832   8.287  1.00  0.00     0.014 A 
ATOM     37  C   UNL     1      -3.838  -3.308   6.830  1.00  0.00     0.014 A 
ATOM     38  C   UNL     1      -3.330  -2.222   9.363  1.00  0.00     0.010 A 
ATOM     39  C   UNL     1      -4.669  -3.629   7.891  1.00  0.00     0.010 A 
ATOM     40  C   UNL     1      -4.415  -3.091   9.163  1.00  0.00    -0.014 A 
BRANCH  40  41
ATOM     41  C   UNL     1      -5.268  -3.462  10.309  1.00  0.00     0.031 A 
ATOM     42  C   UNL     1      -5.262  -4.880  10.793  1.00  0.00     0.074 A 
ATOM     43  C   UNL     1      -6.019  -2.517  10.906  1.00  0.00     0.049 A 
ATOM     44  N   UNL     1      -5.906  -5.407  11.799  1.00  0.00    -0.248 NA
ATOM     45  C   UNL     1      -4.438  -5.838  10.036  1.00  0.00     0.031 C 
ATOM     46  C   UNL     1      -6.110  -1.116  10.485  1.00  0.00     0.029 A 
ATOM     47  N   UNL     1      -6.837  -2.587  12.003  1.00  0.00    -0.354 N 
ATOM     48  C   UNL     1      -5.567  -6.753  11.792  1.00  0.00     0.074 A 
ATOM     49  C   UNL     1      -4.717  -6.978  10.647  1.00  0.00     0.031 C 
ATOM     50  C   UNL     1      -6.903  -0.450  11.340  1.00  0.00     0.029 A 
ATOM     51  C   UNL     1      -7.411  -1.384  12.339  1.00  0.00     0.049 A 
ATOM     52  H   UNL     1      -6.997  -3.419  12.503  1.00  0.00     0.167 HD
ATOM     53  C   UNL     1      -5.914  -7.707  12.684  1.00  0.00     0.037 A 
ATOM     54  C   UNL     1      -8.256  -1.080  13.341  1.00  0.00     0.037 A 
ATOM     55  C   UNL     1      -6.751  -7.459  13.826  1.00  0.00     0.049 A 
ATOM     56  C   UNL     1      -8.656  -2.175  14.294  1.00  0.00     0.074 A 
ATOM     57  C   UNL     1      -7.138  -8.341  14.817  1.00  0.00     0.029 A 
ATOM     58  N   UNL     1      -7.335  -6.235  14.122  1.00  0.00    -0.354 N 
ATOM     59  N   UNL     1      -8.277  -3.432  14.317  1.00  0.00    -0.248 NA
ATOM     60  C   UNL     1      -9.595  -1.812  15.363  1.00  0.00     0.031 C 
ATOM     61  C   UNL     1      -8.014  -7.670  15.674  1.00  0.00     0.029 A 
ATOM     62  C   UNL     1      -8.109  -6.349  15.263  1.00  0.00     0.049 A 
ATOM     63  H   UNL     1      -7.216  -5.410  13.599  1.00  0.00     0.167 HD
ATOM     64  C   UNL     1      -8.902  -3.998  15.420  1.00  0.00     0.074 A 
ATOM     65  C   UNL     1      -9.668  -2.942  16.050  1.00  0.00     0.031 C 
ATOM     66  C   UNL     1      -8.852  -5.275  15.874  1.00  0.00     0.037 A 
BRANCH  53  67
ATOM     67  C   UNL     1      -5.404  -9.099  12.450  1.00  0.00     0.057 A 
ATOM     68  C   UNL     1      -4.047  -9.425  12.575  1.00  0.00     0.134 A 
ATOM     69  C   UNL     1      -6.290 -10.135  12.129  1.00  0.00     0.134 A 
ATOM     70  F   UNL     1      -3.142  -8.477  12.861  1.00  0.00    -0.206 F 
ATOM     71  C   UNL     1      -3.587 -10.727  12.369  1.00  0.00     0.040 A 
ATOM     72  C   UNL     1      -5.847 -11.446  11.952  1.00  0.00     0.040 A 
ATOM     73  F   UNL     1      -7.602  -9.891  11.991  1.00  0.00    -0.206 F 
ATOM     74  C   UNL     1      -4.491 -11.744  12.067  1.00  0.00     0.006 A 
ENDBRANCH  53  67
BRANCH  54  75
ATOM     75  C   UNL     1      -8.780   0.302  13.500  1.00  0.00     0.057 A 
ATOM     76  C   UNL     1      -8.474   1.074  14.628  1.00  0.00     0.134 A 
ATOM     77  C   UNL     1      -9.632   0.873  12.546  1.00  0.00     0.134 A 
ATOM     78  F   UNL     1      -7.673   0.583  15.585  1.00  0.00    -0.206 F 
ATOM     79  C   UNL     1      -9.025   2.343  14.820  1.00  0.00     0.040 A 
ATOM     80  C   UNL     1     -10.162   2.154  12.708  1.00  0.00     0.040 A 
ATOM     81  F   UNL     1      -9.957   0.196  11.435  1.00  0.00    -0.206 F 
ATOM     82  C   UNL     1      -9.871   2.887  13.856  1.00  0.00     0.006 A 
ENDBRANCH  54  75
BRANCH  66  83
ATOM     83  C   UNL     1      -9.606  -5.585  17.135  1.00  0.00     0.057 A 
ATOM     84  C   UNL     1     -11.005  -5.600  17.182  1.00  0.00     0.134 A 
ATOM     85  C   UNL     1      -8.915  -5.919  18.307  1.00  0.00     0.134 A 
ATOM     86  F   UNL     1     -11.726  -5.280  16.096  1.00  0.00    -0.206 F 
ATOM     87  C   UNL     1     -11.690  -5.903  18.359  1.00  0.00     0.040 A 
ATOM     88  C   UNL     1      -9.588  -6.261  19.479  1.00  0.00     0.040 A 
ATOM     89  F   UNL     1      -7.573  -5.938  18.327  1.00  0.00    -0.206 F 
ATOM     90  C   UNL     1     -10.981  -6.244  19.509  1.00  0.00     0.006 A 
ENDBRANCH  66  83
ENDBRANCH  40  41
ENDBRANCH  32  35
ENDBRANCH  30  31
ENDBRANCH  29  30
ENDBRANCH   1  29
TORSDOF 16
