REMARK SMILES CCC[N@H+](CC1CC[NH2+]CC1)[C@@H](CC)C(=O)NCCCCNC(=O)c1ccc(-c2c3nc(c(-c4c(F)cccc4F)c4ccc([nH]4)c(-c4c(F)cccc4F)c4nc(c(-c5c(F)cccc5F)c5ccc2[nH]5)C=C4)C=C3)cc1
REMARK SMILES IDX 19 1 18 2 17 3 15 4 16 5 12 7 4 8 3 10 2 11 1 12 5 13 6 14
REMARK SMILES IDX 7 15 11 16 8 17 10 18 9 19 13 22 14 23 20 24 21 25 22 26
REMARK SMILES IDX 23 27 24 29 25 30 26 31 78 32 27 33 77 34 28 35 29 36 30 37
REMARK SMILES IDX 71 38 31 39 76 40 70 41 72 42 32 43 75 44 69 45 68 46 33 48
REMARK SMILES IDX 59 49 42 50 58 51 43 52 46 53 57 54 73 55 44 56 45 57 56 59
REMARK SMILES IDX 74 60 47 61 34 62 35 63 40 64 36 65 37 66 39 67 41 68 38 69
REMARK SMILES IDX 60 70 61 71 66 72 62 73 63 74 65 75 67 76 64 77 48 78 49 79
REMARK SMILES IDX 54 80 50 81 51 82 53 83 55 84 52 85
REMARK H PARENT 17 6 4 9 9 20 9 21 22 28 72 47 46 58
REMARK Flexibility Score: inf
ROOT
ATOM      1  C   UNL     1      -0.753  -0.186  -2.471  1.00  0.00     0.023 C 
ENDROOT
BRANCH   1   2
ATOM      2  C   UNL     1      -0.226   0.451  -1.161  1.00  0.00     0.116 C 
BRANCH   2   3
ATOM      3  N   UNL     1      -0.819  -0.219   0.012  1.00  0.00    -0.351 N 
ATOM      4  C   UNL     1      -0.442  -0.128   1.318  1.00  0.00     0.278 C 
ATOM      5  O   UNL     1      -1.207   0.599   1.981  1.00  0.00    -0.268 OA
ATOM      6  H   UNL     1      -1.586  -0.808  -0.172  1.00  0.00     0.163 HD
BRANCH   4   7
ATOM      7  C   UNL     1       0.609  -0.975   2.127  1.00  0.00     0.273 C 
BRANCH   7   8
ATOM      8  N   UNL     1       1.455  -2.125   1.611  1.00  0.00    -0.324 N 
ATOM      9  H   UNL     1       2.345  -1.706   1.341  1.00  0.00     0.348 HD
BRANCH   8  10
ATOM     10  C   UNL     1       0.930  -2.799   0.427  1.00  0.00     0.262 C 
BRANCH  10  11
ATOM     11  C   UNL     1       1.515  -2.295  -0.890  1.00  0.00     0.058 C 
ATOM     12  C   UNL     1       2.685  -1.323  -0.847  1.00  0.00     0.010 C 
ENDBRANCH  10  11
ENDBRANCH   8  10
BRANCH   8  13
ATOM     13  C   UNL     1       1.587  -3.158   2.698  1.00  0.00     0.266 C 
BRANCH  13  14
ATOM     14  C   UNL     1       2.867  -4.045   2.834  1.00  0.00     0.055 C 
ATOM     15  C   UNL     1       4.105  -3.243   3.247  1.00  0.00     0.071 C 
ATOM     16  C   UNL     1       3.233  -5.006   1.692  1.00  0.00     0.071 C 
ATOM     17  C   UNL     1       4.795  -2.597   2.057  1.00  0.00     0.261 C 
ATOM     18  C   UNL     1       4.091  -4.394   0.588  1.00  0.00     0.261 C 
ATOM     19  N   UNL     1       5.215  -3.602   1.083  1.00  0.00    -0.346 N 
ATOM     20  H   UNL     1       5.888  -4.227   1.526  1.00  0.00     0.346 HD
ATOM     21  H   UNL     1       5.629  -3.114   0.288  1.00  0.00     0.346 HD
ENDBRANCH  13  14
ENDBRANCH   8  13
ENDBRANCH   7   8
BRANCH   7  22
ATOM     22  C   UNL     1       1.456  -0.020   3.022  1.00  0.00     0.072 C 
ATOM     23  C   UNL     1       2.553   0.767   2.320  1.00  0.00     0.011 C 
ENDBRANCH   7  22
ENDBRANCH   4   7
ENDBRANCH   2   3
ENDBRANCH   1   2
BRANCH   1  24
ATOM     24  C   UNL     1      -0.186   0.299  -3.811  1.00  0.00     0.023 C 
BRANCH  24  25
ATOM     25  C   UNL     1       1.294   0.664  -3.895  1.00  0.00     0.116 C 
BRANCH  25  26
ATOM     26  N   UNL     1       2.177  -0.392  -4.387  1.00  0.00    -0.352 N 
ATOM     27  C   UNL     1       2.978  -0.421  -5.517  1.00  0.00     0.251 C 
ATOM     28  H   UNL     1       2.206  -1.205  -3.832  1.00  0.00     0.163 HD
ATOM     29  O   UNL     1       3.711  -1.366  -5.752  1.00  0.00    -0.269 OA
BRANCH  27  30
ATOM     30  C   UNL     1       2.852   0.680  -6.495  1.00  0.00     0.039 A 
ATOM     31  C   UNL     1       2.349   0.376  -7.762  1.00  0.00     0.014 A 
ATOM     32  C   UNL     1       3.031   2.003  -6.095  1.00  0.00     0.014 A 
ATOM     33  C   UNL     1       1.851   1.405  -8.560  1.00  0.00     0.010 A 
ATOM     34  C   UNL     1       2.442   3.014  -6.847  1.00  0.00     0.010 A 
ATOM     35  C   UNL     1       1.803   2.717  -8.062  1.00  0.00    -0.014 A 
BRANCH  35  36
ATOM     36  C   UNL     1       1.006   3.770  -8.746  1.00  0.00     0.031 A 
ATOM     37  C   UNL     1       1.666   5.030  -9.224  1.00  0.00     0.074 A 
ATOM     38  C   UNL     1      -0.334   3.634  -8.840  1.00  0.00     0.049 A 
ATOM     39  N   UNL     1       1.122   6.098  -9.749  1.00  0.00    -0.248 NA
ATOM     40  C   UNL     1       3.125   5.115  -9.057  1.00  0.00     0.031 C 
ATOM     41  C   UNL     1      -1.111   2.492  -8.347  1.00  0.00     0.029 A 
ATOM     42  N   UNL     1      -1.285   4.470  -9.371  1.00  0.00    -0.354 N 
ATOM     43  C   UNL     1       2.167   6.987  -9.956  1.00  0.00     0.074 A 
ATOM     44  C   UNL     1       3.367   6.357  -9.450  1.00  0.00     0.031 C 
ATOM     45  C   UNL     1      -2.409   2.685  -8.628  1.00  0.00     0.029 A 
ATOM     46  C   UNL     1      -2.567   3.980  -9.281  1.00  0.00     0.049 A 
ATOM     47  H   UNL     1      -1.070   5.340  -9.778  1.00  0.00     0.167 HD
ATOM     48  C   UNL     1       2.136   8.207 -10.540  1.00  0.00     0.037 A 
ATOM     49  C   UNL     1      -3.739   4.515  -9.674  1.00  0.00     0.037 A 
ATOM     50  C   UNL     1       0.950   8.819 -11.077  1.00  0.00     0.049 A 
ATOM     51  C   UNL     1      -3.746   5.869 -10.326  1.00  0.00     0.074 A 
ATOM     52  C   UNL     1       0.832  10.013 -11.767  1.00  0.00     0.029 A 
ATOM     53  N   UNL     1      -0.326   8.283 -10.983  1.00  0.00    -0.354 N 
ATOM     54  N   UNL     1      -2.736   6.663 -10.590  1.00  0.00    -0.248 NA
ATOM     55  C   UNL     1      -5.054   6.405 -10.730  1.00  0.00     0.031 C 
ATOM     56  C   UNL     1      -0.521  10.218 -12.056  1.00  0.00     0.029 A 
ATOM     57  C   UNL     1      -1.240   9.135 -11.578  1.00  0.00     0.049 A 
ATOM     58  H   UNL     1      -0.548   7.424 -10.556  1.00  0.00     0.167 HD
ATOM     59  C   UNL     1      -3.283   7.782 -11.204  1.00  0.00     0.074 A 
ATOM     60  C   UNL     1      -4.712   7.557 -11.290  1.00  0.00     0.031 C 
ATOM     61  C   UNL     1      -2.659   8.897 -11.652  1.00  0.00     0.037 A 
BRANCH  48  62
ATOM     62  C   UNL     1       3.432   8.954 -10.640  1.00  0.00     0.057 A 
ATOM     63  C   UNL     1       4.448   8.549 -11.516  1.00  0.00     0.134 A 
ATOM     64  C   UNL     1       3.661  10.098  -9.867  1.00  0.00     0.134 A 
ATOM     65  F   UNL     1       4.296   7.451 -12.273  1.00  0.00    -0.206 F 
ATOM     66  C   UNL     1       5.657   9.240 -11.600  1.00  0.00     0.040 A 
ATOM     67  C   UNL     1       4.856  10.813  -9.961  1.00  0.00     0.040 A 
ATOM     68  F   UNL     1       2.728  10.541  -9.011  1.00  0.00    -0.206 F 
ATOM     69  C   UNL     1       5.861  10.380 -10.824  1.00  0.00     0.006 A 
ENDBRANCH  48  62
BRANCH  49  70
ATOM     70  C   UNL     1      -5.006   3.766  -9.480  1.00  0.00     0.057 A 
ATOM     71  C   UNL     1      -5.694   3.221 -10.571  1.00  0.00     0.134 A 
ATOM     72  C   UNL     1      -5.568   3.589  -8.210  1.00  0.00     0.134 A 
ATOM     73  F   UNL     1      -5.216   3.376 -11.814  1.00  0.00    -0.206 F 
ATOM     74  C   UNL     1      -6.902   2.542 -10.409  1.00  0.00     0.040 A 
ATOM     75  C   UNL     1      -6.765   2.893  -8.031  1.00  0.00     0.040 A 
ATOM     76  F   UNL     1      -4.956   4.082  -7.123  1.00  0.00    -0.206 F 
ATOM     77  C   UNL     1      -7.439   2.373  -9.135  1.00  0.00     0.006 A 
ENDBRANCH  49  70
BRANCH  61  78
ATOM     78  C   UNL     1      -3.515   9.955 -12.281  1.00  0.00     0.057 A 
ATOM     79  C   UNL     1      -4.338  10.786 -11.511  1.00  0.00     0.134 A 
ATOM     80  C   UNL     1      -3.480  10.175 -13.664  1.00  0.00     0.134 A 
ATOM     81  F   UNL     1      -4.425  10.614 -10.184  1.00  0.00    -0.206 F 
ATOM     82  C   UNL     1      -5.110  11.790 -12.097  1.00  0.00     0.040 A 
ATOM     83  C   UNL     1      -4.230  11.191 -14.258  1.00  0.00     0.040 A 
ATOM     84  F   UNL     1      -2.707   9.417 -14.455  1.00  0.00    -0.206 F 
ATOM     85  C   UNL     1      -5.050  11.999 -13.474  1.00  0.00     0.006 A 
ENDBRANCH  61  78
ENDBRANCH  35  36
ENDBRANCH  27  30
ENDBRANCH  25  26
ENDBRANCH  24  25
ENDBRANCH   1  24
TORSDOF 17
