REMARK SMILES CC(C)(C)SSC[C@H]([NH3+])C(=O)NCCCCNC(=O)c1ccc(-c2c3nc(c(-c4c(F)cccc4F)c4ccc([nH]4)c(-c4c(F)cccc4F)c4nc(c(-c5c(F)cccc5F)c5ccc2[nH]5)C=C4)C=C3)cc1
REMARK SMILES IDX 13 1 12 2 10 3 11 4 8 6 7 7 6 8 5 9 2 10 1 11 3 12 4 13 9 14
REMARK SMILES IDX 14 18 15 19 16 20 17 21 18 22 19 24 20 25 21 26 73 27 22 28
REMARK SMILES IDX 72 29 23 30 24 31 25 32 66 33 26 34 71 35 65 36 67 37 27 38
REMARK SMILES IDX 70 39 64 40 63 41 28 43 54 44 37 45 53 46 38 47 41 48 52 49
REMARK SMILES IDX 68 50 39 51 40 52 51 54 69 55 42 56 29 57 30 58 35 59 31 60
REMARK SMILES IDX 32 61 34 62 36 63 33 64 55 65 56 66 61 67 57 68 58 69 60 70
REMARK SMILES IDX 62 71 59 72 43 73 44 74 49 75 45 76 46 77 48 78 50 79 47 80
REMARK H PARENT 12 5 9 15 9 16 9 17 17 23 67 42 41 53
REMARK Flexibility Score: inf
ROOT
ATOM      1  C   UNL     1       3.547  -4.116  -5.113  1.00  0.00     0.116 C 
ENDROOT
BRANCH   1   2
ATOM      2  N   UNL     1       2.505  -4.289  -6.101  1.00  0.00    -0.351 N 
ATOM      3  C   UNL     1       1.153  -4.202  -5.947  1.00  0.00     0.279 C 
ATOM      4  O   UNL     1       0.451  -4.365  -6.950  1.00  0.00    -0.268 OA
ATOM      5  H   UNL     1       2.815  -4.498  -7.012  1.00  0.00     0.163 HD
BRANCH   3   6
ATOM      6  C   UNL     1       0.504  -3.901  -4.579  1.00  0.00     0.281 C 
BRANCH   6   7
ATOM      7  C   UNL     1       0.668  -2.417  -4.179  1.00  0.00     0.157 C 
BRANCH   7   8
ATOM      8  S   UNL     1       1.786  -1.890  -2.811  1.00  0.00    -0.087 SA
BRANCH   8   9
ATOM      9  S   UNL     1       0.981  -2.690  -1.096  1.00  0.00    -0.088 SA
BRANCH   9  10
ATOM     10  C   UNL     1       2.379  -3.565  -0.227  1.00  0.00     0.018 C 
ATOM     11  C   UNL     1       1.840  -3.949   1.161  1.00  0.00     0.023 C 
ATOM     12  C   UNL     1       3.587  -2.635  -0.052  1.00  0.00     0.023 C 
ATOM     13  C   UNL     1       2.802  -4.838  -0.965  1.00  0.00     0.023 C 
ENDBRANCH   9  10
ENDBRANCH   8   9
ENDBRANCH   7   8
ENDBRANCH   6   7
BRANCH   6  14
ATOM     14  N   UNL     1       0.864  -4.944  -3.604  1.00  0.00    -0.347 N 
ATOM     15  H   UNL     1       1.876  -4.958  -3.480  1.00  0.00     0.345 HD
ATOM     16  H   UNL     1       0.551  -5.852  -3.947  1.00  0.00     0.345 HD
ATOM     17  H   UNL     1       0.414  -4.744  -2.711  1.00  0.00     0.345 HD
ENDBRANCH   6  14
ENDBRANCH   3   6
ENDBRANCH   1   2
BRANCH   1  18
ATOM     18  C   UNL     1       4.321  -5.397  -4.824  1.00  0.00     0.023 C 
BRANCH  18  19
ATOM     19  C   UNL     1       5.116  -5.955  -6.002  1.00  0.00     0.023 C 
BRANCH  19  20
ATOM     20  C   UNL     1       6.027  -4.960  -6.713  1.00  0.00     0.116 C 
BRANCH  20  21
ATOM     21  N   UNL     1       7.003  -4.333  -5.833  1.00  0.00    -0.352 N 
ATOM     22  C   UNL     1       8.360  -4.189  -6.005  1.00  0.00     0.251 C 
ATOM     23  H   UNL     1       6.641  -3.959  -4.998  1.00  0.00     0.163 HD
ATOM     24  O   UNL     1       9.055  -3.710  -5.114  1.00  0.00    -0.269 OA
BRANCH  22  25
ATOM     25  C   UNL     1       8.986  -4.662  -7.256  1.00  0.00     0.039 A 
ATOM     26  C   UNL     1      10.071  -5.540  -7.175  1.00  0.00     0.014 A 
ATOM     27  C   UNL     1       8.464  -4.293  -8.498  1.00  0.00     0.014 A 
ATOM     28  C   UNL     1      10.565  -6.133  -8.339  1.00  0.00     0.010 A 
ATOM     29  C   UNL     1       8.915  -4.933  -9.648  1.00  0.00     0.010 A 
ATOM     30  C   UNL     1       9.953  -5.876  -9.576  1.00  0.00    -0.014 A 
BRANCH  30  31
ATOM     31  C   UNL     1      10.334  -6.622 -10.802  1.00  0.00     0.031 A 
ATOM     32  C   UNL     1      10.918  -5.896 -11.978  1.00  0.00     0.074 A 
ATOM     33  C   UNL     1      10.039  -7.934 -10.895  1.00  0.00     0.049 A 
ATOM     34  N   UNL     1      11.171  -6.342 -13.181  1.00  0.00    -0.248 NA
ATOM     35  C   UNL     1      11.234  -4.471 -11.785  1.00  0.00     0.031 C 
ATOM     36  C   UNL     1       9.419  -8.742  -9.842  1.00  0.00     0.029 A 
ATOM     37  N   UNL     1      10.193  -8.814 -11.939  1.00  0.00    -0.354 N 
ATOM     38  C   UNL     1      11.645  -5.251 -13.896  1.00  0.00     0.074 A 
ATOM     39  C   UNL     1      11.621  -4.114 -13.001  1.00  0.00     0.031 C 
ATOM     40  C   UNL     1       9.244  -9.995 -10.293  1.00  0.00     0.029 A 
ATOM     41  C   UNL     1       9.701 -10.070 -11.677  1.00  0.00     0.049 A 
ATOM     42  H   UNL     1      10.616  -8.568 -12.793  1.00  0.00     0.167 HD
ATOM     43  C   UNL     1      12.072  -5.207 -15.180  1.00  0.00     0.037 A 
ATOM     44  C   UNL     1       9.603 -11.154 -12.470  1.00  0.00     0.037 A 
ATOM     45  C   UNL     1      12.140  -6.348 -16.053  1.00  0.00     0.049 A 
ATOM     46  C   UNL     1      10.092 -11.077 -13.889  1.00  0.00     0.074 A 
ATOM     47  C   UNL     1      12.668  -6.423 -17.330  1.00  0.00     0.029 A 
ATOM     48  N   UNL     1      11.662  -7.610 -15.741  1.00  0.00    -0.354 N 
ATOM     49  N   UNL     1      10.621 -10.060 -14.524  1.00  0.00    -0.248 NA
ATOM     50  C   UNL     1       9.967 -12.295 -14.703  1.00  0.00     0.031 C 
ATOM     51  C   UNL     1      12.471  -7.723 -17.808  1.00  0.00     0.029 A 
ATOM     52  C   UNL     1      11.852  -8.464 -16.815  1.00  0.00     0.049 A 
ATOM     53  H   UNL     1      11.248  -7.863 -14.884  1.00  0.00     0.167 HD
ATOM     54  C   UNL     1      10.907 -10.518 -15.803  1.00  0.00     0.074 A 
ATOM     55  C   UNL     1      10.507 -11.909 -15.851  1.00  0.00     0.031 C 
ATOM     56  C   UNL     1      11.449  -9.845 -16.846  1.00  0.00     0.037 A 
BRANCH  43  57
ATOM     57  C   UNL     1      12.507  -3.880 -15.724  1.00  0.00     0.057 A 
ATOM     58  C   UNL     1      13.724  -3.294 -15.355  1.00  0.00     0.134 A 
ATOM     59  C   UNL     1      11.727  -3.212 -16.676  1.00  0.00     0.134 A 
ATOM     60  F   UNL     1      14.511  -3.881 -14.441  1.00  0.00    -0.206 F 
ATOM     61  C   UNL     1      14.143  -2.081 -15.903  1.00  0.00     0.040 A 
ATOM     62  C   UNL     1      12.145  -2.009 -17.246  1.00  0.00     0.040 A 
ATOM     63  F   UNL     1      10.553  -3.723 -17.075  1.00  0.00    -0.206 F 
ATOM     64  C   UNL     1      13.356  -1.439 -16.857  1.00  0.00     0.006 A 
ENDBRANCH  43  57
BRANCH  44  65
ATOM     65  C   UNL     1       9.005 -12.408 -11.948  1.00  0.00     0.057 A 
ATOM     66  C   UNL     1       9.795 -13.534 -11.697  1.00  0.00     0.134 A 
ATOM     67  C   UNL     1       7.630 -12.515 -11.707  1.00  0.00     0.134 A 
ATOM     68  F   UNL     1      11.115 -13.497 -11.930  1.00  0.00    -0.206 F 
ATOM     69  C   UNL     1       9.238 -14.730 -11.242  1.00  0.00     0.040 A 
ATOM     70  C   UNL     1       7.063 -13.698 -11.231  1.00  0.00     0.040 A 
ATOM     71  F   UNL     1       6.820 -11.469 -11.925  1.00  0.00    -0.206 F 
ATOM     72  C   UNL     1       7.867 -14.813 -11.004  1.00  0.00     0.006 A 
ENDBRANCH  44  65
BRANCH  56  73
ATOM     73  C   UNL     1      11.656 -10.605 -18.120  1.00  0.00     0.057 A 
ATOM     74  C   UNL     1      10.588 -10.911 -18.971  1.00  0.00     0.134 A 
ATOM     75  C   UNL     1      12.941 -10.989 -18.524  1.00  0.00     0.134 A 
ATOM     76  F   UNL     1       9.332 -10.583 -18.632  1.00  0.00    -0.206 F 
ATOM     77  C   UNL     1      10.789 -11.584 -20.177  1.00  0.00     0.040 A 
ATOM     78  C   UNL     1      13.157 -11.644 -19.737  1.00  0.00     0.040 A 
ATOM     79  F   UNL     1      14.006 -10.720 -17.755  1.00  0.00    -0.206 F 
ATOM     80  C   UNL     1      12.078 -11.945 -20.567  1.00  0.00     0.006 A 
ENDBRANCH  56  73
ENDBRANCH  30  31
ENDBRANCH  22  25
ENDBRANCH  20  21
ENDBRANCH  19  20
ENDBRANCH  18  19
ENDBRANCH   1  18
TORSDOF 16
