REMARK SMILES C[C@H]1[C@H](C(=O)NCCCCNC(=O)c2ccc(-c3c4nc(c(-c5c(F)cccc5F)c5ccc([nH]5)c(-c5c(F)cccc5F)c5nc(c(-c6c(F)cccc6F)c6ccc3[nH]6)C=C5)C=C4)cc2)CCN1C(=O)NCc1cnn(C)c1
REMARK SMILES IDX 8 1 7 2 6 3 4 4 5 5 3 7 1 8 2 9 70 10 68 11 69 12 71 13
REMARK SMILES IDX 72 14 73 15 74 17 75 18 76 19 80 20 77 21 78 22 79 23 9 24
REMARK SMILES IDX 10 25 11 26 12 27 13 29 14 30 15 31 67 32 16 33 66 34 17 35
REMARK SMILES IDX 18 36 19 37 60 38 20 39 65 40 59 41 61 42 21 43 64 44 58 45
REMARK SMILES IDX 57 46 22 48 48 49 31 50 47 51 32 52 35 53 46 54 62 55 33 56
REMARK SMILES IDX 34 57 45 59 63 60 36 61 23 62 24 63 29 64 25 65 26 66 28 67
REMARK SMILES IDX 30 68 27 69 49 70 50 71 55 72 51 73 52 74 54 75 56 76 53 77
REMARK SMILES IDX 37 78 38 79 43 80 39 81 40 82 42 83 44 84 41 85
REMARK H PARENT 6 6 73 16 11 28 61 47 35 58
REMARK Flexibility Score: inf
ROOT
ATOM      1  C   UNL     1      -0.155  -0.055   3.782  1.00  0.00     0.023 C 
ENDROOT
BRANCH   1   2
ATOM      2  C   UNL     1      -1.169   0.574   2.835  1.00  0.00     0.116 C 
BRANCH   2   3
ATOM      3  N   UNL     1      -0.724   1.868   2.349  1.00  0.00    -0.356 N 
ATOM      4  C   UNL     1      -0.262   2.262   1.135  1.00  0.00     0.225 C 
ATOM      5  O   UNL     1       0.102   3.438   1.028  1.00  0.00    -0.275 OA
ATOM      6  H   UNL     1      -0.765   2.588   3.019  1.00  0.00     0.163 HD
BRANCH   4   7
ATOM      7  C   UNL     1      -0.152   1.331  -0.064  1.00  0.00     0.102 C 
ATOM      8  C   UNL     1       1.925   0.264  -0.998  1.00  0.00     0.032 C 
ATOM      9  C   UNL     1       0.900   0.228   0.142  1.00  0.00     0.096 C 
ATOM     10  N   UNL     1       0.153  -1.025   0.122  1.00  0.00    -0.321 N 
ATOM     11  C   UNL     1      -1.452   0.638  -0.464  1.00  0.00     0.037 C 
ATOM     12  C   UNL     1      -1.104  -0.837  -0.588  1.00  0.00     0.122 C 
BRANCH  10  13
ATOM     13  C   UNL     1       0.426  -2.245   0.653  1.00  0.00     0.317 C 
ATOM     14  O   UNL     1      -0.391  -3.169   0.573  1.00  0.00    -0.249 OA
ATOM     15  N   UNL     1       1.554  -2.543   1.310  1.00  0.00    -0.334 N 
ATOM     16  H   UNL     1       1.490  -3.425   1.743  1.00  0.00     0.165 HD
BRANCH  15  17
ATOM     17  C   UNL     1       2.841  -1.931   1.561  1.00  0.00     0.157 C 
BRANCH  17  18
ATOM     18  C   UNL     1       3.089  -1.883   3.026  1.00  0.00     0.009 A 
ATOM     19  C   UNL     1       3.424  -0.744   3.796  1.00  0.00     0.140 A 
ATOM     20  C   UNL     1       3.081  -2.911   3.950  1.00  0.00     0.113 A 
ATOM     21  N   UNL     1       3.581  -1.021   5.091  1.00  0.00    -0.181 NA
ATOM     22  N   UNL     1       3.370  -2.347   5.159  1.00  0.00    -0.275 N 
ATOM     23  C   UNL     1       3.470  -3.018   6.432  1.00  0.00     0.173 C 
ENDBRANCH  17  18
ENDBRANCH  15  17
ENDBRANCH  10  13
ENDBRANCH   4   7
ENDBRANCH   2   3
ENDBRANCH   1   2
BRANCH   1  24
ATOM     24  C   UNL     1      -0.000   0.649   5.128  1.00  0.00     0.023 C 
BRANCH  24  25
ATOM     25  C   UNL     1      -1.285   0.794   5.932  1.00  0.00     0.116 C 
BRANCH  25  26
ATOM     26  N   UNL     1      -1.933  -0.477   6.217  1.00  0.00    -0.352 N 
ATOM     27  C   UNL     1      -2.535  -0.894   7.379  1.00  0.00     0.251 C 
ATOM     28  H   UNL     1      -1.940  -1.127   5.477  1.00  0.00     0.163 HD
ATOM     29  O   UNL     1      -2.928  -2.052   7.496  1.00  0.00    -0.269 OA
BRANCH  27  30
ATOM     30  C   UNL     1      -2.671   0.049   8.508  1.00  0.00     0.039 A 
ATOM     31  C   UNL     1      -2.299  -0.374   9.787  1.00  0.00     0.014 A 
ATOM     32  C   UNL     1      -3.130   1.353   8.302  1.00  0.00     0.014 A 
ATOM     33  C   UNL     1      -2.317   0.534  10.846  1.00  0.00     0.010 A 
ATOM     34  C   UNL     1      -3.075   2.276   9.342  1.00  0.00     0.010 A 
ATOM     35  C   UNL     1      -2.666   1.877  10.623  1.00  0.00    -0.014 A 
BRANCH  35  36
ATOM     36  C   UNL     1      -2.604   2.879  11.716  1.00  0.00     0.031 A 
ATOM     37  C   UNL     1      -3.856   3.566  12.184  1.00  0.00     0.074 A 
ATOM     38  C   UNL     1      -1.410   3.220  12.240  1.00  0.00     0.049 A 
ATOM     39  N   UNL     1      -3.995   4.515  13.074  1.00  0.00    -0.248 NA
ATOM     40  C   UNL     1      -5.115   3.152  11.545  1.00  0.00     0.031 C 
ATOM     41  C   UNL     1      -0.117   2.665  11.835  1.00  0.00     0.029 A 
ATOM     42  N   UNL     1      -1.090   4.125  13.221  1.00  0.00    -0.354 N 
ATOM     43  C   UNL     1      -5.350   4.821  13.091  1.00  0.00     0.074 A 
ATOM     44  C   UNL     1      -5.982   3.996  12.084  1.00  0.00     0.031 C 
ATOM     45  C   UNL     1       0.853   3.224  12.576  1.00  0.00     0.029 A 
ATOM     46  C   UNL     1       0.257   4.200  13.482  1.00  0.00     0.049 A 
ATOM     47  H   UNL     1      -1.761   4.668  13.693  1.00  0.00     0.167 HD
ATOM     48  C   UNL     1      -6.011   5.692  13.889  1.00  0.00     0.037 A 
ATOM     49  C   UNL     1       0.935   4.975  14.350  1.00  0.00     0.037 A 
ATOM     50  C   UNL     1      -5.384   6.491  14.908  1.00  0.00     0.049 A 
ATOM     51  C   UNL     1       0.178   5.935  15.225  1.00  0.00     0.074 A 
ATOM     52  C   UNL     1      -5.976   7.356  15.812  1.00  0.00     0.029 A 
ATOM     53  N   UNL     1      -4.020   6.525  15.156  1.00  0.00    -0.354 N 
ATOM     54  N   UNL     1      -1.112   6.161  15.280  1.00  0.00    -0.248 NA
ATOM     55  C   UNL     1       0.970   6.742  16.163  1.00  0.00     0.031 C 
ATOM     56  C   UNL     1      -4.966   7.945  16.579  1.00  0.00     0.029 A 
ATOM     57  C   UNL     1      -3.749   7.412  16.185  1.00  0.00     0.049 A 
ATOM     58  H   UNL     1      -3.344   5.997  14.673  1.00  0.00     0.167 HD
ATOM     59  C   UNL     1      -1.289   7.115  16.274  1.00  0.00     0.074 A 
ATOM     60  C   UNL     1       0.025   7.413  16.806  1.00  0.00     0.031 C 
ATOM     61  C   UNL     1      -2.436   7.692  16.708  1.00  0.00     0.037 A 
BRANCH  48  62
ATOM     62  C   UNL     1      -7.494   5.819  13.694  1.00  0.00     0.057 A 
ATOM     63  C   UNL     1      -8.377   4.790  14.053  1.00  0.00     0.134 A 
ATOM     64  C   UNL     1      -8.050   6.992  13.170  1.00  0.00     0.134 A 
ATOM     65  F   UNL     1      -7.909   3.635  14.548  1.00  0.00    -0.206 F 
ATOM     66  C   UNL     1      -9.755   4.914  13.871  1.00  0.00     0.040 A 
ATOM     67  C   UNL     1      -9.429   7.139  13.010  1.00  0.00     0.040 A 
ATOM     68  F   UNL     1      -7.263   8.018  12.812  1.00  0.00    -0.206 F 
ATOM     69  C   UNL     1     -10.285   6.095  13.354  1.00  0.00     0.006 A 
ENDBRANCH  48  62
BRANCH  49  70
ATOM     70  C   UNL     1       2.412   4.860  14.453  1.00  0.00     0.057 A 
ATOM     71  C   UNL     1       3.014   4.300  15.585  1.00  0.00     0.134 A 
ATOM     72  C   UNL     1       3.255   5.313  13.431  1.00  0.00     0.134 A 
ATOM     73  F   UNL     1       2.259   3.865  16.605  1.00  0.00    -0.206 F 
ATOM     74  C   UNL     1       4.401   4.211  15.708  1.00  0.00     0.040 A 
ATOM     75  C   UNL     1       4.644   5.207  13.530  1.00  0.00     0.040 A 
ATOM     76  F   UNL     1       2.740   5.854  12.317  1.00  0.00    -0.206 F 
ATOM     77  C   UNL     1       5.220   4.662  14.675  1.00  0.00     0.006 A 
ENDBRANCH  49  70
BRANCH  61  78
ATOM     78  C   UNL     1      -2.325   8.678  17.833  1.00  0.00     0.057 A 
ATOM     79  C   UNL     1      -1.783   9.955  17.647  1.00  0.00     0.134 A 
ATOM     80  C   UNL     1      -2.804   8.357  19.110  1.00  0.00     0.134 A 
ATOM     81  F   UNL     1      -1.296  10.320  16.452  1.00  0.00    -0.206 F 
ATOM     82  C   UNL     1      -1.700  10.871  18.697  1.00  0.00     0.040 A 
ATOM     83  C   UNL     1      -2.750   9.273  20.161  1.00  0.00     0.040 A 
ATOM     84  F   UNL     1      -3.343   7.152  19.353  1.00  0.00    -0.206 F 
ATOM     85  C   UNL     1      -2.191  10.533  19.957  1.00  0.00     0.006 A 
ENDBRANCH  61  78
ENDBRANCH  35  36
ENDBRANCH  27  30
ENDBRANCH  25  26
ENDBRANCH  24  25
ENDBRANCH   1  24
TORSDOF 14
