REMARK SMILES CC(C)N1C(=O)C[C@@H]([N@@H+]2CC[C@H](C(=O)NCCCCNC(=O)c3ccc(-c4c5nc(c(-c6c(F)cccc6F)c6ccc([nH]6)c(-c6c(F)cccc6F)c6nc(c(-c7c(F)cccc7F)c7ccc4[nH]7)C=C6)C=C5)cc3)[C@@H]2C)C1=O
REMARK SMILES IDX 17 1 16 2 15 3 13 4 14 5 12 7 9 8 10 9 77 10 11 12 78 13
REMARK SMILES IDX 8 14 4 15 5 16 79 17 6 18 7 19 80 20 2 21 1 22 3 23 18 24
REMARK SMILES IDX 19 25 20 26 21 27 22 29 23 30 24 31 76 32 25 33 75 34 26 35
REMARK SMILES IDX 27 36 28 37 69 38 29 39 74 40 68 41 70 42 30 43 73 44 67 45
REMARK SMILES IDX 66 46 31 48 57 49 40 50 56 51 41 52 44 53 55 54 71 55 42 56
REMARK SMILES IDX 43 57 54 59 72 60 45 61 32 62 33 63 38 64 34 65 35 66 37 67
REMARK SMILES IDX 39 68 36 69 58 70 59 71 64 72 60 73 61 74 63 75 65 76 62 77
REMARK SMILES IDX 46 78 47 79 52 80 48 81 49 82 51 83 53 84 50 85
REMARK H PARENT 15 6 9 11 20 28 70 47 44 58
REMARK Flexibility Score: inf
ROOT
ATOM      1  C   UNL     1      -4.463   3.245  -1.323  1.00  0.00     0.023 C 
ENDROOT
BRANCH   1   2
ATOM      2  C   UNL     1      -5.439   2.195  -1.863  1.00  0.00     0.116 C 
BRANCH   2   3
ATOM      3  N   UNL     1      -5.586   2.273  -3.292  1.00  0.00    -0.356 N 
ATOM      4  C   UNL     1      -5.566   1.382  -4.300  1.00  0.00     0.229 C 
ATOM      5  O   UNL     1      -5.851   1.888  -5.400  1.00  0.00    -0.275 OA
ATOM      6  H   UNL     1      -5.736   3.194  -3.606  1.00  0.00     0.163 HD
BRANCH   4   7
ATOM      7  C   UNL     1      -5.234  -0.119  -4.287  1.00  0.00     0.142 C 
ATOM      8  N   UNL     1      -3.466  -1.175  -3.001  1.00  0.00    -0.321 N 
ATOM      9  C   UNL     1      -2.852  -0.621  -4.211  1.00  0.00     0.264 C 
ATOM     10  C   UNL     1      -4.928  -1.094  -3.146  1.00  0.00     0.194 C 
ATOM     11  H   UNL     1      -3.269  -2.172  -2.917  1.00  0.00     0.349 HD
ATOM     12  C   UNL     1      -3.996  -0.342  -5.178  1.00  0.00     0.081 C 
ATOM     13  C   UNL     1      -5.889  -1.213  -1.968  1.00  0.00     0.076 C 
BRANCH   8  14
ATOM     14  C   UNL     1      -2.805  -0.883  -1.725  1.00  0.00     0.284 C 
ATOM     15  N   UNL     1      -0.521  -0.267  -1.586  1.00  0.00    -0.275 N 
ATOM     16  C   UNL     1      -1.217   0.882  -1.362  1.00  0.00     0.236 C 
ATOM     17  C   UNL     1      -1.348  -1.359  -1.685  1.00  0.00     0.288 C 
ATOM     18  O   UNL     1      -0.767   1.994  -1.145  1.00  0.00    -0.274 OA
ATOM     19  C   UNL     1      -2.670   0.587  -1.401  1.00  0.00     0.176 C 
ATOM     20  O   UNL     1      -1.002  -2.533  -1.704  1.00  0.00    -0.267 OA
BRANCH  15  21
ATOM     21  C   UNL     1       0.936  -0.267  -1.497  1.00  0.00     0.087 C 
ATOM     22  C   UNL     1       1.381  -0.429  -0.045  1.00  0.00     0.031 C 
ATOM     23  C   UNL     1       1.610  -1.282  -2.414  1.00  0.00     0.031 C 
ENDBRANCH  15  21
ENDBRANCH   8  14
ENDBRANCH   4   7
ENDBRANCH   2   3
ENDBRANCH   1   2
BRANCH   1  24
ATOM     24  C   UNL     1      -5.101   4.498  -0.751  1.00  0.00     0.023 C 
BRANCH  24  25
ATOM     25  C   UNL     1      -6.118   4.246   0.352  1.00  0.00     0.116 C 
BRANCH  25  26
ATOM     26  N   UNL     1      -5.654   3.378   1.434  1.00  0.00    -0.352 N 
ATOM     27  C   UNL     1      -5.908   3.502   2.784  1.00  0.00     0.251 C 
ATOM     28  H   UNL     1      -5.094   2.615   1.166  1.00  0.00     0.163 HD
ATOM     29  O   UNL     1      -5.429   2.723   3.598  1.00  0.00    -0.269 OA
BRANCH  27  30
ATOM     30  C   UNL     1      -6.730   4.644   3.220  1.00  0.00     0.039 A 
ATOM     31  C   UNL     1      -6.163   5.594   4.071  1.00  0.00     0.014 A 
ATOM     32  C   UNL     1      -7.965   4.867   2.609  1.00  0.00     0.014 A 
ATOM     33  C   UNL     1      -6.787   6.832   4.213  1.00  0.00     0.010 A 
ATOM     34  C   UNL     1      -8.521   6.136   2.664  1.00  0.00     0.010 A 
ATOM     35  C   UNL     1      -7.929   7.137   3.452  1.00  0.00    -0.014 A 
BRANCH  35  36
ATOM     36  C   UNL     1      -8.499   8.508   3.432  1.00  0.00     0.031 A 
ATOM     37  C   UNL     1      -9.920   8.735   3.859  1.00  0.00     0.074 A 
ATOM     38  C   UNL     1      -7.769   9.528   2.938  1.00  0.00     0.049 A 
ATOM     39  N   UNL     1     -10.622   9.839   3.842  1.00  0.00    -0.248 NA
ATOM     40  C   UNL     1     -10.666   7.556   4.328  1.00  0.00     0.031 C 
ATOM     41  C   UNL     1      -6.404   9.421   2.414  1.00  0.00     0.029 A 
ATOM     42  N   UNL     1      -8.077  10.857   2.782  1.00  0.00    -0.354 N 
ATOM     43  C   UNL     1     -11.891   9.482   4.276  1.00  0.00     0.074 A 
ATOM     44  C   UNL     1     -11.884   8.052   4.483  1.00  0.00     0.031 C 
ATOM     45  C   UNL     1      -5.985  10.636   2.025  1.00  0.00     0.029 A 
ATOM     46  C   UNL     1      -7.061  11.599   2.230  1.00  0.00     0.049 A 
ATOM     47  H   UNL     1      -8.945  11.241   3.042  1.00  0.00     0.167 HD
ATOM     48  C   UNL     1     -12.960  10.280   4.509  1.00  0.00     0.037 A 
ATOM     49  C   UNL     1      -7.005  12.908   1.918  1.00  0.00     0.037 A 
ATOM     50  C   UNL     1     -12.951  11.707   4.329  1.00  0.00     0.049 A 
ATOM     51  C   UNL     1      -8.198  13.778   2.198  1.00  0.00     0.074 A 
ATOM     52  C   UNL     1     -13.948  12.618   4.626  1.00  0.00     0.029 A 
ATOM     53  N   UNL     1     -11.894  12.428   3.793  1.00  0.00    -0.354 N 
ATOM     54  N   UNL     1      -9.360  13.446   2.708  1.00  0.00    -0.248 NA
ATOM     55  C   UNL     1      -8.073  15.204   1.865  1.00  0.00     0.031 C 
ATOM     56  C   UNL     1     -13.518  13.884   4.215  1.00  0.00     0.029 A 
ATOM     57  C   UNL     1     -12.230  13.770   3.715  1.00  0.00     0.049 A 
ATOM     58  H   UNL     1     -11.033  12.044   3.511  1.00  0.00     0.167 HD
ATOM     59  C   UNL     1     -10.099  14.621   2.770  1.00  0.00     0.074 A 
ATOM     60  C   UNL     1      -9.244  15.677   2.268  1.00  0.00     0.031 C 
ATOM     61  C   UNL     1     -11.371  14.807   3.200  1.00  0.00     0.037 A 
BRANCH  48  62
ATOM     62  C   UNL     1     -14.223   9.619   4.981  1.00  0.00     0.057 A 
ATOM     63  C   UNL     1     -14.322   9.021   6.245  1.00  0.00     0.134 A 
ATOM     64  C   UNL     1     -15.359   9.587   4.163  1.00  0.00     0.134 A 
ATOM     65  F   UNL     1     -13.266   9.002   7.074  1.00  0.00    -0.206 F 
ATOM     66  C   UNL     1     -15.491   8.383   6.663  1.00  0.00     0.040 A 
ATOM     67  C   UNL     1     -16.544   8.981   4.583  1.00  0.00     0.040 A 
ATOM     68  F   UNL     1     -15.336  10.143   2.943  1.00  0.00    -0.206 F 
ATOM     69  C   UNL     1     -16.609   8.368   5.832  1.00  0.00     0.006 A 
ENDBRANCH  48  62
BRANCH  49  70
ATOM     70  C   UNL     1      -5.768  13.475   1.320  1.00  0.00     0.057 A 
ATOM     71  C   UNL     1      -4.944  14.343   2.045  1.00  0.00     0.134 A 
ATOM     72  C   UNL     1      -5.373  13.152   0.016  1.00  0.00     0.134 A 
ATOM     73  F   UNL     1      -5.278  14.705   3.293  1.00  0.00    -0.206 F 
ATOM     74  C   UNL     1      -3.780  14.880   1.493  1.00  0.00     0.040 A 
ATOM     75  C   UNL     1      -4.197  13.661  -0.540  1.00  0.00     0.040 A 
ATOM     76  F   UNL     1      -6.114  12.319  -0.730  1.00  0.00    -0.206 F 
ATOM     77  C   UNL     1      -3.400  14.533   0.198  1.00  0.00     0.006 A 
ENDBRANCH  49  70
BRANCH  61  78
ATOM     78  C   UNL     1     -11.913  16.206   3.154  1.00  0.00     0.057 A 
ATOM     79  C   UNL     1     -12.234  16.833   1.943  1.00  0.00     0.134 A 
ATOM     80  C   UNL     1     -12.159  16.917   4.336  1.00  0.00     0.134 A 
ATOM     81  F   UNL     1     -12.011  16.211   0.775  1.00  0.00    -0.206 F 
ATOM     82  C   UNL     1     -12.759  18.126   1.909  1.00  0.00     0.040 A 
ATOM     83  C   UNL     1     -12.712  18.198   4.315  1.00  0.00     0.040 A 
ATOM     84  F   UNL     1     -11.884  16.371   5.530  1.00  0.00    -0.206 F 
ATOM     85  C   UNL     1     -13.008  18.808   3.098  1.00  0.00     0.006 A 
ENDBRANCH  61  78
ENDBRANCH  35  36
ENDBRANCH  27  30
ENDBRANCH  25  26
ENDBRANCH  24  25
ENDBRANCH   1  24
TORSDOF 13
