REMARK SMILES Cc1c2c([nH]c(=O)c1C(=O)NCCCCNC(=O)c1ccc(-c3c4nc(c(-c5c(F)cccc5F)c5ccc([nH]5)c(-c5c(F)cccc5F)c5nc(c(-c6c(F)cccc6F)c6ccc3[nH]6)C=C5)C=C4)cc1)CC(C)(C)CC2=O
REMARK SMILES IDX 14 1 13 2 12 3 11 4 9 5 10 6 8 8 1 9 2 10 3 11 4 12 78 13
REMARK SMILES IDX 6 14 5 15 73 16 77 17 79 18 7 19 74 21 75 22 76 23 15 24
REMARK SMILES IDX 16 25 17 26 18 28 19 29 20 30 72 31 21 32 71 33 22 34 23 35
REMARK SMILES IDX 24 36 65 37 25 38 70 39 64 40 66 41 26 42 69 43 63 44 62 45
REMARK SMILES IDX 27 47 53 48 36 49 52 50 37 51 40 52 51 53 67 54 38 55 39 56
REMARK SMILES IDX 50 58 68 59 41 60 28 61 29 62 34 63 30 64 31 65 33 66 35 67
REMARK SMILES IDX 32 68 54 69 55 70 60 71 56 72 57 73 59 74 61 75 58 76 42 77
REMARK SMILES IDX 43 78 48 79 44 80 45 81 47 82 49 83 46 84
REMARK H PARENT 11 7 5 20 16 27 66 46 40 57
REMARK Flexibility Score: inf
ROOT
ATOM      1  C   UNL     1       0.234   2.931  -2.684  1.00  0.00     0.023 C 
ENDROOT
BRANCH   1   2
ATOM      2  C   UNL     1       0.351   1.805  -1.669  1.00  0.00     0.023 C 
BRANCH   2   3
ATOM      3  C   UNL     1       1.092   2.157  -0.372  1.00  0.00     0.116 C 
BRANCH   3   4
ATOM      4  N   UNL     1       0.126   2.563   0.630  1.00  0.00    -0.352 N 
ATOM      5  C   UNL     1      -0.475   1.887   1.649  1.00  0.00     0.257 C 
ATOM      6  O   UNL     1      -1.451   2.426   2.174  1.00  0.00    -0.269 OA
ATOM      7  H   UNL     1      -0.147   3.506   0.562  1.00  0.00     0.163 HD
BRANCH   5   8
ATOM      8  C   UNL     1       0.021   0.572   2.165  1.00  0.00     0.108 A 
ATOM      9  C   UNL     1      -0.233  -0.757   0.021  1.00  0.00     0.046 C 
ATOM     10  C   UNL     1       0.206  -0.560   1.442  1.00  0.00    -0.020 A 
ATOM     11  C   UNL     1       0.601  -1.809   2.095  1.00  0.00     0.041 A 
ATOM     12  C   UNL     1       0.292  -1.987   3.389  1.00  0.00     0.030 A 
ATOM     13  C   UNL     1       1.260  -2.939   1.355  1.00  0.00     0.165 C 
ATOM     14  C   UNL     1       0.035   0.413   3.667  1.00  0.00     0.261 A 
ATOM     15  N   UNL     1      -0.006  -0.881   4.146  1.00  0.00    -0.325 N 
ATOM     16  C   UNL     1       0.266  -3.331   4.065  1.00  0.00     0.061 C 
ATOM     17  C   UNL     1       1.331  -4.298   2.020  1.00  0.00     0.088 C 
ATOM     18  O   UNL     1       1.814  -2.745   0.273  1.00  0.00    -0.294 OA
ATOM     19  O   UNL     1       0.040   1.359   4.447  1.00  0.00    -0.269 OA
ATOM     20  H   UNL     1      -0.264  -1.018   5.086  1.00  0.00     0.169 HD
ATOM     21  C   UNL     1       0.204  -4.496   3.044  1.00  0.00    -0.023 C 
ATOM     22  C   UNL     1      -1.161  -4.561   2.319  1.00  0.00     0.012 C 
ATOM     23  C   UNL     1       0.406  -5.831   3.778  1.00  0.00     0.012 C 
ENDBRANCH   5   8
ENDBRANCH   3   4
ENDBRANCH   2   3
ENDBRANCH   1   2
BRANCH   1  24
ATOM     24  C   UNL     1       1.537   3.266  -3.384  1.00  0.00     0.116 C 
BRANCH  24  25
ATOM     25  N   UNL     1       2.121   2.145  -4.113  1.00  0.00    -0.352 N 
ATOM     26  C   UNL     1       2.756   2.163  -5.332  1.00  0.00     0.251 C 
ATOM     27  H   UNL     1       2.050   1.265  -3.677  1.00  0.00     0.163 HD
ATOM     28  O   UNL     1       3.145   1.129  -5.863  1.00  0.00    -0.269 OA
BRANCH  26  29
ATOM     29  C   UNL     1       2.909   3.459  -6.016  1.00  0.00     0.039 A 
ATOM     30  C   UNL     1       2.411   3.599  -7.312  1.00  0.00     0.014 A 
ATOM     31  C   UNL     1       3.425   4.555  -5.319  1.00  0.00     0.014 A 
ATOM     32  C   UNL     1       2.346   4.870  -7.880  1.00  0.00     0.010 A 
ATOM     33  C   UNL     1       3.273   5.827  -5.850  1.00  0.00     0.010 A 
ATOM     34  C   UNL     1       2.731   5.995  -7.133  1.00  0.00    -0.014 A 
BRANCH  34  35
ATOM     35  C   UNL     1       2.593   7.365  -7.678  1.00  0.00     0.031 A 
ATOM     36  C   UNL     1       3.823   8.193  -7.909  1.00  0.00     0.074 A 
ATOM     37  C   UNL     1       1.369   7.881  -7.896  1.00  0.00     0.049 A 
ATOM     38  N   UNL     1       3.920   9.439  -8.289  1.00  0.00    -0.248 NA
ATOM     39  C   UNL     1       5.117   7.541  -7.643  1.00  0.00     0.031 C 
ATOM     40  C   UNL     1       0.099   7.190  -7.661  1.00  0.00     0.029 A 
ATOM     41  N   UNL     1       0.993   9.114  -8.364  1.00  0.00    -0.354 N 
ATOM     42  C   UNL     1       5.278   9.725  -8.288  1.00  0.00     0.074 A 
ATOM     43  C   UNL     1       5.964   8.543  -7.815  1.00  0.00     0.031 C 
ATOM     44  C   UNL     1      -0.913   7.996  -8.023  1.00  0.00     0.029 A 
ATOM     45  C   UNL     1      -0.366   9.268  -8.483  1.00  0.00     0.049 A 
ATOM     46  H   UNL     1       1.638   9.823  -8.594  1.00  0.00     0.167 HD
ATOM     47  C   UNL     1       5.901  10.860  -8.678  1.00  0.00     0.037 A 
ATOM     48  C   UNL     1      -1.086  10.318  -8.921  1.00  0.00     0.037 A 
ATOM     49  C   UNL     1       5.220  12.016  -9.190  1.00  0.00     0.049 A 
ATOM     50  C   UNL     1      -0.370  11.562  -9.366  1.00  0.00     0.074 A 
ATOM     51  C   UNL     1       5.762  13.200  -9.658  1.00  0.00     0.029 A 
ATOM     52  N   UNL     1       3.843  12.126  -9.313  1.00  0.00    -0.354 N 
ATOM     53  N   UNL     1       0.917  11.807  -9.395  1.00  0.00    -0.248 NA
ATOM     54  C   UNL     1      -1.206  12.676  -9.838  1.00  0.00     0.031 C 
ATOM     55  C   UNL     1       4.710  14.035 -10.047  1.00  0.00     0.029 A 
ATOM     56  C   UNL     1       3.516  13.360  -9.847  1.00  0.00     0.049 A 
ATOM     57  H   UNL     1       3.195  11.430  -9.059  1.00  0.00     0.167 HD
ATOM     58  C   UNL     1       1.049  13.091  -9.905  1.00  0.00     0.074 A 
ATOM     59  C   UNL     1      -0.290  13.571 -10.183  1.00  0.00     0.031 C 
ATOM     60  C   UNL     1       2.176  13.810 -10.122  1.00  0.00     0.037 A 
BRANCH  47  61
ATOM     61  C   UNL     1       7.396  10.886  -8.586  1.00  0.00     0.057 A 
ATOM     62  C   UNL     1       8.196  10.151  -9.470  1.00  0.00     0.134 A 
ATOM     63  C   UNL     1       8.042  11.661  -7.616  1.00  0.00     0.134 A 
ATOM     64  F   UNL     1       7.635   9.374 -10.409  1.00  0.00    -0.206 F 
ATOM     65  C   UNL     1       9.588  10.168  -9.379  1.00  0.00     0.040 A 
ATOM     66  C   UNL     1       9.435  11.704  -7.530  1.00  0.00     0.040 A 
ATOM     67  F   UNL     1       7.333  12.386  -6.739  1.00  0.00    -0.206 F 
ATOM     68  C   UNL     1      10.211  10.951  -8.410  1.00  0.00     0.006 A 
ENDBRANCH  47  61
BRANCH  48  69
ATOM     69  C   UNL     1      -2.563  10.220  -9.007  1.00  0.00     0.057 A 
ATOM     70  C   UNL     1      -3.198  10.088 -10.247  1.00  0.00     0.134 A 
ATOM     71  C   UNL     1      -3.372  10.243  -7.866  1.00  0.00     0.134 A 
ATOM     72  F   UNL     1      -2.476  10.076 -11.377  1.00  0.00    -0.206 F 
ATOM     73  C   UNL     1      -4.587   9.995 -10.352  1.00  0.00     0.040 A 
ATOM     74  C   UNL     1      -4.761  10.133  -7.954  1.00  0.00     0.040 A 
ATOM     75  F   UNL     1      -2.821  10.361  -6.648  1.00  0.00    -0.206 F 
ATOM     76  C   UNL     1      -5.372  10.012  -9.200  1.00  0.00     0.006 A 
ENDBRANCH  48  69
BRANCH  60  77
ATOM     77  C   UNL     1       2.017  15.180 -10.705  1.00  0.00     0.057 A 
ATOM     78  C   UNL     1       1.591  16.261  -9.925  1.00  0.00     0.134 A 
ATOM     79  C   UNL     1       2.361  15.432 -12.038  1.00  0.00     0.134 A 
ATOM     80  F   UNL     1       1.239  16.078  -8.643  1.00  0.00    -0.206 F 
ATOM     81  C   UNL     1       1.506  17.549 -10.454  1.00  0.00     0.040 A 
ATOM     82  C   UNL     1       2.298  16.719 -12.574  1.00  0.00     0.040 A 
ATOM     83  F   UNL     1       2.783  14.437 -12.833  1.00  0.00    -0.206 F 
ATOM     84  C   UNL     1       1.868  17.781 -11.781  1.00  0.00     0.006 A 
ENDBRANCH  60  77
ENDBRANCH  34  35
ENDBRANCH  26  29
ENDBRANCH  24  25
ENDBRANCH   1  24
TORSDOF 11
