REMARK SMILES Cc1ccc2c(CC(=O)N3CCC(C(=O)NCCCCNC(=O)c4ccc(-c5c6nc(c(-c7c(F)cccc7F)c7ccc([nH]7)c(-c7c(F)cccc7F)c7nc(c(-c8c(F)cccc8F)c8ccc5[nH]8)C=C7)C=C6)cc4)CC3)coc2c1
REMARK SMILES IDX 18 1 17 2 16 3 14 4 15 5 13 7 8 8 9 9 10 10 11 11 79 12
REMARK SMILES IDX 12 13 78 14 7 15 6 16 1 17 2 18 3 19 83 20 4 21 82 22 5 23
REMARK SMILES IDX 81 24 80 25 19 26 20 27 21 28 22 29 23 31 24 32 25 33 77 34
REMARK SMILES IDX 26 35 76 36 27 37 28 38 29 39 70 40 30 41 75 42 69 43 71 44
REMARK SMILES IDX 31 45 74 46 68 47 67 48 32 50 58 51 41 52 57 53 42 54 45 55
REMARK SMILES IDX 56 56 72 57 43 58 44 59 55 61 73 62 46 63 33 64 34 65 39 66
REMARK SMILES IDX 35 67 36 68 38 69 40 70 37 71 59 72 60 73 65 74 61 75 62 76
REMARK SMILES IDX 64 77 66 78 63 79 47 80 48 81 53 82 49 83 50 84 52 85 54 86
REMARK SMILES IDX 51 87
REMARK H PARENT 16 6 21 30 71 49 45 60
REMARK Flexibility Score: inf
ROOT
ATOM      1  C   UNL     1      -4.253   9.819  -2.438  1.00  0.00     0.023 C 
ENDROOT
BRANCH   1   2
ATOM      2  C   UNL     1      -3.851   8.598  -1.614  1.00  0.00     0.116 C 
BRANCH   2   3
ATOM      3  N   UNL     1      -4.931   8.150  -0.751  1.00  0.00    -0.356 N 
ATOM      4  C   UNL     1      -5.577   6.954  -0.689  1.00  0.00     0.223 C 
ATOM      5  O   UNL     1      -6.462   6.820   0.159  1.00  0.00    -0.275 OA
ATOM      6  H   UNL     1      -5.248   8.822  -0.105  1.00  0.00     0.163 HD
BRANCH   4   7
ATOM      7  C   UNL     1      -5.212   5.801  -1.613  1.00  0.00     0.082 C 
ATOM      8  C   UNL     1      -2.388   5.423  -4.413  1.00  0.00     0.227 C 
ATOM      9  O   UNL     1      -2.561   6.449  -5.082  1.00  0.00    -0.275 OA
ATOM     10  N   UNL     1      -3.429   4.879  -3.669  1.00  0.00    -0.342 N 
ATOM     11  C   UNL     1      -4.803   5.176  -4.050  1.00  0.00     0.120 C 
ATOM     12  C   UNL     1      -3.302   4.290  -2.343  1.00  0.00     0.120 C 
ATOM     13  C   UNL     1      -5.468   6.147  -3.088  1.00  0.00     0.035 C 
ATOM     14  C   UNL     1      -3.807   5.268  -1.289  1.00  0.00     0.035 C 
BRANCH   8  15
ATOM     15  C   UNL     1      -1.106   4.615  -4.609  1.00  0.00     0.139 C 
BRANCH  15  16
ATOM     16  C   UNL     1      -0.277   4.357  -3.404  1.00  0.00     0.008 A 
ATOM     17  C   UNL     1       0.968  -0.036   0.010  1.00  0.00     0.044 C 
ATOM     18  C   UNL     1       0.634   1.051  -0.972  1.00  0.00    -0.047 A 
ATOM     19  C   UNL     1      -0.098   0.758  -2.131  1.00  0.00     0.004 A 
ATOM     20  C   UNL     1       1.057   2.367  -0.715  1.00  0.00     0.051 A 
ATOM     21  C   UNL     1      -0.444   1.760  -3.048  1.00  0.00     0.012 A 
ATOM     22  C   UNL     1       0.697   3.340  -1.645  1.00  0.00     0.134 A 
ATOM     23  C   UNL     1      -0.045   3.084  -2.789  1.00  0.00     0.024 A 
ATOM     24  O   UNL     1       0.989   4.668  -1.562  1.00  0.00    -0.464 OA
ATOM     25  C   UNL     1       0.412   5.273  -2.634  1.00  0.00     0.200 A 
ENDBRANCH  15  16
ENDBRANCH   8  15
ENDBRANCH   4   7
ENDBRANCH   2   3
ENDBRANCH   1   2
BRANCH   1  26
ATOM     26  C   UNL     1      -4.483  11.098  -1.624  1.00  0.00     0.023 C 
BRANCH  26  27
ATOM     27  C   UNL     1      -3.379  11.415  -0.613  1.00  0.00     0.116 C 
BRANCH  27  28
ATOM     28  N   UNL     1      -2.049  11.409  -1.188  1.00  0.00    -0.352 N 
ATOM     29  C   UNL     1      -1.234  12.346  -1.747  1.00  0.00     0.251 C 
ATOM     30  H   UNL     1      -1.636  10.516  -1.169  1.00  0.00     0.163 HD
ATOM     31  O   UNL     1      -0.088  11.970  -2.021  1.00  0.00    -0.269 OA
BRANCH  29  32
ATOM     32  C   UNL     1      -1.637  13.728  -2.110  1.00  0.00     0.039 A 
ATOM     33  C   UNL     1      -2.897  14.290  -1.899  1.00  0.00     0.014 A 
ATOM     34  C   UNL     1      -0.671  14.472  -2.814  1.00  0.00     0.014 A 
ATOM     35  C   UNL     1      -3.230  15.500  -2.492  1.00  0.00     0.010 A 
ATOM     36  C   UNL     1      -0.992  15.688  -3.393  1.00  0.00     0.010 A 
ATOM     37  C   UNL     1      -2.295  16.158  -3.290  1.00  0.00    -0.014 A 
BRANCH  37  38
ATOM     38  C   UNL     1      -2.725  17.351  -4.002  1.00  0.00     0.031 A 
ATOM     39  C   UNL     1      -3.104  18.506  -3.142  1.00  0.00     0.074 A 
ATOM     40  C   UNL     1      -2.691  17.414  -5.348  1.00  0.00     0.049 A 
ATOM     41  N   UNL     1      -4.245  19.111  -3.065  1.00  0.00    -0.248 NA
ATOM     42  C   UNL     1      -2.114  18.978  -2.161  1.00  0.00     0.031 C 
ATOM     43  C   UNL     1      -2.111  16.455  -6.294  1.00  0.00     0.029 A 
ATOM     44  N   UNL     1      -3.104  18.423  -6.159  1.00  0.00    -0.354 N 
ATOM     45  C   UNL     1      -4.078  20.145  -2.143  1.00  0.00     0.074 A 
ATOM     46  C   UNL     1      -2.791  19.939  -1.532  1.00  0.00     0.031 C 
ATOM     47  C   UNL     1      -1.997  17.038  -7.509  1.00  0.00     0.029 A 
ATOM     48  C   UNL     1      -2.624  18.347  -7.458  1.00  0.00     0.049 A 
ATOM     49  H   UNL     1      -3.694  19.148  -5.850  1.00  0.00     0.167 HD
ATOM     50  C   UNL     1      -4.939  21.199  -2.077  1.00  0.00     0.037 A 
ATOM     51  C   UNL     1      -2.682  19.329  -8.391  1.00  0.00     0.037 A 
ATOM     52  C   UNL     1      -6.182  20.903  -2.737  1.00  0.00     0.049 A 
ATOM     53  C   UNL     1      -3.728  20.292  -7.962  1.00  0.00     0.074 A 
ATOM     54  C   UNL     1      -7.215  20.016  -2.514  1.00  0.00     0.029 A 
ATOM     55  N   UNL     1      -6.354  21.362  -4.019  1.00  0.00    -0.354 N 
ATOM     56  N   UNL     1      -5.002  20.011  -7.947  1.00  0.00    -0.248 NA
ATOM     57  C   UNL     1      -3.322  21.390  -7.096  1.00  0.00     0.031 C 
ATOM     58  C   UNL     1      -7.644  19.619  -3.814  1.00  0.00     0.029 A 
ATOM     59  C   UNL     1      -6.884  20.329  -4.745  1.00  0.00     0.049 A 
ATOM     60  H   UNL     1      -6.138  22.263  -4.353  1.00  0.00     0.167 HD
ATOM     61  C   UNL     1      -5.482  20.593  -6.782  1.00  0.00     0.074 A 
ATOM     62  C   UNL     1      -4.417  21.490  -6.337  1.00  0.00     0.031 C 
ATOM     63  C   UNL     1      -6.569  20.083  -6.132  1.00  0.00     0.037 A 
BRANCH  50  64
ATOM     64  C   UNL     1      -4.553  22.612  -1.719  1.00  0.00     0.057 A 
ATOM     65  C   UNL     1      -3.244  23.120  -1.830  1.00  0.00     0.134 A 
ATOM     66  C   UNL     1      -5.560  23.585  -1.567  1.00  0.00     0.134 A 
ATOM     67  F   UNL     1      -2.184  22.329  -2.033  1.00  0.00    -0.206 F 
ATOM     68  C   UNL     1      -2.962  24.489  -1.842  1.00  0.00     0.040 A 
ATOM     69  C   UNL     1      -5.294  24.958  -1.626  1.00  0.00     0.040 A 
ATOM     70  F   UNL     1      -6.848  23.230  -1.442  1.00  0.00    -0.206 F 
ATOM     71  C   UNL     1      -3.991  25.414  -1.780  1.00  0.00     0.006 A 
ENDBRANCH  50  64
BRANCH  51  72
ATOM     72  C   UNL     1      -1.674  19.650  -9.427  1.00  0.00     0.057 A 
ATOM     73  C   UNL     1      -0.305  19.405  -9.213  1.00  0.00     0.134 A 
ATOM     74  C   UNL     1      -1.990  20.437 -10.542  1.00  0.00     0.134 A 
ATOM     75  F   UNL     1       0.117  18.739  -8.128  1.00  0.00    -0.206 F 
ATOM     76  C   UNL     1       0.690  19.909 -10.055  1.00  0.00     0.040 A 
ATOM     77  C   UNL     1      -1.002  20.953 -11.392  1.00  0.00     0.040 A 
ATOM     78  F   UNL     1      -3.263  20.768 -10.801  1.00  0.00    -0.206 F 
ATOM     79  C   UNL     1       0.344  20.696 -11.145  1.00  0.00     0.006 A 
ENDBRANCH  51  72
BRANCH  63  80
ATOM     80  C   UNL     1      -7.346  18.994  -6.817  1.00  0.00     0.057 A 
ATOM     81  C   UNL     1      -8.711  19.180  -7.056  1.00  0.00     0.134 A 
ATOM     82  C   UNL     1      -6.821  17.723  -7.098  1.00  0.00     0.134 A 
ATOM     83  F   UNL     1      -9.297  20.348  -6.748  1.00  0.00    -0.206 F 
ATOM     84  C   UNL     1      -9.515  18.157  -7.562  1.00  0.00     0.040 A 
ATOM     85  C   UNL     1      -7.607  16.701  -7.637  1.00  0.00     0.040 A 
ATOM     86  F   UNL     1      -5.553  17.417  -6.799  1.00  0.00    -0.206 F 
ATOM     87  C   UNL     1      -8.962  16.915  -7.866  1.00  0.00     0.006 A 
ENDBRANCH  63  80
ENDBRANCH  37  38
ENDBRANCH  29  32
ENDBRANCH  27  28
ENDBRANCH  26  27
ENDBRANCH   1  26
TORSDOF 13
