REMARK SMILES Cc1cc(C(=O)NCCCCNC(=O)c2ccc(-c3c4nc(c(-c5c(F)cccc5F)c5ccc([nH]5)c(-c5c(F)cccc5F)c5nc(c(-c6c(F)cccc6F)c6ccc3[nH]6)C=C5)C=C4)cc2)ccc1N[C@H](C)c1cc(F)cc(F)c1
REMARK SMILES IDX 9 1 8 2 7 3 5 4 6 5 4 7 1 8 2 9 3 10 71 11 70 12 69 13 72 14
REMARK SMILES IDX 73 16 74 17 75 18 76 19 82 20 77 21 80 22 78 23 79 24 81 25
REMARK SMILES IDX 10 26 11 27 12 28 13 29 14 31 15 32 16 33 68 34 17 35 67 36
REMARK SMILES IDX 18 37 19 38 20 39 61 40 21 41 66 42 60 43 62 44 22 45 65 46
REMARK SMILES IDX 59 47 58 48 23 50 49 51 32 52 48 53 33 54 36 55 47 56 63 57
REMARK SMILES IDX 34 58 35 59 46 61 64 62 37 63 24 64 25 65 30 66 26 67 27 68
REMARK SMILES IDX 29 69 31 70 28 71 50 72 51 73 56 74 52 75 53 76 55 77 57 78
REMARK SMILES IDX 54 79 38 80 39 81 44 82 40 83 41 84 43 85 45 86 42 87
REMARK H PARENT 7 6 72 15 12 30 62 49 36 60
REMARK Flexibility Score: inf
ROOT
ATOM      1  C   UNL     1      -1.334  10.592   0.685  1.00  0.00     0.023 C 
ENDROOT
BRANCH   1   2
ATOM      2  C   UNL     1      -0.970  10.556   2.181  1.00  0.00     0.116 C 
BRANCH   2   3
ATOM      3  N   UNL     1      -2.040  10.010   3.007  1.00  0.00    -0.352 N 
ATOM      4  C   UNL     1      -2.452   8.738   3.338  1.00  0.00     0.251 C 
ATOM      5  O   UNL     1      -3.410   8.654   4.110  1.00  0.00    -0.269 OA
ATOM      6  H   UNL     1      -2.594  10.709   3.422  1.00  0.00     0.163 HD
BRANCH   4   7
ATOM      7  C   UNL     1      -1.823   7.477   2.842  1.00  0.00     0.040 A 
ATOM      8  C   UNL     1      -2.333   3.742   3.472  1.00  0.00     0.046 C 
ATOM      9  C   UNL     1      -1.743   4.993   2.873  1.00  0.00    -0.027 A 
ATOM     10  C   UNL     1      -2.298   6.235   3.303  1.00  0.00     0.019 A 
ATOM     11  C   UNL     1      -0.650   4.984   1.986  1.00  0.00     0.037 A 
ATOM     12  C   UNL     1      -0.171   6.235   1.611  1.00  0.00     0.027 A 
ATOM     13  C   UNL     1      -0.759   7.441   1.970  1.00  0.00     0.016 A 
BRANCH  11  14
ATOM     14  N   UNL     1      -0.068   3.825   1.485  1.00  0.00    -0.378 N 
ATOM     15  H   UNL     1       0.068   3.076   2.109  1.00  0.00     0.161 HD
BRANCH  14  16
ATOM     16  C   UNL     1       0.362   3.635   0.080  1.00  0.00     0.106 C 
ATOM     17  C   UNL     1       0.792   2.175  -0.116  1.00  0.00     0.036 C 
BRANCH  16  18
ATOM     18  C   UNL     1       1.478   4.578  -0.357  1.00  0.00    -0.020 A 
ATOM     19  C   UNL     1       1.185   5.644  -1.236  1.00  0.00     0.045 A 
ATOM     20  C   UNL     1       2.762   4.523   0.210  1.00  0.00     0.045 A 
ATOM     21  C   UNL     1       2.112   6.668  -1.435  1.00  0.00     0.126 A 
ATOM     22  C   UNL     1       3.685   5.540  -0.041  1.00  0.00     0.126 A 
ATOM     23  F   UNL     1       1.758   7.743  -2.152  1.00  0.00    -0.207 F 
ATOM     24  C   UNL     1       3.362   6.630  -0.837  1.00  0.00     0.078 A 
ATOM     25  F   UNL     1       4.891   5.487   0.541  1.00  0.00    -0.207 F 
ENDBRANCH  16  18
ENDBRANCH  14  16
ENDBRANCH  11  14
ENDBRANCH   4   7
ENDBRANCH   2   3
ENDBRANCH   1   2
BRANCH   1  26
ATOM     26  C   UNL     1      -2.220  11.785   0.302  1.00  0.00     0.023 C 
BRANCH  26  27
ATOM     27  C   UNL     1      -1.459  13.109   0.292  1.00  0.00     0.116 C 
BRANCH  27  28
ATOM     28  N   UNL     1      -0.999  13.554  -1.018  1.00  0.00    -0.352 N 
ATOM     29  C   UNL     1      -0.121  14.580  -1.351  1.00  0.00     0.251 C 
ATOM     30  H   UNL     1      -1.363  13.052  -1.782  1.00  0.00     0.163 HD
ATOM     31  O   UNL     1       0.070  14.857  -2.521  1.00  0.00    -0.269 OA
BRANCH  29  32
ATOM     32  C   UNL     1       0.705  15.226  -0.292  1.00  0.00     0.039 A 
ATOM     33  C   UNL     1       2.065  15.418  -0.571  1.00  0.00     0.014 A 
ATOM     34  C   UNL     1       0.238  15.380   1.008  1.00  0.00     0.014 A 
ATOM     35  C   UNL     1       2.979  15.439   0.478  1.00  0.00     0.010 A 
ATOM     36  C   UNL     1       1.143  15.280   2.045  1.00  0.00     0.010 A 
ATOM     37  C   UNL     1       2.513  15.214   1.770  1.00  0.00    -0.014 A 
BRANCH  37  38
ATOM     38  C   UNL     1       3.360  14.692   2.838  1.00  0.00     0.031 A 
ATOM     39  C   UNL     1       3.669  15.500   4.032  1.00  0.00     0.074 A 
ATOM     40  C   UNL     1       3.744  13.396   2.778  1.00  0.00     0.049 A 
ATOM     41  N   UNL     1       4.646  15.266   4.842  1.00  0.00    -0.248 NA
ATOM     42  C   UNL     1       2.913  16.694   4.380  1.00  0.00     0.031 C 
ATOM     43  C   UNL     1       4.282  12.576   3.859  1.00  0.00     0.029 A 
ATOM     44  N   UNL     1       3.900  12.605   1.631  1.00  0.00    -0.354 N 
ATOM     45  C   UNL     1       4.475  16.064   5.952  1.00  0.00     0.074 A 
ATOM     46  C   UNL     1       3.446  16.999   5.566  1.00  0.00     0.031 C 
ATOM     47  C   UNL     1       4.944  11.537   3.327  1.00  0.00     0.029 A 
ATOM     48  C   UNL     1       4.986  11.743   1.890  1.00  0.00     0.049 A 
ATOM     49  H   UNL     1       3.359  12.644   0.809  1.00  0.00     0.167 HD
ATOM     50  C   UNL     1       5.124  15.734   7.109  1.00  0.00     0.037 A 
ATOM     51  C   UNL     1       6.131  11.809   1.149  1.00  0.00     0.037 A 
ATOM     52  C   UNL     1       6.068  14.634   6.880  1.00  0.00     0.049 A 
ATOM     53  C   UNL     1       7.364  12.160   1.952  1.00  0.00     0.074 A 
ATOM     54  C   UNL     1       6.005  13.273   7.132  1.00  0.00     0.029 A 
ATOM     55  N   UNL     1       7.159  14.825   6.036  1.00  0.00    -0.354 N 
ATOM     56  N   UNL     1       7.328  12.677   3.148  1.00  0.00    -0.248 NA
ATOM     57  C   UNL     1       8.730  11.991   1.460  1.00  0.00     0.031 C 
ATOM     58  C   UNL     1       7.022  12.636   6.376  1.00  0.00     0.029 A 
ATOM     59  C   UNL     1       7.718  13.611   5.683  1.00  0.00     0.049 A 
ATOM     60  H   UNL     1       7.487  15.702   5.734  1.00  0.00     0.167 HD
ATOM     61  C   UNL     1       8.603  12.943   3.572  1.00  0.00     0.074 A 
ATOM     62  C   UNL     1       9.448  12.472   2.491  1.00  0.00     0.031 C 
ATOM     63  C   UNL     1       8.851  13.548   4.771  1.00  0.00     0.037 A 
BRANCH  50  64
ATOM     64  C   UNL     1       4.684  16.172   8.501  1.00  0.00     0.057 A 
ATOM     65  C   UNL     1       5.027  15.406   9.636  1.00  0.00     0.134 A 
ATOM     66  C   UNL     1       3.857  17.269   8.798  1.00  0.00     0.134 A 
ATOM     67  F   UNL     1       5.912  14.403   9.572  1.00  0.00    -0.206 F 
ATOM     68  C   UNL     1       4.482  15.628  10.911  1.00  0.00     0.040 A 
ATOM     69  C   UNL     1       3.272  17.481  10.056  1.00  0.00     0.040 A 
ATOM     70  F   UNL     1       3.619  18.239   7.913  1.00  0.00    -0.206 F 
ATOM     71  C   UNL     1       3.567  16.645  11.117  1.00  0.00     0.006 A 
ENDBRANCH  50  64
BRANCH  51  72
ATOM     72  C   UNL     1       5.894  12.196  -0.266  1.00  0.00     0.057 A 
ATOM     73  C   UNL     1       5.172  11.315  -1.091  1.00  0.00     0.134 A 
ATOM     74  C   UNL     1       6.013  13.520  -0.697  1.00  0.00     0.134 A 
ATOM     75  F   UNL     1       5.019  10.030  -0.733  1.00  0.00    -0.206 F 
ATOM     76  C   UNL     1       4.503  11.756  -2.235  1.00  0.00     0.040 A 
ATOM     77  C   UNL     1       5.355  13.971  -1.849  1.00  0.00     0.040 A 
ATOM     78  F   UNL     1       6.662  14.426   0.048  1.00  0.00    -0.206 F 
ATOM     79  C   UNL     1       4.566  13.098  -2.598  1.00  0.00     0.006 A 
ENDBRANCH  51  72
BRANCH  63  80
ATOM     80  C   UNL     1      10.187  14.070   5.233  1.00  0.00     0.057 A 
ATOM     81  C   UNL     1      11.165  14.596   4.376  1.00  0.00     0.134 A 
ATOM     82  C   UNL     1      10.463  14.199   6.612  1.00  0.00     0.134 A 
ATOM     83  F   UNL     1      10.988  14.631   3.049  1.00  0.00    -0.206 F 
ATOM     84  C   UNL     1      12.353  15.166   4.854  1.00  0.00     0.040 A 
ATOM     85  C   UNL     1      11.620  14.812   7.101  1.00  0.00     0.040 A 
ATOM     86  F   UNL     1       9.607  13.755   7.544  1.00  0.00    -0.206 F 
ATOM     87  C   UNL     1      12.579  15.288   6.220  1.00  0.00     0.006 A 
ENDBRANCH  63  80
ENDBRANCH  37  38
ENDBRANCH  29  32
ENDBRANCH  27  28
ENDBRANCH  26  27
ENDBRANCH   1  26
TORSDOF 14
