REMARK SMILES Cc1cccc(C[N@@H+](C)C[C@]2(C(=O)NCCCCNC(=O)c3ccc(-c4c5nc(c(-c6c(F)cccc6F)c6ccc([nH]6)c(-c6c(F)cccc6F)c6nc(c(-c7c(F)cccc7F)c7ccc4[nH]7)C=C6)C=C5)cc3)CCOC2)n1
REMARK SMILES IDX 15 1 14 2 12 3 13 4 11 6 76 7 79 8 77 9 78 10 10 11 8 12
REMARK SMILES IDX 9 13 7 15 6 16 1 17 2 18 3 19 80 20 4 21 5 22 16 23 17 24
REMARK SMILES IDX 18 25 19 26 20 27 21 29 22 30 23 31 75 32 24 33 74 34 25 35
REMARK SMILES IDX 26 36 27 37 68 38 28 39 73 40 67 41 69 42 29 43 72 44 66 45
REMARK SMILES IDX 65 46 30 48 56 49 39 50 55 51 40 52 43 53 54 54 70 55 41 56
REMARK SMILES IDX 42 57 53 59 71 60 44 61 31 62 32 63 37 64 33 65 34 66 36 67
REMARK SMILES IDX 38 68 35 69 57 70 58 71 63 72 59 73 60 74 62 75 64 76 61 77
REMARK SMILES IDX 45 78 46 79 51 80 47 81 48 82 50 83 52 84 49 85
REMARK H PARENT 14 5 8 14 19 28 69 47 43 58
REMARK Flexibility Score: inf
ROOT
ATOM      1  C   UNL     1      -6.519   2.166   2.240  1.00  0.00     0.116 C 
ENDROOT
BRANCH   1   2
ATOM      2  N   UNL     1      -5.481   1.931   1.259  1.00  0.00    -0.355 N 
ATOM      3  C   UNL     1      -4.143   2.115   1.237  1.00  0.00     0.234 C 
ATOM      4  O   UNL     1      -3.669   1.961   0.111  1.00  0.00    -0.274 OA
ATOM      5  H   UNL     1      -5.828   1.552   0.420  1.00  0.00     0.163 HD
BRANCH   3   6
ATOM      6  C   UNL     1      -3.286   2.420   2.470  1.00  0.00     0.123 C 
ATOM      7  C   UNL     1      -3.719   3.669   3.244  1.00  0.00     0.054 C 
ATOM      8  C   UNL     1      -3.524   1.279   3.489  1.00  0.00     0.183 C 
ATOM      9  C   UNL     1      -3.779   3.216   4.688  1.00  0.00     0.161 C 
ATOM     10  O   UNL     1      -4.161   1.845   4.643  1.00  0.00    -0.380 OA
BRANCH   6  11
ATOM     11  C   UNL     1      -1.748   2.433   2.146  1.00  0.00     0.281 C 
BRANCH  11  12
ATOM     12  N   UNL     1      -1.088   3.258   1.120  1.00  0.00    -0.331 N 
ATOM     13  C   UNL     1      -1.575   4.619   0.985  1.00  0.00     0.333 C 
ATOM     14  H   UNL     1      -0.162   3.316   1.544  1.00  0.00     0.348 HD
BRANCH  12  15
ATOM     15  C   UNL     1      -0.878   2.638  -0.211  1.00  0.00     0.319 C 
BRANCH  15  16
ATOM     16  C   UNL     1      -0.333   1.215  -0.228  1.00  0.00     0.095 A 
ATOM     17  C   UNL     1       2.981  -0.341   0.102  1.00  0.00     0.067 C 
ATOM     18  C   UNL     1       1.496  -0.211  -0.033  1.00  0.00     0.038 A 
ATOM     19  C   UNL     1       0.688  -1.338  -0.134  1.00  0.00     0.023 A 
ATOM     20  N   UNL     1       1.005   1.051  -0.065  1.00  0.00    -0.252 NA
ATOM     21  C   UNL     1      -0.678  -1.163  -0.309  1.00  0.00     0.004 A 
ATOM     22  C   UNL     1      -1.192   0.126  -0.376  1.00  0.00     0.030 A 
ENDBRANCH  15  16
ENDBRANCH  12  15
ENDBRANCH  11  12
ENDBRANCH   6  11
ENDBRANCH   3   6
ENDBRANCH   1   2
BRANCH   1  23
ATOM     23  C   UNL     1      -7.386   3.356   1.823  1.00  0.00     0.023 C 
BRANCH  23  24
ATOM     24  C   UNL     1      -7.953   3.278   0.400  1.00  0.00     0.023 C 
BRANCH  24  25
ATOM     25  C   UNL     1      -8.631   1.963   0.030  1.00  0.00     0.116 C 
BRANCH  25  26
ATOM     26  N   UNL     1      -9.704   1.609   0.940  1.00  0.00    -0.352 N 
ATOM     27  C   UNL     1     -10.982   1.195   0.656  1.00  0.00     0.251 C 
ATOM     28  H   UNL     1      -9.485   1.674   1.898  1.00  0.00     0.163 HD
ATOM     29  O   UNL     1     -11.800   1.054   1.554  1.00  0.00    -0.269 OA
BRANCH  27  30
ATOM     30  C   UNL     1     -11.374   0.955  -0.748  1.00  0.00     0.039 A 
ATOM     31  C   UNL     1     -12.553   1.536  -1.219  1.00  0.00     0.014 A 
ATOM     32  C   UNL     1     -10.582   0.173  -1.594  1.00  0.00     0.014 A 
ATOM     33  C   UNL     1     -12.911   1.382  -2.558  1.00  0.00     0.010 A 
ATOM     34  C   UNL     1     -10.907   0.072  -2.944  1.00  0.00     0.010 A 
ATOM     35  C   UNL     1     -12.074   0.676  -3.438  1.00  0.00    -0.014 A 
BRANCH  35  36
ATOM     36  C   UNL     1     -12.405   0.559  -4.879  1.00  0.00     0.031 A 
ATOM     37  C   UNL     1     -12.728  -0.782  -5.473  1.00  0.00     0.074 A 
ATOM     38  C   UNL     1     -12.354   1.653  -5.664  1.00  0.00     0.049 A 
ATOM     39  N   UNL     1     -12.970  -1.098  -6.719  1.00  0.00    -0.248 NA
ATOM     40  C   UNL     1     -12.757  -1.925  -4.546  1.00  0.00     0.031 C 
ATOM     41  C   UNL     1     -12.011   3.003  -5.213  1.00  0.00     0.029 A 
ATOM     42  N   UNL     1     -12.577   1.798  -7.010  1.00  0.00    -0.354 N 
ATOM     43  C   UNL     1     -13.163  -2.473  -6.729  1.00  0.00     0.074 A 
ATOM     44  C   UNL     1     -12.965  -2.938  -5.374  1.00  0.00     0.031 C 
ATOM     45  C   UNL     1     -12.063   3.842  -6.261  1.00  0.00     0.029 A 
ATOM     46  C   UNL     1     -12.407   3.085  -7.460  1.00  0.00     0.049 A 
ATOM     47  H   UNL     1     -12.835   1.052  -7.597  1.00  0.00     0.167 HD
ATOM     48  C   UNL     1     -13.497  -3.272  -7.770  1.00  0.00     0.037 A 
ATOM     49  C   UNL     1     -12.508   3.594  -8.702  1.00  0.00     0.037 A 
ATOM     50  C   UNL     1     -13.720  -2.802  -9.112  1.00  0.00     0.049 A 
ATOM     51  C   UNL     1     -12.877   2.686  -9.841  1.00  0.00     0.074 A 
ATOM     52  C   UNL     1     -14.122  -3.523 -10.223  1.00  0.00     0.029 A 
ATOM     53  N   UNL     1     -13.557  -1.488  -9.525  1.00  0.00    -0.354 N 
ATOM     54  N   UNL     1     -13.122   1.398  -9.825  1.00  0.00    -0.248 NA
ATOM     55  C   UNL     1     -12.989   3.302 -11.171  1.00  0.00     0.031 C 
ATOM     56  C   UNL     1     -14.165  -2.653 -11.317  1.00  0.00     0.029 A 
ATOM     57  C   UNL     1     -13.832  -1.381 -10.878  1.00  0.00     0.049 A 
ATOM     58  H   UNL     1     -13.287  -0.742  -8.942  1.00  0.00     0.167 HD
ATOM     59  C   UNL     1     -13.441   1.055 -11.132  1.00  0.00     0.074 A 
ATOM     60  C   UNL     1     -13.371   2.272 -11.913  1.00  0.00     0.031 C 
ATOM     61  C   UNL     1     -13.764  -0.160 -11.639  1.00  0.00     0.037 A 
BRANCH  48  62
ATOM     62  C   UNL     1     -13.643  -4.740  -7.495  1.00  0.00     0.057 A 
ATOM     63  C   UNL     1     -14.718  -5.248  -6.753  1.00  0.00     0.134 A 
ATOM     64  C   UNL     1     -12.716  -5.659  -8.001  1.00  0.00     0.134 A 
ATOM     65  F   UNL     1     -15.634  -4.420  -6.230  1.00  0.00    -0.206 F 
ATOM     66  C   UNL     1     -14.851  -6.615  -6.503  1.00  0.00     0.040 A 
ATOM     67  C   UNL     1     -12.852  -7.031  -7.780  1.00  0.00     0.040 A 
ATOM     68  F   UNL     1     -11.666  -5.240  -8.724  1.00  0.00    -0.206 F 
ATOM     69  C   UNL     1     -13.919  -7.511  -7.022  1.00  0.00     0.006 A 
ENDBRANCH  48  62
BRANCH  49  70
ATOM     70  C   UNL     1     -12.275   5.042  -8.931  1.00  0.00     0.057 A 
ATOM     71  C   UNL     1     -13.333   5.901  -9.250  1.00  0.00     0.134 A 
ATOM     72  C   UNL     1     -10.995   5.601  -8.841  1.00  0.00     0.134 A 
ATOM     73  F   UNL     1     -14.580   5.420  -9.368  1.00  0.00    -0.206 F 
ATOM     74  C   UNL     1     -13.125   7.260  -9.488  1.00  0.00     0.040 A 
ATOM     75  C   UNL     1     -10.776   6.963  -9.053  1.00  0.00     0.040 A 
ATOM     76  F   UNL     1      -9.941   4.832  -8.531  1.00  0.00    -0.206 F 
ATOM     77  C   UNL     1     -11.843   7.795  -9.385  1.00  0.00     0.006 A 
ENDBRANCH  49  70
BRANCH  61  78
ATOM     78  C   UNL     1     -14.099  -0.227 -13.099  1.00  0.00     0.057 A 
ATOM     79  C   UNL     1     -13.112  -0.127 -14.087  1.00  0.00     0.134 A 
ATOM     80  C   UNL     1     -15.418  -0.439 -13.518  1.00  0.00     0.134 A 
ATOM     81  F   UNL     1     -11.832   0.090 -13.751  1.00  0.00    -0.206 F 
ATOM     82  C   UNL     1     -13.429  -0.218 -15.444  1.00  0.00     0.040 A 
ATOM     83  C   UNL     1     -15.744  -0.556 -14.870  1.00  0.00     0.040 A 
ATOM     84  F   UNL     1     -16.409  -0.551 -12.620  1.00  0.00    -0.206 F 
ATOM     85  C   UNL     1     -14.748  -0.441 -15.837  1.00  0.00     0.006 A 
ENDBRANCH  61  78
ENDBRANCH  35  36
ENDBRANCH  27  30
ENDBRANCH  25  26
ENDBRANCH  24  25
ENDBRANCH  23  24
ENDBRANCH   1  23
TORSDOF 15
