REMARK SMILES C[C@@H](C(=O)NCCCCNC(=O)c1ccc(-c2c3nc(c(-c4c(F)cccc4F)c4ccc([nH]4)c(-c4c(F)cccc4F)c4nc(c(-c5c(F)cccc5F)c5ccc2[nH]5)C=C4)C=C3)cc1)c1ccc(Cc2ccco2)cc1F
REMARK SMILES IDX 7 1 6 2 5 3 3 4 4 5 2 7 1 8 67 9 68 10 78 11 69 12 77 13
REMARK SMILES IDX 79 14 70 15 71 16 72 17 73 18 76 19 74 20 75 21 8 22 9 23
REMARK SMILES IDX 10 24 11 25 12 27 13 28 14 29 66 30 15 31 65 32 16 33 17 34
REMARK SMILES IDX 18 35 59 36 19 37 64 38 58 39 60 40 20 41 63 42 57 43 56 44
REMARK SMILES IDX 21 46 47 47 30 48 46 49 31 50 34 51 45 52 61 53 32 54 33 55
REMARK SMILES IDX 44 57 62 58 35 59 22 60 23 61 28 62 24 63 25 64 27 65 29 66
REMARK SMILES IDX 26 67 48 68 49 69 54 70 50 71 51 72 53 73 55 74 52 75 36 76
REMARK SMILES IDX 37 77 42 78 38 79 39 80 41 81 43 82 40 83
REMARK H PARENT 5 6 10 26 60 45 34 56
REMARK Flexibility Score: inf
ROOT
ATOM      1  C   UNL     1       4.332   1.062   0.392  1.00  0.00     0.023 C 
ENDROOT
BRANCH   1   2
ATOM      2  C   UNL     1       3.571   0.529   1.608  1.00  0.00     0.116 C 
BRANCH   2   3
ATOM      3  N   UNL     1       2.570   1.473   2.055  1.00  0.00    -0.356 N 
ATOM      4  C   UNL     1       1.214   1.465   1.907  1.00  0.00     0.227 C 
ATOM      5  O   UNL     1       0.623   2.441   2.374  1.00  0.00    -0.274 OA
ATOM      6  H   UNL     1       2.926   2.249   2.546  1.00  0.00     0.163 HD
BRANCH   4   7
ATOM      7  C   UNL     1       0.509   0.270   1.236  1.00  0.00     0.108 C 
ATOM      8  C   UNL     1       0.833   0.139  -0.254  1.00  0.00     0.023 C 
BRANCH   7   9
ATOM      9  C   UNL     1      -1.009   0.283   1.374  1.00  0.00    -0.000 A 
ATOM     10  C   UNL     1      -1.771   1.431   1.113  1.00  0.00     0.008 A 
ATOM     11  C   UNL     1      -1.692  -0.899   1.678  1.00  0.00     0.127 A 
ATOM     12  C   UNL     1      -3.163   1.401   1.204  1.00  0.00     0.005 A 
ATOM     13  C   UNL     1      -3.083  -0.937   1.772  1.00  0.00     0.043 A 
ATOM     14  F   UNL     1      -1.006  -2.037   1.858  1.00  0.00    -0.207 F 
ATOM     15  C   UNL     1      -3.836   0.223   1.551  1.00  0.00    -0.038 A 
BRANCH  15  16
ATOM     16  C   UNL     1      -5.343   0.209   1.676  1.00  0.00     0.111 C 
BRANCH  16  17
ATOM     17  C   UNL     1      -5.855   0.938   2.873  1.00  0.00     0.108 A 
ATOM     18  C   UNL     1      -5.692   2.220   3.361  1.00  0.00     0.046 A 
ATOM     19  O   UNL     1      -6.708   0.244   3.683  1.00  0.00    -0.469 OA
ATOM     20  C   UNL     1      -6.477   2.310   4.534  1.00  0.00     0.042 A 
ATOM     21  C   UNL     1      -7.076   1.083   4.686  1.00  0.00     0.195 A 
ENDBRANCH  16  17
ENDBRANCH  15  16
ENDBRANCH   7   9
ENDBRANCH   4   7
ENDBRANCH   2   3
ENDBRANCH   1   2
BRANCH   1  22
ATOM     22  C   UNL     1       5.097   2.365   0.630  1.00  0.00     0.023 C 
BRANCH  22  23
ATOM     23  C   UNL     1       6.072   2.337   1.798  1.00  0.00     0.116 C 
BRANCH  23  24
ATOM     24  N   UNL     1       7.081   1.299   1.663  1.00  0.00    -0.352 N 
ATOM     25  C   UNL     1       8.432   1.375   1.888  1.00  0.00     0.251 C 
ATOM     26  H   UNL     1       6.749   0.420   1.368  1.00  0.00     0.163 HD
ATOM     27  O   UNL     1       9.161   0.434   1.581  1.00  0.00    -0.269 OA
BRANCH  25  28
ATOM     28  C   UNL     1       9.012   2.599   2.478  1.00  0.00     0.039 A 
ATOM     29  C   UNL     1      10.197   3.109   1.942  1.00  0.00     0.014 A 
ATOM     30  C   UNL     1       8.396   3.238   3.557  1.00  0.00     0.014 A 
ATOM     31  C   UNL     1      10.743   4.282   2.466  1.00  0.00     0.010 A 
ATOM     32  C   UNL     1       8.892   4.453   4.018  1.00  0.00     0.010 A 
ATOM     33  C   UNL     1      10.084   4.974   3.495  1.00  0.00    -0.014 A 
BRANCH  33  34
ATOM     34  C   UNL     1      10.655   6.217   4.071  1.00  0.00     0.031 A 
ATOM     35  C   UNL     1      11.080   6.248   5.514  1.00  0.00     0.074 A 
ATOM     36  C   UNL     1      10.750   7.328   3.315  1.00  0.00     0.049 A 
ATOM     37  N   UNL     1      11.574   7.239   6.212  1.00  0.00    -0.248 NA
ATOM     38  C   UNL     1      10.895   5.007   6.284  1.00  0.00     0.031 C 
ATOM     39  C   UNL     1      10.331   7.440   1.917  1.00  0.00     0.029 A 
ATOM     40  N   UNL     1      11.231   8.576   3.620  1.00  0.00    -0.354 N 
ATOM     41  C   UNL     1      11.738   6.747   7.502  1.00  0.00     0.074 A 
ATOM     42  C   UNL     1      11.231   5.393   7.505  1.00  0.00     0.031 C 
ATOM     43  C   UNL     1      10.608   8.677   1.474  1.00  0.00     0.029 A 
ATOM     44  C   UNL     1      11.190   9.454   2.565  1.00  0.00     0.049 A 
ATOM     45  H   UNL     1      11.572   8.819   4.511  1.00  0.00     0.167 HD
ATOM     46  C   UNL     1      12.285   7.357   8.580  1.00  0.00     0.037 A 
ATOM     47  C   UNL     1      11.584  10.739   2.486  1.00  0.00     0.037 A 
ATOM     48  C   UNL     1      12.812   8.697   8.565  1.00  0.00     0.049 A 
ATOM     49  C   UNL     1      12.188  11.397   3.696  1.00  0.00     0.074 A 
ATOM     50  C   UNL     1      13.444   9.387   9.584  1.00  0.00     0.029 A 
ATOM     51  N   UNL     1      12.761   9.551   7.473  1.00  0.00    -0.354 N 
ATOM     52  N   UNL     1      12.406  10.898   4.889  1.00  0.00    -0.248 NA
ATOM     53  C   UNL     1      12.611  12.795   3.543  1.00  0.00     0.031 C 
ATOM     54  C   UNL     1      13.729  10.678   9.125  1.00  0.00     0.029 A 
ATOM     55  C   UNL     1      13.331  10.771   7.801  1.00  0.00     0.049 A 
ATOM     56  H   UNL     1      12.378   9.325   6.595  1.00  0.00     0.167 HD
ATOM     57  C   UNL     1      13.031  11.905   5.615  1.00  0.00     0.074 A 
ATOM     58  C   UNL     1      13.160  13.040   4.725  1.00  0.00     0.031 C 
ATOM     59  C   UNL     1      13.465  11.888   6.900  1.00  0.00     0.037 A 
BRANCH  46  60
ATOM     60  C   UNL     1      12.328   6.578   9.864  1.00  0.00     0.057 A 
ATOM     61  C   UNL     1      13.137   5.443  10.021  1.00  0.00     0.134 A 
ATOM     62  C   UNL     1      11.551   6.969  10.962  1.00  0.00     0.134 A 
ATOM     63  F   UNL     1      13.898   5.005   9.006  1.00  0.00    -0.206 F 
ATOM     64  C   UNL     1      13.139   4.703  11.205  1.00  0.00     0.040 A 
ATOM     65  C   UNL     1      11.570   6.257  12.163  1.00  0.00     0.040 A 
ATOM     66  F   UNL     1      10.758   8.049  10.887  1.00  0.00    -0.206 F 
ATOM     67  C   UNL     1      12.357   5.113  12.282  1.00  0.00     0.006 A 
ENDBRANCH  46  60
BRANCH  47  68
ATOM     68  C   UNL     1      11.469  11.473   1.201  1.00  0.00     0.057 A 
ATOM     69  C   UNL     1      12.611  11.821   0.468  1.00  0.00     0.134 A 
ATOM     70  C   UNL     1      10.227  11.848   0.676  1.00  0.00     0.134 A 
ATOM     71  F   UNL     1      13.830  11.504   0.928  1.00  0.00    -0.206 F 
ATOM     72  C   UNL     1      12.524  12.531  -0.730  1.00  0.00     0.040 A 
ATOM     73  C   UNL     1      10.124  12.537  -0.534  1.00  0.00     0.040 A 
ATOM     74  F   UNL     1       9.096  11.538   1.325  1.00  0.00    -0.206 F 
ATOM     75  C   UNL     1      11.275  12.887  -1.237  1.00  0.00     0.006 A 
ENDBRANCH  47  68
BRANCH  59  76
ATOM     76  C   UNL     1      14.176  13.113   7.402  1.00  0.00     0.057 A 
ATOM     77  C   UNL     1      13.510  14.322   7.636  1.00  0.00     0.134 A 
ATOM     78  C   UNL     1      15.549  13.068   7.680  1.00  0.00     0.134 A 
ATOM     79  F   UNL     1      12.198  14.437   7.380  1.00  0.00    -0.206 F 
ATOM     80  C   UNL     1      14.189  15.451   8.098  1.00  0.00     0.040 A 
ATOM     81  C   UNL     1      16.232  14.180   8.173  1.00  0.00     0.040 A 
ATOM     82  F   UNL     1      16.247  11.938   7.489  1.00  0.00    -0.206 F 
ATOM     83  C   UNL     1      15.553  15.379   8.374  1.00  0.00     0.006 A 
ENDBRANCH  59  76
ENDBRANCH  33  34
ENDBRANCH  25  28
ENDBRANCH  23  24
ENDBRANCH  22  23
ENDBRANCH   1  22
TORSDOF 14
