REMARK SMILES O=C(CCCCCC(F)(F)c1ccccc1)NCCCCNC(=O)c1ccc(-c2c3nc(c(-c4c(F)cccc4F)c4ccc([nH]4)c(-c4c(F)cccc4F)c4nc(c(-c5c(F)cccc5F)c5ccc2[nH]5)C=C4)C=C3)cc1
REMARK SMILES IDX 1 1 2 2 17 3 3 5 4 6 5 7 6 8 7 9 8 10 9 11 10 12 11 13 12 14
REMARK SMILES IDX 16 15 13 16 15 17 14 18 18 19 19 20 20 21 21 22 22 23 23 24
REMARK SMILES IDX 24 26 25 27 26 28 78 29 27 30 77 31 28 32 29 33 30 34 71 35
REMARK SMILES IDX 31 36 76 37 70 38 72 39 32 40 75 41 69 42 68 43 33 45 59 46
REMARK SMILES IDX 42 47 58 48 43 49 46 50 57 51 73 52 44 53 45 54 56 56 74 57
REMARK SMILES IDX 47 58 34 59 35 60 40 61 36 62 37 63 39 64 41 65 38 66 60 67
REMARK SMILES IDX 61 68 66 69 62 70 63 71 65 72 67 73 64 74 48 75 49 76 54 77
REMARK SMILES IDX 50 78 51 79 53 80 55 81 52 82
REMARK H PARENT 17 4 22 25 72 44 46 55
REMARK Flexibility Score: inf
ROOT
ATOM      1  O   UNL     1       0.692  -0.224  -0.144  1.00  0.00    -0.275 OA
ATOM      2  C   UNL     1       1.792   0.134   0.264  1.00  0.00     0.219 C 
ATOM      3  N   UNL     1       2.437   1.273  -0.160  1.00  0.00    -0.356 N 
ATOM      4  H   UNL     1       3.280   1.532   0.277  1.00  0.00     0.163 HD
ENDROOT
BRANCH   2   5
ATOM      5  C   UNL     1       2.609  -0.690   1.241  1.00  0.00     0.100 C 
BRANCH   5   6
ATOM      6  C   UNL     1       3.475  -1.715   0.512  1.00  0.00     0.010 C 
BRANCH   6   7
ATOM      7  C   UNL     1       4.569  -1.123  -0.382  1.00  0.00     0.001 C 
BRANCH   7   8
ATOM      8  C   UNL     1       5.807  -0.580   0.337  1.00  0.00     0.007 C 
BRANCH   8   9
ATOM      9  C   UNL     1       6.805  -1.629   0.857  1.00  0.00     0.082 C 
BRANCH   9  10
ATOM     10  C   UNL     1       7.782  -2.218  -0.184  1.00  0.00     0.273 C 
ATOM     11  F   UNL     1       8.419  -1.176  -0.798  1.00  0.00    -0.201 F 
ATOM     12  F   UNL     1       8.762  -2.863   0.521  1.00  0.00    -0.201 F 
BRANCH  10  13
ATOM     13  C   UNL     1       7.116  -3.156  -1.167  1.00  0.00     0.021 A 
ATOM     14  C   UNL     1       6.699  -2.700  -2.428  1.00  0.00     0.010 A 
ATOM     15  C   UNL     1       6.825  -4.478  -0.794  1.00  0.00     0.010 A 
ATOM     16  C   UNL     1       5.904  -3.508  -3.243  1.00  0.00     0.001 A 
ATOM     17  C   UNL     1       6.059  -5.295  -1.626  1.00  0.00     0.001 A 
ATOM     18  C   UNL     1       5.573  -4.799  -2.835  1.00  0.00     0.000 A 
ENDBRANCH  10  13
ENDBRANCH   9  10
ENDBRANCH   8   9
ENDBRANCH   7   8
ENDBRANCH   6   7
ENDBRANCH   5   6
ENDBRANCH   2   5
BRANCH   3  19
ATOM     19  C   UNL     1       1.921   2.104  -1.226  1.00  0.00     0.116 C 
BRANCH  19  20
ATOM     20  C   UNL     1       2.408   3.545  -1.103  1.00  0.00     0.023 C 
BRANCH  20  21
ATOM     21  C   UNL     1       3.920   3.735  -1.277  1.00  0.00     0.023 C 
BRANCH  21  22
ATOM     22  C   UNL     1       4.468   3.388  -2.659  1.00  0.00     0.116 C 
BRANCH  22  23
ATOM     23  N   UNL     1       3.933   4.250  -3.701  1.00  0.00    -0.352 N 
ATOM     24  C   UNL     1       4.572   5.113  -4.554  1.00  0.00     0.251 C 
ATOM     25  H   UNL     1       2.956   4.207  -3.812  1.00  0.00     0.163 HD
ATOM     26  O   UNL     1       3.907   5.896  -5.236  1.00  0.00    -0.269 OA
BRANCH  24  27
ATOM     27  C   UNL     1       6.048   5.136  -4.656  1.00  0.00     0.039 A 
ATOM     28  C   UNL     1       6.697   6.371  -4.748  1.00  0.00     0.014 A 
ATOM     29  C   UNL     1       6.794   3.955  -4.700  1.00  0.00     0.014 A 
ATOM     30  C   UNL     1       8.092   6.424  -4.816  1.00  0.00     0.010 A 
ATOM     31  C   UNL     1       8.188   4.010  -4.695  1.00  0.00     0.010 A 
ATOM     32  C   UNL     1       8.853   5.245  -4.751  1.00  0.00    -0.014 A 
BRANCH  32  33
ATOM     33  C   UNL     1      10.339   5.288  -4.728  1.00  0.00     0.031 A 
ATOM     34  C   UNL     1      11.140   4.671  -5.842  1.00  0.00     0.074 A 
ATOM     35  C   UNL     1      10.972   5.831  -3.669  1.00  0.00     0.049 A 
ATOM     36  N   UNL     1      12.438   4.548  -5.958  1.00  0.00    -0.248 NA
ATOM     37  C   UNL     1      10.381   4.095  -6.962  1.00  0.00     0.031 C 
ATOM     38  C   UNL     1      10.315   6.425  -2.504  1.00  0.00     0.029 A 
ATOM     39  N   UNL     1      12.312   5.958  -3.395  1.00  0.00    -0.354 N 
ATOM     40  C   UNL     1      12.651   3.876  -7.154  1.00  0.00     0.074 A 
ATOM     41  C   UNL     1      11.347   3.569  -7.702  1.00  0.00     0.031 C 
ATOM     42  C   UNL     1      11.251   6.868  -1.650  1.00  0.00     0.029 A 
ATOM     43  C   UNL     1      12.572   6.554  -2.184  1.00  0.00     0.049 A 
ATOM     44  H   UNL     1      13.019   5.652  -4.008  1.00  0.00     0.167 HD
ATOM     45  C   UNL     1      13.824   3.562  -7.755  1.00  0.00     0.037 A 
ATOM     46  C   UNL     1      13.742   6.806  -1.566  1.00  0.00     0.037 A 
ATOM     47  C   UNL     1      15.122   3.878  -7.217  1.00  0.00     0.049 A 
ATOM     48  C   UNL     1      15.030   6.429  -2.244  1.00  0.00     0.074 A 
ATOM     49  C   UNL     1      16.367   3.644  -7.775  1.00  0.00     0.029 A 
ATOM     50  N   UNL     1      15.343   4.494  -5.994  1.00  0.00    -0.354 N 
ATOM     51  N   UNL     1      15.216   5.850  -3.405  1.00  0.00    -0.248 NA
ATOM     52  C   UNL     1      16.273   6.747  -1.526  1.00  0.00     0.031 C 
ATOM     53  C   UNL     1      17.342   4.074  -6.869  1.00  0.00     0.029 A 
ATOM     54  C   UNL     1      16.704   4.627  -5.771  1.00  0.00     0.049 A 
ATOM     55  H   UNL     1      14.637   4.793  -5.376  1.00  0.00     0.167 HD
ATOM     56  C   UNL     1      16.592   5.761  -3.571  1.00  0.00     0.074 A 
ATOM     57  C   UNL     1      17.194   6.359  -2.398  1.00  0.00     0.031 C 
ATOM     58  C   UNL     1      17.293   5.231  -4.602  1.00  0.00     0.037 A 
BRANCH  45  59
ATOM     59  C   UNL     1      13.758   2.837  -9.070  1.00  0.00     0.057 A 
ATOM     60  C   UNL     1      13.301   3.466 -10.236  1.00  0.00     0.134 A 
ATOM     61  C   UNL     1      14.192   1.510  -9.181  1.00  0.00     0.134 A 
ATOM     62  F   UNL     1      12.862   4.733 -10.199  1.00  0.00    -0.206 F 
ATOM     63  C   UNL     1      13.252   2.792 -11.458  1.00  0.00     0.040 A 
ATOM     64  C   UNL     1      14.175   0.836 -10.403  1.00  0.00     0.040 A 
ATOM     65  F   UNL     1      14.650   0.851  -8.106  1.00  0.00    -0.206 F 
ATOM     66  C   UNL     1      13.697   1.475 -11.545  1.00  0.00     0.006 A 
ENDBRANCH  45  59
BRANCH  46  67
ATOM     67  C   UNL     1      13.751   7.462  -0.233  1.00  0.00     0.057 A 
ATOM     68  C   UNL     1      14.228   8.768  -0.073  1.00  0.00     0.134 A 
ATOM     69  C   UNL     1      13.297   6.796   0.912  1.00  0.00     0.134 A 
ATOM     70  F   UNL     1      14.694   9.451  -1.129  1.00  0.00    -0.206 F 
ATOM     71  C   UNL     1      14.274   9.381   1.181  1.00  0.00     0.040 A 
ATOM     72  C   UNL     1      13.312   7.407   2.167  1.00  0.00     0.040 A 
ATOM     73  F   UNL     1      12.820   5.546   0.825  1.00  0.00    -0.206 F 
ATOM     74  C   UNL     1      13.809   8.701   2.304  1.00  0.00     0.006 A 
ENDBRANCH  46  67
BRANCH  58  75
ATOM     75  C   UNL     1      18.791   5.307  -4.529  1.00  0.00     0.057 A 
ATOM     76  C   UNL     1      19.532   4.523  -3.636  1.00  0.00     0.134 A 
ATOM     77  C   UNL     1      19.503   6.152  -5.390  1.00  0.00     0.134 A 
ATOM     78  F   UNL     1      18.911   3.703  -2.774  1.00  0.00    -0.206 F 
ATOM     79  C   UNL     1      20.925   4.593  -3.586  1.00  0.00     0.040 A 
ATOM     80  C   UNL     1      20.897   6.210  -5.369  1.00  0.00     0.040 A 
ATOM     81  F   UNL     1      18.856   6.925  -6.276  1.00  0.00    -0.206 F 
ATOM     82  C   UNL     1      21.612   5.434  -4.460  1.00  0.00     0.006 A 
ENDBRANCH  58  75
ENDBRANCH  32  33
ENDBRANCH  24  27
ENDBRANCH  22  23
ENDBRANCH  21  22
ENDBRANCH  20  21
ENDBRANCH  19  20
ENDBRANCH   3  19
TORSDOF 17
