REMARK SMILES Cc1cscc1CNC(=O)N[C@@H](C)c1nc(C(=O)NCCCCNC(=O)c2ccc(-c3c4nc(c(-c5c(F)cccc5F)c5ccc([nH]5)c(-c5c(F)cccc5F)c5nc(c(-c6c(F)cccc6F)c6ccc3[nH]6)C=C5)C=C4)cc2)cs1
REMARK SMILES IDX 20 1 19 2 17 3 18 4 16 6 14 7 15 8 82 9 81 10 12 11 13 12
REMARK SMILES IDX 11 13 8 14 9 15 10 17 7 19 6 20 1 21 2 22 3 23 4 24 5 25
REMARK SMILES IDX 21 26 22 27 23 28 24 29 25 30 26 32 27 33 28 34 80 35 29 36
REMARK SMILES IDX 79 37 30 38 31 39 32 40 73 41 33 42 78 43 72 44 74 45 34 46
REMARK SMILES IDX 77 47 71 48 70 49 35 51 61 52 44 53 60 54 45 55 48 56 59 57
REMARK SMILES IDX 75 58 46 59 47 60 58 62 76 63 49 64 36 65 37 66 42 67 38 68
REMARK SMILES IDX 39 69 41 70 43 71 40 72 62 73 63 74 68 75 64 76 65 77 67 78
REMARK SMILES IDX 69 79 66 80 50 81 51 82 56 83 52 84 53 85 55 86 57 87 54 88
REMARK H PARENT 19 5 8 16 11 18 24 31 74 50 48 61
REMARK Flexibility Score: inf
ROOT
ATOM      1  C   UNL     1      -2.259   7.831   3.391  1.00  0.00     0.116 C 
ENDROOT
BRANCH   1   2
ATOM      2  N   UNL     1      -3.350   7.075   3.977  1.00  0.00    -0.351 N 
ATOM      3  C   UNL     1      -3.560   5.715   4.052  1.00  0.00     0.270 C 
ATOM      4  O   UNL     1      -4.574   5.330   4.627  1.00  0.00    -0.267 OA
ATOM      5  H   UNL     1      -4.056   7.623   4.388  1.00  0.00     0.163 HD
BRANCH   3   6
ATOM      6  C   UNL     1      -2.579   4.769   3.499  1.00  0.00     0.139 A 
ATOM      7  C   UNL     1      -0.734   4.097   2.441  1.00  0.00     0.116 A 
ATOM      8  N   UNL     1      -1.501   5.136   2.698  1.00  0.00    -0.234 NA
ATOM      9  S   UNL     1      -1.300   2.600   3.060  1.00  0.00    -0.124 S 
ATOM     10  C   UNL     1      -2.644   3.407   3.745  1.00  0.00     0.101 A 
BRANCH   7  11
ATOM     11  C   UNL     1       0.570   4.180   1.682  1.00  0.00     0.140 C 
ATOM     12  C   UNL     1       1.568   5.048   2.450  1.00  0.00     0.039 C 
BRANCH  11  13
ATOM     13  N   UNL     1       0.291   4.795   0.391  1.00  0.00    -0.329 N 
ATOM     14  N   UNL     1       1.085   3.359  -1.306  1.00  0.00    -0.334 N 
ATOM     15  C   UNL     1       0.473   4.465  -0.885  1.00  0.00     0.315 C 
ATOM     16  H   UNL     1       1.064   3.269  -2.286  1.00  0.00     0.165 HD
ATOM     17  O   UNL     1       0.030   5.232  -1.743  1.00  0.00    -0.249 OA
ATOM     18  H   UNL     1      -0.140   5.675   0.487  1.00  0.00     0.166 HD
BRANCH  14  19
ATOM     19  C   UNL     1       1.770   2.262  -0.667  1.00  0.00     0.154 C 
BRANCH  19  20
ATOM     20  C   UNL     1       0.836   1.113  -0.392  1.00  0.00    -0.015 A 
ATOM     21  C   UNL     1       2.715  -0.667  -0.036  1.00  0.00     0.045 C 
ATOM     22  C   UNL     1       1.284  -0.238  -0.106  1.00  0.00    -0.035 A 
ATOM     23  C   UNL     1       0.219  -1.097   0.092  1.00  0.00     0.068 A 
ATOM     24  S   UNL     1      -1.292  -0.323  -0.040  1.00  0.00    -0.152 S 
ATOM     25  C   UNL     1      -0.549   1.175  -0.377  1.00  0.00     0.070 A 
ENDBRANCH  19  20
ENDBRANCH  14  19
ENDBRANCH  11  13
ENDBRANCH   7  11
ENDBRANCH   3   6
ENDBRANCH   1   2
BRANCH   1  26
ATOM     26  C   UNL     1      -2.648   8.407   2.031  1.00  0.00     0.023 C 
BRANCH  26  27
ATOM     27  C   UNL     1      -3.614   9.596   2.111  1.00  0.00     0.023 C 
BRANCH  27  28
ATOM     28  C   UNL     1      -3.129  10.776   2.952  1.00  0.00     0.116 C 
BRANCH  28  29
ATOM     29  N   UNL     1      -1.841  11.301   2.527  1.00  0.00    -0.352 N 
ATOM     30  C   UNL     1      -1.386  12.596   2.559  1.00  0.00     0.251 C 
ATOM     31  H   UNL     1      -1.209  10.637   2.167  1.00  0.00     0.163 HD
ATOM     32  O   UNL     1      -0.299  12.884   2.069  1.00  0.00    -0.269 OA
BRANCH  30  33
ATOM     33  C   UNL     1      -2.232  13.654   3.149  1.00  0.00     0.039 A 
ATOM     34  C   UNL     1      -2.436  14.830   2.422  1.00  0.00     0.014 A 
ATOM     35  C   UNL     1      -2.839  13.481   4.396  1.00  0.00     0.014 A 
ATOM     36  C   UNL     1      -3.307  15.803   2.914  1.00  0.00     0.010 A 
ATOM     37  C   UNL     1      -3.756  14.424   4.856  1.00  0.00     0.010 A 
ATOM     38  C   UNL     1      -4.004  15.589   4.115  1.00  0.00    -0.014 A 
BRANCH  38  39
ATOM     39  C   UNL     1      -5.019  16.563   4.588  1.00  0.00     0.031 A 
ATOM     40  C   UNL     1      -4.807  17.333   5.860  1.00  0.00     0.074 A 
ATOM     41  C   UNL     1      -6.165  16.709   3.894  1.00  0.00     0.049 A 
ATOM     42  N   UNL     1      -5.594  18.206   6.436  1.00  0.00    -0.248 NA
ATOM     43  C   UNL     1      -3.561  17.069   6.595  1.00  0.00     0.031 C 
ATOM     44  C   UNL     1      -6.517  15.972   2.679  1.00  0.00     0.029 A 
ATOM     45  N   UNL     1      -7.248  17.520   4.117  1.00  0.00    -0.354 N 
ATOM     46  C   UNL     1      -4.945  18.587   7.603  1.00  0.00     0.074 A 
ATOM     47  C   UNL     1      -3.724  17.812   7.679  1.00  0.00     0.031 C 
ATOM     48  C   UNL     1      -7.719  16.384   2.248  1.00  0.00     0.029 A 
ATOM     49  C   UNL     1      -8.235  17.391   3.170  1.00  0.00     0.049 A 
ATOM     50  H   UNL     1      -7.312  18.137   4.881  1.00  0.00     0.167 HD
ATOM     51  C   UNL     1      -5.320  19.513   8.517  1.00  0.00     0.037 A 
ATOM     52  C   UNL     1      -9.422  18.015   3.057  1.00  0.00     0.037 A 
ATOM     53  C   UNL     1      -6.524  20.298   8.428  1.00  0.00     0.049 A 
ATOM     54  C   UNL     1      -9.810  19.049   4.076  1.00  0.00     0.074 A 
ATOM     55  C   UNL     1      -6.955  21.314   9.264  1.00  0.00     0.029 A 
ATOM     56  N   UNL     1      -7.492  20.152   7.446  1.00  0.00    -0.354 N 
ATOM     57  N   UNL     1      -9.148  19.459   5.130  1.00  0.00    -0.248 NA
ATOM     58  C   UNL     1     -11.107  19.712   3.884  1.00  0.00     0.031 C 
ATOM     59  C   UNL     1      -8.204  21.754   8.811  1.00  0.00     0.029 A 
ATOM     60  C   UNL     1      -8.530  21.042   7.668  1.00  0.00     0.049 A 
ATOM     61  H   UNL     1      -7.447  19.510   6.700  1.00  0.00     0.167 HD
ATOM     62  C   UNL     1      -9.936  20.440   5.716  1.00  0.00     0.074 A 
ATOM     63  C   UNL     1     -11.117  20.576   4.889  1.00  0.00     0.031 C 
ATOM     64  C   UNL     1      -9.702  21.162   6.839  1.00  0.00     0.037 A 
BRANCH  51  65
ATOM     65  C   UNL     1      -4.412  19.731   9.691  1.00  0.00     0.057 A 
ATOM     66  C   UNL     1      -3.166  20.358   9.554  1.00  0.00     0.134 A 
ATOM     67  C   UNL     1      -4.796  19.333  10.978  1.00  0.00     0.134 A 
ATOM     68  F   UNL     1      -2.733  20.752   8.347  1.00  0.00    -0.206 F 
ATOM     69  C   UNL     1      -2.324  20.558  10.649  1.00  0.00     0.040 A 
ATOM     70  C   UNL     1      -3.973  19.550  12.085  1.00  0.00     0.040 A 
ATOM     71  F   UNL     1      -5.978  18.732  11.181  1.00  0.00    -0.206 F 
ATOM     72  C   UNL     1      -2.730  20.158  11.920  1.00  0.00     0.006 A 
ENDBRANCH  51  65
BRANCH  52  73
ATOM     73  C   UNL     1     -10.315  17.702   1.915  1.00  0.00     0.057 A 
ATOM     74  C   UNL     1     -10.502  18.619   0.874  1.00  0.00     0.134 A 
ATOM     75  C   UNL     1     -10.997  16.482   1.832  1.00  0.00     0.134 A 
ATOM     76  F   UNL     1      -9.889  19.811   0.908  1.00  0.00    -0.206 F 
ATOM     77  C   UNL     1     -11.346  18.341  -0.202  1.00  0.00     0.040 A 
ATOM     78  C   UNL     1     -11.827  16.182   0.751  1.00  0.00     0.040 A 
ATOM     79  F   UNL     1     -10.853  15.559   2.794  1.00  0.00    -0.206 F 
ATOM     80  C   UNL     1     -12.007  17.116  -0.268  1.00  0.00     0.006 A 
ENDBRANCH  52  73
BRANCH  64  81
ATOM     81  C   UNL     1     -10.740  22.174   7.226  1.00  0.00     0.057 A 
ATOM     82  C   UNL     1     -11.977  21.793   7.759  1.00  0.00     0.134 A 
ATOM     83  C   UNL     1     -10.488  23.544   7.089  1.00  0.00     0.134 A 
ATOM     84  F   UNL     1     -12.285  20.495   7.903  1.00  0.00    -0.206 F 
ATOM     85  C   UNL     1     -12.938  22.739   8.120  1.00  0.00     0.040 A 
ATOM     86  C   UNL     1     -11.431  24.501   7.468  1.00  0.00     0.040 A 
ATOM     87  F   UNL     1      -9.319  23.976   6.591  1.00  0.00    -0.206 F 
ATOM     88  C   UNL     1     -12.663  24.098   7.979  1.00  0.00     0.006 A 
ENDBRANCH  64  81
ENDBRANCH  38  39
ENDBRANCH  30  33
ENDBRANCH  28  29
ENDBRANCH  27  28
ENDBRANCH  26  27
ENDBRANCH   1  26
TORSDOF 15
