REMARK SMILES Cc1cc(O[C@@H](C)C(=O)NCCCCNC(=O)c2ccc(-c3c4nc(c(-c5c(F)cccc5F)c5ccc([nH]5)c(-c5c(F)cccc5F)c5nc(c(-c6c(F)cccc6F)c6ccc3[nH]6)C=C5)C=C4)cc2)n(C)n1
REMARK SMILES IDX 12 1 11 2 10 3 8 4 9 5 6 7 7 8 5 9 4 10 1 11 2 12 3 13 74 14
REMARK SMILES IDX 72 15 73 16 13 17 14 18 15 19 16 20 17 22 18 23 19 24 71 25
REMARK SMILES IDX 20 26 70 27 21 28 22 29 23 30 64 31 24 32 69 33 63 34 65 35
REMARK SMILES IDX 25 36 68 37 62 38 61 39 26 41 52 42 35 43 51 44 36 45 39 46
REMARK SMILES IDX 50 47 66 48 37 49 38 50 49 52 67 53 40 54 27 55 28 56 33 57
REMARK SMILES IDX 29 58 30 59 32 60 34 61 31 62 53 63 54 64 59 65 55 66 56 67
REMARK SMILES IDX 58 68 60 69 57 70 41 71 42 72 47 73 43 74 44 75 46 76 48 77
REMARK SMILES IDX 45 78
REMARK H PARENT 10 6 15 21 65 40 39 51
REMARK Flexibility Score: inf
ROOT
ATOM      1  C   UNL     1      -1.355  -1.042  -1.847  1.00  0.00     0.023 C 
ENDROOT
BRANCH   1   2
ATOM      2  C   UNL     1      -1.528  -2.434  -1.240  1.00  0.00     0.116 C 
BRANCH   2   3
ATOM      3  N   UNL     1      -0.532  -3.354  -1.737  1.00  0.00    -0.353 N 
ATOM      4  C   UNL     1       0.651  -3.764  -1.207  1.00  0.00     0.260 C 
ATOM      5  O   UNL     1       1.342  -4.495  -1.929  1.00  0.00    -0.271 OA
ATOM      6  H   UNL     1      -0.746  -3.753  -2.611  1.00  0.00     0.163 HD
BRANCH   4   7
ATOM      7  C   UNL     1       1.134  -3.408   0.227  1.00  0.00     0.260 C 
ATOM      8  C   UNL     1       0.275  -4.002   1.339  1.00  0.00     0.064 C 
BRANCH   7   9
ATOM      9  O   UNL     1       1.696  -2.122   0.456  1.00  0.00    -0.465 OA
BRANCH   9  10
ATOM     10  C   UNL     1       0.954  -1.059   0.761  1.00  0.00     0.212 A 
ATOM     11  C   UNL     1      -1.713   1.292   1.697  1.00  0.00     0.069 C 
ATOM     12  C   UNL     1      -0.491   0.551   1.301  1.00  0.00     0.063 A 
ATOM     13  C   UNL     1      -0.208  -0.827   1.469  1.00  0.00     0.093 A 
ATOM     14  N   UNL     1       0.491   1.173   0.643  1.00  0.00    -0.175 NA
ATOM     15  N   UNL     1       1.389   0.198   0.402  1.00  0.00    -0.237 N 
ATOM     16  C   UNL     1       2.644   0.547  -0.219  1.00  0.00     0.178 C 
ENDBRANCH   9  10
ENDBRANCH   7   9
ENDBRANCH   4   7
ENDBRANCH   2   3
ENDBRANCH   1   2
BRANCH   1  17
ATOM     17  C   UNL     1      -2.338  -0.710  -2.966  1.00  0.00     0.023 C 
BRANCH  17  18
ATOM     18  C   UNL     1      -3.808  -0.716  -2.557  1.00  0.00     0.116 C 
BRANCH  18  19
ATOM     19  N   UNL     1      -4.127   0.149  -1.428  1.00  0.00    -0.352 N 
ATOM     20  C   UNL     1      -5.289   0.851  -1.195  1.00  0.00     0.251 C 
ATOM     21  H   UNL     1      -3.424   0.244  -0.746  1.00  0.00     0.163 HD
ATOM     22  O   UNL     1      -5.402   1.576  -0.211  1.00  0.00    -0.269 OA
BRANCH  20  23
ATOM     23  C   UNL     1      -6.379   0.759  -2.186  1.00  0.00     0.039 A 
ATOM     24  C   UNL     1      -6.867   1.932  -2.766  1.00  0.00     0.014 A 
ATOM     25  C   UNL     1      -6.824  -0.490  -2.623  1.00  0.00     0.014 A 
ATOM     26  C   UNL     1      -7.728   1.848  -3.862  1.00  0.00     0.010 A 
ATOM     27  C   UNL     1      -7.613  -0.572  -3.762  1.00  0.00     0.010 A 
ATOM     28  C   UNL     1      -8.059   0.595  -4.403  1.00  0.00    -0.014 A 
BRANCH  28  29
ATOM     29  C   UNL     1      -8.844   0.468  -5.657  1.00  0.00     0.031 A 
ATOM     30  C   UNL     1     -10.163  -0.250  -5.645  1.00  0.00     0.074 A 
ATOM     31  C   UNL     1      -8.314   0.889  -6.823  1.00  0.00     0.049 A 
ATOM     32  N   UNL     1     -10.924  -0.601  -6.649  1.00  0.00    -0.248 NA
ATOM     33  C   UNL     1     -10.670  -0.670  -4.329  1.00  0.00     0.031 C 
ATOM     34  C   UNL     1      -7.009   1.534  -6.980  1.00  0.00     0.029 A 
ATOM     35  N   UNL     1      -8.802   0.814  -8.104  1.00  0.00    -0.354 N 
ATOM     36  C   UNL     1     -11.975  -1.317  -6.091  1.00  0.00     0.074 A 
ATOM     37  C   UNL     1     -11.732  -1.385  -4.667  1.00  0.00     0.031 C 
ATOM     38  C   UNL     1      -6.808   1.812  -8.278  1.00  0.00     0.029 A 
ATOM     39  C   UNL     1      -7.952   1.334  -9.049  1.00  0.00     0.049 A 
ATOM     40  H   UNL     1      -9.678   0.423  -8.324  1.00  0.00     0.167 HD
ATOM     41  C   UNL     1     -13.055  -1.852  -6.708  1.00  0.00     0.037 A 
ATOM     42  C   UNL     1      -8.077   1.411 -10.387  1.00  0.00     0.037 A 
ATOM     43  C   UNL     1     -13.322  -1.732  -8.116  1.00  0.00     0.049 A 
ATOM     44  C   UNL     1      -9.316   0.871 -11.042  1.00  0.00     0.074 A 
ATOM     45  C   UNL     1     -14.434  -2.156  -8.822  1.00  0.00     0.029 A 
ATOM     46  N   UNL     1     -12.470  -1.133  -9.031  1.00  0.00    -0.354 N 
ATOM     47  N   UNL     1     -10.336   0.257 -10.494  1.00  0.00    -0.248 NA
ATOM     48  C   UNL     1      -9.424   1.037 -12.498  1.00  0.00     0.031 C 
ATOM     49  C   UNL     1     -14.242  -1.835 -10.171  1.00  0.00     0.029 A 
ATOM     50  C   UNL     1     -13.025  -1.184 -10.298  1.00  0.00     0.049 A 
ATOM     51  H   UNL     1     -11.598  -0.731  -8.812  1.00  0.00     0.167 HD
ATOM     52  C   UNL     1     -11.216  -0.018 -11.531  1.00  0.00     0.074 A 
ATOM     53  C   UNL     1     -10.615   0.507 -12.741  1.00  0.00     0.031 C 
ATOM     54  C   UNL     1     -12.414  -0.649 -11.487  1.00  0.00     0.037 A 
BRANCH  41  55
ATOM     55  C   UNL     1     -14.027  -2.610  -5.854  1.00  0.00     0.057 A 
ATOM     56  C   UNL     1     -14.863  -1.963  -4.934  1.00  0.00     0.134 A 
ATOM     57  C   UNL     1     -14.134  -4.002  -5.956  1.00  0.00     0.134 A 
ATOM     58  F   UNL     1     -14.799  -0.632  -4.777  1.00  0.00    -0.206 F 
ATOM     59  C   UNL     1     -15.746  -2.677  -4.123  1.00  0.00     0.040 A 
ATOM     60  C   UNL     1     -15.032  -4.724  -5.169  1.00  0.00     0.040 A 
ATOM     61  F   UNL     1     -13.366  -4.683  -6.820  1.00  0.00    -0.206 F 
ATOM     62  C   UNL     1     -15.835  -4.062  -4.243  1.00  0.00     0.006 A 
ENDBRANCH  41  55
BRANCH  42  63
ATOM     63  C   UNL     1      -7.012   2.058 -11.192  1.00  0.00     0.057 A 
ATOM     64  C   UNL     1      -7.203   3.331 -11.743  1.00  0.00     0.134 A 
ATOM     65  C   UNL     1      -5.781   1.432 -11.420  1.00  0.00     0.134 A 
ATOM     66  F   UNL     1      -8.368   3.971 -11.571  1.00  0.00    -0.206 F 
ATOM     67  C   UNL     1      -6.212   3.955 -12.502  1.00  0.00     0.040 A 
ATOM     68  C   UNL     1      -4.774   2.053 -12.162  1.00  0.00     0.040 A 
ATOM     69  F   UNL     1      -5.536   0.216 -10.912  1.00  0.00    -0.206 F 
ATOM     70  C   UNL     1      -4.990   3.316 -12.709  1.00  0.00     0.006 A 
ENDBRANCH  42  63
BRANCH  54  71
ATOM     71  C   UNL     1     -13.165  -0.783 -12.776  1.00  0.00     0.057 A 
ATOM     72  C   UNL     1     -12.796  -1.721 -13.748  1.00  0.00     0.134 A 
ATOM     73  C   UNL     1     -14.297   0.002 -13.026  1.00  0.00     0.134 A 
ATOM     74  F   UNL     1     -11.713  -2.493 -13.571  1.00  0.00    -0.206 F 
ATOM     75  C   UNL     1     -13.520  -1.864 -14.932  1.00  0.00     0.040 A 
ATOM     76  C   UNL     1     -15.041  -0.145 -14.197  1.00  0.00     0.040 A 
ATOM     77  F   UNL     1     -14.705   0.914 -12.131  1.00  0.00    -0.206 F 
ATOM     78  C   UNL     1     -14.650  -1.079 -15.156  1.00  0.00     0.006 A 
ENDBRANCH  54  71
ENDBRANCH  28  29
ENDBRANCH  20  23
ENDBRANCH  18  19
ENDBRANCH  17  18
ENDBRANCH   1  17
TORSDOF 13
