REMARK SMILES Cc1cc(NC(=O)c2ccc(Br)cc2N)ccc1C(=O)NCCCCNC(=O)c1ccc(-c2c3nc(c(-c4c(F)cccc4F)c4ccc([nH]4)c(-c4c(F)cccc4F)c4nc(c(-c5c(F)cccc5F)c5ccc2[nH]5)C=C4)C=C3)cc1
REMARK SMILES IDX 23 1 22 2 21 3 19 4 20 5 18 7 1 8 2 9 3 10 4 11 17 12 16 13
REMARK SMILES IDX 5 14 6 15 7 17 8 18 9 19 14 20 10 21 13 22 11 23 12 24 15 25
REMARK SMILES IDX 24 28 25 29 26 30 27 31 28 33 29 34 30 35 82 36 31 37 81 38
REMARK SMILES IDX 32 39 33 40 34 41 75 42 35 43 80 44 74 45 76 46 36 47 79 48
REMARK SMILES IDX 73 49 72 50 37 52 63 53 46 54 62 55 47 56 50 57 61 58 77 59
REMARK SMILES IDX 48 60 49 61 60 63 78 64 51 65 38 66 39 67 44 68 40 69 41 70
REMARK SMILES IDX 43 71 45 72 42 73 64 74 65 75 70 76 66 77 67 78 69 79 71 80
REMARK SMILES IDX 68 81 52 82 53 83 58 84 54 85 55 86 57 87 59 88 56 89
REMARK H PARENT 21 6 5 16 15 26 15 27 26 32 76 51 50 62
REMARK Flexibility Score: inf
ROOT
ATOM      1  C   UNL     1       4.143   1.430  -1.296  1.00  0.00     0.023 C 
ENDROOT
BRANCH   1   2
ATOM      2  C   UNL     1       3.418   1.787   0.011  1.00  0.00     0.116 C 
BRANCH   2   3
ATOM      3  N   UNL     1       2.196   2.502  -0.279  1.00  0.00    -0.352 N 
ATOM      4  C   UNL     1       0.901   2.151  -0.543  1.00  0.00     0.251 C 
ATOM      5  O   UNL     1       0.171   3.107  -0.834  1.00  0.00    -0.269 OA
ATOM      6  H   UNL     1       2.328   3.478  -0.287  1.00  0.00     0.163 HD
BRANCH   4   7
ATOM      7  C   UNL     1       0.262   0.789  -0.434  1.00  0.00     0.042 A 
ATOM      8  C   UNL     1       2.121  -0.883  -1.193  1.00  0.00     0.045 C 
ATOM      9  C   UNL     1       0.773  -0.502  -0.673  1.00  0.00    -0.036 A 
ATOM     10  C   UNL     1      -0.072  -1.618  -0.479  1.00  0.00     0.030 A 
ATOM     11  C   UNL     1      -1.400  -1.502  -0.092  1.00  0.00     0.041 A 
ATOM     12  C   UNL     1      -1.123   0.878  -0.119  1.00  0.00     0.016 A 
ATOM     13  C   UNL     1      -1.953  -0.241   0.015  1.00  0.00     0.027 A 
BRANCH  11  14
ATOM     14  N   UNL     1      -2.183  -2.628   0.199  1.00  0.00    -0.322 N 
ATOM     15  C   UNL     1      -1.768  -3.865   0.661  1.00  0.00     0.257 C 
ATOM     16  H   UNL     1      -3.151  -2.527   0.055  1.00  0.00     0.170 HD
ATOM     17  O   UNL     1      -2.500  -4.845   0.531  1.00  0.00    -0.269 OA
BRANCH  15  18
ATOM     18  C   UNL     1      -0.469  -4.024   1.384  1.00  0.00     0.063 A 
ATOM     19  C   UNL     1       0.313  -5.136   1.026  1.00  0.00     0.017 A 
ATOM     20  C   UNL     1      -0.028  -3.141   2.397  1.00  0.00     0.045 A 
ATOM     21  C   UNL     1       1.528  -5.383   1.667  1.00  0.00     0.016 A 
ATOM     22  C   UNL     1       1.190  -3.417   3.038  1.00  0.00     0.042 A 
ATOM     23  C   UNL     1       1.955  -4.526   2.676  1.00  0.00     0.020 A 
ATOM     24  Br  UNL     1       3.554  -4.904   3.608  1.00  0.00    -0.051 Br
BRANCH  20  25
ATOM     25  N   UNL     1      -0.805  -2.102   2.909  1.00  0.00    -0.398 N 
ATOM     26  H   UNL     1      -1.666  -1.878   2.487  1.00  0.00     0.156 HD
ATOM     27  H   UNL     1      -0.493  -1.594   3.692  1.00  0.00     0.156 HD
ENDBRANCH  20  25
ENDBRANCH  15  18
ENDBRANCH  11  14
ENDBRANCH   4   7
ENDBRANCH   2   3
ENDBRANCH   1   2
BRANCH   1  28
ATOM     28  C   UNL     1       4.957   2.551  -1.930  1.00  0.00     0.023 C 
BRANCH  28  29
ATOM     29  C   UNL     1       6.319   2.724  -1.290  1.00  0.00     0.116 C 
BRANCH  29  30
ATOM     30  N   UNL     1       7.343   1.794  -1.759  1.00  0.00    -0.352 N 
ATOM     31  C   UNL     1       8.633   1.602  -1.289  1.00  0.00     0.251 C 
ATOM     32  H   UNL     1       7.080   1.222  -2.516  1.00  0.00     0.163 HD
ATOM     33  O   UNL     1       9.376   0.797  -1.849  1.00  0.00    -0.269 OA
BRANCH  31  34
ATOM     34  C   UNL     1       9.057   2.236  -0.014  1.00  0.00     0.039 A 
ATOM     35  C   UNL     1       9.694   1.421   0.928  1.00  0.00     0.014 A 
ATOM     36  C   UNL     1       8.543   3.468   0.372  1.00  0.00     0.014 A 
ATOM     37  C   UNL     1       9.510   1.681   2.281  1.00  0.00     0.010 A 
ATOM     38  C   UNL     1       8.224   3.645   1.701  1.00  0.00     0.010 A 
ATOM     39  C   UNL     1       8.636   2.701   2.646  1.00  0.00    -0.014 A 
BRANCH  39  40
ATOM     40  C   UNL     1       7.963   2.746   3.941  1.00  0.00     0.031 A 
ATOM     41  C   UNL     1       8.213   3.859   4.877  1.00  0.00     0.074 A 
ATOM     42  C   UNL     1       7.018   1.819   4.221  1.00  0.00     0.049 A 
ATOM     43  N   UNL     1       7.952   3.827   6.139  1.00  0.00    -0.248 NA
ATOM     44  C   UNL     1       8.851   5.099   4.459  1.00  0.00     0.031 C 
ATOM     45  C   UNL     1       6.025   1.855   5.291  1.00  0.00     0.029 A 
ATOM     46  N   UNL     1       6.908   0.526   3.690  1.00  0.00    -0.354 N 
ATOM     47  C   UNL     1       8.103   5.104   6.636  1.00  0.00     0.074 A 
ATOM     48  C   UNL     1       8.755   5.827   5.573  1.00  0.00     0.031 C 
ATOM     49  C   UNL     1       5.608   0.603   5.537  1.00  0.00     0.029 A 
ATOM     50  C   UNL     1       6.429  -0.289   4.737  1.00  0.00     0.049 A 
ATOM     51  H   UNL     1       7.121   0.244   2.771  1.00  0.00     0.167 HD
ATOM     52  C   UNL     1       7.526   5.415   7.834  1.00  0.00     0.037 A 
ATOM     53  C   UNL     1       7.186  -1.308   5.239  1.00  0.00     0.037 A 
ATOM     54  C   UNL     1       7.012   4.206   8.489  1.00  0.00     0.049 A 
ATOM     55  C   UNL     1       7.529  -1.156   6.704  1.00  0.00     0.074 A 
ATOM     56  C   UNL     1       5.743   3.664   8.610  1.00  0.00     0.029 A 
ATOM     57  N   UNL     1       7.901   3.208   8.880  1.00  0.00    -0.354 N 
ATOM     58  N   UNL     1       7.417  -0.037   7.364  1.00  0.00    -0.248 NA
ATOM     59  C   UNL     1       8.059  -2.238   7.531  1.00  0.00     0.031 C 
ATOM     60  C   UNL     1       5.878   2.307   9.001  1.00  0.00     0.029 A 
ATOM     61  C   UNL     1       7.227   2.031   9.143  1.00  0.00     0.049 A 
ATOM     62  H   UNL     1       8.876   3.325   8.958  1.00  0.00     0.167 HD
ATOM     63  C   UNL     1       7.883  -0.208   8.641  1.00  0.00     0.074 A 
ATOM     64  C   UNL     1       8.246  -1.611   8.706  1.00  0.00     0.031 C 
ATOM     65  C   UNL     1       7.951   0.827   9.528  1.00  0.00     0.037 A 
BRANCH  52  66
ATOM     66  C   UNL     1       7.145   6.826   8.268  1.00  0.00     0.057 A 
ATOM     67  C   UNL     1       6.131   7.028   9.230  1.00  0.00     0.134 A 
ATOM     68  C   UNL     1       7.646   8.024   7.728  1.00  0.00     0.134 A 
ATOM     69  F   UNL     1       5.620   6.014   9.940  1.00  0.00    -0.206 F 
ATOM     70  C   UNL     1       5.582   8.287   9.521  1.00  0.00     0.040 A 
ATOM     71  C   UNL     1       7.085   9.286   7.980  1.00  0.00     0.040 A 
ATOM     72  F   UNL     1       8.746   8.063   6.975  1.00  0.00    -0.206 F 
ATOM     73  C   UNL     1       6.033   9.421   8.866  1.00  0.00     0.006 A 
ENDBRANCH  52  66
BRANCH  53  74
ATOM     74  C   UNL     1       8.050  -1.958   4.219  1.00  0.00     0.057 A 
ATOM     75  C   UNL     1       7.432  -2.648   3.162  1.00  0.00     0.134 A 
ATOM     76  C   UNL     1       9.392  -1.610   4.050  1.00  0.00     0.134 A 
ATOM     77  F   UNL     1       6.140  -2.994   3.252  1.00  0.00    -0.206 F 
ATOM     78  C   UNL     1       8.083  -2.889   1.950  1.00  0.00     0.040 A 
ATOM     79  C   UNL     1      10.059  -1.852   2.841  1.00  0.00     0.040 A 
ATOM     80  F   UNL     1      10.042  -0.919   4.997  1.00  0.00    -0.206 F 
ATOM     81  C   UNL     1       9.393  -2.458   1.776  1.00  0.00     0.006 A 
ENDBRANCH  53  74
BRANCH  65  82
ATOM     82  C   UNL     1       8.644   0.791  10.866  1.00  0.00     0.057 A 
ATOM     83  C   UNL     1       9.789   0.028  11.139  1.00  0.00     0.134 A 
ATOM     84  C   UNL     1       8.250   1.674  11.896  1.00  0.00     0.134 A 
ATOM     85  F   UNL     1      10.331  -0.776  10.215  1.00  0.00    -0.206 F 
ATOM     86  C   UNL     1      10.464   0.101  12.365  1.00  0.00     0.040 A 
ATOM     87  C   UNL     1       8.946   1.793  13.102  1.00  0.00     0.040 A 
ATOM     88  F   UNL     1       7.183   2.476  11.763  1.00  0.00    -0.206 F 
ATOM     89  C   UNL     1      10.053   0.995  13.346  1.00  0.00     0.006 A 
ENDBRANCH  65  82
ENDBRANCH  39  40
ENDBRANCH  31  34
ENDBRANCH  29  30
ENDBRANCH  28  29
ENDBRANCH   1  28
TORSDOF 14
