REMARK SMILES CCC[N@@H+]1CC2(CCN(C(=O)Cn3nnnc3C)CC2)C[C@H]1C(=O)NCCCCNC(=O)c1ccc(-c2c3nc(c(-c4c(F)cccc4F)c4ccc([nH]4)c(-c4c(F)cccc4F)c4nc(c(-c5c(F)cccc5F)c5ccc2[nH]5)C=C4)C=C3)cc1
REMARK SMILES IDX 27 1 26 2 25 3 23 4 24 5 22 7 4 8 5 9 6 11 21 12 7 13 20 14
REMARK SMILES IDX 8 15 19 16 9 17 10 18 11 19 3 20 2 21 1 22 12 23 13 24 14 25
REMARK SMILES IDX 17 26 15 27 16 28 18 29 28 30 29 31 30 32 31 33 32 35 33 36
REMARK SMILES IDX 34 37 86 38 35 39 85 40 36 41 37 42 38 43 79 44 39 45 84 46
REMARK SMILES IDX 78 47 80 48 40 49 83 50 77 51 76 52 41 54 67 55 50 56 66 57
REMARK SMILES IDX 51 58 54 59 65 60 81 61 52 62 53 63 64 65 82 66 55 67 42 68
REMARK SMILES IDX 43 69 48 70 44 71 45 72 47 73 49 74 46 75 68 76 69 77 74 78
REMARK SMILES IDX 70 79 71 80 73 81 75 82 72 83 56 84 57 85 62 86 58 87 59 88
REMARK SMILES IDX 61 89 63 90 60 91
REMARK H PARENT 25 6 4 10 30 34 80 53 54 64
REMARK Flexibility Score: inf
ROOT
ATOM      1  C   UNL     1      -1.413  -2.540  -5.238  1.00  0.00     0.023 C 
ENDROOT
BRANCH   1   2
ATOM      2  C   UNL     1      -1.274  -3.060  -3.813  1.00  0.00     0.116 C 
BRANCH   2   3
ATOM      3  N   UNL     1       0.041  -3.451  -3.391  1.00  0.00    -0.351 N 
ATOM      4  C   UNL     1       0.831  -2.947  -2.400  1.00  0.00     0.278 C 
ATOM      5  O   UNL     1       1.847  -3.613  -2.148  1.00  0.00    -0.268 OA
ATOM      6  H   UNL     1       0.434  -4.199  -3.896  1.00  0.00     0.163 HD
BRANCH   4   7
ATOM      7  C   UNL     1       0.565  -1.638  -1.582  1.00  0.00     0.274 C 
ATOM      8  N   UNL     1       0.413  -0.463  -2.446  1.00  0.00    -0.324 N 
ATOM      9  C   UNL     1      -0.982  -0.008  -2.384  1.00  0.00     0.270 C 
ATOM     10  H   UNL     1       0.609  -0.726  -3.412  1.00  0.00     0.348 HD
ATOM     11  C   UNL     1      -1.672  -0.653  -1.147  1.00  0.00     0.029 C 
ATOM     12  C   UNL     1      -0.577  -1.570  -0.561  1.00  0.00     0.088 C 
ATOM     13  C   UNL     1      -2.934  -1.541  -1.333  1.00  0.00     0.034 C 
ATOM     14  C   UNL     1      -2.192   0.503  -0.242  1.00  0.00     0.034 C 
ATOM     15  C   UNL     1      -4.053  -0.825  -2.055  1.00  0.00     0.120 C 
ATOM     16  C   UNL     1      -3.350   1.258  -0.939  1.00  0.00     0.120 C 
ATOM     17  N   UNL     1      -4.444   0.341  -1.269  1.00  0.00    -0.341 N 
ATOM     18  C   UNL     1      -5.718   0.592  -0.782  1.00  0.00     0.244 C 
ATOM     19  O   UNL     1      -5.959   1.587  -0.092  1.00  0.00    -0.273 OA
BRANCH   8  20
ATOM     20  C   UNL     1       1.425   0.587  -2.196  1.00  0.00     0.262 C 
BRANCH  20  21
ATOM     21  C   UNL     1       1.410   1.393  -0.879  1.00  0.00     0.058 C 
ATOM     22  C   UNL     1       2.013   0.744   0.362  1.00  0.00     0.010 C 
ENDBRANCH  20  21
ENDBRANCH   8  20
BRANCH  18  23
ATOM     23  C   UNL     1      -6.833  -0.394  -1.057  1.00  0.00     0.248 C 
BRANCH  23  24
ATOM     24  N   UNL     1      -7.164  -0.511  -2.456  1.00  0.00    -0.220 N 
ATOM     25  N   UNL     1      -7.230  -1.734  -3.015  1.00  0.00    -0.044 NA
ATOM     26  C   UNL     1      -7.397   0.444  -3.407  1.00  0.00     0.148 A 
ATOM     27  N   UNL     1      -7.442  -1.516  -4.303  1.00  0.00    -0.024 NA
ATOM     28  N   UNL     1      -7.542  -0.174  -4.562  1.00  0.00    -0.114 NA
ATOM     29  C   UNL     1      -7.460   1.902  -3.187  1.00  0.00     0.091 C 
ENDBRANCH  23  24
ENDBRANCH  18  23
ENDBRANCH   4   7
ENDBRANCH   2   3
ENDBRANCH   1   2
BRANCH   1  30
ATOM     30  C   UNL     1      -1.745  -3.595  -6.293  1.00  0.00     0.023 C 
BRANCH  30  31
ATOM     31  C   UNL     1      -3.082  -4.304  -6.095  1.00  0.00     0.116 C 
BRANCH  31  32
ATOM     32  N   UNL     1      -4.247  -3.429  -6.233  1.00  0.00    -0.352 N 
ATOM     33  C   UNL     1      -5.578  -3.822  -6.138  1.00  0.00     0.251 C 
ATOM     34  H   UNL     1      -4.074  -2.476  -6.409  1.00  0.00     0.163 HD
ATOM     35  O   UNL     1      -6.452  -3.268  -6.778  1.00  0.00    -0.269 OA
BRANCH  33  36
ATOM     36  C   UNL     1      -5.895  -4.947  -5.236  1.00  0.00     0.039 A 
ATOM     37  C   UNL     1      -6.827  -5.935  -5.575  1.00  0.00     0.014 A 
ATOM     38  C   UNL     1      -5.167  -5.022  -4.052  1.00  0.00     0.014 A 
ATOM     39  C   UNL     1      -6.957  -7.046  -4.744  1.00  0.00     0.010 A 
ATOM     40  C   UNL     1      -5.169  -6.185  -3.336  1.00  0.00     0.010 A 
ATOM     41  C   UNL     1      -6.109  -7.166  -3.634  1.00  0.00    -0.014 A 
BRANCH  41  42
ATOM     42  C   UNL     1      -6.064  -8.371  -2.817  1.00  0.00     0.031 A 
ATOM     43  C   UNL     1      -5.600  -9.580  -3.552  1.00  0.00     0.074 A 
ATOM     44  C   UNL     1      -6.124  -8.295  -1.468  1.00  0.00     0.049 A 
ATOM     45  N   UNL     1      -6.272 -10.645  -3.837  1.00  0.00    -0.248 NA
ATOM     46  C   UNL     1      -4.273  -9.532  -4.195  1.00  0.00     0.031 C 
ATOM     47  C   UNL     1      -6.228  -7.088  -0.635  1.00  0.00     0.029 A 
ATOM     48  N   UNL     1      -5.974  -9.278  -0.539  1.00  0.00    -0.354 N 
ATOM     49  C   UNL     1      -5.374 -11.498  -4.478  1.00  0.00     0.074 A 
ATOM     50  C   UNL     1      -4.265 -10.677  -4.880  1.00  0.00     0.031 C 
ATOM     51  C   UNL     1      -5.907  -7.385   0.644  1.00  0.00     0.029 A 
ATOM     52  C   UNL     1      -5.736  -8.820   0.757  1.00  0.00     0.049 A 
ATOM     53  H   UNL     1      -6.031 -10.235  -0.763  1.00  0.00     0.167 HD
ATOM     54  C   UNL     1      -5.479 -12.850  -4.346  1.00  0.00     0.037 A 
ATOM     55  C   UNL     1      -5.384  -9.581   1.826  1.00  0.00     0.037 A 
ATOM     56  C   UNL     1      -6.777 -13.207  -3.822  1.00  0.00     0.049 A 
ATOM     57  C   UNL     1      -5.722 -10.987   1.486  1.00  0.00     0.074 A 
ATOM     58  C   UNL     1      -8.083 -13.014  -4.228  1.00  0.00     0.029 A 
ATOM     59  N   UNL     1      -6.845 -13.528  -2.488  1.00  0.00    -0.354 N 
ATOM     60  N   UNL     1      -6.943 -11.418   1.334  1.00  0.00    -0.248 NA
ATOM     61  C   UNL     1      -4.692 -11.778   0.830  1.00  0.00     0.031 C 
ATOM     62  C   UNL     1      -8.803 -12.741  -3.026  1.00  0.00     0.029 A 
ATOM     63  C   UNL     1      -7.922 -12.873  -1.953  1.00  0.00     0.049 A 
ATOM     64  H   UNL     1      -6.229 -14.123  -2.002  1.00  0.00     0.167 HD
ATOM     65  C   UNL     1      -6.887 -12.248   0.224  1.00  0.00     0.074 A 
ATOM     66  C   UNL     1      -5.461 -12.485  -0.002  1.00  0.00     0.031 C 
ATOM     67  C   UNL     1      -7.975 -12.412  -0.585  1.00  0.00     0.037 A 
BRANCH  54  68
ATOM     68  C   UNL     1      -4.303 -13.806  -4.257  1.00  0.00     0.057 A 
ATOM     69  C   UNL     1      -4.567 -15.185  -4.148  1.00  0.00     0.134 A 
ATOM     70  C   UNL     1      -2.974 -13.435  -3.962  1.00  0.00     0.134 A 
ATOM     71  F   UNL     1      -5.787 -15.677  -4.411  1.00  0.00    -0.206 F 
ATOM     72  C   UNL     1      -3.619 -16.100  -3.671  1.00  0.00     0.040 A 
ATOM     73  C   UNL     1      -2.007 -14.350  -3.534  1.00  0.00     0.040 A 
ATOM     74  F   UNL     1      -2.551 -12.168  -3.973  1.00  0.00    -0.206 F 
ATOM     75  C   UNL     1      -2.337 -15.680  -3.347  1.00  0.00     0.006 A 
ENDBRANCH  54  68
BRANCH  55  76
ATOM     76  C   UNL     1      -4.499  -9.245   2.967  1.00  0.00     0.057 A 
ATOM     77  C   UNL     1      -4.483 -10.027   4.132  1.00  0.00     0.134 A 
ATOM     78  C   UNL     1      -3.442  -8.328   2.829  1.00  0.00     0.134 A 
ATOM     79  F   UNL     1      -5.425 -10.960   4.337  1.00  0.00    -0.206 F 
ATOM     80  C   UNL     1      -3.463  -9.925   5.089  1.00  0.00     0.040 A 
ATOM     81  C   UNL     1      -2.419  -8.213   3.778  1.00  0.00     0.040 A 
ATOM     82  F   UNL     1      -3.318  -7.577   1.725  1.00  0.00    -0.206 F 
ATOM     83  C   UNL     1      -2.418  -9.024   4.906  1.00  0.00     0.006 A 
ENDBRANCH  55  76
BRANCH  67  84
ATOM     84  C   UNL     1      -9.297 -11.872  -0.108  1.00  0.00     0.057 A 
ATOM     85  C   UNL     1      -9.575 -10.511   0.091  1.00  0.00     0.134 A 
ATOM     86  C   UNL     1     -10.374 -12.756  -0.001  1.00  0.00     0.134 A 
ATOM     87  F   UNL     1      -8.632  -9.577  -0.080  1.00  0.00    -0.206 F 
ATOM     88  C   UNL     1     -10.857 -10.057   0.417  1.00  0.00     0.040 A 
ATOM     89  C   UNL     1     -11.666 -12.314   0.291  1.00  0.00     0.040 A 
ATOM     90  F   UNL     1     -10.197 -14.066  -0.232  1.00  0.00    -0.206 F 
ATOM     91  C   UNL     1     -11.910 -10.961   0.510  1.00  0.00     0.006 A 
ENDBRANCH  67  84
ENDBRANCH  41  42
ENDBRANCH  33  36
ENDBRANCH  31  32
ENDBRANCH  30  31
ENDBRANCH   1  30
TORSDOF 15
