REMARK SMILES CC(C)C[C@H](NC(=O)CNC(=O)[C@@H](NC(=O)OCc1ccccc1)C(C)C)C(=O)N[C@@H](C)C(=O)NCCCCNC(=O)c1ccc(-c2c3nc(c(-c4c(F)cccc4F)c4ccc([nH]4)c(-c4c(F)cccc4F)c4nc(c(-c5c(F)cccc5F)c5ccc2[nH]5)C=C4)C=C3)cc1
REMARK SMILES IDX 31 1 32 2 30 3 28 4 29 5 5 7 4 8 2 9 1 10 3 11 6 12 7 13
REMARK SMILES IDX 8 15 9 16 10 17 11 18 12 20 13 21 14 22 15 23 16 25 17 26
REMARK SMILES IDX 18 27 19 28 20 29 24 30 21 31 23 32 22 33 25 34 26 35 27 36
REMARK SMILES IDX 33 37 34 38 35 39 36 41 37 42 38 43 39 44 40 45 41 46 42 48
REMARK SMILES IDX 43 49 44 50 96 51 45 52 95 53 46 54 47 55 48 56 89 57 49 58
REMARK SMILES IDX 94 59 88 60 90 61 50 62 93 63 87 64 86 65 51 67 77 68 60 69
REMARK SMILES IDX 76 70 61 71 64 72 75 73 91 74 62 75 63 76 74 78 92 79 65 80
REMARK SMILES IDX 52 81 53 82 58 83 54 84 55 85 57 86 59 87 56 88 78 89 79 90
REMARK SMILES IDX 84 91 80 92 81 93 83 94 85 95 82 96 66 97 67 98 72 99 68 100
REMARK SMILES IDX 69 101 71 102 73 103 70 104
REMARK H PARENT 30 6 6 14 10 19 14 24 35 40 40 47 90 66 64 77
REMARK Flexibility Score: inf
ROOT
ATOM      1  C   UNL     1      -3.317  -0.244  -3.805  1.00  0.00     0.168 C 
ATOM      2  C   UNL     1      -3.553  -1.634  -4.371  1.00  0.00     0.041 C 
ENDROOT
BRANCH   1   3
ATOM      3  N   UNL     1      -3.905  -0.126  -2.469  1.00  0.00    -0.343 N 
ATOM      4  C   UNL     1      -3.431   0.516  -1.368  1.00  0.00     0.243 C 
ATOM      5  O   UNL     1      -4.227   0.738  -0.453  1.00  0.00    -0.273 OA
ATOM      6  H   UNL     1      -4.771  -0.578  -2.350  1.00  0.00     0.164 HD
BRANCH   4   7
ATOM      7  C   UNL     1      -1.987   1.038  -1.327  1.00  0.00     0.171 C 
BRANCH   7   8
ATOM      8  C   UNL     1      -1.828   2.286  -2.198  1.00  0.00     0.038 C 
BRANCH   8   9
ATOM      9  C   UNL     1      -2.919   3.373  -2.138  1.00  0.00    -0.015 C 
ATOM     10  C   UNL     1      -3.072   4.000  -0.751  1.00  0.00     0.007 C 
ATOM     11  C   UNL     1      -2.555   4.475  -3.142  1.00  0.00     0.007 C 
ENDBRANCH   8   9
ENDBRANCH   7   8
BRANCH   7  12
ATOM     12  N   UNL     1      -1.074  -0.067  -1.674  1.00  0.00    -0.343 N 
ATOM     13  C   UNL     1       0.260  -0.289  -1.642  1.00  0.00     0.240 C 
ATOM     14  H   UNL     1      -1.563  -0.848  -2.020  1.00  0.00     0.164 HD
ATOM     15  O   UNL     1       0.604  -1.450  -1.908  1.00  0.00    -0.273 OA
BRANCH  13  16
ATOM     16  C   UNL     1       1.329   0.711  -1.179  1.00  0.00     0.216 C 
BRANCH  16  17
ATOM     17  N   UNL     1       1.342   2.033  -1.763  1.00  0.00    -0.345 N 
ATOM     18  C   UNL     1       1.231   3.282  -1.247  1.00  0.00     0.243 C 
ATOM     19  H   UNL     1       1.454   2.025  -2.741  1.00  0.00     0.164 HD
ATOM     20  O   UNL     1       1.467   4.202  -2.042  1.00  0.00    -0.273 OA
BRANCH  18  21
ATOM     21  C   UNL     1       0.853   3.620   0.227  1.00  0.00     0.177 C 
BRANCH  21  22
ATOM     22  N   UNL     1      -0.077   2.675   0.845  1.00  0.00    -0.309 N 
ATOM     23  C   UNL     1       0.085   1.607   1.671  1.00  0.00     0.408 C 
ATOM     24  H   UNL     1      -1.018   2.848   0.614  1.00  0.00     0.167 HD
ATOM     25  O   UNL     1      -0.809   0.791   1.809  1.00  0.00    -0.225 OA
BRANCH  23  26
ATOM     26  O   UNL     1       1.256   1.600   2.339  1.00  0.00    -0.445 OA
BRANCH  26  27
ATOM     27  C   UNL     1       1.335   0.633   3.395  1.00  0.00     0.270 C 
BRANCH  27  28
ATOM     28  C   UNL     1       0.570   0.987   4.661  1.00  0.00    -0.011 A 
ATOM     29  C   UNL     1      -0.530   1.860   4.690  1.00  0.00     0.007 A 
ATOM     30  C   UNL     1       0.919   0.337   5.855  1.00  0.00     0.007 A 
ATOM     31  C   UNL     1      -1.267   2.065   5.857  1.00  0.00     0.000 A 
ATOM     32  C   UNL     1       0.190   0.551   7.028  1.00  0.00     0.000 A 
ATOM     33  C   UNL     1      -0.907   1.409   7.027  1.00  0.00     0.000 A 
ENDBRANCH  27  28
ENDBRANCH  26  27
ENDBRANCH  23  26
ENDBRANCH  21  22
BRANCH  21  34
ATOM     34  C   UNL     1       2.042   4.087   1.087  1.00  0.00     0.015 C 
ATOM     35  C   UNL     1       2.834   5.208   0.398  1.00  0.00     0.010 C 
ATOM     36  C   UNL     1       1.568   4.635   2.443  1.00  0.00     0.010 C 
ENDBRANCH  21  34
ENDBRANCH  18  21
ENDBRANCH  16  17
ENDBRANCH  13  16
ENDBRANCH   7  12
ENDBRANCH   4   7
ENDBRANCH   1   3
BRANCH   1  37
ATOM     37  C   UNL     1      -3.773   0.858  -4.780  1.00  0.00     0.242 C 
ATOM     38  O   UNL     1      -2.951   1.457  -5.480  1.00  0.00    -0.273 OA
ATOM     39  N   UNL     1      -5.085   1.139  -4.990  1.00  0.00    -0.354 N 
ATOM     40  H   UNL     1      -5.254   1.879  -5.617  1.00  0.00     0.163 HD
BRANCH  39  41
ATOM     41  C   UNL     1      -6.274   0.525  -4.443  1.00  0.00     0.116 C 
BRANCH  41  42
ATOM     42  C   UNL     1      -7.109   1.529  -3.657  1.00  0.00     0.023 C 
BRANCH  42  43
ATOM     43  C   UNL     1      -7.776   2.595  -4.528  1.00  0.00     0.023 C 
BRANCH  43  44
ATOM     44  C   UNL     1      -8.530   2.054  -5.739  1.00  0.00     0.116 C 
BRANCH  44  45
ATOM     45  N   UNL     1      -9.507   1.031  -5.388  1.00  0.00    -0.352 N 
ATOM     46  C   UNL     1     -10.803   0.900  -5.822  1.00  0.00     0.251 C 
ATOM     47  H   UNL     1      -9.197   0.343  -4.755  1.00  0.00     0.163 HD
ATOM     48  O   UNL     1     -11.546   0.053  -5.341  1.00  0.00    -0.269 OA
BRANCH  46  49
ATOM     49  C   UNL     1     -11.295   1.833  -6.851  1.00  0.00     0.039 A 
ATOM     50  C   UNL     1     -12.430   2.597  -6.577  1.00  0.00     0.014 A 
ATOM     51  C   UNL     1     -10.570   2.019  -8.030  1.00  0.00     0.014 A 
ATOM     52  C   UNL     1     -12.787   3.623  -7.451  1.00  0.00     0.010 A 
ATOM     53  C   UNL     1     -10.886   3.086  -8.862  1.00  0.00     0.010 A 
ATOM     54  C   UNL     1     -11.984   3.911  -8.568  1.00  0.00    -0.014 A 
BRANCH  54  55
ATOM     55  C   UNL     1     -12.237   5.105  -9.411  1.00  0.00     0.031 A 
ATOM     56  C   UNL     1     -12.593   4.943 -10.860  1.00  0.00     0.074 A 
ATOM     57  C   UNL     1     -12.052   6.334  -8.887  1.00  0.00     0.049 A 
ATOM     58  N   UNL     1     -12.739   5.861 -11.780  1.00  0.00    -0.248 NA
ATOM     59  C   UNL     1     -12.787   3.567 -11.348  1.00  0.00     0.031 C 
ATOM     60  C   UNL     1     -11.665   6.617  -7.502  1.00  0.00     0.029 A 
ATOM     61  N   UNL     1     -12.145   7.577  -9.463  1.00  0.00    -0.354 N 
ATOM     62  C   UNL     1     -13.024   5.178 -12.954  1.00  0.00     0.074 A 
ATOM     63  C   UNL     1     -12.996   3.765 -12.642  1.00  0.00     0.031 C 
ATOM     64  C   UNL     1     -11.564   7.946  -7.335  1.00  0.00     0.029 A 
ATOM     65  C   UNL     1     -11.828   8.607  -8.608  1.00  0.00     0.049 A 
ATOM     66  H   UNL     1     -12.412   7.718 -10.400  1.00  0.00     0.167 HD
ATOM     67  C   UNL     1     -13.298   5.686 -14.178  1.00  0.00     0.037 A 
ATOM     68  C   UNL     1     -11.735   9.931  -8.833  1.00  0.00     0.037 A 
ATOM     69  C   UNL     1     -13.352   7.093 -14.476  1.00  0.00     0.049 A 
ATOM     70  C   UNL     1     -12.015  10.459 -10.214  1.00  0.00     0.074 A 
ATOM     71  C   UNL     1     -13.705   7.705 -15.666  1.00  0.00     0.029 A 
ATOM     72  N   UNL     1     -13.035   8.105 -13.583  1.00  0.00    -0.354 N 
ATOM     73  N   UNL     1     -12.376   9.807 -11.293  1.00  0.00    -0.248 NA
ATOM     74  C   UNL     1     -11.872  11.909 -10.412  1.00  0.00     0.031 C 
ATOM     75  C   UNL     1     -13.540   9.084 -15.513  1.00  0.00     0.029 A 
ATOM     76  C   UNL     1     -13.142   9.335 -14.210  1.00  0.00     0.049 A 
ATOM     77  H   UNL     1     -12.773   7.969 -12.644  1.00  0.00     0.167 HD
ATOM     78  C   UNL     1     -12.529  10.767 -12.285  1.00  0.00     0.074 A 
ATOM     79  C   UNL     1     -12.246  12.049 -11.675  1.00  0.00     0.031 C 
ATOM     80  C   UNL     1     -12.867  10.603 -13.586  1.00  0.00     0.037 A 
BRANCH  67  81
ATOM     81  C   UNL     1     -13.561   4.726 -15.299  1.00  0.00     0.057 A 
ATOM     82  C   UNL     1     -14.749   3.989 -15.379  1.00  0.00     0.134 A 
ATOM     83  C   UNL     1     -12.655   4.611 -16.361  1.00  0.00     0.134 A 
ATOM     84  F   UNL     1     -15.653   4.047 -14.390  1.00  0.00    -0.206 F 
ATOM     85  C   UNL     1     -15.024   3.167 -16.473  1.00  0.00     0.040 A 
ATOM     86  C   UNL     1     -12.930   3.812 -17.472  1.00  0.00     0.040 A 
ATOM     87  F   UNL     1     -11.501   5.294 -16.349  1.00  0.00    -0.206 F 
ATOM     88  C   UNL     1     -14.118   3.087 -17.529  1.00  0.00     0.006 A 
ENDBRANCH  67  81
BRANCH  68  89
ATOM     89  C   UNL     1     -11.339  10.861  -7.742  1.00  0.00     0.057 A 
ATOM     90  C   UNL     1     -12.227  11.828  -7.256  1.00  0.00     0.134 A 
ATOM     91  C   UNL     1     -10.047  10.847  -7.202  1.00  0.00     0.134 A 
ATOM     92  F   UNL     1     -13.473  11.907  -7.747  1.00  0.00    -0.206 F 
ATOM     93  C   UNL     1     -11.836  12.771  -6.304  1.00  0.00     0.040 A 
ATOM     94  C   UNL     1      -9.652  11.763  -6.226  1.00  0.00     0.040 A 
ATOM     95  F   UNL     1      -9.148   9.942  -7.617  1.00  0.00    -0.206 F 
ATOM     96  C   UNL     1     -10.543  12.738  -5.785  1.00  0.00     0.006 A 
ENDBRANCH  68  89
BRANCH  80  97
ATOM     97  C   UNL     1     -12.981  11.839 -14.430  1.00  0.00     0.057 A 
ATOM     98  C   UNL     1     -11.854  12.575 -14.818  1.00  0.00     0.134 A 
ATOM     99  C   UNL     1     -14.229  12.274 -14.895  1.00  0.00     0.134 A 
ATOM    100  F   UNL     1     -10.631  12.220 -14.395  1.00  0.00    -0.206 F 
ATOM    101  C   UNL     1     -11.966  13.711 -15.620  1.00  0.00     0.040 A 
ATOM    102  C   UNL     1     -14.351  13.390 -15.723  1.00  0.00     0.040 A 
ATOM    103  F   UNL     1     -15.348  11.609 -14.569  1.00  0.00    -0.206 F 
ATOM    104  C   UNL     1     -13.217  14.117 -16.082  1.00  0.00     0.006 A 
ENDBRANCH  80  97
ENDBRANCH  54  55
ENDBRANCH  46  49
ENDBRANCH  44  45
ENDBRANCH  43  44
ENDBRANCH  42  43
ENDBRANCH  41  42
ENDBRANCH  39  41
ENDBRANCH   1  37
TORSDOF 24
