REMARK SMILES CC(C)CCc1cc2c(cc1Cl)C=C(C(=O)NCCCCNC(=O)c1ccc(-c3c4nc(c(-c5c(F)cccc5F)c5ccc([nH]5)c(-c5c(F)cccc5F)c5nc(c(-c6c(F)cccc6F)c6ccc3[nH]6)C=C5)C=C4)cc1)[C@@H](C(F)(F)F)O2
REMARK SMILES IDX 19 1 18 2 17 3 15 4 16 5 14 7 6 8 7 9 11 10 8 11 10 12 12 13
REMARK SMILES IDX 9 14 84 15 13 16 79 17 5 18 4 19 2 20 1 21 3 22 80 23 81 24
REMARK SMILES IDX 82 25 83 26 20 27 21 28 22 29 23 30 24 32 25 33 26 34 78 35
REMARK SMILES IDX 27 36 77 37 28 38 29 39 30 40 71 41 31 42 76 43 70 44 72 45
REMARK SMILES IDX 32 46 75 47 69 48 68 49 33 51 59 52 42 53 58 54 43 55 46 56
REMARK SMILES IDX 57 57 73 58 44 59 45 60 56 62 74 63 47 64 34 65 35 66 40 67
REMARK SMILES IDX 36 68 37 69 39 70 41 71 38 72 60 73 61 74 66 75 62 76 63 77
REMARK SMILES IDX 65 78 67 79 64 80 48 81 49 82 54 83 50 84 51 85 53 86 55 87
REMARK SMILES IDX 52 88
REMARK H PARENT 17 6 22 31 72 50 46 61
REMARK Flexibility Score: inf
ROOT
ATOM      1  C   UNL     1       4.815  -7.751   3.168  1.00  0.00     0.023 C 
ENDROOT
BRANCH   1   2
ATOM      2  C   UNL     1       4.486  -7.877   1.684  1.00  0.00     0.116 C 
BRANCH   2   3
ATOM      3  N   UNL     1       3.232  -8.576   1.448  1.00  0.00    -0.352 N 
ATOM      4  C   UNL     1       1.978  -8.250   1.049  1.00  0.00     0.251 C 
ATOM      5  O   UNL     1       1.185  -9.193   0.964  1.00  0.00    -0.270 OA
ATOM      6  H   UNL     1       3.317  -9.540   1.625  1.00  0.00     0.163 HD
BRANCH   4   7
ATOM      7  C   UNL     1       1.514  -6.867   0.729  1.00  0.00     0.067 C 
ATOM      8  C   UNL     1      -1.287  -2.698   0.096  1.00  0.00    -0.026 A 
ATOM      9  C   UNL     1       0.074  -3.010   0.065  1.00  0.00     0.052 A 
ATOM     10  C   UNL     1      -2.187  -3.770   0.212  1.00  0.00     0.045 A 
ATOM     11  C   UNL     1       0.534  -4.302   0.281  1.00  0.00     0.128 A 
ATOM     12  C   UNL     1      -1.722  -5.091   0.361  1.00  0.00     0.032 A 
ATOM     13  Cl  UNL     1      -3.900  -3.540   0.183  1.00  0.00    -0.084 Cl
ATOM     14  C   UNL     1      -0.351  -5.357   0.428  1.00  0.00     0.019 A 
ATOM     15  O   UNL     1       1.881  -4.407   0.399  1.00  0.00    -0.475 OA
ATOM     16  C   UNL     1       0.178  -6.689   0.693  1.00  0.00     0.025 C 
ATOM     17  C   UNL     1       2.456  -5.731   0.447  1.00  0.00     0.314 C 
BRANCH   8  18
ATOM     18  C   UNL     1      -1.682  -1.238   0.009  1.00  0.00     0.037 C 
BRANCH  18  19
ATOM     19  C   UNL     1      -1.251  -0.372   1.218  1.00  0.00     0.008 C 
BRANCH  19  20
ATOM     20  C   UNL     1       0.257  -0.069   1.391  1.00  0.00    -0.017 C 
ATOM     21  C   UNL     1       0.890   0.568   0.151  1.00  0.00     0.007 C 
ATOM     22  C   UNL     1       0.488   0.842   2.600  1.00  0.00     0.007 C 
ENDBRANCH  19  20
ENDBRANCH  18  19
ENDBRANCH   8  18
BRANCH  17  23
ATOM     23  C   UNL     1       3.271  -5.908  -0.846  1.00  0.00     0.429 C 
ATOM     24  F   UNL     1       4.332  -5.061  -0.847  1.00  0.00    -0.167 F 
ATOM     25  F   UNL     1       3.777  -7.152  -0.990  1.00  0.00    -0.167 F 
ATOM     26  F   UNL     1       2.542  -5.644  -1.953  1.00  0.00    -0.167 F 
ENDBRANCH  17  23
ENDBRANCH   4   7
ENDBRANCH   2   3
ENDBRANCH   1   2
BRANCH   1  27
ATOM     27  C   UNL     1       5.545  -8.960   3.752  1.00  0.00     0.023 C 
BRANCH  27  28
ATOM     28  C   UNL     1       6.833  -9.355   3.034  1.00  0.00     0.116 C 
BRANCH  28  29
ATOM     29  N   UNL     1       7.804  -8.277   2.891  1.00  0.00    -0.352 N 
ATOM     30  C   UNL     1       9.172  -8.395   2.771  1.00  0.00     0.251 C 
ATOM     31  H   UNL     1       7.442  -7.361   2.879  1.00  0.00     0.163 HD
ATOM     32  O   UNL     1       9.895  -7.407   2.720  1.00  0.00    -0.269 OA
BRANCH  30  33
ATOM     33  C   UNL     1       9.752  -9.752   2.768  1.00  0.00     0.039 A 
ATOM     34  C   UNL     1       9.268 -10.707   1.872  1.00  0.00     0.014 A 
ATOM     35  C   UNL     1      10.668 -10.103   3.762  1.00  0.00     0.014 A 
ATOM     36  C   UNL     1       9.552 -12.047   2.094  1.00  0.00     0.010 A 
ATOM     37  C   UNL     1      11.018 -11.444   3.928  1.00  0.00     0.010 A 
ATOM     38  C   UNL     1      10.410 -12.433   3.139  1.00  0.00    -0.014 A 
BRANCH  38  39
ATOM     39  C   UNL     1      10.613 -13.880   3.403  1.00  0.00     0.031 A 
ATOM     40  C   UNL     1      10.115 -14.510   4.677  1.00  0.00     0.074 A 
ATOM     41  C   UNL     1      11.170 -14.646   2.446  1.00  0.00     0.049 A 
ATOM     42  N   UNL     1      10.149 -15.768   5.043  1.00  0.00    -0.248 NA
ATOM     43  C   UNL     1       9.504 -13.616   5.673  1.00  0.00     0.031 C 
ATOM     44  C   UNL     1      11.680 -14.152   1.165  1.00  0.00     0.029 A 
ATOM     45  N   UNL     1      11.364 -16.001   2.384  1.00  0.00    -0.354 N 
ATOM     46  C   UNL     1       9.588 -15.812   6.314  1.00  0.00     0.074 A 
ATOM     47  C   UNL     1       9.242 -14.453   6.668  1.00  0.00     0.031 C 
ATOM     48  C   UNL     1      12.067 -15.196   0.417  1.00  0.00     0.029 A 
ATOM     49  C   UNL     1      11.886 -16.422   1.186  1.00  0.00     0.049 A 
ATOM     50  H   UNL     1      11.150 -16.612   3.125  1.00  0.00     0.167 HD
ATOM     51  C   UNL     1       9.371 -16.888   7.109  1.00  0.00     0.037 A 
ATOM     52  C   UNL     1      12.189 -17.660   0.755  1.00  0.00     0.037 A 
ATOM     53  C   UNL     1       9.688 -18.245   6.745  1.00  0.00     0.049 A 
ATOM     54  C   UNL     1      11.958 -18.830   1.664  1.00  0.00     0.074 A 
ATOM     55  C   UNL     1       9.481 -19.406   7.472  1.00  0.00     0.029 A 
ATOM     56  N   UNL     1      10.275 -18.624   5.548  1.00  0.00    -0.354 N 
ATOM     57  N   UNL     1      11.425 -18.854   2.861  1.00  0.00    -0.248 NA
ATOM     58  C   UNL     1      12.385 -20.144   1.165  1.00  0.00     0.031 C 
ATOM     59  C   UNL     1       9.973 -20.484   6.727  1.00  0.00     0.029 A 
ATOM     60  C   UNL     1      10.456 -19.998   5.523  1.00  0.00     0.049 A 
ATOM     61  H   UNL     1      10.527 -18.008   4.823  1.00  0.00     0.167 HD
ATOM     62  C   UNL     1      11.450 -20.182   3.259  1.00  0.00     0.074 A 
ATOM     63  C   UNL     1      12.025 -20.937   2.164  1.00  0.00     0.031 C 
ATOM     64  C   UNL     1      11.042 -20.729   4.430  1.00  0.00     0.037 A 
BRANCH  51  65
ATOM     65  C   UNL     1       8.774 -16.639   8.463  1.00  0.00     0.057 A 
ATOM     66  C   UNL     1       9.555 -16.757   9.619  1.00  0.00     0.134 A 
ATOM     67  C   UNL     1       7.420 -16.318   8.627  1.00  0.00     0.134 A 
ATOM     68  F   UNL     1      10.857 -17.067   9.532  1.00  0.00    -0.206 F 
ATOM     69  C   UNL     1       9.012 -16.565  10.891  1.00  0.00     0.040 A 
ATOM     70  C   UNL     1       6.870 -16.104   9.892  1.00  0.00     0.040 A 
ATOM     71  F   UNL     1       6.621 -16.176   7.559  1.00  0.00    -0.206 F 
ATOM     72  C   UNL     1       7.666 -16.233  11.029  1.00  0.00     0.006 A 
ENDBRANCH  51  65
BRANCH  52  73
ATOM     73  C   UNL     1      12.746 -17.850  -0.605  1.00  0.00     0.057 A 
ATOM     74  C   UNL     1      14.042 -17.427  -0.926  1.00  0.00     0.134 A 
ATOM     75  C   UNL     1      11.991 -18.452  -1.617  1.00  0.00     0.134 A 
ATOM     76  F   UNL     1      14.811 -16.839   0.001  1.00  0.00    -0.206 F 
ATOM     77  C   UNL     1      14.562 -17.584  -2.211  1.00  0.00     0.040 A 
ATOM     78  C   UNL     1      12.507 -18.636  -2.900  1.00  0.00     0.040 A 
ATOM     79  F   UNL     1      10.750 -18.892  -1.361  1.00  0.00    -0.206 F 
ATOM     80  C   UNL     1      13.795 -18.195  -3.201  1.00  0.00     0.006 A 
ENDBRANCH  52  73
BRANCH  64  81
ATOM     81  C   UNL     1      11.206 -22.211   4.573  1.00  0.00     0.057 A 
ATOM     82  C   UNL     1      10.101 -23.066   4.491  1.00  0.00     0.134 A 
ATOM     83  C   UNL     1      12.462 -22.789   4.795  1.00  0.00     0.134 A 
ATOM     84  F   UNL     1       8.871 -22.572   4.283  1.00  0.00    -0.206 F 
ATOM     85  C   UNL     1      10.241 -24.448   4.620  1.00  0.00     0.040 A 
ATOM     86  C   UNL     1      12.617 -24.171   4.906  1.00  0.00     0.040 A 
ATOM     87  F   UNL     1      13.560 -22.022   4.867  1.00  0.00    -0.206 F 
ATOM     88  C   UNL     1      11.503 -25.004   4.821  1.00  0.00     0.006 A 
ENDBRANCH  64  81
ENDBRANCH  38  39
ENDBRANCH  30  33
ENDBRANCH  28  29
ENDBRANCH  27  28
ENDBRANCH   1  27
TORSDOF 15
