REMARK SMILES C[C@@H](C(=O)NCCCCNC(=O)c1ccc(-c2c3nc(c(-c4c(F)cccc4F)c4ccc([nH]4)c(-c4c(F)cccc4F)c4nc(c(-c5c(F)cccc5F)c5ccc2[nH]5)C=C4)C=C3)cc1)c1ccc(O[C@H]2CCCC2=O)cc1F
REMARK SMILES IDX 7 1 6 2 5 3 3 4 4 5 2 7 1 8 67 9 68 10 79 11 69 12 78 13
REMARK SMILES IDX 80 14 70 15 71 16 72 17 73 18 76 19 74 20 75 21 77 22 8 23
REMARK SMILES IDX 9 24 10 25 11 26 12 28 13 29 14 30 66 31 15 32 65 33 16 34
REMARK SMILES IDX 17 35 18 36 59 37 19 38 64 39 58 40 60 41 20 42 63 43 57 44
REMARK SMILES IDX 56 45 21 47 47 48 30 49 46 50 31 51 34 52 45 53 61 54 32 55
REMARK SMILES IDX 33 56 44 58 62 59 35 60 22 61 23 62 28 63 24 64 25 65 27 66
REMARK SMILES IDX 29 67 26 68 48 69 49 70 54 71 50 72 51 73 53 74 55 75 52 76
REMARK SMILES IDX 36 77 37 78 42 79 38 80 39 81 41 82 43 83 40 84
REMARK H PARENT 5 6 10 27 60 46 34 57
REMARK Flexibility Score: inf
ROOT
ATOM      1  C   UNL     1       4.207   1.059  -0.140  1.00  0.00     0.023 C 
ENDROOT
BRANCH   1   2
ATOM      2  C   UNL     1       3.358   1.344   1.103  1.00  0.00     0.116 C 
BRANCH   2   3
ATOM      3  N   UNL     1       2.347   2.348   0.832  1.00  0.00    -0.356 N 
ATOM      4  C   UNL     1       1.017   2.202   0.551  1.00  0.00     0.227 C 
ATOM      5  O   UNL     1       0.458   3.188   0.069  1.00  0.00    -0.274 OA
ATOM      6  H   UNL     1       2.668   3.279   0.855  1.00  0.00     0.163 HD
BRANCH   4   7
ATOM      7  C   UNL     1       0.328   0.849   0.796  1.00  0.00     0.108 C 
ATOM      8  C   UNL     1       0.617  -0.041  -0.422  1.00  0.00     0.023 C 
BRANCH   7   9
ATOM      9  C   UNL     1      -1.173   0.868   1.095  1.00  0.00     0.000 A 
ATOM     10  C   UNL     1      -1.956   2.024   1.182  1.00  0.00     0.011 A 
ATOM     11  C   UNL     1      -1.835  -0.350   1.314  1.00  0.00     0.130 A 
ATOM     12  C   UNL     1      -3.342   1.943   1.372  1.00  0.00     0.047 A 
ATOM     13  C   UNL     1      -3.216  -0.439   1.495  1.00  0.00     0.086 A 
ATOM     14  F   UNL     1      -1.135  -1.494   1.360  1.00  0.00    -0.207 F 
ATOM     15  C   UNL     1      -3.987   0.711   1.490  1.00  0.00     0.123 A 
BRANCH  15  16
ATOM     16  O   UNL     1      -5.338   0.792   1.624  1.00  0.00    -0.483 OA
BRANCH  16  17
ATOM     17  C   UNL     1      -6.172  -0.310   1.349  1.00  0.00     0.239 C 
ATOM     18  C   UNL     1      -6.209  -0.735  -0.128  1.00  0.00     0.054 C 
ATOM     19  C   UNL     1      -6.077  -1.631   2.104  1.00  0.00     0.173 C 
ATOM     20  C   UNL     1      -5.910  -2.232  -0.168  1.00  0.00     0.012 C 
ATOM     21  C   UNL     1      -6.294  -2.802   1.189  1.00  0.00     0.080 C 
ATOM     22  O   UNL     1      -5.891  -1.741   3.310  1.00  0.00    -0.296 OA
ENDBRANCH  16  17
ENDBRANCH  15  16
ENDBRANCH   7   9
ENDBRANCH   4   7
ENDBRANCH   2   3
ENDBRANCH   1   2
BRANCH   1  23
ATOM     23  C   UNL     1       4.985   2.259  -0.682  1.00  0.00     0.023 C 
BRANCH  23  24
ATOM     24  C   UNL     1       5.953   2.894   0.304  1.00  0.00     0.116 C 
BRANCH  24  25
ATOM     25  N   UNL     1       6.974   1.966   0.764  1.00  0.00    -0.352 N 
ATOM     26  C   UNL     1       8.326   2.170   0.894  1.00  0.00     0.251 C 
ATOM     27  H   UNL     1       6.653   1.070   1.015  1.00  0.00     0.163 HD
ATOM     28  O   UNL     1       9.072   1.234   1.165  1.00  0.00    -0.269 OA
BRANCH  26  29
ATOM     29  C   UNL     1       8.880   3.521   0.676  1.00  0.00     0.039 A 
ATOM     30  C   UNL     1      10.005   3.668  -0.139  1.00  0.00     0.014 A 
ATOM     31  C   UNL     1       8.275   4.640   1.255  1.00  0.00     0.014 A 
ATOM     32  C   UNL     1      10.488   4.947  -0.424  1.00  0.00     0.010 A 
ATOM     33  C   UNL     1       8.710   5.914   0.909  1.00  0.00     0.010 A 
ATOM     34  C   UNL     1       9.824   6.080   0.072  1.00  0.00    -0.014 A 
BRANCH  34  35
ATOM     35  C   UNL     1      10.284   7.453  -0.249  1.00  0.00     0.031 A 
ATOM     36  C   UNL     1      10.770   8.353   0.852  1.00  0.00     0.074 A 
ATOM     37  C   UNL     1      10.187   7.917  -1.510  1.00  0.00     0.049 A 
ATOM     38  N   UNL     1      11.101   9.618   0.804  1.00  0.00    -0.248 NA
ATOM     39  C   UNL     1      10.865   7.757   2.195  1.00  0.00     0.031 C 
ATOM     40  C   UNL     1       9.693   7.156  -2.658  1.00  0.00     0.029 A 
ATOM     41  N   UNL     1      10.484   9.151  -2.031  1.00  0.00    -0.354 N 
ATOM     42  C   UNL     1      11.418   9.973   2.108  1.00  0.00     0.074 A 
ATOM     43  C   UNL     1      11.192   8.807   2.933  1.00  0.00     0.031 C 
ATOM     44  C   UNL     1       9.735   7.935  -3.752  1.00  0.00     0.029 A 
ATOM     45  C   UNL     1      10.220   9.259  -3.374  1.00  0.00     0.049 A 
ATOM     46  H   UNL     1      10.851   9.889  -1.493  1.00  0.00     0.167 HD
ATOM     47  C   UNL     1      11.877  11.159   2.574  1.00  0.00     0.037 A 
ATOM     48  C   UNL     1      10.345  10.312  -4.205  1.00  0.00     0.037 A 
ATOM     49  C   UNL     1      12.130  12.308   1.746  1.00  0.00     0.049 A 
ATOM     50  C   UNL     1      10.857  11.618  -3.665  1.00  0.00     0.074 A 
ATOM     51  C   UNL     1      12.653  13.536   2.111  1.00  0.00     0.029 A 
ATOM     52  N   UNL     1      11.879  12.368   0.384  1.00  0.00    -0.354 N 
ATOM     53  N   UNL     1      11.209  11.925  -2.440  1.00  0.00    -0.248 NA
ATOM     54  C   UNL     1      10.994  12.723  -4.624  1.00  0.00     0.031 C 
ATOM     55  C   UNL     1      12.681  14.353   0.977  1.00  0.00     0.029 A 
ATOM     56  C   UNL     1      12.220  13.619  -0.104  1.00  0.00     0.049 A 
ATOM     57  H   UNL     1      11.513  11.631  -0.157  1.00  0.00     0.167 HD
ATOM     58  C   UNL     1      11.637  13.246  -2.486  1.00  0.00     0.074 A 
ATOM     59  C   UNL     1      11.510  13.678  -3.863  1.00  0.00     0.031 C 
ATOM     60  C   UNL     1      12.098  14.029  -1.480  1.00  0.00     0.037 A 
BRANCH  47  61
ATOM     61  C   UNL     1      12.135  11.267   4.049  1.00  0.00     0.057 A 
ATOM     62  C   UNL     1      13.192  10.585   4.667  1.00  0.00     0.134 A 
ATOM     63  C   UNL     1      11.326  12.074   4.859  1.00  0.00     0.134 A 
ATOM     64  F   UNL     1      13.995   9.784   3.951  1.00  0.00    -0.206 F 
ATOM     65  C   UNL     1      13.416  10.677   6.042  1.00  0.00     0.040 A 
ATOM     66  C   UNL     1      11.558  12.197   6.230  1.00  0.00     0.040 A 
ATOM     67  F   UNL     1      10.300  12.758   4.332  1.00  0.00    -0.206 F 
ATOM     68  C   UNL     1      12.601  11.490   6.826  1.00  0.00     0.006 A 
ENDBRANCH  47  61
BRANCH  48  69
ATOM     69  C   UNL     1       9.999  10.168  -5.641  1.00  0.00     0.057 A 
ATOM     70  C   UNL     1      10.996  10.164  -6.624  1.00  0.00     0.134 A 
ATOM     71  C   UNL     1       8.673  10.031  -6.067  1.00  0.00     0.134 A 
ATOM     72  F   UNL     1      12.284  10.309  -6.279  1.00  0.00    -0.206 F 
ATOM     73  C   UNL     1      10.686  10.048  -7.980  1.00  0.00     0.040 A 
ATOM     74  C   UNL     1       8.350   9.890  -7.418  1.00  0.00     0.040 A 
ATOM     75  F   UNL     1       7.673  10.020  -5.173  1.00  0.00    -0.206 F 
ATOM     76  C   UNL     1       9.359   9.905  -8.379  1.00  0.00     0.006 A 
ENDBRANCH  48  69
BRANCH  60  77
ATOM     77  C   UNL     1      12.538  15.418  -1.836  1.00  0.00     0.057 A 
ATOM     78  C   UNL     1      11.621  16.428  -2.150  1.00  0.00     0.134 A 
ATOM     79  C   UNL     1      13.897  15.758  -1.817  1.00  0.00     0.134 A 
ATOM     80  F   UNL     1      10.307  16.163  -2.198  1.00  0.00    -0.206 F 
ATOM     81  C   UNL     1      12.041  17.725  -2.451  1.00  0.00     0.040 A 
ATOM     82  C   UNL     1      14.327  17.057  -2.091  1.00  0.00     0.040 A 
ATOM     83  F   UNL     1      14.825  14.839  -1.515  1.00  0.00    -0.206 F 
ATOM     84  C   UNL     1      13.398  18.043  -2.415  1.00  0.00     0.006 A 
ENDBRANCH  60  77
ENDBRANCH  34  35
ENDBRANCH  26  29
ENDBRANCH  24  25
ENDBRANCH  23  24
ENDBRANCH   1  23
TORSDOF 14
