REMARK SMILES C[C@@H]1CC([NH2+][C@@](C)(C(=O)NCCCCNC(=O)c2ccc(-c3c4nc(c(-c5c(F)cccc5F)c5ccc([nH]5)c(-c5c(F)cccc5F)c5nc(c(-c6c(F)cccc6F)c6ccc3[nH]6)C=C5)C=C4)cc2)C(F)(F)F)C[C@@H](C)C1
REMARK SMILES IDX 12 1 11 2 10 3 8 4 9 5 6 7 7 8 5 9 4 12 1 13 2 14 3 15 79 16
REMARK SMILES IDX 77 17 76 18 78 19 72 20 73 21 74 22 75 23 13 24 14 25 15 26
REMARK SMILES IDX 16 27 17 29 18 30 19 31 71 32 20 33 70 34 21 35 22 36 23 37
REMARK SMILES IDX 64 38 24 39 69 40 63 41 65 42 25 43 68 44 62 45 61 46 26 48
REMARK SMILES IDX 52 49 35 50 51 51 36 52 39 53 50 54 66 55 37 56 38 57 49 59
REMARK SMILES IDX 67 60 40 61 27 62 28 63 33 64 29 65 30 66 32 67 34 68 31 69
REMARK SMILES IDX 53 70 54 71 59 72 55 73 56 74 58 75 60 76 57 77 41 78 42 79
REMARK SMILES IDX 47 80 43 81 44 82 46 83 48 84 45 85
REMARK H PARENT 10 6 5 10 5 11 15 28 65 47 39 58
REMARK Flexibility Score: inf
ROOT
ATOM      1  C   UNL     1       0.655   0.924  -2.669  1.00  0.00     0.023 C 
ENDROOT
BRANCH   1   2
ATOM      2  C   UNL     1      -0.802   0.567  -2.953  1.00  0.00     0.116 C 
BRANCH   2   3
ATOM      3  N   UNL     1      -0.908  -0.731  -3.589  1.00  0.00    -0.350 N 
ATOM      4  C   UNL     1      -1.393  -1.940  -3.162  1.00  0.00     0.290 C 
ATOM      5  O   UNL     1      -1.258  -2.864  -3.967  1.00  0.00    -0.267 OA
ATOM      6  H   UNL     1      -0.563  -0.747  -4.512  1.00  0.00     0.163 HD
BRANCH   4   7
ATOM      7  C   UNL     1      -2.087  -2.112  -1.778  1.00  0.00     0.268 C 
ATOM      8  C   UNL     1      -3.338  -1.205  -1.769  1.00  0.00     0.101 C 
BRANCH   7   9
ATOM      9  N   UNL     1      -1.064  -1.784  -0.721  1.00  0.00    -0.324 N 
ATOM     10  H   UNL     1      -0.235  -2.341  -0.927  1.00  0.00     0.347 HD
ATOM     11  H   UNL     1      -0.967  -0.770  -0.787  1.00  0.00     0.347 HD
BRANCH   9  12
ATOM     12  C   UNL     1      -1.388  -2.007   0.691  1.00  0.00     0.184 C 
ATOM     13  C   UNL     1       1.383  -0.051   0.654  1.00  0.00     0.008 C 
ATOM     14  C   UNL     1       0.501  -0.552   1.798  1.00  0.00    -0.008 C 
ATOM     15  C   UNL     1      -0.092  -1.953   1.534  1.00  0.00     0.068 C 
ATOM     16  C   UNL     1      -0.569   0.490   2.178  1.00  0.00     0.007 C 
ATOM     17  C   UNL     1      -1.822   0.427   1.293  1.00  0.00    -0.008 C 
ATOM     18  C   UNL     1      -2.379  -1.002   1.296  1.00  0.00     0.068 C 
ATOM     19  C   UNL     1      -2.884   1.424   1.751  1.00  0.00     0.008 C 
ENDBRANCH   9  12
ENDBRANCH   7   9
BRANCH   7  20
ATOM     20  C   UNL     1      -2.610  -3.584  -1.766  1.00  0.00     0.453 C 
ATOM     21  F   UNL     1      -1.622  -4.506  -1.792  1.00  0.00    -0.164 F 
ATOM     22  F   UNL     1      -3.329  -3.823  -0.633  1.00  0.00    -0.164 F 
ATOM     23  F   UNL     1      -3.460  -3.838  -2.791  1.00  0.00    -0.164 F 
ENDBRANCH   7  20
ENDBRANCH   4   7
ENDBRANCH   2   3
ENDBRANCH   1   2
BRANCH   1  24
ATOM     24  C   UNL     1       1.437   1.428  -3.877  1.00  0.00     0.023 C 
BRANCH  24  25
ATOM     25  C   UNL     1       0.899   2.716  -4.487  1.00  0.00     0.116 C 
BRANCH  25  26
ATOM     26  N   UNL     1       0.838   3.828  -3.547  1.00  0.00    -0.352 N 
ATOM     27  C   UNL     1       1.142   5.153  -3.766  1.00  0.00     0.251 C 
ATOM     28  H   UNL     1       0.541   3.602  -2.636  1.00  0.00     0.163 HD
ATOM     29  O   UNL     1       1.129   5.959  -2.847  1.00  0.00    -0.269 OA
BRANCH  27  30
ATOM     30  C   UNL     1       1.529   5.575  -5.127  1.00  0.00     0.039 A 
ATOM     31  C   UNL     1       2.717   6.287  -5.301  1.00  0.00     0.014 A 
ATOM     32  C   UNL     1       0.759   5.193  -6.228  1.00  0.00     0.014 A 
ATOM     33  C   UNL     1       3.181   6.540  -6.593  1.00  0.00     0.010 A 
ATOM     34  C   UNL     1       1.262   5.375  -7.509  1.00  0.00     0.010 A 
ATOM     35  C   UNL     1       2.481   6.043  -7.704  1.00  0.00    -0.014 A 
BRANCH  35  36
ATOM     36  C   UNL     1       3.002   6.199  -9.083  1.00  0.00     0.031 A 
ATOM     37  C   UNL     1       2.219   6.988 -10.093  1.00  0.00     0.074 A 
ATOM     38  C   UNL     1       4.127   5.554  -9.450  1.00  0.00     0.049 A 
ATOM     39  N   UNL     1       2.439   7.142 -11.373  1.00  0.00    -0.248 NA
ATOM     40  C   UNL     1       1.007   7.665  -9.605  1.00  0.00     0.031 C 
ATOM     41  C   UNL     1       4.947   4.712  -8.576  1.00  0.00     0.029 A 
ATOM     42  N   UNL     1       4.767   5.495 -10.662  1.00  0.00    -0.354 N 
ATOM     43  C   UNL     1       1.383   7.910 -11.846  1.00  0.00     0.074 A 
ATOM     44  C   UNL     1       0.497   8.148 -10.727  1.00  0.00     0.031 C 
ATOM     45  C   UNL     1       5.992   4.240  -9.275  1.00  0.00     0.029 A 
ATOM     46  C   UNL     1       5.896   4.713 -10.652  1.00  0.00     0.049 A 
ATOM     47  H   UNL     1       4.447   5.969 -11.463  1.00  0.00     0.167 HD
ATOM     48  C   UNL     1       1.182   8.393 -13.094  1.00  0.00     0.037 A 
ATOM     49  C   UNL     1       6.753   4.408 -11.644  1.00  0.00     0.037 A 
ATOM     50  C   UNL     1       2.084   8.188 -14.195  1.00  0.00     0.049 A 
ATOM     51  C   UNL     1       6.517   4.972 -13.017  1.00  0.00     0.074 A 
ATOM     52  C   UNL     1       2.004   8.691 -15.481  1.00  0.00     0.029 A 
ATOM     53  N   UNL     1       3.238   7.421 -14.135  1.00  0.00    -0.354 N 
ATOM     54  N   UNL     1       5.546   5.746 -13.436  1.00  0.00    -0.248 NA
ATOM     55  C   UNL     1       7.498   4.622 -14.055  1.00  0.00     0.031 C 
ATOM     56  C   UNL     1       3.095   8.204 -16.209  1.00  0.00     0.029 A 
ATOM     57  C   UNL     1       3.872   7.427 -15.365  1.00  0.00     0.049 A 
ATOM     58  H   UNL     1       3.558   6.942 -13.336  1.00  0.00     0.167 HD
ATOM     59  C   UNL     1       5.812   5.998 -14.776  1.00  0.00     0.074 A 
ATOM     60  C   UNL     1       7.041   5.302 -15.097  1.00  0.00     0.031 C 
ATOM     61  C   UNL     1       5.102   6.738 -15.661  1.00  0.00     0.037 A 
BRANCH  48  62
ATOM     62  C   UNL     1      -0.060   9.200 -13.327  1.00  0.00     0.057 A 
ATOM     63  C   UNL     1      -0.209  10.490 -12.799  1.00  0.00     0.134 A 
ATOM     64  C   UNL     1      -1.110   8.693 -14.103  1.00  0.00     0.134 A 
ATOM     65  F   UNL     1       0.753  11.026 -12.034  1.00  0.00    -0.206 F 
ATOM     66  C   UNL     1      -1.369  11.236 -13.013  1.00  0.00     0.040 A 
ATOM     67  C   UNL     1      -2.264   9.440 -14.345  1.00  0.00     0.040 A 
ATOM     68  F   UNL     1      -1.029   7.466 -14.640  1.00  0.00    -0.206 F 
ATOM     69  C   UNL     1      -2.398  10.713 -13.793  1.00  0.00     0.006 A 
ENDBRANCH  48  62
BRANCH  49  70
ATOM     70  C   UNL     1       7.932   3.549 -11.371  1.00  0.00     0.057 A 
ATOM     71  C   UNL     1       9.223   4.090 -11.345  1.00  0.00     0.134 A 
ATOM     72  C   UNL     1       7.801   2.175 -11.139  1.00  0.00     0.134 A 
ATOM     73  F   UNL     1       9.411   5.397 -11.579  1.00  0.00    -0.206 F 
ATOM     74  C   UNL     1      10.345   3.292 -11.116  1.00  0.00     0.040 A 
ATOM     75  C   UNL     1       8.913   1.369 -10.887  1.00  0.00     0.040 A 
ATOM     76  F   UNL     1       6.590   1.599 -11.144  1.00  0.00    -0.206 F 
ATOM     77  C   UNL     1      10.190   1.927 -10.882  1.00  0.00     0.006 A 
ENDBRANCH  49  70
BRANCH  61  78
ATOM     78  C   UNL     1       5.655   6.864 -17.048  1.00  0.00     0.057 A 
ATOM     79  C   UNL     1       5.584   5.811 -17.967  1.00  0.00     0.134 A 
ATOM     80  C   UNL     1       6.225   8.068 -17.480  1.00  0.00     0.134 A 
ATOM     81  F   UNL     1       5.062   4.628 -17.608  1.00  0.00    -0.206 F 
ATOM     82  C   UNL     1       6.076   5.946 -19.266  1.00  0.00     0.040 A 
ATOM     83  C   UNL     1       6.699   8.222 -18.783  1.00  0.00     0.040 A 
ATOM     84  F   UNL     1       6.315   9.116 -16.648  1.00  0.00    -0.206 F 
ATOM     85  C   UNL     1       6.629   7.157 -19.679  1.00  0.00     0.006 A 
ENDBRANCH  61  78
ENDBRANCH  35  36
ENDBRANCH  27  30
ENDBRANCH  25  26
ENDBRANCH  24  25
ENDBRANCH   1  24
TORSDOF 14
