REMARK SMILES C#CC[N@H+](CC(=O)NCCCCNC(=O)c1ccc(-c2c3nc(c(-c4c(F)cccc4F)c4ccc([nH]4)c(-c4c(F)cccc4F)c4nc(c(-c5c(F)cccc5F)c5ccc2[nH]5)C=C4)C=C3)cc1)[C@H](C)c1cc(C)ccc1C
REMARK SMILES IDX 10 1 9 2 8 3 6 4 7 5 5 7 4 8 3 10 2 11 1 12 70 13 71 14
REMARK SMILES IDX 72 15 73 16 78 17 74 18 77 19 79 20 75 21 76 22 11 23 12 24
REMARK SMILES IDX 13 25 14 26 15 28 16 29 17 30 69 31 18 32 68 33 19 34 20 35
REMARK SMILES IDX 21 36 62 37 22 38 67 39 61 40 63 41 23 42 66 43 60 44 59 45
REMARK SMILES IDX 24 47 50 48 33 49 49 50 34 51 37 52 48 53 64 54 35 55 36 56
REMARK SMILES IDX 47 58 65 59 38 60 25 61 26 62 31 63 27 64 28 65 30 66 32 67
REMARK SMILES IDX 29 68 51 69 52 70 57 71 53 72 54 73 56 74 58 75 55 76 39 77
REMARK SMILES IDX 40 78 45 79 41 80 42 81 44 82 46 83 43 84
REMARK H PARENT 8 6 4 9 13 27 63 46 37 57
REMARK Flexibility Score: inf
ROOT
ATOM      1  C   UNL     1      -2.194   1.882  -3.657  1.00  0.00     0.023 C 
ENDROOT
BRANCH   1   2
ATOM      2  C   UNL     1      -3.487   1.356  -3.010  1.00  0.00     0.116 C 
BRANCH   2   3
ATOM      3  N   UNL     1      -4.093   0.274  -3.773  1.00  0.00    -0.351 N 
ATOM      4  C   UNL     1      -4.165  -1.076  -3.509  1.00  0.00     0.275 C 
ATOM      5  O   UNL     1      -4.697  -1.797  -4.355  1.00  0.00    -0.269 OA
ATOM      6  H   UNL     1      -4.522   0.553  -4.614  1.00  0.00     0.163 HD
BRANCH   4   7
ATOM      7  C   UNL     1      -3.630  -1.638  -2.175  1.00  0.00     0.364 C 
BRANCH   7   8
ATOM      8  N   UNL     1      -2.168  -1.986  -2.124  1.00  0.00    -0.311 N 
ATOM      9  H   UNL     1      -2.010  -2.890  -2.569  1.00  0.00     0.349 HD
BRANCH   8  10
ATOM     10  C   UNL     1      -1.383  -1.058  -2.923  1.00  0.00     0.354 C 
BRANCH  10  11
ATOM     11  C   UNL     1       0.019  -1.308  -3.279  1.00  0.00    -0.047 C 
ATOM     12  C   UNL     1       1.175  -1.239  -3.591  1.00  0.00     0.010 C 
ENDBRANCH  10  11
ENDBRANCH   8  10
BRANCH   8  13
ATOM     13  C   UNL     1      -1.711  -2.201  -0.711  1.00  0.00     0.213 C 
ATOM     14  C   UNL     1      -2.510  -1.555   0.445  1.00  0.00     0.081 C 
BRANCH  13  15
ATOM     15  C   UNL     1      -0.198  -2.106  -0.457  1.00  0.00     0.012 A 
ATOM     16  C   UNL     1       0.517  -3.326  -0.526  1.00  0.00     0.013 A 
ATOM     17  C   UNL     1       0.535  -0.917  -0.212  1.00  0.00    -0.042 A 
ATOM     18  C   UNL     1       1.908  -3.388  -0.375  1.00  0.00    -0.051 A 
ATOM     19  C   UNL     1       1.938  -0.993  -0.091  1.00  0.00     0.004 A 
ATOM     20  C   UNL     1      -0.029   0.478  -0.170  1.00  0.00     0.045 C 
ATOM     21  C   UNL     1       2.605  -4.713  -0.429  1.00  0.00     0.044 C 
ATOM     22  C   UNL     1       2.616  -2.208  -0.174  1.00  0.00     0.004 A 
ENDBRANCH  13  15
ENDBRANCH   8  13
ENDBRANCH   7   8
ENDBRANCH   4   7
ENDBRANCH   2   3
ENDBRANCH   1   2
BRANCH   1  23
ATOM     23  C   UNL     1      -2.375   2.743  -4.889  1.00  0.00     0.023 C 
BRANCH  23  24
ATOM     24  C   UNL     1      -3.056   4.059  -4.600  1.00  0.00     0.116 C 
BRANCH  24  25
ATOM     25  N   UNL     1      -2.314   4.878  -3.647  1.00  0.00    -0.352 N 
ATOM     26  C   UNL     1      -1.876   6.173  -3.792  1.00  0.00     0.251 C 
ATOM     27  H   UNL     1      -2.100   4.448  -2.788  1.00  0.00     0.163 HD
ATOM     28  O   UNL     1      -1.121   6.681  -2.972  1.00  0.00    -0.269 OA
BRANCH  26  29
ATOM     29  C   UNL     1      -2.308   6.919  -4.987  1.00  0.00     0.039 A 
ATOM     30  C   UNL     1      -1.350   7.552  -5.778  1.00  0.00     0.014 A 
ATOM     31  C   UNL     1      -3.646   6.865  -5.383  1.00  0.00     0.014 A 
ATOM     32  C   UNL     1      -1.724   8.046  -7.026  1.00  0.00     0.010 A 
ATOM     33  C   UNL     1      -3.985   7.242  -6.671  1.00  0.00     0.010 A 
ATOM     34  C   UNL     1      -3.028   7.838  -7.505  1.00  0.00    -0.014 A 
BRANCH  34  35
ATOM     35  C   UNL     1      -3.425   8.228  -8.879  1.00  0.00     0.031 A 
ATOM     36  C   UNL     1      -4.534   9.220  -9.078  1.00  0.00     0.074 A 
ATOM     37  C   UNL     1      -2.845   7.630  -9.938  1.00  0.00     0.049 A 
ATOM     38  N   UNL     1      -5.094   9.622 -10.189  1.00  0.00    -0.248 NA
ATOM     39  C   UNL     1      -5.114   9.815  -7.862  1.00  0.00     0.031 C 
ATOM     40  C   UNL     1      -1.786   6.621  -9.870  1.00  0.00     0.029 A 
ATOM     41  N   UNL     1      -3.074   7.779 -11.283  1.00  0.00    -0.354 N 
ATOM     42  C   UNL     1      -6.091  10.508  -9.805  1.00  0.00     0.074 A 
ATOM     43  C   UNL     1      -6.113  10.526  -8.360  1.00  0.00     0.031 C 
ATOM     44  C   UNL     1      -1.432   6.270 -11.117  1.00  0.00     0.029 A 
ATOM     45  C   UNL     1      -2.276   6.983 -12.069  1.00  0.00     0.049 A 
ATOM     46  H   UNL     1      -3.746   8.398 -11.649  1.00  0.00     0.167 HD
ATOM     47  C   UNL     1      -6.897  11.264 -10.588  1.00  0.00     0.037 A 
ATOM     48  C   UNL     1      -2.242   6.836 -13.407  1.00  0.00     0.037 A 
ATOM     49  C   UNL     1      -6.868  11.240 -12.025  1.00  0.00     0.049 A 
ATOM     50  C   UNL     1      -3.193   7.638 -14.254  1.00  0.00     0.074 A 
ATOM     51  C   UNL     1      -7.615  11.992 -12.914  1.00  0.00     0.029 A 
ATOM     52  N   UNL     1      -6.058  10.409 -12.786  1.00  0.00    -0.354 N 
ATOM     53  N   UNL     1      -4.085   8.525 -13.883  1.00  0.00    -0.248 NA
ATOM     54  C   UNL     1      -3.135   7.416 -15.705  1.00  0.00     0.031 C 
ATOM     55  C   UNL     1      -7.306  11.569 -14.209  1.00  0.00     0.029 A 
ATOM     56  C   UNL     1      -6.314  10.604 -14.133  1.00  0.00     0.049 A 
ATOM     57  H   UNL     1      -5.399   9.775 -12.421  1.00  0.00     0.167 HD
ATOM     58  C   UNL     1      -4.669   8.991 -15.054  1.00  0.00     0.074 A 
ATOM     59  C   UNL     1      -4.020   8.297 -16.148  1.00  0.00     0.031 C 
ATOM     60  C   UNL     1      -5.654   9.910 -15.210  1.00  0.00     0.037 A 
BRANCH  47  61
ATOM     61  C   UNL     1      -7.877  12.168  -9.896  1.00  0.00     0.057 A 
ATOM     62  C   UNL     1      -7.462  13.266  -9.130  1.00  0.00     0.134 A 
ATOM     63  C   UNL     1      -9.256  11.945 -10.006  1.00  0.00     0.134 A 
ATOM     64  F   UNL     1      -6.155  13.530  -8.972  1.00  0.00    -0.206 F 
ATOM     65  C   UNL     1      -8.377  14.084  -8.466  1.00  0.00     0.040 A 
ATOM     66  C   UNL     1     -10.182  12.779  -9.377  1.00  0.00     0.040 A 
ATOM     67  F   UNL     1      -9.726  10.917 -10.728  1.00  0.00    -0.206 F 
ATOM     68  C   UNL     1      -9.743  13.845  -8.595  1.00  0.00     0.006 A 
ENDBRANCH  47  61
BRANCH  48  69
ATOM     69  C   UNL     1      -1.266   5.906 -14.032  1.00  0.00     0.057 A 
ATOM     70  C   UNL     1      -0.220   6.388 -14.828  1.00  0.00     0.134 A 
ATOM     71  C   UNL     1      -1.358   4.519 -13.862  1.00  0.00     0.134 A 
ATOM     72  F   UNL     1      -0.088   7.705 -15.043  1.00  0.00    -0.206 F 
ATOM     73  C   UNL     1       0.684   5.526 -15.451  1.00  0.00     0.040 A 
ATOM     74  C   UNL     1      -0.442   3.647 -14.454  1.00  0.00     0.040 A 
ATOM     75  F   UNL     1      -2.331   3.991 -13.105  1.00  0.00    -0.206 F 
ATOM     76  C   UNL     1       0.577   4.150 -15.259  1.00  0.00     0.006 A 
ENDBRANCH  48  69
BRANCH  60  77
ATOM     77  C   UNL     1      -6.067  10.251 -16.613  1.00  0.00     0.057 A 
ATOM     78  C   UNL     1      -6.776   9.351 -17.419  1.00  0.00     0.134 A 
ATOM     79  C   UNL     1      -5.802  11.521 -17.143  1.00  0.00     0.134 A 
ATOM     80  F   UNL     1      -7.052   8.114 -16.978  1.00  0.00    -0.206 F 
ATOM     81  C   UNL     1      -7.190   9.696 -18.707  1.00  0.00     0.040 A 
ATOM     82  C   UNL     1      -6.240  11.889 -18.415  1.00  0.00     0.040 A 
ATOM     83  F   UNL     1      -5.136  12.436 -16.421  1.00  0.00    -0.206 F 
ATOM     84  C   UNL     1      -6.931  10.972 -19.204  1.00  0.00     0.006 A 
ENDBRANCH  60  77
ENDBRANCH  34  35
ENDBRANCH  26  29
ENDBRANCH  24  25
ENDBRANCH  23  24
ENDBRANCH   1  23
TORSDOF 16
