REMARK SMILES CCCCCCNC(=O)Oc1cccc(-c2ccc([C@@H](C)C(=O)NCCCCNC(=O)c3ccc(-c4c5nc(c(-c6c(F)cccc6F)c6ccc([nH]6)c(-c6c(F)cccc6F)c6nc(c(-c7c(F)cccc7F)c7ccc4[nH]7)C=C6)C=C5)cc3)cc2F)c1
REMARK SMILES IDX 20 1 21 2 19 3 16 4 17 5 87 6 18 7 86 8 88 9 15 10 11 11
REMARK SMILES IDX 12 12 89 13 13 14 14 15 10 16 8 17 7 18 9 20 6 21 5 22 4 23
REMARK SMILES IDX 3 24 2 25 1 26 22 27 23 28 24 29 25 31 26 32 27 33 28 34
REMARK SMILES IDX 29 35 30 36 31 38 32 39 33 40 85 41 34 42 84 43 35 44 36 45
REMARK SMILES IDX 37 46 78 47 38 48 83 49 77 50 79 51 39 52 82 53 76 54 75 55
REMARK SMILES IDX 40 57 66 58 49 59 65 60 50 61 53 62 64 63 80 64 51 65 52 66
REMARK SMILES IDX 63 68 81 69 54 70 41 71 42 72 47 73 43 74 44 75 46 76 48 77
REMARK SMILES IDX 45 78 67 79 68 80 73 81 69 82 70 83 72 84 74 85 71 86 55 87
REMARK SMILES IDX 56 88 61 89 57 90 58 91 60 92 62 93 59 94
REMARK H PARENT 7 19 24 30 29 37 79 56 53 67
REMARK Flexibility Score: inf
ROOT
ATOM      1  C   UNL     1      -4.624  -4.689  12.523  1.00  0.00     0.105 C 
ATOM      2  C   UNL     1      -5.832  -4.915  13.431  1.00  0.00     0.023 C 
ENDROOT
BRANCH   1   3
ATOM      3  C   UNL     1      -4.886  -4.792  11.029  1.00  0.00    -0.033 A 
ATOM      4  C   UNL     1      -5.149  -5.038   8.182  1.00  0.00     0.018 A 
ATOM      5  C   UNL     1      -5.781  -5.928   9.068  1.00  0.00     0.012 A 
ATOM      6  C   UNL     1      -4.426  -3.990   8.774  1.00  0.00     0.131 A 
ATOM      7  C   UNL     1      -5.686  -5.784  10.459  1.00  0.00     0.005 A 
ATOM      8  C   UNL     1      -4.273  -3.879  10.160  1.00  0.00     0.044 A 
ATOM      9  F   UNL     1      -3.849  -3.041   8.019  1.00  0.00    -0.206 F 
BRANCH   4  10
ATOM     10  C   UNL     1      -5.242  -5.229   6.713  1.00  0.00    -0.012 A 
ATOM     11  C   UNL     1      -4.299  -5.049   4.472  1.00  0.00     0.133 A 
ATOM     12  C   UNL     1      -5.427  -5.632   3.907  1.00  0.00     0.047 A 
ATOM     13  C   UNL     1      -4.198  -4.849   5.851  1.00  0.00     0.056 A 
ATOM     14  C   UNL     1      -6.468  -6.027   4.737  1.00  0.00     0.004 A 
ATOM     15  C   UNL     1      -6.379  -5.817   6.118  1.00  0.00     0.009 A 
BRANCH  11  16
ATOM     16  O   UNL     1      -3.340  -4.535   3.585  1.00  0.00    -0.410 OA
BRANCH  16  17
ATOM     17  C   UNL     1      -2.004  -4.848   3.782  1.00  0.00     0.412 C 
ATOM     18  N   UNL     1      -1.171  -4.159   2.943  1.00  0.00    -0.321 N 
ATOM     19  H   UNL     1      -0.210  -4.359   3.011  1.00  0.00     0.167 HD
ATOM     20  O   UNL     1      -1.563  -5.653   4.592  1.00  0.00    -0.224 OA
BRANCH  18  21
ATOM     21  C   UNL     1      -1.562  -3.163   1.966  1.00  0.00     0.119 C 
BRANCH  21  22
ATOM     22  C   UNL     1      -0.964  -1.791   2.274  1.00  0.00     0.021 C 
BRANCH  22  23
ATOM     23  C   UNL     1       0.566  -1.724   2.192  1.00  0.00     0.002 C 
BRANCH  23  24
ATOM     24  C   UNL     1       1.174  -2.136   0.847  1.00  0.00    -0.000 C 
BRANCH  24  25
ATOM     25  C   UNL     1       0.683  -1.343  -0.367  1.00  0.00    -0.003 C 
ATOM     26  C   UNL     1       1.036   0.134  -0.303  1.00  0.00     0.004 C 
ENDBRANCH  24  25
ENDBRANCH  23  24
ENDBRANCH  22  23
ENDBRANCH  21  22
ENDBRANCH  18  21
ENDBRANCH  16  17
ENDBRANCH  11  16
ENDBRANCH   4  10
ENDBRANCH   1   3
BRANCH   1  27
ATOM     27  C   UNL     1      -3.355  -5.429  12.977  1.00  0.00     0.227 C 
ATOM     28  O   UNL     1      -2.351  -4.785  13.304  1.00  0.00    -0.274 OA
ATOM     29  N   UNL     1      -3.256  -6.784  13.062  1.00  0.00    -0.356 N 
ATOM     30  H   UNL     1      -2.403  -7.104  13.437  1.00  0.00     0.163 HD
BRANCH  29  31
ATOM     31  C   UNL     1      -4.180  -7.838  12.701  1.00  0.00     0.116 C 
BRANCH  31  32
ATOM     32  C   UNL     1      -3.901  -8.393  11.304  1.00  0.00     0.023 C 
BRANCH  32  33
ATOM     33  C   UNL     1      -2.873  -9.521  11.250  1.00  0.00     0.023 C 
BRANCH  33  34
ATOM     34  C   UNL     1      -3.242 -10.776  12.032  1.00  0.00     0.116 C 
BRANCH  34  35
ATOM     35  N   UNL     1      -4.517 -11.366  11.648  1.00  0.00    -0.352 N 
ATOM     36  C   UNL     1      -4.880 -12.693  11.664  1.00  0.00     0.251 C 
ATOM     37  H   UNL     1      -5.206 -10.735  11.337  1.00  0.00     0.163 HD
ATOM     38  O   UNL     1      -5.975 -13.048  11.241  1.00  0.00    -0.269 OA
BRANCH  36  39
ATOM     39  C   UNL     1      -3.910 -13.695  12.152  1.00  0.00     0.039 A 
ATOM     40  C   UNL     1      -3.625 -14.802  11.350  1.00  0.00     0.014 A 
ATOM     41  C   UNL     1      -3.234 -13.501  13.358  1.00  0.00     0.014 A 
ATOM     42  C   UNL     1      -2.598 -15.672  11.720  1.00  0.00     0.010 A 
ATOM     43  C   UNL     1      -2.159 -14.320  13.684  1.00  0.00     0.010 A 
ATOM     44  C   UNL     1      -1.827 -15.410  12.865  1.00  0.00    -0.014 A 
BRANCH  44  45
ATOM     45  C   UNL     1      -0.657 -16.254  13.214  1.00  0.00     0.031 A 
ATOM     46  C   UNL     1      -0.646 -17.039  14.494  1.00  0.00     0.074 A 
ATOM     47  C   UNL     1       0.428 -16.247  12.416  1.00  0.00     0.049 A 
ATOM     48  N   UNL     1       0.304 -17.784  14.999  1.00  0.00    -0.248 NA
ATOM     49  C   UNL     1      -1.849 -16.948  15.336  1.00  0.00     0.031 C 
ATOM     50  C   UNL     1       0.568 -15.470  11.182  1.00  0.00     0.029 A 
ATOM     51  N   UNL     1       1.625 -16.908  12.529  1.00  0.00    -0.354 N 
ATOM     52  C   UNL     1      -0.178 -18.233  16.221  1.00  0.00     0.074 A 
ATOM     53  C   UNL     1      -1.481 -17.632  16.408  1.00  0.00     0.031 C 
ATOM     54  C   UNL     1       1.771 -15.719  10.640  1.00  0.00     0.029 A 
ATOM     55  C   UNL     1       2.498 -16.646  11.501  1.00  0.00     0.049 A 
ATOM     56  H   UNL     1       1.838 -17.512  13.277  1.00  0.00     0.167 HD
ATOM     57  C   UNL     1       0.400 -19.089  17.096  1.00  0.00     0.037 A 
ATOM     58  C   UNL     1       3.744 -17.104  11.278  1.00  0.00     0.037 A 
ATOM     59  C   UNL     1       1.682 -19.709  16.892  1.00  0.00     0.049 A 
ATOM     60  C   UNL     1       4.356 -18.072  12.251  1.00  0.00     0.074 A 
ATOM     61  C   UNL     1       2.319 -20.653  17.678  1.00  0.00     0.029 A 
ATOM     62  N   UNL     1       2.524 -19.444  15.822  1.00  0.00    -0.354 N 
ATOM     63  N   UNL     1       3.854 -18.556  13.361  1.00  0.00    -0.248 NA
ATOM     64  C   UNL     1       5.705 -18.563  11.936  1.00  0.00     0.031 C 
ATOM     65  C   UNL     1       3.566 -20.929  17.105  1.00  0.00     0.029 A 
ATOM     66  C   UNL     1       3.686 -20.190  15.939  1.00  0.00     0.049 A 
ATOM     67  H   UNL     1       2.326 -18.819  15.088  1.00  0.00     0.167 HD
ATOM     68  C   UNL     1       4.813 -19.423  13.866  1.00  0.00     0.074 A 
ATOM     69  C   UNL     1       5.921 -19.411  12.932  1.00  0.00     0.031 C 
ATOM     70  C   UNL     1       4.780 -20.163  15.001  1.00  0.00     0.037 A 
BRANCH  57  71
ATOM     71  C   UNL     1      -0.359 -19.404  18.352  1.00  0.00     0.057 A 
ATOM     72  C   UNL     1      -1.532 -20.171  18.333  1.00  0.00     0.134 A 
ATOM     73  C   UNL     1       0.092 -18.946  19.596  1.00  0.00     0.134 A 
ATOM     74  F   UNL     1      -2.027 -20.629  17.173  1.00  0.00    -0.206 F 
ATOM     75  C   UNL     1      -2.247 -20.442  19.501  1.00  0.00     0.040 A 
ATOM     76  C   UNL     1      -0.599 -19.234  20.774  1.00  0.00     0.040 A 
ATOM     77  F   UNL     1       1.211 -18.211  19.687  1.00  0.00    -0.206 F 
ATOM     78  C   UNL     1      -1.777 -19.977  20.727  1.00  0.00     0.006 A 
ENDBRANCH  57  71
BRANCH  58  79
ATOM     79  C   UNL     1       4.480 -16.678  10.062  1.00  0.00     0.057 A 
ATOM     80  C   UNL     1       4.688 -17.565   8.999  1.00  0.00     0.134 A 
ATOM     81  C   UNL     1       4.981 -15.378   9.926  1.00  0.00     0.134 A 
ATOM     82  F   UNL     1       4.246 -18.829   9.080  1.00  0.00    -0.206 F 
ATOM     83  C   UNL     1       5.378 -17.179   7.849  1.00  0.00     0.040 A 
ATOM     84  C   UNL     1       5.654 -14.972   8.772  1.00  0.00     0.040 A 
ATOM     85  F   UNL     1       4.807 -14.480  10.906  1.00  0.00    -0.206 F 
ATOM     86  C   UNL     1       5.858 -15.876   7.732  1.00  0.00     0.006 A 
ENDBRANCH  58  79
BRANCH  70  87
ATOM     87  C   UNL     1       5.967 -21.034  15.285  1.00  0.00     0.057 A 
ATOM     88  C   UNL     1       7.190 -20.499  15.707  1.00  0.00     0.134 A 
ATOM     89  C   UNL     1       5.875 -22.427  15.168  1.00  0.00     0.134 A 
ATOM     90  F   UNL     1       7.347 -19.172  15.825  1.00  0.00    -0.206 F 
ATOM     91  C   UNL     1       8.287 -21.317  15.984  1.00  0.00     0.040 A 
ATOM     92  C   UNL     1       6.956 -23.257  15.466  1.00  0.00     0.040 A 
ATOM     93  F   UNL     1       4.729 -23.003  14.775  1.00  0.00    -0.206 F 
ATOM     94  C   UNL     1       8.168 -22.701  15.870  1.00  0.00     0.006 A 
ENDBRANCH  70  87
ENDBRANCH  44  45
ENDBRANCH  36  39
ENDBRANCH  34  35
ENDBRANCH  33  34
ENDBRANCH  32  33
ENDBRANCH  31  32
ENDBRANCH  29  31
ENDBRANCH   1  27
TORSDOF 20
