REMARK SMILES CC[C@H]1Sc2ccc(S(=O)(=O)N3CCC(C(=O)NCCCCNC(=O)c4ccc(-c5c6nc(c(-c7c(F)cccc7F)c7ccc([nH]7)c(-c7c(F)cccc7F)c7nc(c(-c8c(F)cccc8F)c8ccc5[nH]8)C=C7)C=C6)cc4)CC3)cc2NC1=O
REMARK SMILES IDX 20 1 19 2 18 3 16 4 17 5 15 7 12 8 13 9 81 10 14 11 80 12
REMARK SMILES IDX 9 13 10 14 11 15 8 16 3 17 4 18 85 19 5 20 84 21 86 22 6 23
REMARK SMILES IDX 83 24 7 26 82 27 2 28 1 29 21 30 22 31 23 32 24 33 25 35
REMARK SMILES IDX 26 36 27 37 79 38 28 39 78 40 29 41 30 42 31 43 72 44 32 45
REMARK SMILES IDX 77 46 71 47 73 48 33 49 76 50 70 51 69 52 34 54 60 55 43 56
REMARK SMILES IDX 59 57 44 58 47 59 58 60 74 61 45 62 46 63 57 65 75 66 48 67
REMARK SMILES IDX 35 68 36 69 41 70 37 71 38 72 40 73 42 74 39 75 61 76 62 77
REMARK SMILES IDX 67 78 63 79 64 80 66 81 68 82 65 83 49 84 50 85 55 86 51 87
REMARK SMILES IDX 52 88 54 89 56 90 53 91
REMARK H PARENT 18 6 84 25 23 34 73 53 47 64
REMARK Flexibility Score: inf
ROOT
ATOM      1  C   UNL     1       0.659   9.111   2.071  1.00  0.00     0.023 C 
ENDROOT
BRANCH   1   2
ATOM      2  C   UNL     1       1.193   8.270   3.225  1.00  0.00     0.116 C 
BRANCH   2   3
ATOM      3  N   UNL     1       0.122   7.599   3.943  1.00  0.00    -0.356 N 
ATOM      4  C   UNL     1      -0.158   6.274   4.080  1.00  0.00     0.223 C 
ATOM      5  O   UNL     1      -1.145   5.950   4.742  1.00  0.00    -0.275 OA
ATOM      6  H   UNL     1      -0.503   8.201   4.407  1.00  0.00     0.163 HD
BRANCH   4   7
ATOM      7  C   UNL     1       0.731   5.211   3.454  1.00  0.00     0.081 C 
ATOM      8  N   UNL     1       3.040   4.479   1.875  1.00  0.00    -0.198 NA
ATOM      9  C   UNL     1       1.685   4.328   1.298  1.00  0.00     0.103 C 
ATOM     10  C   UNL     1       3.183   4.447   3.348  1.00  0.00     0.103 C 
ATOM     11  C   UNL     1       0.708   5.294   1.930  1.00  0.00     0.030 C 
ATOM     12  C   UNL     1       2.122   5.239   4.085  1.00  0.00     0.030 C 
BRANCH   8  13
ATOM     13  S   UNL     1       4.311   3.725   1.002  1.00  0.00     0.243 S 
ATOM     14  O   UNL     1       5.551   3.982   1.700  1.00  0.00    -0.207 OA
ATOM     15  O   UNL     1       4.136   4.077  -0.391  1.00  0.00    -0.207 OA
BRANCH  13  16
ATOM     16  C   UNL     1       4.032   1.963   1.101  1.00  0.00     0.084 A 
ATOM     17  C   UNL     1       1.136  -2.302   0.988  1.00  0.00     0.141 C 
ATOM     18  S   UNL     1       2.915  -2.437   0.597  1.00  0.00    -0.111 SA
ATOM     19  C   UNL     1       0.882  -1.527   2.272  1.00  0.00     0.237 C 
ATOM     20  C   UNL     1       3.390  -0.750   0.868  1.00  0.00     0.032 A 
ATOM     21  N   UNL     1       1.605  -0.394   2.520  1.00  0.00    -0.324 N 
ATOM     22  O   UNL     1      -0.051  -1.811   3.028  1.00  0.00    -0.273 OA
ATOM     23  C   UNL     1       4.450  -0.211   0.130  1.00  0.00     0.018 A 
ATOM     24  C   UNL     1       2.701   0.061   1.775  1.00  0.00     0.056 A 
ATOM     25  H   UNL     1       1.332   0.151   3.293  1.00  0.00     0.170 HD
ATOM     26  C   UNL     1       4.756   1.149   0.227  1.00  0.00     0.023 A 
ATOM     27  C   UNL     1       3.049   1.401   1.916  1.00  0.00     0.049 A 
BRANCH  17  28
ATOM     28  C   UNL     1       0.272  -1.787  -0.181  1.00  0.00     0.021 C 
ATOM     29  C   UNL     1       0.451  -0.337  -0.621  1.00  0.00     0.005 C 
ENDBRANCH  17  28
ENDBRANCH  13  16
ENDBRANCH   8  13
ENDBRANCH   4   7
ENDBRANCH   2   3
ENDBRANCH   1   2
BRANCH   1  30
ATOM     30  C   UNL     1      -0.105  10.359   2.506  1.00  0.00     0.023 C 
BRANCH  30  31
ATOM     31  C   UNL     1       0.638  11.261   3.485  1.00  0.00     0.116 C 
BRANCH  31  32
ATOM     32  N   UNL     1       1.963  11.646   3.023  1.00  0.00    -0.352 N 
ATOM     33  C   UNL     1       2.588  12.865   3.111  1.00  0.00     0.251 C 
ATOM     34  H   UNL     1       2.483  10.934   2.586  1.00  0.00     0.163 HD
ATOM     35  O   UNL     1       3.676  13.042   2.573  1.00  0.00    -0.269 OA
BRANCH  33  36
ATOM     36  C   UNL     1       1.922  13.976   3.819  1.00  0.00     0.039 A 
ATOM     37  C   UNL     1       1.851  15.219   3.188  1.00  0.00     0.014 A 
ATOM     38  C   UNL     1       1.342  13.783   5.076  1.00  0.00     0.014 A 
ATOM     39  C   UNL     1       1.131  16.252   3.788  1.00  0.00     0.010 A 
ATOM     40  C   UNL     1       0.564  14.792   5.637  1.00  0.00     0.010 A 
ATOM     41  C   UNL     1       0.449  16.033   4.996  1.00  0.00    -0.014 A 
BRANCH  41  42
ATOM     42  C   UNL     1      -0.411  17.091   5.579  1.00  0.00     0.031 A 
ATOM     43  C   UNL     1      -0.058  17.725   6.893  1.00  0.00     0.074 A 
ATOM     44  C   UNL     1      -1.541  17.447   4.937  1.00  0.00     0.049 A 
ATOM     45  N   UNL     1      -0.687  18.666   7.550  1.00  0.00    -0.248 NA
ATOM     46  C   UNL     1       1.143  17.217   7.574  1.00  0.00     0.031 C 
ATOM     47  C   UNL     1      -2.029  16.855   3.689  1.00  0.00     0.029 A 
ATOM     48  N   UNL     1      -2.485  18.392   5.247  1.00  0.00    -0.354 N 
ATOM     49  C   UNL     1       0.035  18.858   8.720  1.00  0.00     0.074 A 
ATOM     50  C   UNL     1       1.118  17.898   8.710  1.00  0.00     0.031 C 
ATOM     51  C   UNL     1      -3.162  17.474   3.323  1.00  0.00     0.029 A 
ATOM     52  C   UNL     1      -3.494  18.486   4.319  1.00  0.00     0.049 A 
ATOM     53  H   UNL     1      -2.444  18.950   6.057  1.00  0.00     0.167 HD
ATOM     54  C   UNL     1      -0.171  19.769   9.700  1.00  0.00     0.037 A 
ATOM     55  C   UNL     1      -4.561  19.305   4.273  1.00  0.00     0.037 A 
ATOM     56  C   UNL     1      -1.234  20.739   9.695  1.00  0.00     0.049 A 
ATOM     57  C   UNL     1      -4.752  20.323   5.361  1.00  0.00     0.074 A 
ATOM     58  C   UNL     1      -1.484  21.750  10.607  1.00  0.00     0.029 A 
ATOM     59  N   UNL     1      -2.226  20.817   8.729  1.00  0.00    -0.354 N 
ATOM     60  N   UNL     1      -4.013  20.550   6.419  1.00  0.00    -0.248 NA
ATOM     61  C   UNL     1      -5.921  21.206   5.241  1.00  0.00     0.031 C 
ATOM     62  C   UNL     1      -2.649  22.417  10.211  1.00  0.00     0.029 A 
ATOM     63  C   UNL     1      -3.102  21.846   9.033  1.00  0.00     0.049 A 
ATOM     64  H   UNL     1      -2.297  20.227   7.944  1.00  0.00     0.167 HD
ATOM     65  C   UNL     1      -4.615  21.610   7.082  1.00  0.00     0.074 A 
ATOM     66  C   UNL     1      -5.768  21.996   6.295  1.00  0.00     0.031 C 
ATOM     67  C   UNL     1      -4.248  22.210   8.241  1.00  0.00     0.037 A 
BRANCH  54  68
ATOM     68  C   UNL     1       0.785  19.763  10.856  1.00  0.00     0.057 A 
ATOM     69  C   UNL     1       2.108  20.206  10.720  1.00  0.00     0.134 A 
ATOM     70  C   UNL     1       0.374  19.338  12.125  1.00  0.00     0.134 A 
ATOM     71  F   UNL     1       2.568  20.613   9.527  1.00  0.00    -0.206 F 
ATOM     72  C   UNL     1       2.994  20.204  11.798  1.00  0.00     0.040 A 
ATOM     73  C   UNL     1       1.244  19.354  13.217  1.00  0.00     0.040 A 
ATOM     74  F   UNL     1      -0.880  18.905  12.326  1.00  0.00    -0.206 F 
ATOM     75  C   UNL     1       2.559  19.782  13.054  1.00  0.00     0.006 A 
ENDBRANCH  54  68
BRANCH  55  76
ATOM     76  C   UNL     1      -5.509  19.223   3.135  1.00  0.00     0.057 A 
ATOM     77  C   UNL     1      -5.550  20.225   2.160  1.00  0.00     0.134 A 
ATOM     78  C   UNL     1      -6.392  18.147   2.995  1.00  0.00     0.134 A 
ATOM     79  F   UNL     1      -4.738  21.289   2.251  1.00  0.00    -0.206 F 
ATOM     80  C   UNL     1      -6.448  20.170   1.093  1.00  0.00     0.040 A 
ATOM     81  C   UNL     1      -7.281  18.068   1.922  1.00  0.00     0.040 A 
ATOM     82  F   UNL     1      -6.394  17.151   3.893  1.00  0.00    -0.206 F 
ATOM     83  C   UNL     1      -7.315  19.086   0.971  1.00  0.00     0.006 A 
ENDBRANCH  55  76
BRANCH  67  84
ATOM     84  C   UNL     1      -5.099  23.351   8.713  1.00  0.00     0.057 A 
ATOM     85  C   UNL     1      -6.374  23.143   9.253  1.00  0.00     0.134 A 
ATOM     86  C   UNL     1      -4.630  24.669   8.644  1.00  0.00     0.134 A 
ATOM     87  F   UNL     1      -6.885  21.905   9.332  1.00  0.00    -0.206 F 
ATOM     88  C   UNL     1      -7.166  24.209   9.683  1.00  0.00     0.040 A 
ATOM     89  C   UNL     1      -5.403  25.741   9.093  1.00  0.00     0.040 A 
ATOM     90  F   UNL     1      -3.414  24.935   8.144  1.00  0.00    -0.206 F 
ATOM     91  C   UNL     1      -6.677  25.512   9.608  1.00  0.00     0.006 A 
ENDBRANCH  67  84
ENDBRANCH  41  42
ENDBRANCH  33  36
ENDBRANCH  31  32
ENDBRANCH  30  31
ENDBRANCH   1  30
TORSDOF 14
