REMARK SMILES [NH3+][C@@H](CC(=O)NCCCCNC(=O)c1ccc(-c2c3nc(c(-c4c(F)cccc4F)c4ccc([nH]4)c(-c4c(F)cccc4F)c4nc(c(-c5c(F)cccc5F)c5ccc2[nH]5)C=C4)C=C3)cc1)[NH+]1CCOCC1
REMARK SMILES IDX 8 1 7 2 6 3 4 4 5 5 3 7 2 8 1 9 68 13 69 14 73 15 70 17
REMARK SMILES IDX 72 18 71 19 9 20 10 21 11 22 12 23 13 25 14 26 15 27 67 28
REMARK SMILES IDX 16 29 66 30 17 31 18 32 19 33 60 34 20 35 65 36 59 37 61 38
REMARK SMILES IDX 21 39 64 40 58 41 57 42 22 44 48 45 31 46 47 47 32 48 35 49
REMARK SMILES IDX 46 50 62 51 33 52 34 53 45 55 63 56 36 57 23 58 24 59 29 60
REMARK SMILES IDX 25 61 26 62 28 63 30 64 27 65 49 66 50 67 55 68 51 69 52 70
REMARK SMILES IDX 54 71 56 72 53 73 37 74 38 75 43 76 39 77 40 78 42 79 44 80
REMARK SMILES IDX 41 81
REMARK H PARENT 6 6 1 10 1 11 1 12 68 16 11 24 61 43 35 54
REMARK Flexibility Score: inf
ROOT
ATOM      1  C   UNL     1       1.256  -1.576   1.698  1.00  0.00     0.023 C 
ENDROOT
BRANCH   1   2
ATOM      2  C   UNL     1       2.225  -1.846   0.551  1.00  0.00     0.116 C 
BRANCH   2   3
ATOM      3  N   UNL     1       1.597  -2.547  -0.546  1.00  0.00    -0.356 N 
ATOM      4  C   UNL     1       1.287  -2.108  -1.793  1.00  0.00     0.232 C 
ATOM      5  O   UNL     1       0.945  -2.959  -2.618  1.00  0.00    -0.275 OA
ATOM      6  H   UNL     1       1.358  -3.484  -0.361  1.00  0.00     0.163 HD
BRANCH   4   7
ATOM      7  C   UNL     1       1.434  -0.662  -2.193  1.00  0.00     0.232 C 
BRANCH   7   8
ATOM      8  C   UNL     1       0.408   0.393  -1.741  1.00  0.00     0.389 C 
BRANCH   8   9
ATOM      9  N   UNL     1       0.705   1.065  -0.489  1.00  0.00    -0.308 N 
ATOM     10  H   UNL     1       1.710   1.225  -0.420  1.00  0.00     0.349 HD
ATOM     11  H   UNL     1       0.399   0.482   0.290  1.00  0.00     0.349 HD
ATOM     12  H   UNL     1       0.215   1.958  -0.459  1.00  0.00     0.349 HD
ENDBRANCH   8   9
BRANCH   8  13
ATOM     13  N   UNL     1      -1.024   0.188  -1.793  1.00  0.00    -0.282 N 
ATOM     14  C   UNL     1      -1.710  -0.754  -0.905  1.00  0.00     0.296 C 
ATOM     15  C   UNL     1      -1.605   0.159  -3.142  1.00  0.00     0.296 C 
ATOM     16  H   UNL     1      -1.235   1.069  -1.326  1.00  0.00     0.353 HD
ATOM     17  C   UNL     1      -2.100  -2.115  -1.506  1.00  0.00     0.222 C 
ATOM     18  C   UNL     1      -1.872  -1.253  -3.677  1.00  0.00     0.222 C 
ATOM     19  O   UNL     1      -2.722  -1.981  -2.785  1.00  0.00    -0.370 OA
ENDBRANCH   8  13
ENDBRANCH   7   8
ENDBRANCH   4   7
ENDBRANCH   2   3
ENDBRANCH   1   2
BRANCH   1  20
ATOM     20  C   UNL     1       0.663  -2.821   2.357  1.00  0.00     0.023 C 
BRANCH  20  21
ATOM     21  C   UNL     1       1.689  -3.804   2.897  1.00  0.00     0.116 C 
BRANCH  21  22
ATOM     22  N   UNL     1       2.667  -3.181   3.774  1.00  0.00    -0.352 N 
ATOM     23  C   UNL     1       3.203  -3.647   4.949  1.00  0.00     0.251 C 
ATOM     24  H   UNL     1       2.990  -2.298   3.483  1.00  0.00     0.163 HD
ATOM     25  O   UNL     1       3.936  -2.933   5.616  1.00  0.00    -0.269 OA
BRANCH  23  26
ATOM     26  C   UNL     1       2.861  -5.006   5.412  1.00  0.00     0.039 A 
ATOM     27  C   UNL     1       2.531  -5.194   6.756  1.00  0.00     0.014 A 
ATOM     28  C   UNL     1       2.854  -6.085   4.524  1.00  0.00     0.014 A 
ATOM     29  C   UNL     1       2.147  -6.459   7.200  1.00  0.00     0.010 A 
ATOM     30  C   UNL     1       2.386  -7.322   4.946  1.00  0.00     0.010 A 
ATOM     31  C   UNL     1       2.047  -7.525   6.292  1.00  0.00    -0.014 A 
BRANCH  31  32
ATOM     32  C   UNL     1       1.642  -8.879   6.736  1.00  0.00     0.031 A 
ATOM     33  C   UNL     1       2.616 -10.018   6.623  1.00  0.00     0.074 A 
ATOM     34  C   UNL     1       0.389  -9.093   7.179  1.00  0.00     0.049 A 
ATOM     35  N   UNL     1       2.437 -11.289   6.878  1.00  0.00    -0.248 NA
ATOM     36  C   UNL     1       3.961  -9.691   6.121  1.00  0.00     0.031 C 
ATOM     37  C   UNL     1      -0.661  -8.077   7.283  1.00  0.00     0.029 A 
ATOM     38  N   UNL     1      -0.217 -10.242   7.617  1.00  0.00    -0.354 N 
ATOM     39  C   UNL     1       3.634 -11.911   6.543  1.00  0.00     0.074 A 
ATOM     40  C   UNL     1       4.510 -10.890   6.012  1.00  0.00     0.031 C 
ATOM     41  C   UNL     1      -1.772  -8.644   7.780  1.00  0.00     0.029 A 
ATOM     42  C   UNL     1      -1.523 -10.064   8.001  1.00  0.00     0.049 A 
ATOM     43  H   UNL     1       0.242 -11.112   7.654  1.00  0.00     0.167 HD
ATOM     44  C   UNL     1       3.983 -13.210   6.692  1.00  0.00     0.037 A 
ATOM     45  C   UNL     1      -2.415 -10.952   8.478  1.00  0.00     0.037 A 
ATOM     46  C   UNL     1       3.123 -14.212   7.262  1.00  0.00     0.049 A 
ATOM     47  C   UNL     1      -1.993 -12.383   8.666  1.00  0.00     0.074 A 
ATOM     48  C   UNL     1       3.396 -15.545   7.511  1.00  0.00     0.029 A 
ATOM     49  N   UNL     1       1.820 -13.983   7.680  1.00  0.00    -0.354 N 
ATOM     50  N   UNL     1      -0.839 -12.947   8.400  1.00  0.00    -0.248 NA
ATOM     51  C   UNL     1      -2.993 -13.297   9.233  1.00  0.00     0.031 C 
ATOM     52  C   UNL     1       2.248 -16.131   8.055  1.00  0.00     0.029 A 
ATOM     53  C   UNL     1       1.274 -15.152   8.182  1.00  0.00     0.049 A 
ATOM     54  H   UNL     1       1.354 -13.118   7.628  1.00  0.00     0.167 HD
ATOM     55  C   UNL     1      -0.964 -14.272   8.796  1.00  0.00     0.074 A 
ATOM     56  C   UNL     1      -2.301 -14.423   9.332  1.00  0.00     0.031 C 
ATOM     57  C   UNL     1      -0.055 -15.275   8.723  1.00  0.00     0.037 A 
BRANCH  44  58
ATOM     58  C   UNL     1       5.358 -13.609   6.243  1.00  0.00     0.057 A 
ATOM     59  C   UNL     1       6.508 -13.192   6.928  1.00  0.00     0.134 A 
ATOM     60  C   UNL     1       5.536 -14.425   5.120  1.00  0.00     0.134 A 
ATOM     61  F   UNL     1       6.408 -12.394   8.001  1.00  0.00    -0.206 F 
ATOM     62  C   UNL     1       7.786 -13.547   6.493  1.00  0.00     0.040 A 
ATOM     63  C   UNL     1       6.808 -14.810   4.692  1.00  0.00     0.040 A 
ATOM     64  F   UNL     1       4.479 -14.862   4.419  1.00  0.00    -0.206 F 
ATOM     65  C   UNL     1       7.938 -14.364   5.375  1.00  0.00     0.006 A 
ENDBRANCH  44  58
BRANCH  45  66
ATOM     66  C   UNL     1      -3.780 -10.508   8.854  1.00  0.00     0.057 A 
ATOM     67  C   UNL     1      -4.171 -10.442  10.197  1.00  0.00     0.134 A 
ATOM     68  C   UNL     1      -4.728 -10.149   7.888  1.00  0.00     0.134 A 
ATOM     69  F   UNL     1      -3.312 -10.788  11.166  1.00  0.00    -0.206 F 
ATOM     70  C   UNL     1      -5.461 -10.059  10.565  1.00  0.00     0.040 A 
ATOM     71  C   UNL     1      -6.014  -9.742   8.243  1.00  0.00     0.040 A 
ATOM     72  F   UNL     1      -4.412 -10.181   6.585  1.00  0.00    -0.206 F 
ATOM     73  C   UNL     1      -6.387  -9.704   9.586  1.00  0.00     0.006 A 
ENDBRANCH  45  66
BRANCH  57  74
ATOM     74  C   UNL     1      -0.463 -16.607   9.277  1.00  0.00     0.057 A 
ATOM     75  C   UNL     1      -1.383 -17.432   8.619  1.00  0.00     0.134 A 
ATOM     76  C   UNL     1       0.095 -17.080  10.471  1.00  0.00     0.134 A 
ATOM     77  F   UNL     1      -1.963 -17.029   7.478  1.00  0.00    -0.206 F 
ATOM     78  C   UNL     1      -1.754 -18.671   9.143  1.00  0.00     0.040 A 
ATOM     79  C   UNL     1      -0.248 -18.328  10.992  1.00  0.00     0.040 A 
ATOM     80  F   UNL     1       0.990 -16.341  11.145  1.00  0.00    -0.206 F 
ATOM     81  C   UNL     1      -1.181 -19.124  10.331  1.00  0.00     0.006 A 
ENDBRANCH  57  74
ENDBRANCH  31  32
ENDBRANCH  23  26
ENDBRANCH  21  22
ENDBRANCH  20  21
ENDBRANCH   1  20
TORSDOF 14
