REMARK SMILES N#C/C(=C\c1cn(CC(=O)NCCCCNC(=O)c2ccc(-c3c4nc(c(-c5c(F)cccc5F)c5ccc([nH]5)c(-c5c(F)cccc5F)c5nc(c(-c6c(F)cccc6F)c6ccc3[nH]6)C=C5)C=C4)cc2)c2ccccc12)C(=O)N1CCCC[C@@H]1C#N
REMARK SMILES IDX 12 1 11 2 9 3 10 4 8 6 7 7 5 8 6 9 78 10 73 11 77 12 74 13
REMARK SMILES IDX 76 14 75 15 4 16 3 17 2 18 1 19 79 20 80 21 81 22 82 23
REMARK SMILES IDX 86 24 83 25 85 26 84 27 87 28 88 29 13 30 14 31 15 32 16 33
REMARK SMILES IDX 17 34 18 36 19 37 20 38 72 39 21 40 71 41 22 42 23 43 24 44
REMARK SMILES IDX 65 45 25 46 70 47 64 48 66 49 26 50 69 51 63 52 62 53 27 55
REMARK SMILES IDX 53 56 36 57 52 58 37 59 40 60 51 61 67 62 38 63 39 64 50 66
REMARK SMILES IDX 68 67 41 68 28 69 29 70 34 71 30 72 31 73 33 74 35 75 32 76
REMARK SMILES IDX 54 77 55 78 60 79 56 80 57 81 59 82 61 83 58 84 42 85 43 86
REMARK SMILES IDX 48 87 44 88 45 89 47 90 49 91 46 92
REMARK H PARENT 11 5 16 35 66 54 40 65
REMARK Flexibility Score: inf
ROOT
ATOM      1  C   UNL     1       2.314  -4.609   2.765  1.00  0.00     0.116 C 
ENDROOT
BRANCH   1   2
ATOM      2  N   UNL     1       1.599  -5.655   2.061  1.00  0.00    -0.355 N 
ATOM      3  C   UNL     1       1.908  -6.281   0.887  1.00  0.00     0.239 C 
ATOM      4  O   UNL     1       1.147  -7.164   0.483  1.00  0.00    -0.273 OA
ATOM      5  H   UNL     1       0.768  -5.960   2.492  1.00  0.00     0.163 HD
BRANCH   3   6
ATOM      6  C   UNL     1       3.190  -5.957   0.145  1.00  0.00     0.222 C 
BRANCH   6   7
ATOM      7  N   UNL     1       3.238  -4.596  -0.368  1.00  0.00    -0.337 N 
ATOM      8  C   UNL     1       3.794  -2.451  -0.517  1.00  0.00     0.002 A 
ATOM      9  C   UNL     1       4.173  -3.663   0.013  1.00  0.00     0.095 A 
ATOM     10  C   UNL     1       2.734  -2.704  -1.443  1.00  0.00     0.007 A 
ATOM     11  C   UNL     1       2.361  -4.044  -1.278  1.00  0.00     0.049 A 
ATOM     12  C   UNL     1       2.013  -1.924  -2.376  1.00  0.00     0.011 A 
ATOM     13  C   UNL     1       1.255  -4.598  -1.945  1.00  0.00     0.027 A 
ATOM     14  C   UNL     1       0.898  -2.460  -3.026  1.00  0.00     0.001 A 
ATOM     15  C   UNL     1       0.518  -3.776  -2.801  1.00  0.00     0.002 A 
BRANCH   8  16
ATOM     16  C   UNL     1       4.428  -1.225  -0.129  1.00  0.00     0.035 C 
ATOM     17  C   UNL     1       3.858  -0.012   0.062  1.00  0.00     0.118 C 
BRANCH  17  18
ATOM     18  C   UNL     1       2.338  -0.012   0.062  1.00  0.00     0.105 C 
ATOM     19  N   UNL     1       1.077  -0.012   0.062  1.00  0.00    -0.192 NA
ENDBRANCH  17  18
BRANCH  17  20
ATOM     20  C   UNL     1       4.633   1.182   0.513  1.00  0.00     0.265 C 
ATOM     21  O   UNL     1       4.022   2.080   1.093  1.00  0.00    -0.268 OA
BRANCH  20  22
ATOM     22  N   UNL     1       6.022   1.230   0.368  1.00  0.00    -0.322 N 
ATOM     23  C   UNL     1       6.773   2.027   1.342  1.00  0.00     0.121 C 
ATOM     24  C   UNL     1       6.860   0.619  -0.699  1.00  0.00     0.189 C 
ATOM     25  C   UNL     1       7.803   1.139   2.039  1.00  0.00     0.022 C 
ATOM     26  C   UNL     1       7.952  -0.271  -0.060  1.00  0.00     0.041 C 
ATOM     27  C   UNL     1       8.736   0.457   1.038  1.00  0.00     0.005 C 
BRANCH  24  28
ATOM     28  C   UNL     1       7.501   1.638  -1.580  1.00  0.00     0.087 C 
ATOM     29  N   UNL     1       8.036   2.404  -2.256  1.00  0.00    -0.196 NA
ENDBRANCH  24  28
ENDBRANCH  20  22
ENDBRANCH  17  20
ENDBRANCH   8  16
ENDBRANCH   6   7
ENDBRANCH   3   6
ENDBRANCH   1   2
BRANCH   1  30
ATOM     30  C   UNL     1       1.554  -3.281   2.758  1.00  0.00     0.023 C 
BRANCH  30  31
ATOM     31  C   UNL     1       0.264  -3.276   3.595  1.00  0.00     0.023 C 
BRANCH  31  32
ATOM     32  C   UNL     1       0.440  -3.715   5.049  1.00  0.00     0.116 C 
BRANCH  32  33
ATOM     33  N   UNL     1       1.387  -2.909   5.790  1.00  0.00    -0.352 N 
ATOM     34  C   UNL     1       1.286  -1.876   6.680  1.00  0.00     0.251 C 
ATOM     35  H   UNL     1       2.321  -3.164   5.612  1.00  0.00     0.163 HD
ATOM     36  O   UNL     1       2.323  -1.594   7.288  1.00  0.00    -0.269 OA
BRANCH  34  37
ATOM     37  C   UNL     1       0.083  -1.026   6.891  1.00  0.00     0.039 A 
ATOM     38  C   UNL     1      -1.158  -1.196   6.282  1.00  0.00     0.014 A 
ATOM     39  C   UNL     1       0.278   0.109   7.707  1.00  0.00     0.014 A 
ATOM     40  C   UNL     1      -2.112  -0.184   6.357  1.00  0.00     0.010 A 
ATOM     41  C   UNL     1      -0.680   1.112   7.802  1.00  0.00     0.010 A 
ATOM     42  C   UNL     1      -1.846   1.000   7.062  1.00  0.00    -0.014 A 
BRANCH  42  43
ATOM     43  C   UNL     1      -2.899   2.012   7.153  1.00  0.00     0.031 A 
ATOM     44  C   UNL     1      -4.142   1.454   7.755  1.00  0.00     0.074 A 
ATOM     45  C   UNL     1      -2.771   3.312   6.795  1.00  0.00     0.049 A 
ATOM     46  N   UNL     1      -5.244   1.187   7.137  1.00  0.00    -0.248 NA
ATOM     47  C   UNL     1      -4.089   0.920   9.126  1.00  0.00     0.031 C 
ATOM     48  C   UNL     1      -1.562   4.032   6.389  1.00  0.00     0.029 A 
ATOM     49  N   UNL     1      -3.723   4.301   6.769  1.00  0.00    -0.354 N 
ATOM     50  C   UNL     1      -6.108   0.668   8.096  1.00  0.00     0.074 A 
ATOM     51  C   UNL     1      -5.294   0.357   9.240  1.00  0.00     0.031 C 
ATOM     52  C   UNL     1      -1.801   5.367   6.386  1.00  0.00     0.029 A 
ATOM     53  C   UNL     1      -3.211   5.600   6.639  1.00  0.00     0.049 A 
ATOM     54  H   UNL     1      -4.687   4.113   6.836  1.00  0.00     0.167 HD
ATOM     55  C   UNL     1      -7.454   0.801   7.939  1.00  0.00     0.037 A 
ATOM     56  C   UNL     1      -3.909   6.768   6.753  1.00  0.00     0.037 A 
ATOM     57  C   UNL     1      -7.771   1.101   6.563  1.00  0.00     0.049 A 
ATOM     58  C   UNL     1      -5.341   6.449   6.534  1.00  0.00     0.074 A 
ATOM     59  C   UNL     1      -7.622   0.454   5.353  1.00  0.00     0.029 A 
ATOM     60  N   UNL     1      -7.989   2.421   6.261  1.00  0.00    -0.354 N 
ATOM     61  N   UNL     1      -5.823   6.088   5.380  1.00  0.00    -0.248 NA
ATOM     62  C   UNL     1      -6.108   6.038   7.698  1.00  0.00     0.031 C 
ATOM     63  C   UNL     1      -7.292   1.483   4.421  1.00  0.00     0.029 A 
ATOM     64  C   UNL     1      -7.351   2.707   5.086  1.00  0.00     0.049 A 
ATOM     65  H   UNL     1      -8.515   3.056   6.799  1.00  0.00     0.167 HD
ATOM     66  C   UNL     1      -6.649   5.017   5.678  1.00  0.00     0.074 A 
ATOM     67  C   UNL     1      -6.822   5.062   7.132  1.00  0.00     0.031 C 
ATOM     68  C   UNL     1      -6.862   4.024   4.765  1.00  0.00     0.037 A 
BRANCH  55  69
ATOM     69  C   UNL     1      -8.402   1.174   9.062  1.00  0.00     0.057 A 
ATOM     70  C   UNL     1      -8.002   1.704  10.304  1.00  0.00     0.134 A 
ATOM     71  C   UNL     1      -9.763   1.359   8.747  1.00  0.00     0.134 A 
ATOM     72  F   UNL     1      -6.749   1.621  10.761  1.00  0.00    -0.206 F 
ATOM     73  C   UNL     1      -8.859   2.450  11.118  1.00  0.00     0.040 A 
ATOM     74  C   UNL     1     -10.616   2.141   9.534  1.00  0.00     0.040 A 
ATOM     75  F   UNL     1     -10.279   0.879   7.605  1.00  0.00    -0.206 F 
ATOM     76  C   UNL     1     -10.157   2.709  10.714  1.00  0.00     0.006 A 
ENDBRANCH  55  69
BRANCH  56  77
ATOM     77  C   UNL     1      -3.513   8.075   7.342  1.00  0.00     0.057 A 
ATOM     78  C   UNL     1      -2.545   8.146   8.357  1.00  0.00     0.134 A 
ATOM     79  C   UNL     1      -4.291   9.235   7.164  1.00  0.00     0.134 A 
ATOM     80  F   UNL     1      -1.798   7.078   8.669  1.00  0.00    -0.206 F 
ATOM     81  C   UNL     1      -2.376   9.282   9.160  1.00  0.00     0.040 A 
ATOM     82  C   UNL     1      -4.132  10.381   7.962  1.00  0.00     0.040 A 
ATOM     83  F   UNL     1      -5.281   9.261   6.259  1.00  0.00    -0.206 F 
ATOM     84  C   UNL     1      -3.179  10.401   8.974  1.00  0.00     0.006 A 
ENDBRANCH  56  77
BRANCH  68  85
ATOM     85  C   UNL     1      -6.394   4.257   3.356  1.00  0.00     0.057 A 
ATOM     86  C   UNL     1      -7.338   4.178   2.329  1.00  0.00     0.134 A 
ATOM     87  C   UNL     1      -5.054   4.437   2.977  1.00  0.00     0.134 A 
ATOM     88  F   UNL     1      -8.630   3.951   2.616  1.00  0.00    -0.206 F 
ATOM     89  C   UNL     1      -6.979   4.288   0.985  1.00  0.00     0.040 A 
ATOM     90  C   UNL     1      -4.684   4.582   1.635  1.00  0.00     0.040 A 
ATOM     91  F   UNL     1      -4.068   4.428   3.884  1.00  0.00    -0.206 F 
ATOM     92  C   UNL     1      -5.650   4.505   0.635  1.00  0.00     0.006 A 
ENDBRANCH  68  85
ENDBRANCH  42  43
ENDBRANCH  34  37
ENDBRANCH  32  33
ENDBRANCH  31  32
ENDBRANCH  30  31
ENDBRANCH   1  30
TORSDOF 17
