REMARK SMILES COc1ccc2c(c1)C=C(C(=O)NCCCCNC(=O)c1ccc(-c3c4nc(c(-c5c(F)cccc5F)c5ccc([nH]5)c(-c5c(F)cccc5F)c5nc(c(-c6c(F)cccc6F)c6ccc3[nH]6)C=C5)C=C4)cc1)[C@H](C(F)(F)F)O2
REMARK SMILES IDX 16 1 15 2 14 3 13 4 11 5 12 6 10 8 3 9 4 10 8 11 5 12 7 13
REMARK SMILES IDX 6 14 9 15 80 16 75 17 2 18 1 19 76 20 77 21 78 22 79 23
REMARK SMILES IDX 17 24 18 25 19 26 20 28 21 29 22 30 74 31 23 32 73 33 24 34
REMARK SMILES IDX 25 35 26 36 67 37 27 38 72 39 66 40 68 41 28 42 71 43 65 44
REMARK SMILES IDX 64 45 29 47 55 48 38 49 54 50 39 51 42 52 53 53 69 54 40 55
REMARK SMILES IDX 41 56 52 58 70 59 43 60 30 61 31 62 36 63 32 64 33 65 35 66
REMARK SMILES IDX 37 67 34 68 56 69 57 70 62 71 58 72 59 73 61 74 63 75 60 76
REMARK SMILES IDX 44 77 45 78 50 79 46 80 47 81 49 82 51 83 48 84
REMARK H PARENT 13 7 18 27 68 46 42 57
REMARK Flexibility Score: inf
ROOT
ATOM      1  C   UNL     1      -5.348  -2.541   6.402  1.00  0.00     0.023 C 
ENDROOT
BRANCH   1   2
ATOM      2  C   UNL     1      -3.986  -2.167   5.814  1.00  0.00     0.023 C 
BRANCH   2   3
ATOM      3  C   UNL     1      -2.883  -1.958   6.859  1.00  0.00     0.116 C 
BRANCH   3   4
ATOM      4  N   UNL     1      -2.378  -3.241   7.318  1.00  0.00    -0.352 N 
ATOM      5  C   UNL     1      -1.383  -4.050   6.866  1.00  0.00     0.251 C 
ATOM      6  O   UNL     1      -1.282  -5.170   7.361  1.00  0.00    -0.270 OA
ATOM      7  H   UNL     1      -2.849  -3.594   8.108  1.00  0.00     0.163 HD
BRANCH   5   8
ATOM      8  C   UNL     1      -0.376  -3.612   5.860  1.00  0.00     0.067 C 
ATOM      9  C   UNL     1       1.092  -0.925   2.127  1.00  0.00     0.119 A 
ATOM     10  C   UNL     1       2.404  -1.355   2.321  1.00  0.00     0.050 A 
ATOM     11  C   UNL     1       0.077  -1.416   2.946  1.00  0.00     0.058 A 
ATOM     12  C   UNL     1       2.691  -2.281   3.330  1.00  0.00     0.051 A 
ATOM     13  C   UNL     1       0.365  -2.347   3.949  1.00  0.00     0.021 A 
ATOM     14  C   UNL     1       1.672  -2.774   4.146  1.00  0.00     0.128 A 
ATOM     15  C   UNL     1      -0.683  -2.797   4.844  1.00  0.00     0.025 C 
ATOM     16  O   UNL     1       2.040  -3.616   5.150  1.00  0.00    -0.475 OA
ATOM     17  C   UNL     1       1.004  -4.261   5.954  1.00  0.00     0.314 C 
BRANCH   9  18
ATOM     18  O   UNL     1       0.711   0.034   1.231  1.00  0.00    -0.497 OA
ATOM     19  C   UNL     1       1.329  -0.071  -0.046  1.00  0.00     0.278 C 
ENDBRANCH   9  18
BRANCH  17  20
ATOM     20  C   UNL     1       1.574  -4.438   7.380  1.00  0.00     0.429 C 
ATOM     21  F   UNL     1       1.136  -5.566   7.984  1.00  0.00    -0.167 F 
ATOM     22  F   UNL     1       2.930  -4.545   7.354  1.00  0.00    -0.167 F 
ATOM     23  F   UNL     1       1.282  -3.390   8.185  1.00  0.00    -0.167 F 
ENDBRANCH  17  20
ENDBRANCH   5   8
ENDBRANCH   3   4
ENDBRANCH   2   3
ENDBRANCH   1   2
BRANCH   1  24
ATOM     24  C   UNL     1      -5.997  -1.449   7.243  1.00  0.00     0.116 C 
BRANCH  24  25
ATOM     25  N   UNL     1      -6.211  -0.212   6.509  1.00  0.00    -0.352 N 
ATOM     26  C   UNL     1      -7.203   0.726   6.679  1.00  0.00     0.251 C 
ATOM     27  H   UNL     1      -5.560  -0.021   5.797  1.00  0.00     0.163 HD
ATOM     28  O   UNL     1      -7.306   1.665   5.908  1.00  0.00    -0.269 OA
BRANCH  26  29
ATOM     29  C   UNL     1      -8.172   0.556   7.782  1.00  0.00     0.039 A 
ATOM     30  C   UNL     1      -9.534   0.677   7.499  1.00  0.00     0.014 A 
ATOM     31  C   UNL     1      -7.741   0.255   9.077  1.00  0.00     0.014 A 
ATOM     32  C   UNL     1     -10.470   0.436   8.505  1.00  0.00     0.010 A 
ATOM     33  C   UNL     1      -8.675  -0.056  10.059  1.00  0.00     0.010 A 
ATOM     34  C   UNL     1     -10.047   0.037   9.783  1.00  0.00    -0.014 A 
BRANCH  34  35
ATOM     35  C   UNL     1     -11.028  -0.290  10.846  1.00  0.00     0.031 A 
ATOM     36  C   UNL     1     -11.101   0.548  12.089  1.00  0.00     0.074 A 
ATOM     37  C   UNL     1     -11.795  -1.390  10.725  1.00  0.00     0.049 A 
ATOM     38  N   UNL     1     -11.850   0.390  13.150  1.00  0.00    -0.248 NA
ATOM     39  C   UNL     1     -10.185   1.697  12.165  1.00  0.00     0.031 C 
ATOM     40  C   UNL     1     -11.761  -2.325   9.599  1.00  0.00     0.029 A 
ATOM     41  N   UNL     1     -12.739  -1.916  11.568  1.00  0.00    -0.354 N 
ATOM     42  C   UNL     1     -11.481   1.403  14.025  1.00  0.00     0.074 A 
ATOM     43  C   UNL     1     -10.406   2.137  13.394  1.00  0.00     0.031 C 
ATOM     44  C   UNL     1     -12.652  -3.305   9.817  1.00  0.00     0.029 A 
ATOM     45  C   UNL     1     -13.300  -3.081  11.106  1.00  0.00     0.049 A 
ATOM     46  H   UNL     1     -12.991  -1.499  12.424  1.00  0.00     0.167 HD
ATOM     47  C   UNL     1     -12.006   1.707  15.236  1.00  0.00     0.037 A 
ATOM     48  C   UNL     1     -14.229  -3.881  11.661  1.00  0.00     0.037 A 
ATOM     49  C   UNL     1     -13.095   0.991  15.846  1.00  0.00     0.049 A 
ATOM     50  C   UNL     1     -14.828  -3.503  12.985  1.00  0.00     0.074 A 
ATOM     51  C   UNL     1     -13.760   1.273  17.026  1.00  0.00     0.029 A 
ATOM     52  N   UNL     1     -13.674  -0.156  15.324  1.00  0.00    -0.354 N 
ATOM     53  N   UNL     1     -14.540  -2.486  13.760  1.00  0.00    -0.248 NA
ATOM     54  C   UNL     1     -15.891  -4.374  13.504  1.00  0.00     0.031 C 
ATOM     55  C   UNL     1     -14.714   0.271  17.240  1.00  0.00     0.029 A 
ATOM     56  C   UNL     1     -14.673  -0.609  16.170  1.00  0.00     0.049 A 
ATOM     57  H   UNL     1     -13.414  -0.586  14.478  1.00  0.00     0.167 HD
ATOM     58  C   UNL     1     -15.395  -2.583  14.850  1.00  0.00     0.074 A 
ATOM     59  C   UNL     1     -16.224  -3.750  14.626  1.00  0.00     0.031 C 
ATOM     60  C   UNL     1     -15.485  -1.778  15.937  1.00  0.00     0.037 A 
BRANCH  47  61
ATOM     61  C   UNL     1     -11.400   2.865  15.974  1.00  0.00     0.057 A 
ATOM     62  C   UNL     1     -11.552   4.187  15.534  1.00  0.00     0.134 A 
ATOM     63  C   UNL     1     -10.651   2.657  17.139  1.00  0.00     0.134 A 
ATOM     64  F   UNL     1     -12.246   4.456  14.417  1.00  0.00    -0.206 F 
ATOM     65  C   UNL     1     -10.950   5.255  16.202  1.00  0.00     0.040 A 
ATOM     66  C   UNL     1     -10.069   3.719  17.832  1.00  0.00     0.040 A 
ATOM     67  F   UNL     1     -10.470   1.418  17.621  1.00  0.00    -0.206 F 
ATOM     68  C   UNL     1     -10.208   5.022  17.358  1.00  0.00     0.006 A 
ENDBRANCH  47  61
BRANCH  48  69
ATOM     69  C   UNL     1     -14.665  -5.102  10.940  1.00  0.00     0.057 A 
ATOM     70  C   UNL     1     -15.915  -5.166  10.316  1.00  0.00     0.134 A 
ATOM     71  C   UNL     1     -13.828  -6.219  10.829  1.00  0.00     0.134 A 
ATOM     72  F   UNL     1     -16.765  -4.132  10.401  1.00  0.00    -0.206 F 
ATOM     73  C   UNL     1     -16.323  -6.301   9.614  1.00  0.00     0.040 A 
ATOM     74  C   UNL     1     -14.214  -7.352  10.112  1.00  0.00     0.040 A 
ATOM     75  F   UNL     1     -12.612  -6.213  11.396  1.00  0.00    -0.206 F 
ATOM     76  C   UNL     1     -15.468  -7.396   9.505  1.00  0.00     0.006 A 
ENDBRANCH  48  69
BRANCH  60  77
ATOM     77  C   UNL     1     -16.527  -2.123  16.959  1.00  0.00     0.057 A 
ATOM     78  C   UNL     1     -16.379  -3.216  17.822  1.00  0.00     0.134 A 
ATOM     79  C   UNL     1     -17.671  -1.329  17.108  1.00  0.00     0.134 A 
ATOM     80  F   UNL     1     -15.312  -4.023  17.721  1.00  0.00    -0.206 F 
ATOM     81  C   UNL     1     -17.344  -3.520  18.784  1.00  0.00     0.040 A 
ATOM     82  C   UNL     1     -18.630  -1.608  18.082  1.00  0.00     0.040 A 
ATOM     83  F   UNL     1     -17.868  -0.263  16.319  1.00  0.00    -0.206 F 
ATOM     84  C   UNL     1     -18.470  -2.710  18.920  1.00  0.00     0.006 A 
ENDBRANCH  60  77
ENDBRANCH  34  35
ENDBRANCH  26  29
ENDBRANCH  24  25
ENDBRANCH   1  24
TORSDOF 13
