REMARK SMILES COC(=O)c1c(NC(=O)CCC(=O)NCCCCNC(=O)c2ccc(-c3c4nc(c(-c5c(F)cccc5F)c5ccc([nH]5)c(-c5c(F)cccc5F)c5nc(c(-c6c(F)cccc6F)c6ccc3[nH]6)C=C5)C=C4)cc2)sc2c1CCCCCC2
REMARK SMILES IDX 12 1 13 2 14 3 11 5 10 6 8 7 7 8 9 10 6 11 5 12 78 13 76 14
REMARK SMILES IDX 77 15 3 16 4 17 2 18 1 19 79 20 80 21 81 22 82 23 84 25
REMARK SMILES IDX 83 26 15 28 16 29 17 30 18 31 19 32 20 33 21 35 22 36 23 37
REMARK SMILES IDX 75 38 24 39 74 40 25 41 26 42 27 43 68 44 28 45 73 46 67 47
REMARK SMILES IDX 69 48 29 49 72 50 66 51 65 52 30 54 56 55 39 56 55 57 40 58
REMARK SMILES IDX 43 59 54 60 70 61 41 62 42 63 53 65 71 66 44 67 31 68 32 69
REMARK SMILES IDX 37 70 33 71 34 72 36 73 38 74 35 75 57 76 58 77 63 78 59 79
REMARK SMILES IDX 60 80 62 81 64 82 61 83 45 84 46 85 51 86 47 87 48 88 50 89
REMARK SMILES IDX 52 90 49 91
REMARK H PARENT 14 4 7 9 19 34 69 53 43 64
REMARK Flexibility Score: 90.00
ROOT
ATOM      1  C   UNL     1      -0.339   3.378  -0.747  1.00  0.00     0.220 C 
ATOM      2  O   UNL     1       0.811   3.819  -0.742  1.00  0.00    -0.275 OA
ATOM      3  N   UNL     1      -1.366   4.240  -0.503  1.00  0.00    -0.356 N 
ATOM      4  H   UNL     1      -1.111   5.104  -0.107  1.00  0.00     0.163 HD
ENDROOT
BRANCH   1   5
ATOM      5  C   UNL     1      -0.613   1.925  -1.054  1.00  0.00     0.110 C 
BRANCH   5   6
ATOM      6  C   UNL     1      -0.995   0.988   0.086  1.00  0.00     0.110 C 
BRANCH   6   7
ATOM      7  C   UNL     1      -1.865   1.445   1.222  1.00  0.00     0.225 C 
ATOM      8  N   UNL     1      -1.481   2.257   2.239  1.00  0.00    -0.317 N 
ATOM      9  H   UNL     1      -2.119   2.280   2.989  1.00  0.00     0.170 HD
ATOM     10  O   UNL     1      -3.044   1.061   1.238  1.00  0.00    -0.275 OA
BRANCH   8  11
ATOM     11  C   UNL     1      -0.379   3.051   2.427  1.00  0.00     0.110 A 
ATOM     12  C   UNL     1       0.989   3.003   2.266  1.00  0.00     0.098 A 
ATOM     13  C   UNL     1       1.582   4.341   2.430  1.00  0.00    -0.017 A 
ATOM     14  S   UNL     1      -0.857   4.510   3.161  1.00  0.00    -0.122 S 
ATOM     15  C   UNL     1       0.613   5.289   2.751  1.00  0.00     0.011 A 
BRANCH  12  16
ATOM     16  C   UNL     1       1.732   1.763   2.116  1.00  0.00     0.341 C 
ATOM     17  O   UNL     1       2.094   1.099   3.082  1.00  0.00    -0.246 OA
BRANCH  16  18
ATOM     18  O   UNL     1       1.934   1.401   0.821  1.00  0.00    -0.465 OA
ATOM     19  C   UNL     1       2.337   0.038   0.642  1.00  0.00     0.282 C 
ENDBRANCH  16  18
ENDBRANCH  12  16
BRANCH  13  20
ATOM     20  C   UNL     1       3.059   4.613   2.308  1.00  0.00     0.037 C 
BRANCH  20  21
ATOM     21  C   UNL     1       3.494   5.391   1.070  1.00  0.00     0.005 C 
BRANCH  21  22
ATOM     22  C   UNL     1       2.867   6.764   0.837  1.00  0.00     0.000 C 
BRANCH  22  23
ATOM     23  C   UNL     1       2.894   7.730   2.021  1.00  0.00     0.000 CG0
ATOM     24  G   UNL     1       1.967   7.435   3.206  1.00  0.00     0.000 G0
ENDBRANCH  22  23
ENDBRANCH  21  22
ENDBRANCH  20  21
ENDBRANCH  13  20
BRANCH  15  25
ATOM     25  C   UNL     1       0.628   6.797   2.859  1.00  0.00     0.047 C 
BRANCH  25  26
ATOM     26  C   UNL     1       1.967   7.435   3.206  1.00  0.00     0.006 CG0
ATOM     27  G   UNL     1       2.894   7.730   2.021  1.00  0.00     0.000 G0
ENDBRANCH  25  26
ENDBRANCH  15  25
ENDBRANCH   8  11
ENDBRANCH   6   7
ENDBRANCH   5   6
ENDBRANCH   1   5
BRANCH   3  28
ATOM     28  C   UNL     1      -2.784   4.058  -0.746  1.00  0.00     0.116 C 
BRANCH  28  29
ATOM     29  C   UNL     1      -3.676   4.259   0.482  1.00  0.00     0.023 C 
BRANCH  29  30
ATOM     30  C   UNL     1      -3.651   5.625   1.170  1.00  0.00     0.023 C 
BRANCH  30  31
ATOM     31  C   UNL     1      -4.224   6.745   0.335  1.00  0.00     0.116 C 
BRANCH  31  32
ATOM     32  N   UNL     1      -5.614   6.512  -0.076  1.00  0.00    -0.352 N 
ATOM     33  C   UNL     1      -6.353   7.234  -0.998  1.00  0.00     0.251 C 
ATOM     34  H   UNL     1      -6.073   5.755   0.354  1.00  0.00     0.163 HD
ATOM     35  O   UNL     1      -7.578   7.184  -1.041  1.00  0.00    -0.269 OA
BRANCH  33  36
ATOM     36  C   UNL     1      -5.599   8.045  -1.959  1.00  0.00     0.039 A 
ATOM     37  C   UNL     1      -5.852   9.397  -2.194  1.00  0.00     0.014 A 
ATOM     38  C   UNL     1      -4.478   7.417  -2.477  1.00  0.00     0.014 A 
ATOM     39  C   UNL     1      -4.893  10.127  -2.893  1.00  0.00     0.010 A 
ATOM     40  C   UNL     1      -3.428   8.197  -2.845  1.00  0.00     0.010 A 
ATOM     41  C   UNL     1      -3.665   9.514  -3.191  1.00  0.00    -0.014 A 
BRANCH  41  42
ATOM     42  C   UNL     1      -2.552  10.210  -3.811  1.00  0.00     0.031 A 
ATOM     43  C   UNL     1      -2.173  11.478  -3.147  1.00  0.00     0.074 A 
ATOM     44  C   UNL     1      -1.794   9.634  -4.773  1.00  0.00     0.049 A 
ATOM     45  N   UNL     1      -2.414  12.675  -3.561  1.00  0.00    -0.248 NA
ATOM     46  C   UNL     1      -1.620  11.420  -1.784  1.00  0.00     0.031 C 
ATOM     47  C   UNL     1      -1.838   8.262  -5.308  1.00  0.00     0.029 A 
ATOM     48  N   UNL     1      -0.739  10.166  -5.441  1.00  0.00    -0.354 N 
ATOM     49  C   UNL     1      -1.833  13.526  -2.628  1.00  0.00     0.074 A 
ATOM     50  C   UNL     1      -1.558  12.717  -1.470  1.00  0.00     0.031 C 
ATOM     51  C   UNL     1      -0.725   8.011  -6.031  1.00  0.00     0.029 A 
ATOM     52  C   UNL     1       0.000   9.253  -6.186  1.00  0.00     0.049 A 
ATOM     53  H   UNL     1      -0.514  11.124  -5.401  1.00  0.00     0.167 HD
ATOM     54  C   UNL     1      -1.395  14.762  -2.997  1.00  0.00     0.037 A 
ATOM     55  C   UNL     1       1.129   9.519  -6.886  1.00  0.00     0.037 A 
ATOM     56  C   UNL     1      -1.917  15.121  -4.296  1.00  0.00     0.049 A 
ATOM     57  C   UNL     1       1.156  10.987  -7.114  1.00  0.00     0.074 A 
ATOM     58  C   UNL     1      -3.185  15.293  -4.818  1.00  0.00     0.029 A 
ATOM     59  N   UNL     1      -1.090  14.941  -5.380  1.00  0.00    -0.354 N 
ATOM     60  N   UNL     1       0.292  11.612  -7.868  1.00  0.00    -0.248 NA
ATOM     61  C   UNL     1       1.811  11.805  -6.105  1.00  0.00     0.031 C 
ATOM     62  C   UNL     1      -3.126  14.712  -6.121  1.00  0.00     0.029 A 
ATOM     63  C   UNL     1      -1.813  14.302  -6.356  1.00  0.00     0.049 A 
ATOM     64  H   UNL     1      -0.148  15.220  -5.444  1.00  0.00     0.167 HD
ATOM     65  C   UNL     1      -0.022  12.769  -7.168  1.00  0.00     0.074 A 
ATOM     66  C   UNL     1       0.998  12.866  -6.122  1.00  0.00     0.031 C 
ATOM     67  C   UNL     1      -1.240  13.372  -7.306  1.00  0.00     0.037 A 
BRANCH  54  68
ATOM     68  C   UNL     1      -0.210  15.474  -2.392  1.00  0.00     0.057 A 
ATOM     69  C   UNL     1       0.062  16.797  -2.787  1.00  0.00     0.134 A 
ATOM     70  C   UNL     1       0.827  14.842  -1.677  1.00  0.00     0.134 A 
ATOM     71  F   UNL     1      -0.843  17.511  -3.475  1.00  0.00    -0.206 F 
ATOM     72  C   UNL     1       1.301  17.410  -2.566  1.00  0.00     0.040 A 
ATOM     73  C   UNL     1       2.050  15.462  -1.406  1.00  0.00     0.040 A 
ATOM     74  F   UNL     1       0.761  13.564  -1.287  1.00  0.00    -0.206 F 
ATOM     75  C   UNL     1       2.305  16.737  -1.882  1.00  0.00     0.006 A 
ENDBRANCH  54  68
BRANCH  55  76
ATOM     76  C   UNL     1       2.317   8.657  -7.070  1.00  0.00     0.057 A 
ATOM     77  C   UNL     1       3.263   8.925  -8.067  1.00  0.00     0.134 A 
ATOM     78  C   UNL     1       2.698   7.724  -6.089  1.00  0.00     0.134 A 
ATOM     79  F   UNL     1       3.004   9.829  -9.023  1.00  0.00    -0.206 F 
ATOM     80  C   UNL     1       4.529   8.322  -8.073  1.00  0.00     0.040 A 
ATOM     81  C   UNL     1       3.957   7.114  -6.084  1.00  0.00     0.040 A 
ATOM     82  F   UNL     1       1.894   7.445  -5.052  1.00  0.00    -0.206 F 
ATOM     83  C   UNL     1       4.884   7.424  -7.071  1.00  0.00     0.006 A 
ENDBRANCH  55  76
BRANCH  67  84
ATOM     84  C   UNL     1      -2.152  12.878  -8.402  1.00  0.00     0.057 A 
ATOM     85  C   UNL     1      -2.710  11.590  -8.451  1.00  0.00     0.134 A 
ATOM     86  C   UNL     1      -2.605  13.790  -9.360  1.00  0.00     0.134 A 
ATOM     87  F   UNL     1      -2.416  10.671  -7.526  1.00  0.00    -0.206 F 
ATOM     88  C   UNL     1      -3.642  11.219  -9.427  1.00  0.00     0.040 A 
ATOM     89  C   UNL     1      -3.559  13.443 -10.321  1.00  0.00     0.040 A 
ATOM     90  F   UNL     1      -2.163  15.057  -9.346  1.00  0.00    -0.206 F 
ATOM     91  C   UNL     1      -4.074  12.151 -10.364  1.00  0.00     0.006 A 
ENDBRANCH  67  84
ENDBRANCH  41  42
ENDBRANCH  33  36
ENDBRANCH  31  32
ENDBRANCH  30  31
ENDBRANCH  29  30
ENDBRANCH  28  29
ENDBRANCH   3  28
TORSDOF 16
