REMARK SMILES Cn1cc(-c2cc(C(F)(F)F)c3c(C4CC4)nn(CC(=O)NCCCCNC(=O)c4ccc(-c5c6nc(c(-c7c(F)cccc7F)c7ccc([nH]7)c(-c7c(F)cccc7F)c7nc(c(-c8c(F)cccc8F)c8ccc5[nH]8)C=C7)C=C6)cc4)c3n2)cn1
REMARK SMILES IDX 24 1 23 2 22 3 20 4 21 5 19 7 18 8 5 9 6 10 85 11 7 12 84 13
REMARK SMILES IDX 12 14 13 15 17 16 4 17 1 18 2 19 3 20 87 21 86 22 8 23 9 24
REMARK SMILES IDX 10 25 11 26 14 27 15 28 16 29 25 30 26 31 27 32 28 33 29 35
REMARK SMILES IDX 30 36 31 37 83 38 32 39 82 40 33 41 34 42 35 43 76 44 36 45
REMARK SMILES IDX 81 46 75 47 77 48 37 49 80 50 74 51 73 52 38 54 64 55 47 56
REMARK SMILES IDX 63 57 48 58 51 59 62 60 78 61 49 62 50 63 61 65 79 66 52 67
REMARK SMILES IDX 39 68 40 69 45 70 41 71 42 72 44 73 46 74 43 75 65 76 66 77
REMARK SMILES IDX 71 78 67 79 68 80 70 81 72 82 69 83 53 84 54 85 59 86 55 87
REMARK SMILES IDX 56 88 58 89 60 90 57 91
REMARK H PARENT 22 6 27 34 77 53 51 64
REMARK Flexibility Score: inf
ROOT
ATOM      1  C   UNL     1      -2.725  -3.648  -3.100  1.00  0.00     0.023 C 
ENDROOT
BRANCH   1   2
ATOM      2  C   UNL     1      -2.655  -2.199  -3.576  1.00  0.00     0.116 C 
BRANCH   2   3
ATOM      3  N   UNL     1      -3.559  -1.329  -2.853  1.00  0.00    -0.354 N 
ATOM      4  C   UNL     1      -3.255  -0.548  -1.771  1.00  0.00     0.241 C 
ATOM      5  O   UNL     1      -4.140   0.137  -1.258  1.00  0.00    -0.273 OA
ATOM      6  H   UNL     1      -4.489  -1.295  -3.174  1.00  0.00     0.163 HD
BRANCH   4   7
ATOM      7  C   UNL     1      -1.828  -0.469  -1.315  1.00  0.00     0.246 C 
BRANCH   7   8
ATOM      8  N   UNL     1      -1.302  -1.727  -0.821  1.00  0.00    -0.237 N 
ATOM      9  C   UNL     1       1.996  -1.300  -0.316  1.00  0.00     0.077 A 
ATOM     10  C   UNL     1       2.419  -2.565   0.085  1.00  0.00     0.043 A 
ATOM     11  N   UNL     1       1.005  -1.212  -1.234  1.00  0.00    -0.228 NA
ATOM     12  C   UNL     1       1.532  -3.659  -0.078  1.00  0.00     0.071 A 
ATOM     13  C   UNL     1       0.018  -2.050  -0.871  1.00  0.00     0.159 A 
ATOM     14  C   UNL     1       0.193  -3.238  -0.180  1.00  0.00     0.055 A 
ATOM     15  C   UNL     1      -1.077  -3.437   0.428  1.00  0.00     0.076 A 
ATOM     16  N   UNL     1      -1.995  -2.548   0.001  1.00  0.00    -0.175 NA
BRANCH   9  17
ATOM     17  C   UNL     1       1.742  -0.229   0.685  1.00  0.00     0.038 A 
ATOM     18  C   UNL     1      -1.343   0.854   2.106  1.00  0.00     0.173 C 
ATOM     19  N   UNL     1       0.056   0.754   1.736  1.00  0.00    -0.275 N 
ATOM     20  C   UNL     1       0.781  -0.411   1.680  1.00  0.00     0.118 A 
ATOM     21  N   UNL     1       0.656   1.766   1.083  1.00  0.00    -0.181 NA
ATOM     22  C   UNL     1       1.631   1.159   0.395  1.00  0.00     0.145 A 
ENDBRANCH   9  17
BRANCH  12  23
ATOM     23  C   UNL     1       2.018  -5.040  -0.420  1.00  0.00     0.417 C 
ATOM     24  F   UNL     1       1.610  -6.029   0.410  1.00  0.00    -0.166 F 
ATOM     25  F   UNL     1       1.600  -5.418  -1.663  1.00  0.00    -0.166 F 
ATOM     26  F   UNL     1       3.378  -5.130  -0.454  1.00  0.00    -0.166 F 
ENDBRANCH  12  23
BRANCH  15  27
ATOM     27  C   UNL     1      -1.441  -4.280   1.649  1.00  0.00     0.041 C 
ATOM     28  C   UNL     1      -0.548  -5.298   2.302  1.00  0.00     0.011 C 
ATOM     29  C   UNL     1      -0.730  -3.976   2.960  1.00  0.00     0.011 C 
ENDBRANCH  15  27
ENDBRANCH   7   8
ENDBRANCH   4   7
ENDBRANCH   2   3
ENDBRANCH   1   2
BRANCH   1  30
ATOM     30  C   UNL     1      -3.999  -4.408  -3.469  1.00  0.00     0.023 C 
BRANCH  30  31
ATOM     31  C   UNL     1      -4.260  -4.470  -4.962  1.00  0.00     0.116 C 
BRANCH  31  32
ATOM     32  N   UNL     1      -3.105  -4.983  -5.694  1.00  0.00    -0.352 N 
ATOM     33  C   UNL     1      -2.881  -4.974  -7.052  1.00  0.00     0.251 C 
ATOM     34  H   UNL     1      -2.396  -5.388  -5.145  1.00  0.00     0.163 HD
ATOM     35  O   UNL     1      -2.053  -5.709  -7.566  1.00  0.00    -0.269 OA
BRANCH  33  36
ATOM     36  C   UNL     1      -3.645  -4.028  -7.874  1.00  0.00     0.039 A 
ATOM     37  C   UNL     1      -4.224  -4.423  -9.079  1.00  0.00     0.014 A 
ATOM     38  C   UNL     1      -3.764  -2.719  -7.410  1.00  0.00     0.014 A 
ATOM     39  C   UNL     1      -4.961  -3.489  -9.793  1.00  0.00     0.010 A 
ATOM     40  C   UNL     1      -4.604  -1.840  -8.032  1.00  0.00     0.010 A 
ATOM     41  C   UNL     1      -5.138  -2.204  -9.257  1.00  0.00    -0.014 A 
BRANCH  41  42
ATOM     42  C   UNL     1      -5.941  -1.216  -9.944  1.00  0.00     0.031 A 
ATOM     43  C   UNL     1      -7.374  -1.570 -10.057  1.00  0.00     0.074 A 
ATOM     44  C   UNL     1      -5.454  -0.001 -10.261  1.00  0.00     0.049 A 
ATOM     45  N   UNL     1      -7.998  -1.974 -11.111  1.00  0.00    -0.248 NA
ATOM     46  C   UNL     1      -8.171  -1.655  -8.823  1.00  0.00     0.031 C 
ATOM     47  C   UNL     1      -4.161   0.597  -9.907  1.00  0.00     0.029 A 
ATOM     48  N   UNL     1      -6.075   1.002 -10.932  1.00  0.00    -0.354 N 
ATOM     49  C   UNL     1      -9.324  -2.141 -10.727  1.00  0.00     0.074 A 
ATOM     50  C   UNL     1      -9.324  -2.143  -9.289  1.00  0.00     0.031 C 
ATOM     51  C   UNL     1      -4.180   1.919 -10.191  1.00  0.00     0.029 A 
ATOM     52  C   UNL     1      -5.413   2.221 -10.894  1.00  0.00     0.049 A 
ATOM     53  H   UNL     1      -6.927   0.874 -11.408  1.00  0.00     0.167 HD
ATOM     54  C   UNL     1     -10.332  -1.990 -11.632  1.00  0.00     0.037 A 
ATOM     55  C   UNL     1      -5.872   3.394 -11.394  1.00  0.00     0.037 A 
ATOM     56  C   UNL     1      -9.811  -2.005 -12.980  1.00  0.00     0.049 A 
ATOM     57  C   UNL     1      -6.940   3.069 -12.374  1.00  0.00     0.074 A 
ATOM     58  C   UNL     1      -9.116  -2.920 -13.747  1.00  0.00     0.029 A 
ATOM     59  N   UNL     1      -9.637  -0.791 -13.601  1.00  0.00    -0.354 N 
ATOM     60  N   UNL     1      -6.711   2.464 -13.509  1.00  0.00    -0.248 NA
ATOM     61  C   UNL     1      -8.302   2.954 -11.874  1.00  0.00     0.031 C 
ATOM     62  C   UNL     1      -8.176  -2.141 -14.488  1.00  0.00     0.029 A 
ATOM     63  C   UNL     1      -8.399  -0.795 -14.191  1.00  0.00     0.049 A 
ATOM     64  H   UNL     1     -10.285  -0.050 -13.620  1.00  0.00     0.167 HD
ATOM     65  C   UNL     1      -7.747   1.549 -13.643  1.00  0.00     0.074 A 
ATOM     66  C   UNL     1      -8.739   1.953 -12.647  1.00  0.00     0.031 C 
ATOM     67  C   UNL     1      -7.575   0.384 -14.336  1.00  0.00     0.037 A 
BRANCH  54  68
ATOM     68  C   UNL     1     -11.693  -1.410 -11.319  1.00  0.00     0.057 A 
ATOM     69  C   UNL     1     -11.998  -0.632 -10.184  1.00  0.00     0.134 A 
ATOM     70  C   UNL     1     -12.652  -1.357 -12.349  1.00  0.00     0.134 A 
ATOM     71  F   UNL     1     -11.185  -0.539  -9.127  1.00  0.00    -0.206 F 
ATOM     72  C   UNL     1     -13.127   0.188 -10.108  1.00  0.00     0.040 A 
ATOM     73  C   UNL     1     -13.760  -0.502 -12.303  1.00  0.00     0.040 A 
ATOM     74  F   UNL     1     -12.494  -2.067 -13.476  1.00  0.00    -0.206 F 
ATOM     75  C   UNL     1     -13.990   0.289 -11.186  1.00  0.00     0.006 A 
ENDBRANCH  54  68
BRANCH  55  76
ATOM     76  C   UNL     1      -5.643   4.756 -10.870  1.00  0.00     0.057 A 
ATOM     77  C   UNL     1      -5.505   4.983  -9.488  1.00  0.00     0.134 A 
ATOM     78  C   UNL     1      -5.805   5.894 -11.669  1.00  0.00     0.134 A 
ATOM     79  F   UNL     1      -5.430   3.958  -8.626  1.00  0.00    -0.206 F 
ATOM     80  C   UNL     1      -5.527   6.265  -8.932  1.00  0.00     0.040 A 
ATOM     81  C   UNL     1      -5.830   7.186 -11.124  1.00  0.00     0.040 A 
ATOM     82  F   UNL     1      -5.994   5.775 -12.990  1.00  0.00    -0.206 F 
ATOM     83  C   UNL     1      -5.699   7.374  -9.751  1.00  0.00     0.006 A 
ENDBRANCH  55  76
BRANCH  67  84
ATOM     84  C   UNL     1      -6.308   0.231 -15.136  1.00  0.00     0.057 A 
ATOM     85  C   UNL     1      -6.401  -0.005 -16.510  1.00  0.00     0.134 A 
ATOM     86  C   UNL     1      -5.023   0.174 -14.573  1.00  0.00     0.134 A 
ATOM     87  F   UNL     1      -7.601  -0.030 -17.110  1.00  0.00    -0.206 F 
ATOM     88  C   UNL     1      -5.274  -0.269 -17.292  1.00  0.00     0.040 A 
ATOM     89  C   UNL     1      -3.882  -0.056 -15.349  1.00  0.00     0.040 A 
ATOM     90  F   UNL     1      -4.839   0.284 -13.253  1.00  0.00    -0.206 F 
ATOM     91  C   UNL     1      -4.007  -0.282 -16.715  1.00  0.00     0.006 A 
ENDBRANCH  67  84
ENDBRANCH  41  42
ENDBRANCH  33  36
ENDBRANCH  31  32
ENDBRANCH  30  31
ENDBRANCH   1  30
TORSDOF 15
