REMARK SMILES Cc1c(C#N)c2ccccc2n1CC(=O)N1CC[C@H](O)C[C@@H]1C(=O)NCCCCNC(=O)c1ccc(-c2c3nc(c(-c4c(F)cccc4F)c4ccc([nH]4)c(-c4c(F)cccc4F)c4nc(c(-c5c(F)cccc5F)c5ccc2[nH]5)C=C4)C=C3)cc1
REMARK SMILES IDX 26 1 25 2 23 3 24 4 22 6 16 7 17 8 18 9 21 10 19 11 14 12
REMARK SMILES IDX 15 13 13 14 12 15 1 16 2 17 3 18 6 19 11 20 7 21 10 22 8 23
REMARK SMILES IDX 9 24 4 25 5 26 20 27 27 29 28 30 29 31 30 32 31 33 32 35
REMARK SMILES IDX 33 36 34 37 86 38 35 39 85 40 36 41 37 42 38 43 79 44 39 45
REMARK SMILES IDX 84 46 78 47 80 48 40 49 83 50 77 51 76 52 41 54 67 55 50 56
REMARK SMILES IDX 66 57 51 58 54 59 65 60 81 61 52 62 53 63 64 65 82 66 55 67
REMARK SMILES IDX 42 68 43 69 48 70 44 71 45 72 47 73 49 74 46 75 68 76 69 77
REMARK SMILES IDX 74 78 70 79 71 80 73 81 75 82 72 83 56 84 57 85 62 86 58 87
REMARK SMILES IDX 59 88 61 89 63 90 60 91
REMARK H PARENT 25 5 20 28 30 34 80 53 54 64
REMARK Flexibility Score: inf
ROOT
ATOM      1  C   UNL     1      -3.957   6.039   2.999  1.00  0.00     0.116 C 
ENDROOT
BRANCH   1   2
ATOM      2  N   UNL     1      -3.337   6.266   1.715  1.00  0.00    -0.354 N 
ATOM      3  C   UNL     1      -2.466   5.470   1.035  1.00  0.00     0.242 C 
ATOM      4  O   UNL     1      -2.079   5.906  -0.057  1.00  0.00    -0.273 OA
ATOM      5  H   UNL     1      -3.578   7.110   1.270  1.00  0.00     0.163 HD
BRANCH   3   6
ATOM      6  C   UNL     1      -1.930   4.122   1.621  1.00  0.00     0.177 C 
ATOM      7  N   UNL     1      -1.213   3.394   0.541  1.00  0.00    -0.329 N 
ATOM      8  C   UNL     1      -2.085   2.890  -0.527  1.00  0.00     0.123 C 
ATOM      9  C   UNL     1      -3.167   1.966   0.031  1.00  0.00     0.053 C 
ATOM     10  C   UNL     1      -2.932   3.141   2.235  1.00  0.00     0.067 C 
ATOM     11  C   UNL     1      -3.911   2.592   1.204  1.00  0.00     0.118 C 
BRANCH   7  12
ATOM     12  C   UNL     1       0.152   3.195   0.679  1.00  0.00     0.243 C 
ATOM     13  O   UNL     1       0.680   3.309   1.795  1.00  0.00    -0.273 OA
BRANCH  12  14
ATOM     14  C   UNL     1       1.076   3.006  -0.516  1.00  0.00     0.222 C 
BRANCH  14  15
ATOM     15  N   UNL     1       0.734   1.976  -1.487  1.00  0.00    -0.334 N 
ATOM     16  C   UNL     1       1.063   0.005   0.064  1.00  0.00     0.066 C 
ATOM     17  C   UNL     1       0.661   0.618  -1.236  1.00  0.00     0.034 A 
ATOM     18  C   UNL     1       0.124   0.028  -2.371  1.00  0.00     0.080 A 
ATOM     19  C   UNL     1      -0.073   1.038  -3.355  1.00  0.00     0.018 A 
ATOM     20  C   UNL     1       0.359   2.245  -2.798  1.00  0.00     0.050 A 
ATOM     21  C   UNL     1      -0.610   1.048  -4.661  1.00  0.00     0.012 A 
ATOM     22  C   UNL     1       0.278   3.458  -3.506  1.00  0.00     0.027 A 
ATOM     23  C   UNL     1      -0.701   2.252  -5.366  1.00  0.00     0.001 A 
ATOM     24  C   UNL     1      -0.260   3.440  -4.795  1.00  0.00     0.002 A 
BRANCH  18  25
ATOM     25  C   UNL     1      -0.216  -1.352  -2.507  1.00  0.00     0.102 C 
ATOM     26  N   UNL     1      -0.519  -2.474  -2.606  1.00  0.00    -0.192 NA
ENDBRANCH  18  25
ENDBRANCH  14  15
ENDBRANCH  12  14
ENDBRANCH   7  12
BRANCH  11  27
ATOM     27  O   UNL     1      -4.816   3.607   0.781  1.00  0.00    -0.393 OA
ATOM     28  H   UNL     1      -4.320   4.327   0.362  1.00  0.00     0.210 HD
ENDBRANCH  11  27
ENDBRANCH   3   6
ENDBRANCH   1   2
BRANCH   1  29
ATOM     29  C   UNL     1      -4.302   7.320   3.746  1.00  0.00     0.023 C 
BRANCH  29  30
ATOM     30  C   UNL     1      -5.325   8.243   3.077  1.00  0.00     0.023 C 
BRANCH  30  31
ATOM     31  C   UNL     1      -6.654   7.593   2.693  1.00  0.00     0.116 C 
BRANCH  31  32
ATOM     32  N   UNL     1      -7.322   6.914   3.782  1.00  0.00    -0.352 N 
ATOM     33  C   UNL     1      -8.275   7.263   4.696  1.00  0.00     0.251 C 
ATOM     34  H   UNL     1      -7.020   5.983   3.889  1.00  0.00     0.163 HD
ATOM     35  O   UNL     1      -8.772   6.331   5.335  1.00  0.00    -0.269 OA
BRANCH  33  36
ATOM     36  C   UNL     1      -8.672   8.653   5.049  1.00  0.00     0.039 A 
ATOM     37  C   UNL     1      -8.201   9.822   4.455  1.00  0.00     0.014 A 
ATOM     38  C   UNL     1      -9.522   8.766   6.169  1.00  0.00     0.014 A 
ATOM     39  C   UNL     1      -8.399  11.047   5.092  1.00  0.00     0.010 A 
ATOM     40  C   UNL     1      -9.765   9.988   6.775  1.00  0.00     0.010 A 
ATOM     41  C   UNL     1      -9.111  11.113   6.300  1.00  0.00    -0.014 A 
BRANCH  41  42
ATOM     42  C   UNL     1      -9.316  12.408   6.949  1.00  0.00     0.031 A 
ATOM     43  C   UNL     1     -10.015  13.359   6.043  1.00  0.00     0.074 A 
ATOM     44  C   UNL     1      -8.986  12.685   8.235  1.00  0.00     0.049 A 
ATOM     45  N   UNL     1      -9.496  14.380   5.447  1.00  0.00    -0.248 NA
ATOM     46  C   UNL     1     -11.358  13.009   5.550  1.00  0.00     0.031 C 
ATOM     47  C   UNL     1      -8.483  11.770   9.266  1.00  0.00     0.029 A 
ATOM     48  N   UNL     1      -9.081  13.870   8.923  1.00  0.00    -0.354 N 
ATOM     49  C   UNL     1     -10.523  14.950   4.700  1.00  0.00     0.074 A 
ATOM     50  C   UNL     1     -11.568  13.966   4.643  1.00  0.00     0.031 C 
ATOM     51  C   UNL     1      -8.544  12.363  10.484  1.00  0.00     0.029 A 
ATOM     52  C   UNL     1      -8.940  13.748  10.317  1.00  0.00     0.049 A 
ATOM     53  H   UNL     1      -9.235  14.734   8.477  1.00  0.00     0.167 HD
ATOM     54  C   UNL     1     -10.518  16.290   4.457  1.00  0.00     0.037 A 
ATOM     55  C   UNL     1      -9.137  14.726  11.249  1.00  0.00     0.037 A 
ATOM     56  C   UNL     1      -9.193  16.826   4.671  1.00  0.00     0.049 A 
ATOM     57  C   UNL     1      -9.018  16.026  10.546  1.00  0.00     0.074 A 
ATOM     58  C   UNL     1      -7.954  16.682   4.084  1.00  0.00     0.029 A 
ATOM     59  N   UNL     1      -8.967  17.363   5.913  1.00  0.00    -0.354 N 
ATOM     60  N   UNL     1      -7.902  16.454  10.028  1.00  0.00    -0.248 NA
ATOM     61  C   UNL     1     -10.236  16.567   9.969  1.00  0.00     0.031 C 
ATOM     62  C   UNL     1      -7.022  16.731   5.165  1.00  0.00     0.029 A 
ATOM     63  C   UNL     1      -7.722  17.002   6.341  1.00  0.00     0.049 A 
ATOM     64  H   UNL     1      -9.603  17.920   6.416  1.00  0.00     0.167 HD
ATOM     65  C   UNL     1      -8.266  16.925   8.775  1.00  0.00     0.074 A 
ATOM     66  C   UNL     1      -9.729  17.007   8.815  1.00  0.00     0.031 C 
ATOM     67  C   UNL     1      -7.374  16.908   7.740  1.00  0.00     0.037 A 
BRANCH  54  68
ATOM     68  C   UNL     1     -11.748  17.173   4.578  1.00  0.00     0.057 A 
ATOM     69  C   UNL     1     -12.954  16.792   5.200  1.00  0.00     0.134 A 
ATOM     70  C   UNL     1     -11.588  18.563   4.401  1.00  0.00     0.134 A 
ATOM     71  F   UNL     1     -13.274  15.519   5.449  1.00  0.00    -0.206 F 
ATOM     72  C   UNL     1     -13.877  17.718   5.696  1.00  0.00     0.040 A 
ATOM     73  C   UNL     1     -12.486  19.498   4.930  1.00  0.00     0.040 A 
ATOM     74  F   UNL     1     -10.496  19.059   3.800  1.00  0.00    -0.206 F 
ATOM     75  C   UNL     1     -13.624  19.076   5.601  1.00  0.00     0.006 A 
ENDBRANCH  54  68
BRANCH  55  76
ATOM     76  C   UNL     1      -9.793  14.639  12.585  1.00  0.00     0.057 A 
ATOM     77  C   UNL     1     -10.782  13.674  12.834  1.00  0.00     0.134 A 
ATOM     78  C   UNL     1      -9.705  15.673  13.536  1.00  0.00     0.134 A 
ATOM     79  F   UNL     1     -11.023  12.697  11.948  1.00  0.00    -0.206 F 
ATOM     80  C   UNL     1     -11.631  13.728  13.948  1.00  0.00     0.040 A 
ATOM     81  C   UNL     1     -10.547  15.739  14.660  1.00  0.00     0.040 A 
ATOM     82  F   UNL     1      -8.844  16.687  13.362  1.00  0.00    -0.206 F 
ATOM     83  C   UNL     1     -11.521  14.767  14.864  1.00  0.00     0.006 A 
ENDBRANCH  55  76
BRANCH  67  84
ATOM     84  C   UNL     1      -5.934  16.618   8.065  1.00  0.00     0.057 A 
ATOM     85  C   UNL     1      -4.983  17.593   7.750  1.00  0.00     0.134 A 
ATOM     86  C   UNL     1      -5.450  15.394   8.553  1.00  0.00     0.134 A 
ATOM     87  F   UNL     1      -5.370  18.766   7.226  1.00  0.00    -0.206 F 
ATOM     88  C   UNL     1      -3.615  17.373   7.918  1.00  0.00     0.040 A 
ATOM     89  C   UNL     1      -4.082  15.172   8.757  1.00  0.00     0.040 A 
ATOM     90  F   UNL     1      -6.277  14.368   8.796  1.00  0.00    -0.206 F 
ATOM     91  C   UNL     1      -3.160  16.164   8.435  1.00  0.00     0.006 A 
ENDBRANCH  67  84
ENDBRANCH  41  42
ENDBRANCH  33  36
ENDBRANCH  31  32
ENDBRANCH  30  31
ENDBRANCH  29  30
ENDBRANCH   1  29
TORSDOF 16
