REMARK SMILES C[C@@H]1[NH2+]CC[C@H]1C(=O)NCc1cccc(C(=O)NCCCCNC(=O)c2ccc(-c3c4nc(c(-c5c(F)cccc5F)c5ccc([nH]5)c(-c5c(F)cccc5F)c5nc(c(-c6c(F)cccc6F)c6ccc3[nH]6)C=C5)C=C4)cc2)c1
REMARK SMILES IDX 20 1 19 2 18 3 16 4 17 5 15 7 11 8 12 9 80 10 13 11 14 12
REMARK SMILES IDX 10 13 9 14 7 15 8 16 6 18 1 19 2 20 3 21 4 22 5 25 21 26
REMARK SMILES IDX 22 27 23 28 24 29 25 31 26 32 27 33 79 34 28 35 78 36 29 37
REMARK SMILES IDX 30 38 31 39 72 40 32 41 77 42 71 43 73 44 33 45 76 46 70 47
REMARK SMILES IDX 69 48 34 50 60 51 43 52 59 53 44 54 47 55 58 56 74 57 45 58
REMARK SMILES IDX 46 59 57 61 75 62 48 63 35 64 36 65 41 66 37 67 38 68 40 69
REMARK SMILES IDX 42 70 39 71 61 72 62 73 67 74 63 75 64 76 66 77 68 78 65 79
REMARK SMILES IDX 49 80 50 81 55 82 51 83 52 84 54 85 56 86 53 87
REMARK H PARENT 18 6 9 17 3 23 3 24 23 30 73 49 47 60
REMARK Flexibility Score: inf
ROOT
ATOM      1  C   UNL     1      -0.034   4.132   6.393  1.00  0.00     0.023 C 
ENDROOT
BRANCH   1   2
ATOM      2  C   UNL     1       0.904   3.171   5.680  1.00  0.00     0.116 C 
BRANCH   2   3
ATOM      3  N   UNL     1       1.813   2.420   6.534  1.00  0.00    -0.352 N 
ATOM      4  C   UNL     1       2.145   1.077   6.556  1.00  0.00     0.251 C 
ATOM      5  O   UNL     1       2.980   0.690   7.371  1.00  0.00    -0.269 OA
ATOM      6  H   UNL     1       2.271   2.963   7.215  1.00  0.00     0.163 HD
BRANCH   4   7
ATOM      7  C   UNL     1       1.452   0.077   5.693  1.00  0.00     0.040 A 
ATOM      8  C   UNL     1      -0.087  -0.356   3.873  1.00  0.00    -0.028 A 
ATOM      9  C   UNL     1      -0.330  -1.633   4.392  1.00  0.00     0.005 A 
ATOM     10  C   UNL     1       0.937   0.408   4.444  1.00  0.00     0.019 A 
ATOM     11  C   UNL     1       0.362  -2.078   5.521  1.00  0.00     0.001 A 
ATOM     12  C   UNL     1       1.211  -1.204   6.202  1.00  0.00     0.014 A 
BRANCH   8  13
ATOM     13  C   UNL     1      -1.043   0.236   2.862  1.00  0.00     0.151 C 
BRANCH  13  14
ATOM     14  N   UNL     1      -0.679   1.572   2.427  1.00  0.00    -0.352 N 
ATOM     15  C   UNL     1      -0.172   2.027   1.254  1.00  0.00     0.229 C 
ATOM     16  O   UNL     1       0.187   3.207   1.218  1.00  0.00    -0.275 OA
ATOM     17  H   UNL     1      -0.827   2.272   3.104  1.00  0.00     0.163 HD
BRANCH  15  18
ATOM     18  C   UNL     1      -0.068   1.145   0.024  1.00  0.00     0.142 C 
ATOM     19  C   UNL     1       2.082   0.009  -0.689  1.00  0.00     0.076 C 
ATOM     20  C   UNL     1       0.852  -0.060   0.212  1.00  0.00     0.192 C 
ATOM     21  N   UNL     1       0.079  -1.265  -0.131  1.00  0.00    -0.343 N 
ATOM     22  C   UNL     1      -1.155  -0.845  -0.792  1.00  0.00     0.261 C 
ATOM     23  H   UNL     1      -0.145  -1.784   0.719  1.00  0.00     0.346 HD
ATOM     24  H   UNL     1       0.622  -1.867  -0.749  1.00  0.00     0.346 HD
ATOM     25  C   UNL     1      -1.417   0.599  -0.418  1.00  0.00     0.081 C 
ENDBRANCH  15  18
ENDBRANCH  13  14
ENDBRANCH   8  13
ENDBRANCH   4   7
ENDBRANCH   2   3
ENDBRANCH   1   2
BRANCH   1  26
ATOM     26  C   UNL     1       0.613   5.309   7.100  1.00  0.00     0.023 C 
BRANCH  26  27
ATOM     27  C   UNL     1       1.603   6.113   6.271  1.00  0.00     0.116 C 
BRANCH  27  28
ATOM     28  N   UNL     1       1.048   6.662   5.044  1.00  0.00    -0.352 N 
ATOM     29  C   UNL     1       1.126   7.945   4.546  1.00  0.00     0.251 C 
ATOM     30  H   UNL     1       0.543   6.024   4.488  1.00  0.00     0.163 HD
ATOM     31  O   UNL     1       0.513   8.256   3.538  1.00  0.00    -0.269 OA
BRANCH  29  32
ATOM     32  C   UNL     1       1.930   8.961   5.265  1.00  0.00     0.039 A 
ATOM     33  C   UNL     1       1.395  10.240   5.444  1.00  0.00     0.014 A 
ATOM     34  C   UNL     1       3.194   8.653   5.771  1.00  0.00     0.014 A 
ATOM     35  C   UNL     1       2.103  11.187   6.187  1.00  0.00     0.010 A 
ATOM     36  C   UNL     1       3.849   9.561   6.596  1.00  0.00     0.010 A 
ATOM     37  C   UNL     1       3.321  10.845   6.796  1.00  0.00    -0.014 A 
BRANCH  37  38
ATOM     38  C   UNL     1       4.086  11.830   7.602  1.00  0.00     0.031 A 
ATOM     39  C   UNL     1       5.461  12.251   7.156  1.00  0.00     0.074 A 
ATOM     40  C   UNL     1       3.574  12.304   8.754  1.00  0.00     0.049 A 
ATOM     41  N   UNL     1       6.313  13.054   7.742  1.00  0.00    -0.248 NA
ATOM     42  C   UNL     1       5.959  11.665   5.901  1.00  0.00     0.031 C 
ATOM     43  C   UNL     1       2.277  11.933   9.324  1.00  0.00     0.029 A 
ATOM     44  N   UNL     1       4.088  13.200   9.657  1.00  0.00    -0.354 N 
ATOM     45  C   UNL     1       7.447  13.051   6.939  1.00  0.00     0.074 A 
ATOM     46  C   UNL     1       7.202  12.116   5.863  1.00  0.00     0.031 C 
ATOM     47  C   UNL     1       2.085  12.619  10.462  1.00  0.00     0.029 A 
ATOM     48  C   UNL     1       3.255  13.452  10.721  1.00  0.00     0.049 A 
ATOM     49  H   UNL     1       4.971  13.623   9.553  1.00  0.00     0.167 HD
ATOM     50  C   UNL     1       8.578  13.784   7.065  1.00  0.00     0.037 A 
ATOM     51  C   UNL     1       3.419  14.265  11.781  1.00  0.00     0.037 A 
ATOM     52  C   UNL     1       8.805  14.739   8.116  1.00  0.00     0.049 A 
ATOM     53  C   UNL     1       4.677  15.082  11.891  1.00  0.00     0.074 A 
ATOM     54  C   UNL     1       9.893  15.571   8.306  1.00  0.00     0.029 A 
ATOM     55  N   UNL     1       7.920  14.991   9.155  1.00  0.00    -0.354 N 
ATOM     56  N   UNL     1       5.714  15.119  11.089  1.00  0.00    -0.248 NA
ATOM     57  C   UNL     1       4.782  15.983  13.047  1.00  0.00     0.031 C 
ATOM     58  C   UNL     1       9.685  16.299   9.482  1.00  0.00     0.029 A 
ATOM     59  C   UNL     1       8.444  15.959   9.995  1.00  0.00     0.049 A 
ATOM     60  H   UNL     1       7.050  14.547   9.276  1.00  0.00     0.167 HD
ATOM     61  C   UNL     1       6.572  16.074  11.619  1.00  0.00     0.074 A 
ATOM     62  C   UNL     1       5.931  16.598  12.807  1.00  0.00     0.031 C 
ATOM     63  C   UNL     1       7.781  16.483  11.162  1.00  0.00     0.037 A 
BRANCH  50  64
ATOM     64  C   UNL     1       9.648  13.585   6.030  1.00  0.00     0.057 A 
ATOM     65  C   UNL     1       9.478  13.996   4.700  1.00  0.00     0.134 A 
ATOM     66  C   UNL     1      10.870  12.991   6.369  1.00  0.00     0.134 A 
ATOM     67  F   UNL     1       8.326  14.559   4.305  1.00  0.00    -0.206 F 
ATOM     68  C   UNL     1      10.470  13.793   3.740  1.00  0.00     0.040 A 
ATOM     69  C   UNL     1      11.882  12.811   5.424  1.00  0.00     0.040 A 
ATOM     70  F   UNL     1      11.103  12.578   7.624  1.00  0.00    -0.206 F 
ATOM     71  C   UNL     1      11.679  13.205   4.103  1.00  0.00     0.006 A 
ENDBRANCH  50  64
BRANCH  51  72
ATOM     72  C   UNL     1       2.348  14.383  12.804  1.00  0.00     0.057 A 
ATOM     73  C   UNL     1       1.598  15.558  12.932  1.00  0.00     0.134 A 
ATOM     74  C   UNL     1       2.059  13.336  13.688  1.00  0.00     0.134 A 
ATOM     75  F   UNL     1       1.839  16.603  12.126  1.00  0.00    -0.206 F 
ATOM     76  C   UNL     1       0.618  15.699  13.916  1.00  0.00     0.040 A 
ATOM     77  C   UNL     1       1.064  13.453  14.660  1.00  0.00     0.040 A 
ATOM     78  F   UNL     1       2.735  12.180  13.612  1.00  0.00    -0.206 F 
ATOM     79  C   UNL     1       0.347  14.642  14.782  1.00  0.00     0.006 A 
ENDBRANCH  51  72
BRANCH  63  80
ATOM     80  C   UNL     1       8.460  17.593  11.911  1.00  0.00     0.057 A 
ATOM     81  C   UNL     1       9.017  17.403  13.182  1.00  0.00     0.134 A 
ATOM     82  C   UNL     1       8.587  18.862  11.332  1.00  0.00     0.134 A 
ATOM     83  F   UNL     1       8.921  16.214  13.797  1.00  0.00    -0.206 F 
ATOM     84  C   UNL     1       9.648  18.445  13.863  1.00  0.00     0.040 A 
ATOM     85  C   UNL     1       9.242  19.903  11.991  1.00  0.00     0.040 A 
ATOM     86  F   UNL     1       8.086  19.108  10.112  1.00  0.00    -0.206 F 
ATOM     87  C   UNL     1       9.768  19.698  13.264  1.00  0.00     0.006 A 
ENDBRANCH  63  80
ENDBRANCH  37  38
ENDBRANCH  29  32
ENDBRANCH  27  28
ENDBRANCH  26  27
ENDBRANCH   1  26
TORSDOF 14
