REMARK SMILES CS(=O)(=O)c1ccc(/C=C(/C(=O)NCCCCNC(=O)c2ccc(-c3c4nc(c(-c5c(F)cccc5F)c5ccc([nH]5)c(-c5c(F)cccc5F)c5nc(c(-c6c(F)cccc6F)c6ccc3[nH]6)C=C5)C=C4)cc2)c2ccc(O)cc2)cc1
REMARK SMILES IDX 15 1 14 2 13 3 11 4 12 5 10 7 9 8 8 9 5 10 6 11 83 12 7 13
REMARK SMILES IDX 82 14 2 15 1 16 3 17 4 18 75 19 76 20 81 21 77 22 80 23
REMARK SMILES IDX 78 24 79 25 16 27 17 28 18 29 19 30 20 32 21 33 22 34 74 35
REMARK SMILES IDX 23 36 73 37 24 38 25 39 26 40 67 41 27 42 72 43 66 44 68 45
REMARK SMILES IDX 28 46 71 47 65 48 64 49 29 51 55 52 38 53 54 54 39 55 42 56
REMARK SMILES IDX 53 57 69 58 40 59 41 60 52 62 70 63 43 64 30 65 31 66 36 67
REMARK SMILES IDX 32 68 33 69 35 70 37 71 34 72 56 73 57 74 62 75 58 76 59 77
REMARK SMILES IDX 61 78 63 79 60 80 44 81 45 82 50 83 46 84 47 85 49 86 51 87
REMARK SMILES IDX 48 88
REMARK H PARENT 13 6 79 26 18 31 68 50 42 61
REMARK Flexibility Score: inf
ROOT
ATOM      1  C   UNL     1       1.625   8.341  -3.983  1.00  0.00     0.023 C 
ENDROOT
BRANCH   1   2
ATOM      2  C   UNL     1       1.302   7.503  -5.225  1.00  0.00     0.116 C 
BRANCH   2   3
ATOM      3  N   UNL     1       2.509   7.269  -5.991  1.00  0.00    -0.352 N 
ATOM      4  C   UNL     1       3.380   6.229  -6.086  1.00  0.00     0.251 C 
ATOM      5  O   UNL     1       4.356   6.417  -6.817  1.00  0.00    -0.269 OA
ATOM      6  H   UNL     1       2.750   8.028  -6.570  1.00  0.00     0.163 HD
BRANCH   4   7
ATOM      7  C   UNL     1       3.160   4.883  -5.428  1.00  0.00     0.047 C 
ATOM      8  C   UNL     1       2.502   4.752  -4.253  1.00  0.00     0.022 C 
BRANCH   8   9
ATOM      9  C   UNL     1       2.044   3.538  -3.539  1.00  0.00    -0.025 A 
ATOM     10  C   UNL     1       0.933   1.266  -2.323  1.00  0.00     0.067 A 
ATOM     11  C   UNL     1       2.232   1.219  -2.829  1.00  0.00     0.021 A 
ATOM     12  C   UNL     1       0.189   2.441  -2.387  1.00  0.00     0.021 A 
ATOM     13  C   UNL     1       2.795   2.366  -3.396  1.00  0.00     0.009 A 
ATOM     14  C   UNL     1       0.747   3.570  -2.993  1.00  0.00     0.009 A 
BRANCH  10  15
ATOM     15  S   UNL     1       0.219  -0.203  -1.628  1.00  0.00     0.175 S 
ATOM     16  C   UNL     1       0.859  -0.207   0.026  1.00  0.00     0.163 C 
ATOM     17  O   UNL     1       0.776  -1.335  -2.339  1.00  0.00    -0.224 OA
ATOM     18  O   UNL     1      -1.218  -0.003  -1.554  1.00  0.00    -0.224 OA
ENDBRANCH  10  15
ENDBRANCH   8   9
BRANCH   7  19
ATOM     19  C   UNL     1       3.871   3.723  -6.026  1.00  0.00    -0.013 A 
ATOM     20  C   UNL     1       5.276   3.705  -5.953  1.00  0.00     0.013 A 
ATOM     21  C   UNL     1       3.205   2.600  -6.536  1.00  0.00     0.013 A 
ATOM     22  C   UNL     1       5.996   2.569  -6.316  1.00  0.00     0.047 A 
ATOM     23  C   UNL     1       3.927   1.449  -6.876  1.00  0.00     0.047 A 
ATOM     24  C   UNL     1       5.314   1.439  -6.740  1.00  0.00     0.115 A 
BRANCH  24  25
ATOM     25  O   UNL     1       6.049   0.319  -6.990  1.00  0.00    -0.508 OA
ATOM     26  H   UNL     1       6.980   0.338  -6.892  1.00  0.00     0.293 HD
ENDBRANCH  24  25
ENDBRANCH   7  19
ENDBRANCH   4   7
ENDBRANCH   2   3
ENDBRANCH   1   2
BRANCH   1  27
ATOM     27  C   UNL     1       1.931   9.811  -4.290  1.00  0.00     0.023 C 
BRANCH  27  28
ATOM     28  C   UNL     1       0.794  10.569  -4.962  1.00  0.00     0.116 C 
BRANCH  28  29
ATOM     29  N   UNL     1      -0.432  10.575  -4.177  1.00  0.00    -0.352 N 
ATOM     30  C   UNL     1      -1.347  11.594  -4.052  1.00  0.00     0.251 C 
ATOM     31  H   UNL     1      -0.630   9.751  -3.676  1.00  0.00     0.163 HD
ATOM     32  O   UNL     1      -2.281  11.515  -3.264  1.00  0.00    -0.269 OA
BRANCH  30  33
ATOM     33  C   UNL     1      -1.155  12.805  -4.871  1.00  0.00     0.039 A 
ATOM     34  C   UNL     1      -1.074  14.049  -4.242  1.00  0.00     0.014 A 
ATOM     35  C   UNL     1      -0.959  12.683  -6.248  1.00  0.00     0.014 A 
ATOM     36  C   UNL     1      -0.722  15.172  -4.993  1.00  0.00     0.010 A 
ATOM     37  C   UNL     1      -0.533  13.785  -6.974  1.00  0.00     0.010 A 
ATOM     38  C   UNL     1      -0.410  15.040  -6.355  1.00  0.00    -0.014 A 
BRANCH  38  39
ATOM     39  C   UNL     1       0.026  16.192  -7.182  1.00  0.00     0.031 A 
ATOM     40  C   UNL     1      -0.814  16.606  -8.357  1.00  0.00     0.074 A 
ATOM     41  C   UNL     1       1.212  16.786  -6.951  1.00  0.00     0.049 A 
ATOM     42  N   UNL     1      -0.537  17.447  -9.320  1.00  0.00    -0.248 NA
ATOM     43  C   UNL     1      -2.130  15.957  -8.484  1.00  0.00     0.031 C 
ATOM     44  C   UNL     1       2.128  16.459  -5.856  1.00  0.00     0.029 A 
ATOM     45  N   UNL     1       1.865  17.775  -7.645  1.00  0.00    -0.354 N 
ATOM     46  C   UNL     1      -1.627  17.404 -10.179  1.00  0.00     0.074 A 
ATOM     47  C   UNL     1      -2.546  16.419  -9.653  1.00  0.00     0.031 C 
ATOM     48  C   UNL     1       3.219  17.237  -5.949  1.00  0.00     0.029 A 
ATOM     49  C   UNL     1       3.105  18.078  -7.136  1.00  0.00     0.049 A 
ATOM     50  H   UNL     1       1.480  18.224  -8.432  1.00  0.00     0.167 HD
ATOM     51  C   UNL     1      -1.851  18.135 -11.295  1.00  0.00     0.037 A 
ATOM     52  C   UNL     1       4.053  18.921  -7.593  1.00  0.00     0.037 A 
ATOM     53  C   UNL     1      -0.943  19.132 -11.796  1.00  0.00     0.049 A 
ATOM     54  C   UNL     1       3.795  19.702  -8.854  1.00  0.00     0.074 A 
ATOM     55  C   UNL     1      -1.097  19.963 -12.891  1.00  0.00     0.029 A 
ATOM     56  N   UNL     1       0.290  19.429 -11.235  1.00  0.00    -0.354 N 
ATOM     57  N   UNL     1       2.740  19.689  -9.633  1.00  0.00    -0.248 NA
ATOM     58  C   UNL     1       4.857  20.614  -9.303  1.00  0.00     0.031 C 
ATOM     59  C   UNL     1       0.065  20.727 -13.024  1.00  0.00     0.029 A 
ATOM     60  C   UNL     1       0.915  20.419 -11.974  1.00  0.00     0.049 A 
ATOM     61  H   UNL     1       0.664  19.001 -10.431  1.00  0.00     0.167 HD
ATOM     62  C   UNL     1       2.991  20.621 -10.633  1.00  0.00     0.074 A 
ATOM     63  C   UNL     1       4.301  21.178 -10.366  1.00  0.00     0.031 C 
ATOM     64  C   UNL     1       2.204  20.987 -11.673  1.00  0.00     0.037 A 
BRANCH  51  65
ATOM     65  C   UNL     1      -3.122  17.879 -12.051  1.00  0.00     0.057 A 
ATOM     66  C   UNL     1      -4.377  18.222 -11.529  1.00  0.00     0.134 A 
ATOM     67  C   UNL     1      -3.089  17.311 -13.330  1.00  0.00     0.134 A 
ATOM     68  F   UNL     1      -4.480  18.759 -10.303  1.00  0.00    -0.206 F 
ATOM     69  C   UNL     1      -5.554  17.980 -12.239  1.00  0.00     0.040 A 
ATOM     70  C   UNL     1      -4.257  17.094 -14.063  1.00  0.00     0.040 A 
ATOM     71  F   UNL     1      -1.922  16.965 -13.893  1.00  0.00    -0.206 F 
ATOM     72  C   UNL     1      -5.495  17.422 -13.514  1.00  0.00     0.006 A 
ENDBRANCH  51  65
BRANCH  52  73
ATOM     73  C   UNL     1       5.332  19.079  -6.853  1.00  0.00     0.057 A 
ATOM     74  C   UNL     1       5.642  20.277  -6.198  1.00  0.00     0.134 A 
ATOM     75  C   UNL     1       6.280  18.051  -6.794  1.00  0.00     0.134 A 
ATOM     76  F   UNL     1       4.783  21.307  -6.232  1.00  0.00    -0.206 F 
ATOM     77  C   UNL     1       6.856  20.456  -5.533  1.00  0.00     0.040 A 
ATOM     78  C   UNL     1       7.487  18.206  -6.109  1.00  0.00     0.040 A 
ATOM     79  F   UNL     1       6.042  16.875  -7.393  1.00  0.00    -0.206 F 
ATOM     80  C   UNL     1       7.782  19.416  -5.484  1.00  0.00     0.006 A 
ENDBRANCH  52  73
BRANCH  64  81
ATOM     81  C   UNL     1       2.689  22.091 -12.566  1.00  0.00     0.057 A 
ATOM     82  C   UNL     1       3.713  21.899 -13.500  1.00  0.00     0.134 A 
ATOM     83  C   UNL     1       2.046  23.336 -12.554  1.00  0.00     0.134 A 
ATOM     84  F   UNL     1       4.375  20.734 -13.555  1.00  0.00    -0.206 F 
ATOM     85  C   UNL     1       4.084  22.910 -14.389  1.00  0.00     0.040 A 
ATOM     86  C   UNL     1       2.389  24.344 -13.455  1.00  0.00     0.040 A 
ATOM     87  F   UNL     1       1.050  23.580 -11.689  1.00  0.00    -0.206 F 
ATOM     88  C   UNL     1       3.412  24.132 -14.376  1.00  0.00     0.006 A 
ENDBRANCH  64  81
ENDBRANCH  38  39
ENDBRANCH  30  33
ENDBRANCH  28  29
ENDBRANCH  27  28
ENDBRANCH   1  27
TORSDOF 15
