REMARK SMILES CCc1noc(C)c1C(=O)Nc1cc(Cl)ccc1C(=O)NCCCCNC(=O)c1ccc(-c2c3nc(c(-c4c(F)cccc4F)c4ccc([nH]4)c(-c4c(F)cccc4F)c4nc(c(-c5c(F)cccc5F)c5ccc2[nH]5)C=C4)C=C3)cc1
REMARK SMILES IDX 23 1 22 2 21 3 19 4 20 5 18 7 12 8 13 9 14 10 17 11 15 12
REMARK SMILES IDX 16 13 11 14 9 15 10 16 8 18 3 19 4 20 5 21 6 22 7 23 2 24
REMARK SMILES IDX 1 25 24 26 25 27 26 28 27 29 28 31 29 32 30 33 82 34 31 35
REMARK SMILES IDX 81 36 32 37 33 38 34 39 75 40 35 41 80 42 74 43 76 44 36 45
REMARK SMILES IDX 79 46 73 47 72 48 37 50 63 51 46 52 62 53 47 54 50 55 61 56
REMARK SMILES IDX 77 57 48 58 49 59 60 61 78 62 51 63 38 64 39 65 44 66 40 67
REMARK SMILES IDX 41 68 43 69 45 70 42 71 64 72 65 73 70 74 66 75 67 76 69 77
REMARK SMILES IDX 71 78 68 79 52 80 53 81 58 82 54 83 55 84 57 85 59 86 56 87
REMARK H PARENT 21 6 11 17 26 30 76 49 50 60
REMARK Flexibility Score: inf
ROOT
ATOM      1  C   UNL     1       4.481  -3.168   2.873  1.00  0.00     0.023 C 
ENDROOT
BRANCH   1   2
ATOM      2  C   UNL     1       3.824  -2.813   4.201  1.00  0.00     0.116 C 
BRANCH   2   3
ATOM      3  N   UNL     1       4.624  -2.978   5.388  1.00  0.00    -0.352 N 
ATOM      4  C   UNL     1       4.500  -2.489   6.667  1.00  0.00     0.253 C 
ATOM      5  O   UNL     1       5.363  -2.881   7.461  1.00  0.00    -0.269 OA
ATOM      6  H   UNL     1       5.413  -3.553   5.258  1.00  0.00     0.163 HD
BRANCH   4   7
ATOM      7  C   UNL     1       3.471  -1.514   7.186  1.00  0.00     0.063 A 
ATOM      8  C   UNL     1       2.167  -1.241   6.724  1.00  0.00     0.055 A 
ATOM      9  C   UNL     1       1.323  -0.356   7.427  1.00  0.00     0.047 A 
ATOM     10  C   UNL     1       1.786   0.328   8.547  1.00  0.00     0.043 A 
ATOM     11  C   UNL     1       3.914  -0.772   8.309  1.00  0.00     0.017 A 
ATOM     12  Cl  UNL     1       0.748   1.417   9.375  1.00  0.00    -0.084 Cl
ATOM     13  C   UNL     1       3.090   0.143   8.977  1.00  0.00     0.021 A 
BRANCH   8  14
ATOM     14  N   UNL     1       1.569  -1.927   5.677  1.00  0.00    -0.321 N 
ATOM     15  C   UNL     1       0.969  -1.487   4.514  1.00  0.00     0.261 C 
ATOM     16  O   UNL     1       0.336  -2.363   3.915  1.00  0.00    -0.269 OA
ATOM     17  H   UNL     1       1.573  -2.905   5.782  1.00  0.00     0.170 HD
BRANCH  15  18
ATOM     18  C   UNL     1       1.167  -0.168   3.897  1.00  0.00     0.105 A 
ATOM     19  C   UNL     1       0.785   0.134   2.530  1.00  0.00     0.096 A 
ATOM     20  N   UNL     1       0.956   1.426   2.243  1.00  0.00    -0.084 NA
ATOM     21  O   UNL     1       1.591   1.963   3.319  1.00  0.00    -0.361 OA
ATOM     22  C   UNL     1       1.804   1.012   4.269  1.00  0.00     0.146 A 
ATOM     23  C   UNL     1       2.659   1.541   5.347  1.00  0.00     0.092 C 
BRANCH  19  24
ATOM     24  C   UNL     1       0.306  -0.781   1.443  1.00  0.00     0.057 C 
ATOM     25  C   UNL     1       0.801  -0.379   0.053  1.00  0.00     0.011 C 
ENDBRANCH  19  24
ENDBRANCH  15  18
ENDBRANCH   8  14
ENDBRANCH   4   7
ENDBRANCH   2   3
ENDBRANCH   1   2
BRANCH   1  26
ATOM     26  C   UNL     1       5.025  -4.587   2.722  1.00  0.00     0.023 C 
BRANCH  26  27
ATOM     27  C   UNL     1       4.148  -5.728   3.232  1.00  0.00     0.116 C 
BRANCH  27  28
ATOM     28  N   UNL     1       2.864  -5.855   2.556  1.00  0.00    -0.352 N 
ATOM     29  C   UNL     1       2.375  -6.830   1.716  1.00  0.00     0.251 C 
ATOM     30  H   UNL     1       2.238  -5.116   2.730  1.00  0.00     0.163 HD
ATOM     31  O   UNL     1       1.259  -6.697   1.217  1.00  0.00    -0.269 OA
BRANCH  29  32
ATOM     32  C   UNL     1       3.192  -8.010   1.354  1.00  0.00     0.039 A 
ATOM     33  C   UNL     1       3.244  -8.400   0.011  1.00  0.00     0.014 A 
ATOM     34  C   UNL     1       3.914  -8.726   2.308  1.00  0.00     0.014 A 
ATOM     35  C   UNL     1       4.112  -9.420  -0.387  1.00  0.00     0.010 A 
ATOM     36  C   UNL     1       4.848  -9.676   1.901  1.00  0.00     0.010 A 
ATOM     37  C   UNL     1       4.972 -10.020   0.546  1.00  0.00    -0.014 A 
BRANCH  37  38
ATOM     38  C   UNL     1       6.038 -10.968   0.122  1.00  0.00     0.031 A 
ATOM     39  C   UNL     1       6.069 -12.375   0.649  1.00  0.00     0.074 A 
ATOM     40  C   UNL     1       7.046 -10.524  -0.656  1.00  0.00     0.049 A 
ATOM     41  N   UNL     1       6.973 -13.305   0.472  1.00  0.00    -0.248 NA
ATOM     42  C   UNL     1       4.955 -12.778   1.521  1.00  0.00     0.031 C 
ATOM     43  C   UNL     1       7.183  -9.160  -1.170  1.00  0.00     0.029 A 
ATOM     44  N   UNL     1       8.161 -11.170  -1.132  1.00  0.00    -0.354 N 
ATOM     45  C   UNL     1       6.557 -14.388   1.235  1.00  0.00     0.074 A 
ATOM     46  C   UNL     1       5.342 -13.983   1.911  1.00  0.00     0.031 C 
ATOM     47  C   UNL     1       8.306  -9.074  -1.900  1.00  0.00     0.029 A 
ATOM     48  C   UNL     1       8.988 -10.364  -1.877  1.00  0.00     0.049 A 
ATOM     49  H   UNL     1       8.350 -12.120  -0.955  1.00  0.00     0.167 HD
ATOM     50  C   UNL     1       7.122 -15.614   1.348  1.00  0.00     0.037 A 
ATOM     51  C   UNL     1      10.168 -10.627  -2.469  1.00  0.00     0.037 A 
ATOM     52  C   UNL     1       8.305 -16.029   0.642  1.00  0.00     0.049 A 
ATOM     53  C   UNL     1      10.753 -12.006  -2.370  1.00  0.00     0.074 A 
ATOM     54  C   UNL     1       8.891 -17.283   0.604  1.00  0.00     0.029 A 
ATOM     55  N   UNL     1       9.087 -15.199  -0.147  1.00  0.00    -0.354 N 
ATOM     56  N   UNL     1      10.296 -13.050  -1.723  1.00  0.00    -0.248 NA
ATOM     57  C   UNL     1      12.012 -12.246  -3.089  1.00  0.00     0.031 C 
ATOM     58  C   UNL     1      10.052 -17.200  -0.173  1.00  0.00     0.029 A 
ATOM     59  C   UNL     1      10.166 -15.905  -0.654  1.00  0.00     0.049 A 
ATOM     60  H   UNL     1       8.903 -14.248  -0.321  1.00  0.00     0.167 HD
ATOM     61  C   UNL     1      11.201 -14.075  -1.967  1.00  0.00     0.074 A 
ATOM     62  C   UNL     1      12.225 -13.531  -2.835  1.00  0.00     0.031 C 
ATOM     63  C   UNL     1      11.184 -15.351  -1.510  1.00  0.00     0.037 A 
BRANCH  50  64
ATOM     64  C   UNL     1       6.460 -16.593   2.273  1.00  0.00     0.057 A 
ATOM     65  C   UNL     1       5.215 -17.166   1.980  1.00  0.00     0.134 A 
ATOM     66  C   UNL     1       7.080 -16.977   3.469  1.00  0.00     0.134 A 
ATOM     67  F   UNL     1       4.561 -16.834   0.856  1.00  0.00    -0.206 F 
ATOM     68  C   UNL     1       4.594 -18.055   2.860  1.00  0.00     0.040 A 
ATOM     69  C   UNL     1       6.482 -17.886   4.343  1.00  0.00     0.040 A 
ATOM     70  F   UNL     1       8.277 -16.473   3.808  1.00  0.00    -0.206 F 
ATOM     71  C   UNL     1       5.230 -18.419   4.044  1.00  0.00     0.006 A 
ENDBRANCH  50  64
BRANCH  51  72
ATOM     72  C   UNL     1      10.861  -9.556  -3.227  1.00  0.00     0.057 A 
ATOM     73  C   UNL     1      10.892  -9.568  -4.626  1.00  0.00     0.134 A 
ATOM     74  C   UNL     1      11.481  -8.484  -2.575  1.00  0.00     0.134 A 
ATOM     75  F   UNL     1      10.330 -10.579  -5.304  1.00  0.00    -0.206 F 
ATOM     76  C   UNL     1      11.521  -8.555  -5.351  1.00  0.00     0.040 A 
ATOM     77  C   UNL     1      12.095  -7.453  -3.288  1.00  0.00     0.040 A 
ATOM     78  F   UNL     1      11.476  -8.411  -1.236  1.00  0.00    -0.206 F 
ATOM     79  C   UNL     1      12.119  -7.489  -4.681  1.00  0.00     0.006 A 
ENDBRANCH  51  72
BRANCH  63  80
ATOM     80  C   UNL     1      12.301 -16.250  -1.948  1.00  0.00     0.057 A 
ATOM     81  C   UNL     1      13.595 -16.123  -1.428  1.00  0.00     0.134 A 
ATOM     82  C   UNL     1      12.071 -17.280  -2.869  1.00  0.00     0.134 A 
ATOM     83  F   UNL     1      13.884 -15.149  -0.553  1.00  0.00    -0.206 F 
ATOM     84  C   UNL     1      14.626 -16.978  -1.822  1.00  0.00     0.040 A 
ATOM     85  C   UNL     1      13.087 -18.155  -3.253  1.00  0.00     0.040 A 
ATOM     86  F   UNL     1      10.852 -17.459  -3.400  1.00  0.00    -0.206 F 
ATOM     87  C   UNL     1      14.371 -18.003  -2.732  1.00  0.00     0.006 A 
ENDBRANCH  63  80
ENDBRANCH  37  38
ENDBRANCH  29  32
ENDBRANCH  27  28
ENDBRANCH  26  27
ENDBRANCH   1  26
TORSDOF 14
