REMARK SMILES COc1ccc([C@H](C(=O)NCCCCNC(=O)c2ccc(-c3c4nc(c(-c5c(F)cccc5F)c5ccc([nH]5)c(-c5c(F)cccc5F)c5nc(c(-c6c(F)cccc6F)c6ccc3[nH]6)C=C5)C=C4)cc2)c2ccc(O)nn2)cc1
REMARK SMILES IDX 12 1 11 2 10 3 8 4 9 5 7 7 6 8 3 9 4 10 80 11 5 12 79 13
REMARK SMILES IDX 2 14 1 15 72 16 73 17 78 18 74 19 77 20 75 21 76 22 13 24
REMARK SMILES IDX 14 25 15 26 16 27 17 29 18 30 19 31 71 32 20 33 70 34 21 35
REMARK SMILES IDX 22 36 23 37 64 38 24 39 69 40 63 41 65 42 25 43 68 44 62 45
REMARK SMILES IDX 61 46 26 48 52 49 35 50 51 51 36 52 39 53 50 54 66 55 37 56
REMARK SMILES IDX 38 57 49 59 67 60 40 61 27 62 28 63 33 64 29 65 30 66 32 67
REMARK SMILES IDX 34 68 31 69 53 70 54 71 59 72 55 73 56 74 58 75 60 76 57 77
REMARK SMILES IDX 41 78 42 79 47 80 43 81 44 82 46 83 48 84 45 85
REMARK H PARENT 10 6 76 23 15 28 65 47 39 58
REMARK Flexibility Score: inf
ROOT
ATOM      1  C   UNL     1      -1.217   5.403  -2.638  1.00  0.00     0.023 C 
ENDROOT
BRANCH   1   2
ATOM      2  C   UNL     1      -0.196   4.888  -1.624  1.00  0.00     0.116 C 
BRANCH   2   3
ATOM      3  N   UNL     1       0.896   4.118  -2.195  1.00  0.00    -0.355 N 
ATOM      4  C   UNL     1       2.043   4.459  -2.847  1.00  0.00     0.233 C 
ATOM      5  O   UNL     1       2.867   3.538  -2.958  1.00  0.00    -0.274 OA
ATOM      6  H   UNL     1       0.783   3.146  -2.090  1.00  0.00     0.163 HD
BRANCH   4   7
ATOM      7  C   UNL     1       2.298   5.796  -3.568  1.00  0.00     0.159 C 
BRANCH   7   8
ATOM      8  C   UNL     1       2.042   5.704  -5.082  1.00  0.00    -0.029 A 
ATOM      9  C   UNL     1       1.486   5.683  -7.853  1.00  0.00     0.118 A 
ATOM     10  C   UNL     1       2.326   6.652  -7.310  1.00  0.00     0.047 A 
ATOM     11  C   UNL     1       0.977   4.683  -7.027  1.00  0.00     0.047 A 
ATOM     12  C   UNL     1       2.609   6.662  -5.941  1.00  0.00     0.009 A 
ATOM     13  C   UNL     1       1.245   4.698  -5.654  1.00  0.00     0.009 A 
BRANCH   9  14
ATOM     14  O   UNL     1       1.247   5.792  -9.195  1.00  0.00    -0.497 OA
ATOM     15  C   UNL     1       0.033   5.202  -9.649  1.00  0.00     0.278 C 
ENDBRANCH   9  14
ENDBRANCH   7   8
BRANCH   7  16
ATOM     16  C   UNL     1       1.731   7.020  -2.873  1.00  0.00     0.080 A 
ATOM     17  C   UNL     1       0.820   7.896  -3.466  1.00  0.00     0.032 A 
ATOM     18  N   UNL     1       2.143   7.231  -1.596  1.00  0.00    -0.151 NA
ATOM     19  C   UNL     1       0.290   8.941  -2.718  1.00  0.00     0.072 A 
ATOM     20  N   UNL     1       1.609   8.247  -0.852  1.00  0.00    -0.112 NA
ATOM     21  C   UNL     1       0.704   9.060  -1.417  1.00  0.00     0.230 A 
BRANCH  21  22
ATOM     22  O   UNL     1       0.158  10.001  -0.606  1.00  0.00    -0.492 OA
ATOM     23  H   UNL     1      -0.480  10.598  -0.944  1.00  0.00     0.295 HD
ENDBRANCH  21  22
ENDBRANCH   7  16
ENDBRANCH   4   7
ENDBRANCH   2   3
ENDBRANCH   1   2
BRANCH   1  24
ATOM     24  C   UNL     1      -2.664   4.998  -2.363  1.00  0.00     0.023 C 
BRANCH  24  25
ATOM     25  C   UNL     1      -3.180   5.277  -0.956  1.00  0.00     0.116 C 
BRANCH  25  26
ATOM     26  N   UNL     1      -3.099   6.663  -0.522  1.00  0.00    -0.352 N 
ATOM     27  C   UNL     1      -3.872   7.267   0.450  1.00  0.00     0.251 C 
ATOM     28  H   UNL     1      -2.425   7.227  -0.966  1.00  0.00     0.163 HD
ATOM     29  O   UNL     1      -3.748   8.456   0.719  1.00  0.00    -0.269 OA
BRANCH  27  30
ATOM     30  C   UNL     1      -4.907   6.452   1.121  1.00  0.00     0.039 A 
ATOM     31  C   UNL     1      -6.245   6.833   1.011  1.00  0.00     0.014 A 
ATOM     32  C   UNL     1      -4.559   5.243   1.728  1.00  0.00     0.014 A 
ATOM     33  C   UNL     1      -7.246   5.945   1.412  1.00  0.00     0.010 A 
ATOM     34  C   UNL     1      -5.556   4.331   2.054  1.00  0.00     0.010 A 
ATOM     35  C   UNL     1      -6.909   4.664   1.878  1.00  0.00    -0.014 A 
BRANCH  35  36
ATOM     36  C   UNL     1      -7.947   3.638   2.153  1.00  0.00     0.031 A 
ATOM     37  C   UNL     1      -8.112   3.085   3.539  1.00  0.00     0.074 A 
ATOM     38  C   UNL     1      -8.671   3.131   1.135  1.00  0.00     0.049 A 
ATOM     39  N   UNL     1      -8.875   2.106   3.954  1.00  0.00    -0.248 NA
ATOM     40  C   UNL     1      -7.280   3.688   4.592  1.00  0.00     0.031 C 
ATOM     41  C   UNL     1      -8.562   3.533  -0.270  1.00  0.00     0.029 A 
ATOM     42  N   UNL     1      -9.634   2.152   1.124  1.00  0.00    -0.354 N 
ATOM     43  C   UNL     1      -8.593   1.957   5.305  1.00  0.00     0.074 A 
ATOM     44  C   UNL     1      -7.560   2.916   5.631  1.00  0.00     0.031 C 
ATOM     45  C   UNL     1      -9.439   2.825  -1.000  1.00  0.00     0.029 A 
ATOM     46  C   UNL     1     -10.149   1.898  -0.125  1.00  0.00     0.049 A 
ATOM     47  H   UNL     1      -9.928   1.677   1.934  1.00  0.00     0.167 HD
ATOM     48  C   UNL     1      -9.158   1.112   6.199  1.00  0.00     0.037 A 
ATOM     49  C   UNL     1     -11.086   1.016  -0.519  1.00  0.00     0.037 A 
ATOM     50  C   UNL     1     -10.219   0.192   5.888  1.00  0.00     0.049 A 
ATOM     51  C   UNL     1     -11.732   0.121   0.501  1.00  0.00     0.074 A 
ATOM     52  C   UNL     1     -10.909  -0.651   6.741  1.00  0.00     0.029 A 
ATOM     53  N   UNL     1     -10.750   0.003   4.621  1.00  0.00    -0.354 N 
ATOM     54  N   UNL     1     -11.499   0.034   1.788  1.00  0.00    -0.248 NA
ATOM     55  C   UNL     1     -12.773  -0.796   0.015  1.00  0.00     0.031 C 
ATOM     56  C   UNL     1     -11.844  -1.368   5.986  1.00  0.00     0.029 A 
ATOM     57  C   UNL     1     -11.754  -0.949   4.668  1.00  0.00     0.049 A 
ATOM     58  H   UNL     1     -10.456   0.475   3.809  1.00  0.00     0.167 HD
ATOM     59  C   UNL     1     -12.378  -0.926   2.269  1.00  0.00     0.074 A 
ATOM     60  C   UNL     1     -13.156  -1.388   1.138  1.00  0.00     0.031 C 
ATOM     61  C   UNL     1     -12.526  -1.386   3.534  1.00  0.00     0.037 A 
BRANCH  48  62
ATOM     62  C   UNL     1      -8.642   1.158   7.606  1.00  0.00     0.057 A 
ATOM     63  C   UNL     1      -8.926   2.232   8.458  1.00  0.00     0.134 A 
ATOM     64  C   UNL     1      -7.865   0.112   8.118  1.00  0.00     0.134 A 
ATOM     65  F   UNL     1      -9.653   3.272   8.021  1.00  0.00    -0.206 F 
ATOM     66  C   UNL     1      -8.432   2.279   9.762  1.00  0.00     0.040 A 
ATOM     67  C   UNL     1      -7.384   0.136   9.428  1.00  0.00     0.040 A 
ATOM     68  F   UNL     1      -7.560  -0.948   7.354  1.00  0.00    -0.206 F 
ATOM     69  C   UNL     1      -7.662   1.225  10.252  1.00  0.00     0.006 A 
ENDBRANCH  48  62
BRANCH  49  70
ATOM     70  C   UNL     1     -11.500   0.957  -1.942  1.00  0.00     0.057 A 
ATOM     71  C   UNL     1     -12.740   1.462  -2.349  1.00  0.00     0.134 A 
ATOM     72  C   UNL     1     -10.678   0.392  -2.924  1.00  0.00     0.134 A 
ATOM     73  F   UNL     1     -13.577   1.999  -1.449  1.00  0.00    -0.206 F 
ATOM     74  C   UNL     1     -13.157   1.394  -3.679  1.00  0.00     0.040 A 
ATOM     75  C   UNL     1     -11.074   0.334  -4.261  1.00  0.00     0.040 A 
ATOM     76  F   UNL     1      -9.475  -0.103  -2.597  1.00  0.00    -0.206 F 
ATOM     77  C   UNL     1     -12.320   0.831  -4.640  1.00  0.00     0.006 A 
ENDBRANCH  49  70
BRANCH  61  78
ATOM     78  C   UNL     1     -13.588  -2.416   3.768  1.00  0.00     0.057 A 
ATOM     79  C   UNL     1     -13.409  -3.753   3.395  1.00  0.00     0.134 A 
ATOM     80  C   UNL     1     -14.782  -2.074   4.414  1.00  0.00     0.134 A 
ATOM     81  F   UNL     1     -12.292  -4.139   2.760  1.00  0.00    -0.206 F 
ATOM     82  C   UNL     1     -14.390  -4.715   3.645  1.00  0.00     0.040 A 
ATOM     83  C   UNL     1     -15.761  -3.030   4.687  1.00  0.00     0.040 A 
ATOM     84  F   UNL     1     -15.010  -0.810   4.801  1.00  0.00    -0.206 F 
ATOM     85  C   UNL     1     -15.567  -4.354   4.299  1.00  0.00     0.006 A 
ENDBRANCH  61  78
ENDBRANCH  35  36
ENDBRANCH  27  30
ENDBRANCH  25  26
ENDBRANCH  24  25
ENDBRANCH   1  24
TORSDOF 15
