REMARK SMILES COc1ccccc1-c1ccc(O)c(C(=O)NCCCCNC(=O)c2ccc(-c3c4nc(c(-c5c(F)cccc5F)c5ccc([nH]5)c(-c5c(F)cccc5F)c5nc(c(-c6c(F)cccc6F)c6ccc3[nH]6)C=C5)C=C4)cc2)c1
REMARK SMILES IDX 19 1 18 2 17 3 15 4 16 5 14 7 9 8 10 9 79 10 11 11 12 12
REMARK SMILES IDX 8 13 3 14 4 15 5 16 7 17 6 18 2 19 1 20 13 21 20 23 21 24
REMARK SMILES IDX 22 25 23 26 24 28 25 29 26 30 78 31 27 32 77 33 28 34 29 35
REMARK SMILES IDX 30 36 71 37 31 38 76 39 70 40 72 41 32 42 75 43 69 44 68 45
REMARK SMILES IDX 33 47 59 48 42 49 58 50 43 51 46 52 57 53 73 54 44 55 45 56
REMARK SMILES IDX 56 58 74 59 47 60 34 61 35 62 40 63 36 64 37 65 39 66 41 67
REMARK SMILES IDX 38 68 60 69 61 70 66 71 62 72 63 73 65 74 67 75 64 76 48 77
REMARK SMILES IDX 49 78 54 79 50 80 51 81 53 82 55 83 52 84
REMARK H PARENT 17 6 13 22 22 27 72 46 46 57
REMARK Flexibility Score: inf
ROOT
ATOM      1  C   UNL     1       3.281  -1.976   4.195  1.00  0.00     0.023 C 
ENDROOT
BRANCH   1   2
ATOM      2  C   UNL     1       3.069  -0.584   3.593  1.00  0.00     0.116 C 
BRANCH   2   3
ATOM      3  N   UNL     1       4.343   0.042   3.288  1.00  0.00    -0.352 N 
ATOM      4  C   UNL     1       5.111   0.089   2.151  1.00  0.00     0.255 C 
ATOM      5  O   UNL     1       6.153   0.749   2.205  1.00  0.00    -0.269 OA
ATOM      6  H   UNL     1       4.734   0.529   4.049  1.00  0.00     0.163 HD
BRANCH   4   7
ATOM      7  C   UNL     1       4.747  -0.539   0.847  1.00  0.00     0.082 A 
ATOM      8  C   UNL     1       3.346  -2.006  -0.533  1.00  0.00    -0.014 A 
ATOM      9  C   UNL     1       3.973  -1.522  -1.685  1.00  0.00     0.013 A 
ATOM     10  C   UNL     1       3.804  -1.558   0.719  1.00  0.00     0.026 A 
ATOM     11  C   UNL     1       4.993  -0.576  -1.581  1.00  0.00     0.047 A 
ATOM     12  C   UNL     1       5.361  -0.078  -0.330  1.00  0.00     0.128 A 
BRANCH   8  13
ATOM     13  C   UNL     1       2.183  -2.905  -0.588  1.00  0.00     0.024 A 
ATOM     14  C   UNL     1       0.927  -2.539  -0.051  1.00  0.00     0.126 A 
ATOM     15  C   UNL     1      -0.129  -3.454  -0.002  1.00  0.00     0.047 A 
ATOM     16  C   UNL     1       0.035  -4.737  -0.515  1.00  0.00     0.004 A 
ATOM     17  C   UNL     1       2.319  -4.201  -1.112  1.00  0.00     0.012 A 
ATOM     18  C   UNL     1       1.257  -5.109  -1.073  1.00  0.00     0.001 A 
BRANCH  14  19
ATOM     19  O   UNL     1       0.686  -1.329   0.557  1.00  0.00    -0.496 OA
ATOM     20  C   UNL     1       0.685  -0.242  -0.370  1.00  0.00     0.278 C 
ENDBRANCH  14  19
ENDBRANCH   8  13
BRANCH  12  21
ATOM     21  O   UNL     1       6.341   0.882  -0.342  1.00  0.00    -0.507 OA
ATOM     22  H   UNL     1       6.719   1.155  -1.154  1.00  0.00     0.293 HD
ENDBRANCH  12  21
ENDBRANCH   4   7
ENDBRANCH   2   3
ENDBRANCH   1   2
BRANCH   1  23
ATOM     23  C   UNL     1       3.629  -1.965   5.687  1.00  0.00     0.023 C 
BRANCH  23  24
ATOM     24  C   UNL     1       2.560  -1.360   6.588  1.00  0.00     0.116 C 
BRANCH  24  25
ATOM     25  N   UNL     1       1.260  -1.996   6.451  1.00  0.00    -0.352 N 
ATOM     26  C   UNL     1       0.264  -2.125   7.392  1.00  0.00     0.251 C 
ATOM     27  H   UNL     1       1.067  -2.387   5.569  1.00  0.00     0.163 HD
ATOM     28  O   UNL     1      -0.734  -2.784   7.152  1.00  0.00    -0.269 OA
BRANCH  26  29
ATOM     29  C   UNL     1       0.436  -1.487   8.715  1.00  0.00     0.039 A 
ATOM     30  C   UNL     1       0.161  -2.240   9.859  1.00  0.00     0.014 A 
ATOM     31  C   UNL     1       0.875  -0.166   8.828  1.00  0.00     0.014 A 
ATOM     32  C   UNL     1       0.373  -1.679  11.118  1.00  0.00     0.010 A 
ATOM     33  C   UNL     1       1.162   0.364  10.082  1.00  0.00     0.010 A 
ATOM     34  C   UNL     1       0.900  -0.382  11.240  1.00  0.00    -0.014 A 
BRANCH  34  35
ATOM     35  C   UNL     1       1.155   0.211  12.575  1.00  0.00     0.031 A 
ATOM     36  C   UNL     1       0.379   1.418  13.026  1.00  0.00     0.074 A 
ATOM     37  C   UNL     1       2.109  -0.316  13.367  1.00  0.00     0.049 A 
ATOM     38  N   UNL     1       0.458   2.077  14.154  1.00  0.00    -0.248 NA
ATOM     39  C   UNL     1      -0.594   1.976  12.073  1.00  0.00     0.031 C 
ATOM     40  C   UNL     1       2.971  -1.447  13.017  1.00  0.00     0.029 A 
ATOM     41  N   UNL     1       2.512   0.030  14.631  1.00  0.00    -0.354 N 
ATOM     42  C   UNL     1      -0.445   3.127  14.041  1.00  0.00     0.074 A 
ATOM     43  C   UNL     1      -1.011   3.058  12.712  1.00  0.00     0.031 C 
ATOM     44  C   UNL     1       3.774  -1.724  14.057  1.00  0.00     0.029 A 
ATOM     45  C   UNL     1       3.505  -0.776  15.132  1.00  0.00     0.049 A 
ATOM     46  H   UNL     1       2.126   0.785  15.132  1.00  0.00     0.167 HD
ATOM     47  C   UNL     1      -0.796   4.046  14.971  1.00  0.00     0.037 A 
ATOM     48  C   UNL     1       4.120  -0.755  16.329  1.00  0.00     0.037 A 
ATOM     49  C   UNL     1      -0.251   4.097  16.301  1.00  0.00     0.049 A 
ATOM     50  C   UNL     1       3.704   0.268  17.349  1.00  0.00     0.074 A 
ATOM     51  C   UNL     1      -0.580   4.952  17.338  1.00  0.00     0.029 A 
ATOM     52  N   UNL     1       0.741   3.252  16.778  1.00  0.00    -0.354 N 
ATOM     53  N   UNL     1       2.792   1.206  17.257  1.00  0.00    -0.248 NA
ATOM     54  C   UNL     1       4.394   0.227  18.646  1.00  0.00     0.031 C 
ATOM     55  C   UNL     1       0.241   4.651  18.430  1.00  0.00     0.029 A 
ATOM     56  C   UNL     1       1.048   3.578  18.089  1.00  0.00     0.049 A 
ATOM     57  H   UNL     1       1.164   2.529  16.261  1.00  0.00     0.167 HD
ATOM     58  C   UNL     1       2.780   1.847  18.489  1.00  0.00     0.074 A 
ATOM     59  C   UNL     1       3.762   1.178  19.317  1.00  0.00     0.031 C 
ATOM     60  C   UNL     1       2.026   2.897  18.899  1.00  0.00     0.037 A 
BRANCH  47  61
ATOM     61  C   UNL     1      -1.829   5.064  14.578  1.00  0.00     0.057 A 
ATOM     62  C   UNL     1      -3.170   4.712  14.373  1.00  0.00     0.134 A 
ATOM     63  C   UNL     1      -1.486   6.412  14.423  1.00  0.00     0.134 A 
ATOM     64  F   UNL     1      -3.564   3.434  14.491  1.00  0.00    -0.206 F 
ATOM     65  C   UNL     1      -4.125   5.657  13.998  1.00  0.00     0.040 A 
ATOM     66  C   UNL     1      -2.438   7.372  14.076  1.00  0.00     0.040 A 
ATOM     67  F   UNL     1      -0.221   6.820  14.609  1.00  0.00    -0.206 F 
ATOM     68  C   UNL     1      -3.761   6.994  13.855  1.00  0.00     0.006 A 
ENDBRANCH  47  61
BRANCH  48  69
ATOM     69  C   UNL     1       5.165  -1.761  16.648  1.00  0.00     0.057 A 
ATOM     70  C   UNL     1       4.931  -2.771  17.589  1.00  0.00     0.134 A 
ATOM     71  C   UNL     1       6.423  -1.729  16.035  1.00  0.00     0.134 A 
ATOM     72  F   UNL     1       3.751  -2.842  18.222  1.00  0.00    -0.206 F 
ATOM     73  C   UNL     1       5.917  -3.699  17.927  1.00  0.00     0.040 A 
ATOM     74  C   UNL     1       7.410  -2.666  16.345  1.00  0.00     0.040 A 
ATOM     75  F   UNL     1       6.707  -0.792  15.119  1.00  0.00    -0.206 F 
ATOM     76  C   UNL     1       7.161  -3.650  17.301  1.00  0.00     0.006 A 
ENDBRANCH  48  69
BRANCH  60  77
ATOM     77  C   UNL     1       2.216   3.362  20.313  1.00  0.00     0.057 A 
ATOM     78  C   UNL     1       3.374   4.036  20.722  1.00  0.00     0.134 A 
ATOM     79  C   UNL     1       1.217   3.151  21.272  1.00  0.00     0.134 A 
ATOM     80  F   UNL     1       4.373   4.258  19.854  1.00  0.00    -0.206 F 
ATOM     81  C   UNL     1       3.544   4.457  22.041  1.00  0.00     0.040 A 
ATOM     82  C   UNL     1       1.364   3.592  22.587  1.00  0.00     0.040 A 
ATOM     83  F   UNL     1       0.079   2.521  20.944  1.00  0.00    -0.206 F 
ATOM     84  C   UNL     1       2.534   4.240  22.977  1.00  0.00     0.006 A 
ENDBRANCH  60  77
ENDBRANCH  34  35
ENDBRANCH  26  29
ENDBRANCH  24  25
ENDBRANCH  23  24
ENDBRANCH   1  23
TORSDOF 14
