REMARK SMILES Cc1ccc(-c2c(C(=O)NCCCCNC(=O)c3ccc(-c4c5nc(c(-c6c(F)cccc6F)c6ccc([nH]6)c(-c6c(F)cccc6F)c6nc(c(-c7c(F)cccc7F)c7ccc4[nH]7)C=C6)C=C5)cc3)nnn2Cc2c(F)cccc2Cl)cc1
REMARK SMILES IDX 12 1 11 2 10 3 8 4 9 5 7 7 6 8 74 9 72 10 73 11 5 12 1 13
REMARK SMILES IDX 2 14 3 15 85 16 4 17 84 18 75 19 76 20 77 21 82 22 78 23
REMARK SMILES IDX 79 24 81 25 83 26 80 27 13 28 14 29 15 30 16 31 17 33 18 34
REMARK SMILES IDX 19 35 71 36 20 37 70 38 21 39 22 40 23 41 64 42 24 43 69 44
REMARK SMILES IDX 63 45 65 46 25 47 68 48 62 49 61 50 26 52 52 53 35 54 51 55
REMARK SMILES IDX 36 56 39 57 50 58 66 59 37 60 38 61 49 63 67 64 40 65 27 66
REMARK SMILES IDX 28 67 33 68 29 69 30 70 32 71 34 72 31 73 53 74 54 75 59 76
REMARK SMILES IDX 55 77 56 78 58 79 60 80 57 81 41 82 42 83 47 84 43 85 44 86
REMARK SMILES IDX 46 87 48 88 45 89
REMARK H PARENT 10 6 15 32 65 51 39 62
REMARK Flexibility Score: inf
ROOT
ATOM      1  C   UNL     1      -1.080   0.112   3.191  1.00  0.00     0.023 C 
ENDROOT
BRANCH   1   2
ATOM      2  C   UNL     1      -1.799  -1.150   2.704  1.00  0.00     0.116 C 
BRANCH   2   3
ATOM      3  N   UNL     1      -3.208  -1.121   2.993  1.00  0.00    -0.351 N 
ATOM      4  C   UNL     1      -4.327  -0.801   2.271  1.00  0.00     0.274 C 
ATOM      5  O   UNL     1      -5.373  -1.009   2.900  1.00  0.00    -0.267 OA
ATOM      6  H   UNL     1      -3.414  -1.392   3.917  1.00  0.00     0.163 HD
BRANCH   4   7
ATOM      7  C   UNL     1      -4.386  -0.285   0.895  1.00  0.00     0.178 A 
ATOM      8  C   UNL     1      -3.495   0.179  -0.081  1.00  0.00     0.102 A 
ATOM      9  N   UNL     1      -4.321   0.442  -1.165  1.00  0.00    -0.239 N 
ATOM     10  N   UNL     1      -5.670  -0.163   0.376  1.00  0.00    -0.124 NA
ATOM     11  N   UNL     1      -5.614   0.313  -0.848  1.00  0.00    -0.066 NA
BRANCH   8  12
ATOM     12  C   UNL     1      -2.060   0.418  -0.163  1.00  0.00     0.002 A 
ATOM     13  C   UNL     1       2.190   1.129  -0.354  1.00  0.00     0.044 C 
ATOM     14  C   UNL     1       0.708   0.902  -0.344  1.00  0.00    -0.051 A 
ATOM     15  C   UNL     1       0.192  -0.364  -0.636  1.00  0.00     0.004 A 
ATOM     16  C   UNL     1      -0.172   1.931   0.012  1.00  0.00     0.004 A 
ATOM     17  C   UNL     1      -1.183  -0.598  -0.566  1.00  0.00     0.011 A 
ATOM     18  C   UNL     1      -1.546   1.691   0.099  1.00  0.00     0.011 A 
ENDBRANCH   8  12
BRANCH   9  19
ATOM     19  C   UNL     1      -4.001   0.918  -2.507  1.00  0.00     0.187 C 
BRANCH  19  20
ATOM     20  C   UNL     1      -3.062   0.059  -3.318  1.00  0.00     0.028 A 
ATOM     21  C   UNL     1      -2.164   0.732  -4.162  1.00  0.00     0.129 A 
ATOM     22  C   UNL     1      -3.049  -1.343  -3.364  1.00  0.00     0.049 A 
ATOM     23  F   UNL     1      -2.196   2.071  -4.228  1.00  0.00    -0.207 F 
ATOM     24  C   UNL     1      -1.239   0.060  -4.957  1.00  0.00     0.040 A 
ATOM     25  C   UNL     1      -2.095  -2.026  -4.135  1.00  0.00     0.021 A 
ATOM     26  Cl  UNL     1      -4.179  -2.332  -2.512  1.00  0.00    -0.084 Cl
ATOM     27  C   UNL     1      -1.187  -1.327  -4.926  1.00  0.00     0.005 A 
ENDBRANCH  19  20
ENDBRANCH   9  19
ENDBRANCH   4   7
ENDBRANCH   2   3
ENDBRANCH   1   2
BRANCH   1  28
ATOM     28  C   UNL     1      -0.637   0.045   4.656  1.00  0.00     0.023 C 
BRANCH  28  29
ATOM     29  C   UNL     1       0.499  -0.947   4.901  1.00  0.00     0.116 C 
BRANCH  29  30
ATOM     30  N   UNL     1       1.827  -0.467   4.582  1.00  0.00    -0.352 N 
ATOM     31  C   UNL     1       3.038  -1.162   4.489  1.00  0.00     0.251 C 
ATOM     32  H   UNL     1       1.887   0.499   4.401  1.00  0.00     0.163 HD
ATOM     33  O   UNL     1       4.063  -0.538   4.293  1.00  0.00    -0.269 OA
BRANCH  31  34
ATOM     34  C   UNL     1       3.060  -2.655   4.473  1.00  0.00     0.039 A 
ATOM     35  C   UNL     1       4.005  -3.278   3.645  1.00  0.00     0.014 A 
ATOM     36  C   UNL     1       2.069  -3.426   5.065  1.00  0.00     0.014 A 
ATOM     37  C   UNL     1       3.780  -4.580   3.193  1.00  0.00     0.010 A 
ATOM     38  C   UNL     1       1.773  -4.666   4.533  1.00  0.00     0.010 A 
ATOM     39  C   UNL     1       2.587  -5.211   3.539  1.00  0.00    -0.014 A 
BRANCH  39  40
ATOM     40  C   UNL     1       2.018  -6.320   2.781  1.00  0.00     0.031 A 
ATOM     41  C   UNL     1       1.888  -7.673   3.358  1.00  0.00     0.074 A 
ATOM     42  C   UNL     1       1.466  -6.057   1.575  1.00  0.00     0.049 A 
ATOM     43  N   UNL     1       1.810  -8.750   2.649  1.00  0.00    -0.248 NA
ATOM     44  C   UNL     1       1.856  -7.923   4.795  1.00  0.00     0.031 C 
ATOM     45  C   UNL     1       0.550  -6.899   0.810  1.00  0.00     0.029 A 
ATOM     46  N   UNL     1       1.776  -5.004   0.704  1.00  0.00    -0.354 N 
ATOM     47  C   UNL     1       1.444  -9.773   3.491  1.00  0.00     0.074 A 
ATOM     48  C   UNL     1       1.546  -9.223   4.825  1.00  0.00     0.031 C 
ATOM     49  C   UNL     1       0.565  -6.504  -0.473  1.00  0.00     0.029 A 
ATOM     50  C   UNL     1       1.618  -5.512  -0.602  1.00  0.00     0.049 A 
ATOM     51  H   UNL     1       2.050  -4.092   0.954  1.00  0.00     0.167 HD
ATOM     52  C   UNL     1       0.951 -10.937   2.980  1.00  0.00     0.037 A 
ATOM     53  C   UNL     1       2.671  -5.604  -1.466  1.00  0.00     0.037 A 
ATOM     54  C   UNL     1       0.890 -10.907   1.525  1.00  0.00     0.049 A 
ATOM     55  C   UNL     1       2.932  -7.000  -1.977  1.00  0.00     0.074 A 
ATOM     56  C   UNL     1      -0.139 -10.604   0.648  1.00  0.00     0.029 A 
ATOM     57  N   UNL     1       2.061 -10.898   0.777  1.00  0.00    -0.354 N 
ATOM     58  N   UNL     1       2.516  -8.080  -1.379  1.00  0.00    -0.248 NA
ATOM     59  C   UNL     1       3.736  -7.289  -3.162  1.00  0.00     0.031 C 
ATOM     60  C   UNL     1       0.421 -10.377  -0.629  1.00  0.00     0.029 A 
ATOM     61  C   UNL     1       1.790 -10.549  -0.533  1.00  0.00     0.049 A 
ATOM     62  H   UNL     1       2.955 -11.111   1.129  1.00  0.00     0.167 HD
ATOM     63  C   UNL     1       3.035  -9.178  -2.013  1.00  0.00     0.074 A 
ATOM     64  C   UNL     1       3.758  -8.633  -3.146  1.00  0.00     0.031 C 
ATOM     65  C   UNL     1       2.853 -10.437  -1.520  1.00  0.00     0.037 A 
BRANCH  52  66
ATOM     66  C   UNL     1       0.237 -11.955   3.834  1.00  0.00     0.057 A 
ATOM     67  C   UNL     1      -0.908 -12.630   3.370  1.00  0.00     0.134 A 
ATOM     68  C   UNL     1       0.615 -12.275   5.148  1.00  0.00     0.134 A 
ATOM     69  F   UNL     1      -1.340 -12.505   2.109  1.00  0.00    -0.206 F 
ATOM     70  C   UNL     1      -1.682 -13.463   4.185  1.00  0.00     0.040 A 
ATOM     71  C   UNL     1      -0.176 -13.069   5.992  1.00  0.00     0.040 A 
ATOM     72  F   UNL     1       1.780 -11.848   5.659  1.00  0.00    -0.206 F 
ATOM     73  C   UNL     1      -1.340 -13.655   5.515  1.00  0.00     0.006 A 
ENDBRANCH  52  66
BRANCH  53  74
ATOM     74  C   UNL     1       3.752  -4.618  -1.197  1.00  0.00     0.057 A 
ATOM     75  C   UNL     1       3.468  -3.247  -1.299  1.00  0.00     0.134 A 
ATOM     76  C   UNL     1       4.918  -4.979  -0.516  1.00  0.00     0.134 A 
ATOM     77  F   UNL     1       2.365  -2.832  -1.945  1.00  0.00    -0.206 F 
ATOM     78  C   UNL     1       4.243  -2.286  -0.648  1.00  0.00     0.040 A 
ATOM     79  C   UNL     1       5.712  -4.022   0.126  1.00  0.00     0.040 A 
ATOM     80  F   UNL     1       5.254  -6.269  -0.369  1.00  0.00    -0.206 F 
ATOM     81  C   UNL     1       5.353  -2.677   0.094  1.00  0.00     0.006 A 
ENDBRANCH  53  74
BRANCH  65  82
ATOM     82  C   UNL     1       3.586 -11.677  -1.963  1.00  0.00     0.057 A 
ATOM     83  C   UNL     1       4.882 -11.678  -2.502  1.00  0.00     0.134 A 
ATOM     84  C   UNL     1       3.043 -12.957  -1.712  1.00  0.00     0.134 A 
ATOM     85  F   UNL     1       5.567 -10.542  -2.687  1.00  0.00    -0.206 F 
ATOM     86  C   UNL     1       5.563 -12.860  -2.822  1.00  0.00     0.040 A 
ATOM     87  C   UNL     1       3.734 -14.143  -1.978  1.00  0.00     0.040 A 
ATOM     88  F   UNL     1       1.825 -13.112  -1.172  1.00  0.00    -0.206 F 
ATOM     89  C   UNL     1       4.995 -14.098  -2.550  1.00  0.00     0.006 A 
ENDBRANCH  65  82
ENDBRANCH  39  40
ENDBRANCH  31  34
ENDBRANCH  29  30
ENDBRANCH  28  29
ENDBRANCH   1  28
TORSDOF 14
