REMARK SMILES COc1ccc(Cl)cc1C[NH2+]CCC(=O)NCCCCNC(=O)c1ccc(-c2c3nc(c(-c4c(F)cccc4F)c4ccc([nH]4)c(-c4c(F)cccc4F)c4nc(c(-c5c(F)cccc5F)c5ccc2[nH]5)C=C4)C=C3)cc1
REMARK SMILES IDX 17 1 16 2 14 3 15 4 13 6 12 7 11 8 10 11 9 12 3 13 4 14 5 15
REMARK SMILES IDX 8 16 6 17 7 18 2 19 1 20 18 21 19 22 20 23 21 24 22 25 23 27
REMARK SMILES IDX 24 28 25 29 77 30 26 31 76 32 27 33 28 34 29 35 70 36 30 37
REMARK SMILES IDX 75 38 69 39 71 40 31 41 74 42 68 43 67 44 32 46 58 47 41 48
REMARK SMILES IDX 57 49 42 50 45 51 56 52 72 53 43 54 44 55 55 57 73 58 46 59
REMARK SMILES IDX 33 60 34 61 39 62 35 63 36 64 38 65 40 66 37 67 59 68 60 69
REMARK SMILES IDX 65 70 61 71 62 72 64 73 66 74 63 75 47 76 48 77 53 78 49 79
REMARK SMILES IDX 50 80 52 81 54 82 51 83
REMARK H PARENT 16 5 11 9 11 10 21 26 71 45 45 56
REMARK Flexibility Score: inf
ROOT
ATOM      1  C   UNL     1      -1.476  -1.554  -1.411  1.00  0.00     0.116 C 
ENDROOT
BRANCH   1   2
ATOM      2  N   UNL     1      -2.870  -1.295  -1.711  1.00  0.00    -0.356 N 
ATOM      3  C   UNL     1      -3.941  -1.246  -0.869  1.00  0.00     0.225 C 
ATOM      4  O   UNL     1      -5.062  -1.094  -1.358  1.00  0.00    -0.275 OA
ATOM      5  H   UNL     1      -3.073  -1.131  -2.660  1.00  0.00     0.163 HD
BRANCH   3   6
ATOM      6  C   UNL     1      -3.751  -1.349   0.630  1.00  0.00     0.161 C 
BRANCH   6   7
ATOM      7  C   UNL     1      -3.813  -2.785   1.165  1.00  0.00     0.270 C 
BRANCH   7   8
ATOM      8  N   UNL     1      -2.543  -3.513   1.238  1.00  0.00    -0.342 N 
ATOM      9  H   UNL     1      -2.745  -4.486   1.468  1.00  0.00     0.346 HD
ATOM     10  H   UNL     1      -2.091  -3.406   0.330  1.00  0.00     0.346 HD
BRANCH   8  11
ATOM     11  C   UNL     1      -1.606  -2.990   2.238  1.00  0.00     0.301 C 
BRANCH  11  12
ATOM     12  C   UNL     1      -0.173  -3.368   1.905  1.00  0.00     0.050 A 
ATOM     13  C   UNL     1       0.823  -2.399   1.658  1.00  0.00     0.127 A 
ATOM     14  C   UNL     1       2.132  -2.805   1.375  1.00  0.00     0.048 A 
ATOM     15  C   UNL     1       2.452  -4.162   1.295  1.00  0.00     0.024 A 
ATOM     16  C   UNL     1       0.168  -4.732   1.816  1.00  0.00     0.034 A 
ATOM     17  C   UNL     1       1.468  -5.121   1.503  1.00  0.00     0.041 A 
ATOM     18  Cl  UNL     1       1.855  -6.790   1.359  1.00  0.00    -0.084 Cl
BRANCH  13  19
ATOM     19  O   UNL     1       0.437  -1.085   1.726  1.00  0.00    -0.496 OA
ATOM     20  C   UNL     1       1.236  -0.149   1.008  1.00  0.00     0.278 C 
ENDBRANCH  13  19
ENDBRANCH  11  12
ENDBRANCH   8  11
ENDBRANCH   7   8
ENDBRANCH   6   7
ENDBRANCH   3   6
ENDBRANCH   1   2
BRANCH   1  21
ATOM     21  C   UNL     1      -1.085  -2.976  -1.823  1.00  0.00     0.023 C 
BRANCH  21  22
ATOM     22  C   UNL     1      -0.354  -3.072  -3.159  1.00  0.00     0.023 C 
BRANCH  22  23
ATOM     23  C   UNL     1       1.035  -2.444  -3.157  1.00  0.00     0.116 C 
BRANCH  23  24
ATOM     24  N   UNL     1       1.969  -3.054  -2.218  1.00  0.00    -0.352 N 
ATOM     25  C   UNL     1       3.346  -3.066  -2.295  1.00  0.00     0.251 C 
ATOM     26  H   UNL     1       1.571  -3.510  -1.441  1.00  0.00     0.163 HD
ATOM     27  O   UNL     1       4.037  -3.634  -1.465  1.00  0.00    -0.269 OA
BRANCH  25  28
ATOM     28  C   UNL     1       3.974  -2.410  -3.456  1.00  0.00     0.039 A 
ATOM     29  C   UNL     1       4.740  -3.187  -4.327  1.00  0.00     0.014 A 
ATOM     30  C   UNL     1       3.679  -1.077  -3.746  1.00  0.00     0.014 A 
ATOM     31  C   UNL     1       5.119  -2.655  -5.558  1.00  0.00     0.010 A 
ATOM     32  C   UNL     1       3.999  -0.572  -4.998  1.00  0.00     0.010 A 
ATOM     33  C   UNL     1       4.695  -1.368  -5.923  1.00  0.00    -0.014 A 
BRANCH  33  34
ATOM     34  C   UNL     1       4.907  -0.843  -7.292  1.00  0.00     0.031 A 
ATOM     35  C   UNL     1       5.770   0.362  -7.502  1.00  0.00     0.074 A 
ATOM     36  C   UNL     1       4.214  -1.379  -8.316  1.00  0.00     0.049 A 
ATOM     37  N   UNL     1       5.952   1.068  -8.587  1.00  0.00    -0.248 NA
ATOM     38  C   UNL     1       6.496   0.863  -6.324  1.00  0.00     0.031 C 
ATOM     39  C   UNL     1       3.294  -2.514  -8.216  1.00  0.00     0.029 A 
ATOM     40  N   UNL     1       4.156  -1.020  -9.638  1.00  0.00    -0.354 N 
ATOM     41  C   UNL     1       6.785   2.114  -8.217  1.00  0.00     0.074 A 
ATOM     42  C   UNL     1       7.048   1.970  -6.801  1.00  0.00     0.031 C 
ATOM     43  C   UNL     1       2.768  -2.762  -9.427  1.00  0.00     0.029 A 
ATOM     44  C   UNL     1       3.285  -1.784 -10.377  1.00  0.00     0.049 A 
ATOM     45  H   UNL     1       4.687  -0.284 -10.021  1.00  0.00     0.167 HD
ATOM     46  C   UNL     1       7.292   3.099  -8.994  1.00  0.00     0.037 A 
ATOM     47  C   UNL     1       2.933  -1.694 -11.673  1.00  0.00     0.037 A 
ATOM     48  C   UNL     1       7.059   3.211 -10.408  1.00  0.00     0.049 A 
ATOM     49  C   UNL     1       3.548  -0.621 -12.525  1.00  0.00     0.074 A 
ATOM     50  C   UNL     1       7.593   4.124 -11.301  1.00  0.00     0.029 A 
ATOM     51  N   UNL     1       6.224   2.377 -11.136  1.00  0.00    -0.354 N 
ATOM     52  N   UNL     1       4.388   0.324 -12.178  1.00  0.00    -0.248 NA
ATOM     53  C   UNL     1       3.172  -0.602 -13.945  1.00  0.00     0.031 C 
ATOM     54  C   UNL     1       7.059   3.857 -12.567  1.00  0.00     0.029 A 
ATOM     55  C   UNL     1       6.218   2.760 -12.466  1.00  0.00     0.049 A 
ATOM     56  H   UNL     1       5.712   1.623 -10.763  1.00  0.00     0.167 HD
ATOM     57  C   UNL     1       4.657   1.037 -13.338  1.00  0.00     0.074 A 
ATOM     58  C   UNL     1       3.897   0.410 -14.401  1.00  0.00     0.031 C 
ATOM     59  C   UNL     1       5.462   2.113 -13.507  1.00  0.00     0.037 A 
BRANCH  46  60
ATOM     60  C   UNL     1       8.148   4.129  -8.322  1.00  0.00     0.057 A 
ATOM     61  C   UNL     1       9.443   3.836  -7.876  1.00  0.00     0.134 A 
ATOM     62  C   UNL     1       7.674   5.432  -8.125  1.00  0.00     0.134 A 
ATOM     63  F   UNL     1       9.947   2.600  -8.019  1.00  0.00    -0.206 F 
ATOM     64  C   UNL     1      10.227   4.794  -7.233  1.00  0.00     0.040 A 
ATOM     65  C   UNL     1       8.458   6.406  -7.505  1.00  0.00     0.040 A 
ATOM     66  F   UNL     1       6.443   5.778  -8.530  1.00  0.00    -0.206 F 
ATOM     67  C   UNL     1       9.736   6.086  -7.051  1.00  0.00     0.006 A 
ENDBRANCH  46  60
BRANCH  47  68
ATOM     68  C   UNL     1       1.967  -2.663 -12.244  1.00  0.00     0.057 A 
ATOM     69  C   UNL     1       2.395  -3.689 -13.093  1.00  0.00     0.134 A 
ATOM     70  C   UNL     1       0.602  -2.599 -11.942  1.00  0.00     0.134 A 
ATOM     71  F   UNL     1       3.689  -3.790 -13.429  1.00  0.00    -0.206 F 
ATOM     72  C   UNL     1       1.498  -4.612 -13.632  1.00  0.00     0.040 A 
ATOM     73  C   UNL     1      -0.304  -3.527 -12.460  1.00  0.00     0.040 A 
ATOM     74  F   UNL     1       0.132  -1.644 -11.125  1.00  0.00    -0.206 F 
ATOM     75  C   UNL     1       0.144  -4.535 -13.311  1.00  0.00     0.006 A 
ENDBRANCH  47  68
BRANCH  59  76
ATOM     76  C   UNL     1       5.586   2.662 -14.895  1.00  0.00     0.057 A 
ATOM     77  C   UNL     1       4.583   3.456 -15.462  1.00  0.00     0.134 A 
ATOM     78  C   UNL     1       6.747   2.441 -15.646  1.00  0.00     0.134 A 
ATOM     79  F   UNL     1       3.444   3.692 -14.794  1.00  0.00    -0.206 F 
ATOM     80  C   UNL     1       4.728   4.007 -16.735  1.00  0.00     0.040 A 
ATOM     81  C   UNL     1       6.910   3.001 -16.913  1.00  0.00     0.040 A 
ATOM     82  F   UNL     1       7.745   1.692 -15.153  1.00  0.00    -0.206 F 
ATOM     83  C   UNL     1       5.898   3.786 -17.461  1.00  0.00     0.006 A 
ENDBRANCH  59  76
ENDBRANCH  33  34
ENDBRANCH  25  28
ENDBRANCH  23  24
ENDBRANCH  22  23
ENDBRANCH  21  22
ENDBRANCH   1  21
TORSDOF 16
