REMARK SMILES COc1cc2cc(C(=O)NCCCCNC(=O)c3ccc(-c4c5nc(c(-c6c(F)cccc6F)c6ccc([nH]6)c(-c6c(F)cccc6F)c6nc(c(-c7c(F)cccc7F)c7ccc4[nH]7)C=C6)C=C5)cc3)n(Cc3ccccc3)c2c(OC)c1OC
REMARK SMILES IDX 12 1 11 2 10 3 8 4 9 5 7 7 3 8 4 9 84 10 5 11 81 12 6 13
REMARK SMILES IDX 80 14 72 15 2 16 1 17 85 18 86 19 82 20 83 21 73 22 74 23
REMARK SMILES IDX 75 24 79 25 76 26 78 27 77 28 13 29 14 30 15 31 16 32 17 34
REMARK SMILES IDX 18 35 19 36 71 37 20 38 70 39 21 40 22 41 23 42 64 43 24 44
REMARK SMILES IDX 69 45 63 46 65 47 25 48 68 49 62 50 61 51 26 53 52 54 35 55
REMARK SMILES IDX 51 56 36 57 39 58 50 59 66 60 37 61 38 62 49 64 67 65 40 66
REMARK SMILES IDX 27 67 28 68 33 69 29 70 30 71 32 72 34 73 31 74 53 75 54 76
REMARK SMILES IDX 59 77 55 78 56 79 58 80 60 81 57 82 41 83 42 84 47 85 43 86
REMARK SMILES IDX 44 87 46 88 48 89 45 90
REMARK H PARENT 10 6 15 33 65 52 39 63
REMARK Flexibility Score: inf
ROOT
ATOM      1  C   UNL     1       3.066   2.968  -9.704  1.00  0.00     0.023 C 
ENDROOT
BRANCH   1   2
ATOM      2  C   UNL     1       2.120   3.659  -8.720  1.00  0.00     0.116 C 
BRANCH   2   3
ATOM      3  N   UNL     1       0.807   3.052  -8.737  1.00  0.00    -0.351 N 
ATOM      4  C   UNL     1       0.076   2.296  -7.864  1.00  0.00     0.267 C 
ATOM      5  O   UNL     1      -1.093   2.124  -8.235  1.00  0.00    -0.268 OA
ATOM      6  H   UNL     1       0.325   3.224  -9.578  1.00  0.00     0.163 HD
BRANCH   4   7
ATOM      7  C   UNL     1       0.529   1.736  -6.592  1.00  0.00     0.108 A 
ATOM      8  C   UNL     1       0.855   0.057  -2.258  1.00  0.00     0.165 A 
ATOM      9  C   UNL     1      -0.104   0.274  -3.255  1.00  0.00     0.061 A 
ATOM     10  C   UNL     1       2.211   0.364  -2.460  1.00  0.00     0.205 A 
ATOM     11  C   UNL     1       0.301   0.818  -4.484  1.00  0.00     0.008 A 
ATOM     12  C   UNL     1       2.630   0.923  -3.692  1.00  0.00     0.189 A 
ATOM     13  C   UNL     1      -0.382   1.272  -5.636  1.00  0.00     0.042 A 
ATOM     14  C   UNL     1       1.648   1.059  -4.712  1.00  0.00     0.096 A 
ATOM     15  N   UNL     1       1.761   1.329  -6.089  1.00  0.00    -0.329 N 
BRANCH   8  16
ATOM     16  O   UNL     1       0.394  -0.484  -1.081  1.00  0.00    -0.493 OA
ATOM     17  C   UNL     1       0.228   0.531  -0.091  1.00  0.00     0.278 C 
ENDBRANCH   8  16
BRANCH  10  18
ATOM     18  O   UNL     1       3.142   0.233  -1.456  1.00  0.00    -0.490 OA
ATOM     19  C   UNL     1       3.127  -1.003  -0.744  1.00  0.00     0.278 C 
ENDBRANCH  10  18
BRANCH  12  20
ATOM     20  O   UNL     1       3.873   1.407  -3.996  1.00  0.00    -0.491 OA
ATOM     21  C   UNL     1       4.986   1.028  -3.204  1.00  0.00     0.278 C 
ENDBRANCH  12  20
BRANCH  15  22
ATOM     22  C   UNL     1       3.018   1.056  -6.787  1.00  0.00     0.158 C 
BRANCH  22  23
ATOM     23  C   UNL     1       3.036   0.122  -7.977  1.00  0.00    -0.028 A 
ATOM     24  C   UNL     1       1.922  -0.344  -8.683  1.00  0.00     0.005 A 
ATOM     25  C   UNL     1       4.316  -0.217  -8.467  1.00  0.00     0.005 A 
ATOM     26  C   UNL     1       2.082  -1.023  -9.895  1.00  0.00     0.000 A 
ATOM     27  C   UNL     1       4.475  -0.924  -9.658  1.00  0.00     0.000 A 
ATOM     28  C   UNL     1       3.354  -1.302 -10.387  1.00  0.00     0.000 A 
ENDBRANCH  22  23
ENDBRANCH  15  22
ENDBRANCH   4   7
ENDBRANCH   2   3
ENDBRANCH   1   2
BRANCH   1  29
ATOM     29  C   UNL     1       3.019   3.440 -11.160  1.00  0.00     0.023 C 
BRANCH  29  30
ATOM     30  C   UNL     1       3.534   4.858 -11.398  1.00  0.00     0.116 C 
BRANCH  30  31
ATOM     31  N   UNL     1       4.834   5.105 -10.806  1.00  0.00    -0.352 N 
ATOM     32  C   UNL     1       6.125   5.033 -11.242  1.00  0.00     0.251 C 
ATOM     33  H   UNL     1       4.771   5.392  -9.867  1.00  0.00     0.163 HD
ATOM     34  O   UNL     1       6.983   5.460 -10.457  1.00  0.00    -0.269 OA
BRANCH  32  35
ATOM     35  C   UNL     1       6.582   4.449 -12.530  1.00  0.00     0.039 A 
ATOM     36  C   UNL     1       5.788   3.710 -13.404  1.00  0.00     0.014 A 
ATOM     37  C   UNL     1       7.958   4.575 -12.816  1.00  0.00     0.014 A 
ATOM     38  C   UNL     1       6.370   3.031 -14.469  1.00  0.00     0.010 A 
ATOM     39  C   UNL     1       8.541   3.914 -13.893  1.00  0.00     0.010 A 
ATOM     40  C   UNL     1       7.752   3.098 -14.690  1.00  0.00    -0.014 A 
BRANCH  40  41
ATOM     41  C   UNL     1       8.284   2.370 -15.841  1.00  0.00     0.031 A 
ATOM     42  C   UNL     1       7.652   2.747 -17.136  1.00  0.00     0.074 A 
ATOM     43  C   UNL     1       9.282   1.464 -15.794  1.00  0.00     0.049 A 
ATOM     44  N   UNL     1       6.875   2.024 -17.874  1.00  0.00    -0.248 NA
ATOM     45  C   UNL     1       7.777   4.142 -17.584  1.00  0.00     0.031 C 
ATOM     46  C   UNL     1      10.188   1.154 -14.687  1.00  0.00     0.029 A 
ATOM     47  N   UNL     1       9.738   0.654 -16.793  1.00  0.00    -0.354 N 
ATOM     48  C   UNL     1       6.550   2.808 -18.978  1.00  0.00     0.074 A 
ATOM     49  C   UNL     1       7.010   4.139 -18.676  1.00  0.00     0.031 C 
ATOM     50  C   UNL     1      11.210   0.392 -15.143  1.00  0.00     0.029 A 
ATOM     51  C   UNL     1      10.957   0.041 -16.531  1.00  0.00     0.049 A 
ATOM     52  H   UNL     1       9.243   0.515 -17.633  1.00  0.00     0.167 HD
ATOM     53  C   UNL     1       6.118   2.244 -20.139  1.00  0.00     0.037 A 
ATOM     54  C   UNL     1      11.717  -0.665 -17.407  1.00  0.00     0.037 A 
ATOM     55  C   UNL     1       5.630   0.906 -19.917  1.00  0.00     0.049 A 
ATOM     56  C   UNL     1      10.845  -1.092 -18.527  1.00  0.00     0.074 A 
ATOM     57  C   UNL     1       4.616   0.344 -19.164  1.00  0.00     0.029 A 
ATOM     58  N   UNL     1       6.446  -0.140 -20.269  1.00  0.00    -0.354 N 
ATOM     59  N   UNL     1       9.918  -2.001 -18.419  1.00  0.00    -0.248 NA
ATOM     60  C   UNL     1      10.704  -0.190 -19.659  1.00  0.00     0.031 C 
ATOM     61  C   UNL     1       5.148  -0.894 -18.694  1.00  0.00     0.029 A 
ATOM     62  C   UNL     1       6.425  -1.038 -19.235  1.00  0.00     0.049 A 
ATOM     63  H   UNL     1       6.952  -0.229 -21.109  1.00  0.00     0.167 HD
ATOM     64  C   UNL     1       8.859  -1.510 -19.166  1.00  0.00     0.074 A 
ATOM     65  C   UNL     1       9.432  -0.440 -19.981  1.00  0.00     0.031 C 
ATOM     66  C   UNL     1       7.569  -1.824 -18.848  1.00  0.00     0.037 A 
BRANCH  53  67
ATOM     67  C   UNL     1       6.521   2.727 -21.516  1.00  0.00     0.057 A 
ATOM     68  C   UNL     1       7.624   3.566 -21.772  1.00  0.00     0.134 A 
ATOM     69  C   UNL     1       6.008   2.059 -22.645  1.00  0.00     0.134 A 
ATOM     70  F   UNL     1       8.246   4.258 -20.812  1.00  0.00    -0.206 F 
ATOM     71  C   UNL     1       8.224   3.665 -23.030  1.00  0.00     0.040 A 
ATOM     72  C   UNL     1       6.629   2.116 -23.899  1.00  0.00     0.040 A 
ATOM     73  F   UNL     1       4.944   1.248 -22.543  1.00  0.00    -0.206 F 
ATOM     74  C   UNL     1       7.756   2.904 -24.089  1.00  0.00     0.006 A 
ENDBRANCH  53  67
BRANCH  54  75
ATOM     75  C   UNL     1      13.192  -0.765 -17.495  1.00  0.00     0.057 A 
ATOM     76  C   UNL     1      14.015   0.299 -17.090  1.00  0.00     0.134 A 
ATOM     77  C   UNL     1      13.816  -1.776 -18.242  1.00  0.00     0.134 A 
ATOM     78  F   UNL     1      13.508   1.355 -16.439  1.00  0.00    -0.206 F 
ATOM     79  C   UNL     1      15.372   0.367 -17.424  1.00  0.00     0.040 A 
ATOM     80  C   UNL     1      15.174  -1.718 -18.588  1.00  0.00     0.040 A 
ATOM     81  F   UNL     1      13.108  -2.812 -18.713  1.00  0.00    -0.206 F 
ATOM     82  C   UNL     1      15.954  -0.637 -18.188  1.00  0.00     0.006 A 
ENDBRANCH  54  75
BRANCH  66  83
ATOM     83  C   UNL     1       7.348  -2.921 -17.845  1.00  0.00     0.057 A 
ATOM     84  C   UNL     1       6.554  -4.014 -18.209  1.00  0.00     0.134 A 
ATOM     85  C   UNL     1       7.806  -2.885 -16.519  1.00  0.00     0.134 A 
ATOM     86  F   UNL     1       6.029  -4.087 -19.443  1.00  0.00    -0.206 F 
ATOM     87  C   UNL     1       6.252  -5.038 -17.311  1.00  0.00     0.040 A 
ATOM     88  C   UNL     1       7.543  -3.923 -15.620  1.00  0.00     0.040 A 
ATOM     89  F   UNL     1       8.480  -1.829 -16.044  1.00  0.00    -0.206 F 
ATOM     90  C   UNL     1       6.761  -5.005 -16.016  1.00  0.00     0.006 A 
ENDBRANCH  66  83
ENDBRANCH  40  41
ENDBRANCH  32  35
ENDBRANCH  30  31
ENDBRANCH  29  30
ENDBRANCH   1  29
TORSDOF 16
