REMARK SMILES Cc1ccc(NC(=O)C[N@H+]2CCC[C@@H](C(=O)NCCCCNC(=O)c3ccc(-c4c5nc(c(-c6c(F)cccc6F)c6ccc([nH]6)c(-c6c(F)cccc6F)c6nc(c(-c7c(F)cccc7F)c7ccc4[nH]7)C=C6)C=C5)cc3)C2)cc1F
REMARK SMILES IDX 19 1 18 2 17 3 15 4 16 5 14 7 10 8 11 9 79 10 12 12 13 13
REMARK SMILES IDX 9 14 7 15 6 16 8 18 5 19 1 20 2 21 3 22 81 23 4 24 80 25
REMARK SMILES IDX 82 26 20 27 21 28 22 29 23 30 24 32 25 33 26 34 78 35 27 36
REMARK SMILES IDX 77 37 28 38 29 39 30 40 71 41 31 42 76 43 70 44 72 45 32 46
REMARK SMILES IDX 75 47 69 48 68 49 33 51 59 52 42 53 58 54 43 55 46 56 57 57
REMARK SMILES IDX 73 58 44 59 45 60 56 62 74 63 47 64 34 65 35 66 40 67 36 68
REMARK SMILES IDX 37 69 39 70 41 71 38 72 60 73 61 74 66 75 62 76 63 77 65 78
REMARK SMILES IDX 67 79 64 80 48 81 49 82 54 83 50 84 51 85 53 86 55 87 52 88
REMARK H PARENT 17 6 10 11 6 17 22 31 72 50 46 61
REMARK Flexibility Score: inf
ROOT
ATOM      1  C   UNL     1       1.358   1.860  -2.351  1.00  0.00     0.023 C 
ENDROOT
BRANCH   1   2
ATOM      2  C   UNL     1       0.151   0.959  -2.054  1.00  0.00     0.116 C 
BRANCH   2   3
ATOM      3  N   UNL     1      -0.725   0.779  -3.198  1.00  0.00    -0.356 N 
ATOM      4  C   UNL     1      -1.173  -0.373  -3.787  1.00  0.00     0.228 C 
ATOM      5  O   UNL     1      -1.994  -0.265  -4.699  1.00  0.00    -0.275 OA
ATOM      6  H   UNL     1      -1.046   1.612  -3.613  1.00  0.00     0.163 HD
BRANCH   4   7
ATOM      7  C   UNL     1      -0.682  -1.733  -3.296  1.00  0.00     0.133 C 
ATOM      8  N   UNL     1      -1.094  -3.497  -1.564  1.00  0.00    -0.326 N 
ATOM      9  C   UNL     1      -1.071  -4.535  -2.616  1.00  0.00     0.262 C 
ATOM     10  C   UNL     1      -1.546  -2.205  -2.113  1.00  0.00     0.276 C 
ATOM     11  H   UNL     1      -0.159  -3.290  -1.213  1.00  0.00     0.348 HD
ATOM     12  C   UNL     1      -0.269  -4.128  -3.852  1.00  0.00     0.062 C 
ATOM     13  C   UNL     1      -0.742  -2.788  -4.403  1.00  0.00     0.025 C 
BRANCH   8  14
ATOM     14  C   UNL     1      -1.865  -4.025  -0.396  1.00  0.00     0.363 C 
BRANCH  14  15
ATOM     15  C   UNL     1      -2.931  -3.115   0.215  1.00  0.00     0.279 C 
ATOM     16  N   UNL     1      -2.655  -1.956   0.884  1.00  0.00    -0.321 N 
ATOM     17  H   UNL     1      -3.455  -1.483   1.207  1.00  0.00     0.170 HD
ATOM     18  O   UNL     1      -4.128  -3.404   0.080  1.00  0.00    -0.268 OA
BRANCH  16  19
ATOM     19  C   UNL     1      -1.449  -1.312   1.201  1.00  0.00     0.044 A 
ATOM     20  C   UNL     1       2.201   0.950   1.572  1.00  0.00     0.047 C 
ATOM     21  C   UNL     1       0.924   0.175   1.532  1.00  0.00    -0.015 A 
ATOM     22  C   UNL     1      -0.321   0.807   1.570  1.00  0.00     0.008 A 
ATOM     23  C   UNL     1       0.952  -1.206   1.396  1.00  0.00     0.128 A 
ATOM     24  C   UNL     1      -1.501   0.072   1.406  1.00  0.00     0.026 A 
ATOM     25  C   UNL     1      -0.214  -1.947   1.258  1.00  0.00     0.065 A 
ATOM     26  F   UNL     1       2.126  -1.853   1.370  1.00  0.00    -0.207 F 
ENDBRANCH  16  19
ENDBRANCH  14  15
ENDBRANCH   8  14
ENDBRANCH   4   7
ENDBRANCH   2   3
ENDBRANCH   1   2
BRANCH   1  27
ATOM     27  C   UNL     1       1.103   3.375  -2.413  1.00  0.00     0.023 C 
BRANCH  27  28
ATOM     28  C   UNL     1       0.558   3.993  -1.133  1.00  0.00     0.116 C 
BRANCH  28  29
ATOM     29  N   UNL     1       1.536   4.003  -0.041  1.00  0.00    -0.352 N 
ATOM     30  C   UNL     1       1.582   4.814   1.083  1.00  0.00     0.251 C 
ATOM     31  H   UNL     1       2.262   3.342  -0.116  1.00  0.00     0.163 HD
ATOM     32  O   UNL     1       2.577   4.896   1.774  1.00  0.00    -0.269 OA
BRANCH  30  33
ATOM     33  C   UNL     1       0.347   5.498   1.492  1.00  0.00     0.039 A 
ATOM     34  C   UNL     1       0.328   6.769   2.087  1.00  0.00     0.014 A 
ATOM     35  C   UNL     1      -0.817   4.761   1.337  1.00  0.00     0.014 A 
ATOM     36  C   UNL     1      -0.893   7.301   2.496  1.00  0.00     0.010 A 
ATOM     37  C   UNL     1      -2.014   5.317   1.616  1.00  0.00     0.010 A 
ATOM     38  C   UNL     1      -2.043   6.550   2.260  1.00  0.00    -0.014 A 
BRANCH  38  39
ATOM     39  C   UNL     1      -3.401   6.937   2.559  1.00  0.00     0.031 A 
ATOM     40  C   UNL     1      -4.011   7.953   1.704  1.00  0.00     0.074 A 
ATOM     41  C   UNL     1      -4.048   6.063   3.361  1.00  0.00     0.049 A 
ATOM     42  N   UNL     1      -5.057   8.628   1.998  1.00  0.00    -0.248 NA
ATOM     43  C   UNL     1      -3.436   8.323   0.410  1.00  0.00     0.031 C 
ATOM     44  C   UNL     1      -5.459   5.806   3.575  1.00  0.00     0.029 A 
ATOM     45  N   UNL     1      -3.418   5.221   4.289  1.00  0.00    -0.354 N 
ATOM     46  C   UNL     1      -5.508   9.189   0.820  1.00  0.00     0.074 A 
ATOM     47  C   UNL     1      -4.376   9.140  -0.070  1.00  0.00     0.031 C 
ATOM     48  C   UNL     1      -5.600   5.179   4.763  1.00  0.00     0.029 A 
ATOM     49  C   UNL     1      -4.282   5.137   5.387  1.00  0.00     0.049 A 
ATOM     50  H   UNL     1      -2.544   4.779   4.188  1.00  0.00     0.167 HD
ATOM     51  C   UNL     1      -6.850   9.405   0.689  1.00  0.00     0.037 A 
ATOM     52  C   UNL     1      -3.908   5.816   6.516  1.00  0.00     0.037 A 
ATOM     53  C   UNL     1      -7.519   9.008   1.938  1.00  0.00     0.049 A 
ATOM     54  C   UNL     1      -4.819   7.002   6.730  1.00  0.00     0.074 A 
ATOM     55  C   UNL     1      -8.184   7.847   2.301  1.00  0.00     0.029 A 
ATOM     56  N   UNL     1      -7.184   9.653   3.128  1.00  0.00    -0.354 N 
ATOM     57  N   UNL     1      -5.405   7.671   5.770  1.00  0.00    -0.248 NA
ATOM     58  C   UNL     1      -5.241   7.428   8.058  1.00  0.00     0.031 C 
ATOM     59  C   UNL     1      -8.148   7.750   3.721  1.00  0.00     0.029 A 
ATOM     60  C   UNL     1      -7.468   8.850   4.220  1.00  0.00     0.049 A 
ATOM     61  H   UNL     1      -6.797  10.557   3.184  1.00  0.00     0.167 HD
ATOM     62  C   UNL     1      -6.319   8.534   6.315  1.00  0.00     0.074 A 
ATOM     63  C   UNL     1      -6.165   8.354   7.750  1.00  0.00     0.031 C 
ATOM     64  C   UNL     1      -7.172   9.305   5.574  1.00  0.00     0.037 A 
BRANCH  51  65
ATOM     65  C   UNL     1      -7.590   9.635  -0.618  1.00  0.00     0.057 A 
ATOM     66  C   UNL     1      -8.983   9.418  -0.693  1.00  0.00     0.134 A 
ATOM     67  C   UNL     1      -7.018  10.037  -1.841  1.00  0.00     0.134 A 
ATOM     68  F   UNL     1      -9.705   9.106   0.391  1.00  0.00    -0.206 F 
ATOM     69  C   UNL     1      -9.719   9.515  -1.884  1.00  0.00     0.040 A 
ATOM     70  C   UNL     1      -7.736  10.110  -3.047  1.00  0.00     0.040 A 
ATOM     71  F   UNL     1      -5.749  10.436  -1.940  1.00  0.00    -0.206 F 
ATOM     72  C   UNL     1      -9.093   9.843  -3.074  1.00  0.00     0.006 A 
ENDBRANCH  51  65
BRANCH  52  73
ATOM     73  C   UNL     1      -2.413   5.769   6.702  1.00  0.00     0.057 A 
ATOM     74  C   UNL     1      -1.828   4.489   6.837  1.00  0.00     0.134 A 
ATOM     75  C   UNL     1      -1.571   6.792   6.249  1.00  0.00     0.134 A 
ATOM     76  F   UNL     1      -2.566   3.460   7.286  1.00  0.00    -0.206 F 
ATOM     77  C   UNL     1      -0.547   4.199   6.352  1.00  0.00     0.040 A 
ATOM     78  C   UNL     1      -0.272   6.515   5.791  1.00  0.00     0.040 A 
ATOM     79  F   UNL     1      -2.027   8.044   6.111  1.00  0.00    -0.206 F 
ATOM     80  C   UNL     1       0.218   5.208   5.782  1.00  0.00     0.006 A 
ENDBRANCH  52  73
BRANCH  64  81
ATOM     81  C   UNL     1      -7.894  10.526   6.094  1.00  0.00     0.057 A 
ATOM     82  C   UNL     1      -7.462  11.277   7.197  1.00  0.00     0.134 A 
ATOM     83  C   UNL     1      -8.969  11.095   5.372  1.00  0.00     0.134 A 
ATOM     84  F   UNL     1      -6.370  10.943   7.898  1.00  0.00    -0.206 F 
ATOM     85  C   UNL     1      -8.097  12.456   7.601  1.00  0.00     0.040 A 
ATOM     86  C   UNL     1      -9.557  12.313   5.719  1.00  0.00     0.040 A 
ATOM     87  F   UNL     1      -9.478  10.517   4.275  1.00  0.00    -0.206 F 
ATOM     88  C   UNL     1      -9.138  12.987   6.852  1.00  0.00     0.006 A 
ENDBRANCH  64  81
ENDBRANCH  38  39
ENDBRANCH  30  33
ENDBRANCH  28  29
ENDBRANCH  27  28
ENDBRANCH   1  27
TORSDOF 14
