REMARK SMILES CC[C@@](C)([NH3+])C(=O)Nc1cc(C(=O)NCCCCNC(=O)c2ccc(-c3c4nc(c(-c5c(F)cccc5F)c5ccc([nH]5)c(-c5c(F)cccc5F)c5nc(c(-c6c(F)cccc6F)c6ccc3[nH]6)C=C5)C=C4)cc2)cc(C(F)(F)F)c1
REMARK SMILES IDX 16 1 15 2 14 3 12 4 13 5 11 7 9 8 10 9 82 10 77 11 76 12
REMARK SMILES IDX 8 13 6 14 7 15 3 17 4 18 2 19 1 20 5 21 78 25 79 26 80 27
REMARK SMILES IDX 81 28 17 29 18 30 19 31 20 32 21 34 22 35 23 36 75 37 24 38
REMARK SMILES IDX 74 39 25 40 26 41 27 42 68 43 28 44 73 45 67 46 69 47 29 48
REMARK SMILES IDX 72 49 66 50 65 51 30 53 56 54 39 55 55 56 40 57 43 58 54 59
REMARK SMILES IDX 70 60 41 61 42 62 53 64 71 65 44 66 31 67 32 68 37 69 33 70
REMARK SMILES IDX 34 71 36 72 38 73 35 74 57 75 58 76 63 77 59 78 60 79 62 80
REMARK SMILES IDX 64 81 61 82 45 83 46 84 51 85 47 86 48 87 50 88 52 89 49 90
REMARK H PARENT 14 6 8 16 5 22 5 23 5 24 19 33 69 52 43 63
REMARK Flexibility Score: inf
ROOT
ATOM      1  C   UNL     1       1.735  -8.587  -7.065  1.00  0.00     0.023 C 
ENDROOT
BRANCH   1   2
ATOM      2  C   UNL     1       1.178  -8.049  -5.760  1.00  0.00     0.116 C 
BRANCH   2   3
ATOM      3  N   UNL     1       2.017  -8.234  -4.582  1.00  0.00    -0.352 N 
ATOM      4  C   UNL     1       2.367  -7.348  -3.578  1.00  0.00     0.251 C 
ATOM      5  O   UNL     1       3.086  -7.729  -2.658  1.00  0.00    -0.269 OA
ATOM      6  H   UNL     1       2.397  -9.137  -4.484  1.00  0.00     0.163 HD
BRANCH   4   7
ATOM      7  C   UNL     1       1.948  -5.921  -3.635  1.00  0.00     0.042 A 
ATOM      8  C   UNL     1       2.454  -3.587  -3.356  1.00  0.00     0.042 A 
ATOM      9  C   UNL     1       2.796  -4.920  -3.140  1.00  0.00     0.040 A 
ATOM     10  C   UNL     1       1.469  -3.290  -4.290  1.00  0.00     0.039 A 
ATOM     11  C   UNL     1       0.551  -4.257  -4.681  1.00  0.00     0.058 A 
ATOM     12  C   UNL     1       0.731  -5.553  -4.209  1.00  0.00     0.027 A 
BRANCH   8  13
ATOM     13  N   UNL     1       3.096  -2.561  -2.656  1.00  0.00    -0.321 N 
ATOM     14  C   UNL     1       2.557  -1.407  -2.115  1.00  0.00     0.285 C 
ATOM     15  O   UNL     1       3.364  -0.536  -1.764  1.00  0.00    -0.267 OA
ATOM     16  H   UNL     1       4.066  -2.675  -2.531  1.00  0.00     0.170 HD
BRANCH  14  17
ATOM     17  C   UNL     1       1.001  -1.257  -1.802  1.00  0.00     0.171 C 
ATOM     18  C   UNL     1       0.482  -2.473  -1.013  1.00  0.00     0.090 C 
BRANCH  17  19
ATOM     19  C   UNL     1       0.723   0.050  -1.004  1.00  0.00     0.075 C 
ATOM     20  C   UNL     1       1.196   0.065   0.444  1.00  0.00     0.011 C 
ENDBRANCH  17  19
BRANCH  17  21
ATOM     21  N   UNL     1       0.221  -1.103  -3.056  1.00  0.00    -0.345 N 
ATOM     22  H   UNL     1      -0.770  -1.009  -2.831  1.00  0.00     0.345 HD
ATOM     23  H   UNL     1       0.359  -1.923  -3.646  1.00  0.00     0.345 HD
ATOM     24  H   UNL     1       0.537  -0.270  -3.553  1.00  0.00     0.345 HD
ENDBRANCH  17  21
ENDBRANCH  14  17
ENDBRANCH   8  13
BRANCH  11  25
ATOM     25  C   UNL     1      -0.567  -3.947  -5.636  1.00  0.00     0.416 C 
ATOM     26  F   UNL     1      -0.335  -4.476  -6.869  1.00  0.00    -0.166 F 
ATOM     27  F   UNL     1      -1.755  -4.471  -5.225  1.00  0.00    -0.166 F 
ATOM     28  F   UNL     1      -0.787  -2.620  -5.826  1.00  0.00    -0.166 F 
ENDBRANCH  11  25
ENDBRANCH   4   7
ENDBRANCH   2   3
ENDBRANCH   1   2
BRANCH   1  29
ATOM     29  C   UNL     1       1.899 -10.092  -7.157  1.00  0.00     0.023 C 
BRANCH  29  30
ATOM     30  C   UNL     1       0.703 -10.919  -6.706  1.00  0.00     0.116 C 
BRANCH  30  31
ATOM     31  N   UNL     1      -0.536 -10.614  -7.409  1.00  0.00    -0.352 N 
ATOM     32  C   UNL     1      -1.408 -11.464  -8.051  1.00  0.00     0.251 C 
ATOM     33  H   UNL     1      -0.787  -9.662  -7.427  1.00  0.00     0.163 HD
ATOM     34  O   UNL     1      -2.387 -11.018  -8.643  1.00  0.00    -0.269 OA
BRANCH  32  35
ATOM     35  C   UNL     1      -1.130 -12.914  -8.070  1.00  0.00     0.039 A 
ATOM     36  C   UNL     1      -1.159 -13.590  -9.292  1.00  0.00     0.014 A 
ATOM     37  C   UNL     1      -0.776 -13.588  -6.899  1.00  0.00     0.014 A 
ATOM     38  C   UNL     1      -0.730 -14.917  -9.356  1.00  0.00     0.010 A 
ATOM     39  C   UNL     1      -0.262 -14.877  -6.980  1.00  0.00     0.010 A 
ATOM     40  C   UNL     1      -0.226 -15.553  -8.209  1.00  0.00    -0.014 A 
BRANCH  40  41
ATOM     41  C   UNL     1       0.357 -16.916  -8.271  1.00  0.00     0.031 A 
ATOM     42  C   UNL     1      -0.262 -18.035  -7.482  1.00  0.00     0.074 A 
ATOM     43  C   UNL     1       1.494 -17.128  -8.964  1.00  0.00     0.049 A 
ATOM     44  N   UNL     1       0.153 -19.267  -7.327  1.00  0.00    -0.248 NA
ATOM     45  C   UNL     1      -1.491 -17.718  -6.739  1.00  0.00     0.031 C 
ATOM     46  C   UNL     1       2.228 -16.112  -9.722  1.00  0.00     0.029 A 
ATOM     47  N   UNL     1       2.240 -18.268  -9.131  1.00  0.00    -0.354 N 
ATOM     48  C   UNL     1      -0.748 -19.860  -6.453  1.00  0.00     0.074 A 
ATOM     49  C   UNL     1      -1.700 -18.841  -6.070  1.00  0.00     0.031 C 
ATOM     50  C   UNL     1       3.305 -16.679 -10.290  1.00  0.00     0.029 A 
ATOM     51  C   UNL     1       3.359 -18.086  -9.907  1.00  0.00     0.049 A 
ATOM     52  H   UNL     1       1.997 -19.134  -8.731  1.00  0.00     0.167 HD
ATOM     53  C   UNL     1      -0.793 -21.145  -6.027  1.00  0.00     0.037 A 
ATOM     54  C   UNL     1       4.323 -18.955 -10.266  1.00  0.00     0.037 A 
ATOM     55  C   UNL     1       0.133 -22.166  -6.439  1.00  0.00     0.049 A 
ATOM     56  C   UNL     1       4.240 -20.381  -9.798  1.00  0.00     0.074 A 
ATOM     57  C   UNL     1       0.127 -23.513  -6.123  1.00  0.00     0.029 A 
ATOM     58  N   UNL     1       1.231 -21.951  -7.258  1.00  0.00    -0.354 N 
ATOM     59  N   UNL     1       3.341 -20.947  -9.031  1.00  0.00    -0.248 NA
ATOM     60  C   UNL     1       5.303 -21.290 -10.250  1.00  0.00     0.031 C 
ATOM     61  C   UNL     1       1.244 -24.107  -6.720  1.00  0.00     0.029 A 
ATOM     62  C   UNL     1       1.921 -23.137  -7.443  1.00  0.00     0.049 A 
ATOM     63  H   UNL     1       1.484 -21.083  -7.649  1.00  0.00     0.167 HD
ATOM     64  C   UNL     1       3.712 -22.281  -8.930  1.00  0.00     0.074 A 
ATOM     65  C   UNL     1       4.912 -22.442  -9.723  1.00  0.00     0.031 C 
ATOM     66  C   UNL     1       3.110 -23.283  -8.243  1.00  0.00     0.037 A 
BRANCH  53  67
ATOM     67  C   UNL     1      -1.888 -21.514  -5.070  1.00  0.00     0.057 A 
ATOM     68  C   UNL     1      -3.229 -21.578  -5.470  1.00  0.00     0.134 A 
ATOM     69  C   UNL     1      -1.596 -21.828  -3.737  1.00  0.00     0.134 A 
ATOM     70  F   UNL     1      -3.578 -21.276  -6.730  1.00  0.00    -0.206 F 
ATOM     71  C   UNL     1      -4.244 -21.911  -4.572  1.00  0.00     0.040 A 
ATOM     72  C   UNL     1      -2.599 -22.189  -2.836  1.00  0.00     0.040 A 
ATOM     73  F   UNL     1      -0.332 -21.791  -3.288  1.00  0.00    -0.206 F 
ATOM     74  C   UNL     1      -3.929 -22.224  -3.251  1.00  0.00     0.006 A 
ENDBRANCH  53  67
BRANCH  54  75
ATOM     75  C   UNL     1       5.435 -18.507 -11.142  1.00  0.00     0.057 A 
ATOM     76  C   UNL     1       5.513 -18.924 -12.476  1.00  0.00     0.134 A 
ATOM     77  C   UNL     1       6.440 -17.654 -10.672  1.00  0.00     0.134 A 
ATOM     78  F   UNL     1       4.589 -19.756 -12.977  1.00  0.00    -0.206 F 
ATOM     79  C   UNL     1       6.559 -18.522 -13.307  1.00  0.00     0.040 A 
ATOM     80  C   UNL     1       7.480 -17.226 -11.499  1.00  0.00     0.040 A 
ATOM     81  F   UNL     1       6.417 -17.213  -9.406  1.00  0.00    -0.206 F 
ATOM     82  C   UNL     1       7.544 -17.665 -12.820  1.00  0.00     0.006 A 
ENDBRANCH  54  75
BRANCH  66  83
ATOM     83  C   UNL     1       3.720 -24.649  -8.346  1.00  0.00     0.057 A 
ATOM     84  C   UNL     1       4.914 -24.977  -7.693  1.00  0.00     0.134 A 
ATOM     85  C   UNL     1       3.079 -25.661  -9.072  1.00  0.00     0.134 A 
ATOM     86  F   UNL     1       5.583 -24.049  -6.992  1.00  0.00    -0.206 F 
ATOM     87  C   UNL     1       5.459 -26.259  -7.773  1.00  0.00     0.040 A 
ATOM     88  C   UNL     1       3.601 -26.953  -9.140  1.00  0.00     0.040 A 
ATOM     89  F   UNL     1       1.927 -25.413  -9.715  1.00  0.00    -0.206 F 
ATOM     90  C   UNL     1       4.798 -27.253  -8.493  1.00  0.00     0.006 A 
ENDBRANCH  66  83
ENDBRANCH  40  41
ENDBRANCH  32  35
ENDBRANCH  30  31
ENDBRANCH  29  30
ENDBRANCH   1  29
TORSDOF 16
