REMARK SMILES Cc1nsc(NC(=O)[C@@H]2C=C[C@@H]([NH3+])C2)c1C(=O)NCCCCNC(=O)c1ccc(-c2c3nc(c(-c4c(F)cccc4F)c4ccc([nH]4)c(-c4c(F)cccc4F)c4nc(c(-c5c(F)cccc5F)c5ccc2[nH]5)C=C4)C=C3)cc1
REMARK SMILES IDX 20 1 19 2 18 3 16 4 17 5 15 7 1 8 2 9 3 10 4 11 5 12 6 13
REMARK SMILES IDX 7 14 8 16 9 17 10 18 14 19 11 20 12 21 13 22 21 26 22 27
REMARK SMILES IDX 23 28 24 29 25 31 26 32 27 33 79 34 28 35 78 36 29 37 30 38
REMARK SMILES IDX 31 39 72 40 32 41 77 42 71 43 73 44 33 45 76 46 70 47 69 48
REMARK SMILES IDX 34 50 60 51 43 52 59 53 44 54 47 55 58 56 74 57 45 58 46 59
REMARK SMILES IDX 57 61 75 62 48 63 35 64 36 65 41 66 37 67 38 68 40 69 42 70
REMARK SMILES IDX 39 71 61 72 62 73 67 74 63 75 64 76 66 77 68 78 65 79 49 80
REMARK SMILES IDX 50 81 55 82 51 83 52 84 54 85 56 86 53 87
REMARK H PARENT 18 6 6 15 13 23 13 24 13 25 23 30 73 49 47 60
REMARK Flexibility Score: inf
ROOT
ATOM      1  C   UNL     1      -1.255  13.319   5.303  1.00  0.00     0.023 C 
ENDROOT
BRANCH   1   2
ATOM      2  C   UNL     1      -0.280  12.367   4.614  1.00  0.00     0.116 C 
BRANCH   2   3
ATOM      3  N   UNL     1      -0.356  10.978   4.971  1.00  0.00    -0.352 N 
ATOM      4  C   UNL     1      -0.171   9.840   4.218  1.00  0.00     0.256 C 
ATOM      5  O   UNL     1      -0.383   8.789   4.836  1.00  0.00    -0.269 OA
ATOM      6  H   UNL     1      -0.577  10.810   5.916  1.00  0.00     0.163 HD
BRANCH   4   7
ATOM      7  C   UNL     1       0.242   9.779   2.795  1.00  0.00     0.097 A 
ATOM      8  C   UNL     1       1.144  12.186   1.928  1.00  0.00     0.069 C 
ATOM      9  C   UNL     1       0.840  10.730   1.843  1.00  0.00     0.066 A 
ATOM     10  N   UNL     1       1.202  10.223   0.662  1.00  0.00    -0.195 NA
ATOM     11  S   UNL     1       0.912   8.626   0.636  1.00  0.00    -0.017 S 
ATOM     12  C   UNL     1       0.058   8.569   2.095  1.00  0.00     0.129 A 
BRANCH  12  13
ATOM     13  N   UNL     1      -0.590   7.415   2.510  1.00  0.00    -0.315 N 
ATOM     14  C   UNL     1      -1.135   6.362   1.812  1.00  0.00     0.232 C 
ATOM     15  H   UNL     1      -0.676   7.334   3.487  1.00  0.00     0.170 HD
ATOM     16  O   UNL     1      -1.610   5.436   2.480  1.00  0.00    -0.274 OA
BRANCH  14  17
ATOM     17  C   UNL     1      -1.211   6.339   0.275  1.00  0.00     0.107 C 
ATOM     18  C   UNL     1      -2.115   7.422  -0.252  1.00  0.00    -0.012 C 
ATOM     19  C   UNL     1      -1.875   5.073  -0.308  1.00  0.00     0.087 C 
ATOM     20  C   UNL     1      -3.256   6.941  -0.754  1.00  0.00     0.033 C 
ATOM     21  C   UNL     1      -3.322   5.457  -0.652  1.00  0.00     0.205 C 
BRANCH  21  22
ATOM     22  N   UNL     1      -3.753   4.864  -1.906  1.00  0.00    -0.352 N 
ATOM     23  H   UNL     1      -3.120   5.151  -2.654  1.00  0.00     0.345 HD
ATOM     24  H   UNL     1      -4.699   5.176  -2.123  1.00  0.00     0.345 HD
ATOM     25  H   UNL     1      -3.741   3.847  -1.823  1.00  0.00     0.345 HD
ENDBRANCH  21  22
ENDBRANCH  14  17
ENDBRANCH  12  13
ENDBRANCH   4   7
ENDBRANCH   2   3
ENDBRANCH   1   2
BRANCH   1  26
ATOM     26  C   UNL     1      -1.089  13.581   6.799  1.00  0.00     0.023 C 
BRANCH  26  27
ATOM     27  C   UNL     1       0.295  14.038   7.238  1.00  0.00     0.116 C 
BRANCH  27  28
ATOM     28  N   UNL     1       0.693  15.337   6.703  1.00  0.00    -0.352 N 
ATOM     29  C   UNL     1       1.807  16.071   7.062  1.00  0.00     0.251 C 
ATOM     30  H   UNL     1       0.107  15.730   6.016  1.00  0.00     0.163 HD
ATOM     31  O   UNL     1       1.871  17.278   6.833  1.00  0.00    -0.269 OA
BRANCH  29  32
ATOM     32  C   UNL     1       2.926  15.385   7.734  1.00  0.00     0.039 A 
ATOM     33  C   UNL     1       3.546  15.950   8.851  1.00  0.00     0.014 A 
ATOM     34  C   UNL     1       3.325  14.137   7.252  1.00  0.00     0.014 A 
ATOM     35  C   UNL     1       4.504  15.204   9.534  1.00  0.00     0.010 A 
ATOM     36  C   UNL     1       4.190  13.359   7.988  1.00  0.00     0.010 A 
ATOM     37  C   UNL     1       4.798  13.891   9.121  1.00  0.00    -0.014 A 
BRANCH  37  38
ATOM     38  C   UNL     1       5.557  13.006  10.009  1.00  0.00     0.031 A 
ATOM     39  C   UNL     1       4.963  12.930  11.374  1.00  0.00     0.074 A 
ATOM     40  C   UNL     1       6.540  12.170   9.602  1.00  0.00     0.049 A 
ATOM     41  N   UNL     1       5.459  13.396  12.471  1.00  0.00    -0.248 NA
ATOM     42  C   UNL     1       3.575  12.447  11.518  1.00  0.00     0.031 C 
ATOM     43  C   UNL     1       6.966  11.923   8.219  1.00  0.00     0.029 A 
ATOM     44  N   UNL     1       7.298  11.274  10.309  1.00  0.00    -0.354 N 
ATOM     45  C   UNL     1       4.576  13.005  13.477  1.00  0.00     0.074 A 
ATOM     46  C   UNL     1       3.352  12.649  12.819  1.00  0.00     0.031 C 
ATOM     47  C   UNL     1       7.704  10.793   8.163  1.00  0.00     0.029 A 
ATOM     48  C   UNL     1       7.952  10.328   9.515  1.00  0.00     0.049 A 
ATOM     49  H   UNL     1       7.375  11.294  11.290  1.00  0.00     0.167 HD
ATOM     50  C   UNL     1       5.064  12.664  14.703  1.00  0.00     0.037 A 
ATOM     51  C   UNL     1       8.641   9.235   9.932  1.00  0.00     0.037 A 
ATOM     52  C   UNL     1       6.425  13.121  14.833  1.00  0.00     0.049 A 
ATOM     53  C   UNL     1       9.022   9.459  11.342  1.00  0.00     0.074 A 
ATOM     54  C   UNL     1       7.084  14.317  15.014  1.00  0.00     0.029 A 
ATOM     55  N   UNL     1       7.331  12.225  14.339  1.00  0.00    -0.354 N 
ATOM     56  N   UNL     1       9.892  10.353  11.718  1.00  0.00    -0.248 NA
ATOM     57  C   UNL     1       8.183   8.911  12.402  1.00  0.00     0.031 C 
ATOM     58  C   UNL     1       8.402  14.126  14.501  1.00  0.00     0.029 A 
ATOM     59  C   UNL     1       8.536  12.807  14.076  1.00  0.00     0.049 A 
ATOM     60  H   UNL     1       7.137  11.271  14.191  1.00  0.00     0.167 HD
ATOM     61  C   UNL     1       9.409  10.797  12.930  1.00  0.00     0.074 A 
ATOM     62  C   UNL     1       8.486   9.764  13.383  1.00  0.00     0.031 C 
ATOM     63  C   UNL     1       9.517  12.111  13.275  1.00  0.00     0.037 A 
BRANCH  50  64
ATOM     64  C   UNL     1       4.595  11.468  15.523  1.00  0.00     0.057 A 
ATOM     65  C   UNL     1       5.231  11.211  16.757  1.00  0.00     0.134 A 
ATOM     66  C   UNL     1       3.826  10.395  15.028  1.00  0.00     0.134 A 
ATOM     67  F   UNL     1       5.999  12.142  17.343  1.00  0.00    -0.206 F 
ATOM     68  C   UNL     1       5.178   9.963  17.393  1.00  0.00     0.040 A 
ATOM     69  C   UNL     1       3.732   9.159  15.677  1.00  0.00     0.040 A 
ATOM     70  F   UNL     1       3.201  10.434  13.847  1.00  0.00    -0.206 F 
ATOM     71  C   UNL     1       4.435   8.926  16.847  1.00  0.00     0.006 A 
ENDBRANCH  50  64
BRANCH  51  72
ATOM     72  C   UNL     1       8.847   7.915   9.285  1.00  0.00     0.057 A 
ATOM     73  C   UNL     1       9.833   7.026   9.745  1.00  0.00     0.134 A 
ATOM     74  C   UNL     1       7.891   7.370   8.412  1.00  0.00     0.134 A 
ATOM     75  F   UNL     1      10.778   7.440  10.602  1.00  0.00    -0.206 F 
ATOM     76  C   UNL     1       9.837   5.667   9.403  1.00  0.00     0.040 A 
ATOM     77  C   UNL     1       7.886   6.015   8.058  1.00  0.00     0.040 A 
ATOM     78  F   UNL     1       6.875   8.114   7.951  1.00  0.00    -0.206 F 
ATOM     79  C   UNL     1       8.849   5.153   8.570  1.00  0.00     0.006 A 
ENDBRANCH  51  72
BRANCH  63  80
ATOM     80  C   UNL     1      10.630  12.906  12.676  1.00  0.00     0.057 A 
ATOM     81  C   UNL     1      10.750  13.235  11.320  1.00  0.00     0.134 A 
ATOM     82  C   UNL     1      11.584  13.438  13.553  1.00  0.00     0.134 A 
ATOM     83  F   UNL     1       9.843  12.827  10.421  1.00  0.00    -0.206 F 
ATOM     84  C   UNL     1      11.797  14.039  10.858  1.00  0.00     0.040 A 
ATOM     85  C   UNL     1      12.610  14.269  13.110  1.00  0.00     0.040 A 
ATOM     86  F   UNL     1      11.506  13.185  14.869  1.00  0.00    -0.206 F 
ATOM     87  C   UNL     1      12.725  14.565  11.756  1.00  0.00     0.006 A 
ENDBRANCH  63  80
ENDBRANCH  37  38
ENDBRANCH  29  32
ENDBRANCH  27  28
ENDBRANCH  26  27
ENDBRANCH   1  26
TORSDOF 14
