REMARK SMILES COc1ccc(CCNC(=O)c2cccnc2C(=O)NCCCCNC(=O)c2ccc(-c3c4nc(c(-c5c(F)cccc5F)c5ccc([nH]5)c(-c5c(F)cccc5F)c5nc(c(-c6c(F)cccc6F)c6ccc3[nH]6)C=C5)C=C4)cc2)cc1OC
REMARK SMILES IDX 21 1 20 2 18 3 19 4 17 6 12 7 13 8 14 9 16 10 15 11 10 12
REMARK SMILES IDX 9 13 11 15 8 16 7 17 6 18 3 19 4 20 83 21 5 22 82 23 2 24
REMARK SMILES IDX 1 25 84 26 85 27 22 28 23 29 24 30 25 31 26 32 27 34 28 35
REMARK SMILES IDX 29 36 81 37 30 38 80 39 31 40 32 41 33 42 74 43 34 44 79 45
REMARK SMILES IDX 73 46 75 47 35 48 78 49 72 50 71 51 36 53 62 54 45 55 61 56
REMARK SMILES IDX 46 57 49 58 60 59 76 60 47 61 48 62 59 64 77 65 50 66 37 67
REMARK SMILES IDX 38 68 43 69 39 70 40 71 42 72 44 73 41 74 63 75 64 76 69 77
REMARK SMILES IDX 65 78 66 79 68 80 70 81 67 82 51 83 52 84 57 85 53 86 54 87
REMARK SMILES IDX 56 88 58 89 55 90
REMARK H PARENT 20 5 9 14 25 33 75 52 49 63
REMARK Flexibility Score: inf
ROOT
ATOM      1  C   UNL     1      -1.587  -2.350  -7.410  1.00  0.00     0.116 C 
ENDROOT
BRANCH   1   2
ATOM      2  N   UNL     1      -2.165  -2.486  -8.715  1.00  0.00    -0.351 N 
ATOM      3  C   UNL     1      -1.641  -3.066  -9.853  1.00  0.00     0.270 C 
ATOM      4  O   UNL     1      -2.409  -3.110 -10.822  1.00  0.00    -0.267 OA
ATOM      5  H   UNL     1      -3.069  -2.110  -8.814  1.00  0.00     0.163 HD
BRANCH   3   6
ATOM      6  C   UNL     1      -0.213  -3.552 -10.033  1.00  0.00     0.140 A 
ATOM      7  C   UNL     1       0.602  -4.236  -9.130  1.00  0.00     0.071 A 
ATOM      8  C   UNL     1       1.837  -4.738  -9.585  1.00  0.00     0.018 A 
ATOM      9  C   UNL     1       2.256  -4.507 -10.889  1.00  0.00     0.021 A 
ATOM     10  N   UNL     1       0.225  -3.301 -11.312  1.00  0.00    -0.250 NA
ATOM     11  C   UNL     1       1.421  -3.781 -11.710  1.00  0.00     0.112 A 
BRANCH   7  12
ATOM     12  C   UNL     1       0.219  -4.631  -7.768  1.00  0.00     0.253 C 
ATOM     13  N   UNL     1       0.958  -4.207  -6.677  1.00  0.00    -0.352 N 
ATOM     14  H   UNL     1       0.634  -4.540  -5.809  1.00  0.00     0.163 HD
ATOM     15  O   UNL     1      -0.761  -5.351  -7.611  1.00  0.00    -0.269 OA
BRANCH  13  16
ATOM     16  C   UNL     1       2.140  -3.344  -6.597  1.00  0.00     0.121 C 
BRANCH  16  17
ATOM     17  C   UNL     1       1.900  -1.945  -6.003  1.00  0.00     0.057 C 
BRANCH  17  18
ATOM     18  C   UNL     1       1.746  -1.849  -4.501  1.00  0.00    -0.042 A 
ATOM     19  C   UNL     1       1.424  -1.407  -1.729  1.00  0.00     0.160 A 
ATOM     20  C   UNL     1       0.398  -1.986  -2.486  1.00  0.00     0.051 A 
ATOM     21  C   UNL     1       2.643  -1.094  -2.338  1.00  0.00     0.160 A 
ATOM     22  C   UNL     1       0.560  -2.206  -3.858  1.00  0.00     0.008 A 
ATOM     23  C   UNL     1       2.783  -1.311  -3.720  1.00  0.00     0.054 A 
BRANCH  19  24
ATOM     24  O   UNL     1       1.225  -1.232  -0.386  1.00  0.00    -0.493 OA
ATOM     25  C   UNL     1       0.284  -0.191  -0.119  1.00  0.00     0.278 C 
ENDBRANCH  19  24
BRANCH  21  26
ATOM     26  O   UNL     1       3.771  -0.564  -1.770  1.00  0.00    -0.493 OA
ATOM     27  C   UNL     1       3.763  -0.280  -0.380  1.00  0.00     0.278 C 
ENDBRANCH  21  26
ENDBRANCH  17  18
ENDBRANCH  16  17
ENDBRANCH  13  16
ENDBRANCH   7  12
ENDBRANCH   3   6
ENDBRANCH   1   2
BRANCH   1  28
ATOM     28  C   UNL     1      -1.997  -1.126  -6.611  1.00  0.00     0.023 C 
BRANCH  28  29
ATOM     29  C   UNL     1      -3.406  -1.101  -6.033  1.00  0.00     0.023 C 
BRANCH  29  30
ATOM     30  C   UNL     1      -3.978  -2.405  -5.483  1.00  0.00     0.116 C 
BRANCH  30  31
ATOM     31  N   UNL     1      -3.208  -3.023  -4.409  1.00  0.00    -0.352 N 
ATOM     32  C   UNL     1      -3.531  -3.270  -3.090  1.00  0.00     0.251 C 
ATOM     33  H   UNL     1      -2.304  -3.312  -4.669  1.00  0.00     0.163 HD
ATOM     34  O   UNL     1      -2.702  -3.749  -2.332  1.00  0.00    -0.269 OA
BRANCH  32  35
ATOM     35  C   UNL     1      -4.872  -2.909  -2.581  1.00  0.00     0.039 A 
ATOM     36  C   UNL     1      -4.979  -2.203  -1.379  1.00  0.00     0.014 A 
ATOM     37  C   UNL     1      -6.016  -3.219  -3.314  1.00  0.00     0.014 A 
ATOM     38  C   UNL     1      -6.219  -1.688  -0.991  1.00  0.00     0.010 A 
ATOM     39  C   UNL     1      -7.223  -2.614  -2.987  1.00  0.00     0.010 A 
ATOM     40  C   UNL     1      -7.335  -1.827  -1.831  1.00  0.00    -0.014 A 
BRANCH  40  41
ATOM     41  C   UNL     1      -8.622  -1.139  -1.549  1.00  0.00     0.031 A 
ATOM     42  C   UNL     1      -9.887  -1.938  -1.392  1.00  0.00     0.074 A 
ATOM     43  C   UNL     1      -8.674   0.209  -1.544  1.00  0.00     0.049 A 
ATOM     44  N   UNL     1     -11.121  -1.520  -1.274  1.00  0.00    -0.248 NA
ATOM     45  C   UNL     1      -9.749  -3.404  -1.412  1.00  0.00     0.031 C 
ATOM     46  C   UNL     1      -7.534   1.105  -1.753  1.00  0.00     0.029 A 
ATOM     47  N   UNL     1      -9.735   1.063  -1.372  1.00  0.00    -0.354 N 
ATOM     48  C   UNL     1     -11.905  -2.666  -1.235  1.00  0.00     0.074 A 
ATOM     49  C   UNL     1     -11.014  -3.794  -1.400  1.00  0.00     0.031 C 
ATOM     50  C   UNL     1      -7.951   2.378  -1.667  1.00  0.00     0.029 A 
ATOM     51  C   UNL     1      -9.392   2.392  -1.440  1.00  0.00     0.049 A 
ATOM     52  H   UNL     1     -10.656   0.752  -1.216  1.00  0.00     0.167 HD
ATOM     53  C   UNL     1     -13.242  -2.773  -1.050  1.00  0.00     0.037 A 
ATOM     54  C   UNL     1     -10.153   3.498  -1.337  1.00  0.00     0.037 A 
ATOM     55  C   UNL     1     -14.121  -1.654  -0.844  1.00  0.00     0.049 A 
ATOM     56  C   UNL     1     -11.633   3.353  -1.110  1.00  0.00     0.074 A 
ATOM     57  C   UNL     1     -15.479  -1.663  -0.576  1.00  0.00     0.029 A 
ATOM     58  N   UNL     1     -13.727  -0.326  -0.878  1.00  0.00    -0.354 N 
ATOM     59  N   UNL     1     -12.349   2.260  -1.006  1.00  0.00    -0.248 NA
ATOM     60  C   UNL     1     -12.408   4.595  -0.982  1.00  0.00     0.031 C 
ATOM     61  C   UNL     1     -15.913  -0.336  -0.480  1.00  0.00     0.029 A 
ATOM     62  C   UNL     1     -14.818   0.496  -0.648  1.00  0.00     0.049 A 
ATOM     63  H   UNL     1     -12.808  -0.013  -1.041  1.00  0.00     0.167 HD
ATOM     64  C   UNL     1     -13.652   2.680  -0.773  1.00  0.00     0.074 A 
ATOM     65  C   UNL     1     -13.625   4.128  -0.739  1.00  0.00     0.031 C 
ATOM     66  C   UNL     1     -14.771   1.935  -0.604  1.00  0.00     0.037 A 
BRANCH  53  67
ATOM     67  C   UNL     1     -13.828  -4.155  -1.047  1.00  0.00     0.057 A 
ATOM     68  C   UNL     1     -13.585  -5.056  -0.001  1.00  0.00     0.134 A 
ATOM     69  C   UNL     1     -14.659  -4.584  -2.089  1.00  0.00     0.134 A 
ATOM     70  F   UNL     1     -12.787  -4.712   1.021  1.00  0.00    -0.206 F 
ATOM     71  C   UNL     1     -14.123  -6.344  -0.007  1.00  0.00     0.040 A 
ATOM     72  C   UNL     1     -15.225  -5.860  -2.092  1.00  0.00     0.040 A 
ATOM     73  F   UNL     1     -14.937  -3.771  -3.119  1.00  0.00    -0.206 F 
ATOM     74  C   UNL     1     -14.951  -6.747  -1.052  1.00  0.00     0.006 A 
ENDBRANCH  53  67
BRANCH  54  75
ATOM     75  C   UNL     1      -9.530   4.843  -1.412  1.00  0.00     0.057 A 
ATOM     76  C   UNL     1      -9.427   5.650  -0.272  1.00  0.00     0.134 A 
ATOM     77  C   UNL     1      -9.034   5.359  -2.614  1.00  0.00     0.134 A 
ATOM     78  F   UNL     1      -9.902   5.218   0.905  1.00  0.00    -0.206 F 
ATOM     79  C   UNL     1      -8.872   6.929  -0.328  1.00  0.00     0.040 A 
ATOM     80  C   UNL     1      -8.454   6.628  -2.680  1.00  0.00     0.040 A 
ATOM     81  F   UNL     1      -9.094   4.633  -3.739  1.00  0.00    -0.206 F 
ATOM     82  C   UNL     1      -8.380   7.420  -1.536  1.00  0.00     0.006 A 
ENDBRANCH  54  75
BRANCH  66  83
ATOM     83  C   UNL     1     -16.049   2.668  -0.328  1.00  0.00     0.057 A 
ATOM     84  C   UNL     1     -16.724   3.379  -1.328  1.00  0.00     0.134 A 
ATOM     85  C   UNL     1     -16.631   2.628   0.945  1.00  0.00     0.134 A 
ATOM     86  F   UNL     1     -16.210   3.467  -2.564  1.00  0.00    -0.206 F 
ATOM     87  C   UNL     1     -17.925   4.040  -1.066  1.00  0.00     0.040 A 
ATOM     88  C   UNL     1     -17.843   3.264   1.213  1.00  0.00     0.040 A 
ATOM     89  F   UNL     1     -16.038   1.958   1.945  1.00  0.00    -0.206 F 
ATOM     90  C   UNL     1     -18.491   3.977   0.206  1.00  0.00     0.006 A 
ENDBRANCH  66  83
ENDBRANCH  40  41
ENDBRANCH  32  35
ENDBRANCH  30  31
ENDBRANCH  29  30
ENDBRANCH  28  29
ENDBRANCH   1  28
TORSDOF 17
