REMARK SMILES CC1=C[C@H](C)[C@H](CN2C[C@]34C=C[C@@H](O3)[C@H](C(=O)NCCCCNC(=O)c3ccc(-c5c6nc(c(-c7c(F)cccc7F)c7ccc([nH]7)c(-c7c(F)cccc7F)c7nc(c(-c8c(F)cccc8F)c8ccc5[nH]8)C=C7)C=C6)cc3)[C@@H]4C2=O)[C@H](C)C1
REMARK SMILES IDX 20 1 19 2 18 3 16 4 17 5 15 7 8 8 9 9 81 10 10 11 80 12
REMARK SMILES IDX 82 13 11 14 14 15 12 16 13 17 7 18 6 19 1 20 2 21 3 22 85 23
REMARK SMILES IDX 4 24 83 25 5 26 84 27 21 28 22 29 23 30 24 31 25 33 26 34
REMARK SMILES IDX 27 35 79 36 28 37 78 38 29 39 30 40 31 41 72 42 32 43 77 44
REMARK SMILES IDX 71 45 73 46 33 47 76 48 70 49 69 50 34 52 60 53 43 54 59 55
REMARK SMILES IDX 44 56 47 57 58 58 74 59 45 60 46 61 57 63 75 64 48 65 35 66
REMARK SMILES IDX 36 67 41 68 37 69 38 70 40 71 42 72 39 73 61 74 62 75 67 76
REMARK SMILES IDX 63 77 64 78 66 79 68 80 65 81 49 82 50 83 55 84 51 85 52 86
REMARK SMILES IDX 54 87 56 88 53 89
REMARK H PARENT 18 6 23 32 73 51 47 62
REMARK Flexibility Score: inf
ROOT
ATOM      1  C   UNL     1       1.856   1.111  -4.133  1.00  0.00     0.023 C 
ENDROOT
BRANCH   1   2
ATOM      2  C   UNL     1       0.525   0.379  -3.935  1.00  0.00     0.116 C 
BRANCH   2   3
ATOM      3  N   UNL     1      -0.517   0.384  -4.985  1.00  0.00    -0.356 N 
ATOM      4  C   UNL     1      -1.507  -0.618  -4.986  1.00  0.00     0.227 C 
ATOM      5  O   UNL     1      -2.410  -0.577  -4.152  1.00  0.00    -0.275 OA
ATOM      6  H   UNL     1      -0.518   1.083  -5.678  1.00  0.00     0.163 HD
BRANCH   4   7
ATOM      7  C   UNL     1      -1.518  -1.673  -6.126  1.00  0.00     0.127 C 
ATOM      8  N   UNL     1      -0.798  -4.244  -3.906  1.00  0.00    -0.339 N 
ATOM      9  C   UNL     1       0.088  -3.351  -4.527  1.00  0.00     0.160 C 
ATOM     10  C   UNL     1      -1.851  -4.317  -4.796  1.00  0.00     0.230 C 
ATOM     11  C   UNL     1       0.023  -3.604  -6.121  1.00  0.00     0.117 C 
ATOM     12  C   UNL     1      -1.551  -3.286  -5.942  1.00  0.00     0.132 C 
ATOM     13  O   UNL     1      -2.704  -5.178  -4.827  1.00  0.00    -0.274 OA
ATOM     14  C   UNL     1       1.321  -2.764  -6.132  1.00  0.00     0.009 C 
ATOM     15  O   UNL     1      -0.221  -2.944  -7.433  1.00  0.00    -0.360 OA
ATOM     16  C   UNL     1       1.073  -1.517  -6.539  1.00  0.00     0.004 C 
ATOM     17  C   UNL     1      -0.309  -1.548  -7.065  1.00  0.00     0.155 C 
BRANCH   8  18
ATOM     18  C   UNL     1      -0.358  -5.000  -2.696  1.00  0.00     0.124 C 
BRANCH  18  19
ATOM     19  C   UNL     1      -0.514  -4.269  -1.300  1.00  0.00     0.018 C 
ATOM     20  C   UNL     1      -0.167  -0.825   1.430  1.00  0.00     0.039 C 
ATOM     21  C   UNL     1      -0.341  -2.195   0.829  1.00  0.00    -0.077 C 
ATOM     22  C   UNL     1       0.643  -3.126   0.771  1.00  0.00    -0.025 C 
ATOM     23  C   UNL     1      -1.518  -2.306  -0.101  1.00  0.00     0.034 C 
ATOM     24  C   UNL     1       0.656  -4.325  -0.221  1.00  0.00     0.014 C 
ATOM     25  C   UNL     1      -0.991  -2.818  -1.435  1.00  0.00    -0.005 C 
ATOM     26  C   UNL     1       2.066  -4.483  -0.821  1.00  0.00     0.012 C 
ATOM     27  C   UNL     1       0.119  -1.867  -1.871  1.00  0.00     0.008 C 
ENDBRANCH  18  19
ENDBRANCH   8  18
ENDBRANCH   4   7
ENDBRANCH   2   3
ENDBRANCH   1   2
BRANCH   1  28
ATOM     28  C   UNL     1       2.476   1.764  -2.864  1.00  0.00     0.023 C 
BRANCH  28  29
ATOM     29  C   UNL     1       2.570   1.017  -1.515  1.00  0.00     0.116 C 
BRANCH  29  30
ATOM     30  N   UNL     1       3.596  -0.017  -1.410  1.00  0.00    -0.352 N 
ATOM     31  C   UNL     1       4.492  -0.264  -0.378  1.00  0.00     0.251 C 
ATOM     32  H   UNL     1       3.663  -0.625  -2.181  1.00  0.00     0.163 HD
ATOM     33  O   UNL     1       5.263  -1.217  -0.437  1.00  0.00    -0.269 OA
BRANCH  31  34
ATOM     34  C   UNL     1       4.542   0.633   0.804  1.00  0.00     0.039 A 
ATOM     35  C   UNL     1       5.692   1.355   1.111  1.00  0.00     0.014 A 
ATOM     36  C   UNL     1       3.422   0.772   1.615  1.00  0.00     0.014 A 
ATOM     37  C   UNL     1       5.660   2.309   2.142  1.00  0.00     0.010 A 
ATOM     38  C   UNL     1       3.351   1.784   2.572  1.00  0.00     0.010 A 
ATOM     39  C   UNL     1       4.464   2.593   2.832  1.00  0.00    -0.014 A 
BRANCH  39  40
ATOM     40  C   UNL     1       4.344   3.764   3.756  1.00  0.00     0.031 A 
ATOM     41  C   UNL     1       3.874   3.604   5.182  1.00  0.00     0.074 A 
ATOM     42  C   UNL     1       4.564   5.009   3.279  1.00  0.00     0.049 A 
ATOM     43  N   UNL     1       3.645   4.524   6.088  1.00  0.00    -0.248 NA
ATOM     44  C   UNL     1       3.586   2.236   5.640  1.00  0.00     0.031 C 
ATOM     45  C   UNL     1       4.936   5.333   1.899  1.00  0.00     0.029 A 
ATOM     46  N   UNL     1       4.498   6.238   3.894  1.00  0.00    -0.354 N 
ATOM     47  C   UNL     1       3.168   3.850   7.207  1.00  0.00     0.074 A 
ATOM     48  C   UNL     1       3.079   2.453   6.845  1.00  0.00     0.031 C 
ATOM     49  C   UNL     1       5.109   6.658   1.785  1.00  0.00     0.029 A 
ATOM     50  C   UNL     1       4.811   7.290   3.065  1.00  0.00     0.049 A 
ATOM     51  H   UNL     1       4.250   6.353   4.840  1.00  0.00     0.167 HD
ATOM     52  C   UNL     1       2.859   4.340   8.434  1.00  0.00     0.037 A 
ATOM     53  C   UNL     1       4.850   8.617   3.298  1.00  0.00     0.037 A 
ATOM     54  C   UNL     1       2.979   5.726   8.810  1.00  0.00     0.049 A 
ATOM     55  C   UNL     1       4.522   9.138   4.669  1.00  0.00     0.074 A 
ATOM     56  C   UNL     1       2.774   6.304  10.052  1.00  0.00     0.029 A 
ATOM     57  N   UNL     1       3.331   6.753   7.947  1.00  0.00    -0.354 N 
ATOM     58  N   UNL     1       4.163   8.473   5.739  1.00  0.00    -0.248 NA
ATOM     59  C   UNL     1       4.610  10.592   4.867  1.00  0.00     0.031 C 
ATOM     60  C   UNL     1       2.947   7.686   9.927  1.00  0.00     0.029 A 
ATOM     61  C   UNL     1       3.321   7.963   8.623  1.00  0.00     0.049 A 
ATOM     62  H   UNL     1       3.554   6.640   6.995  1.00  0.00     0.167 HD
ATOM     63  C   UNL     1       4.011   9.421   6.743  1.00  0.00     0.074 A 
ATOM     64  C   UNL     1       4.328  10.707   6.157  1.00  0.00     0.031 C 
ATOM     65  C   UNL     1       3.645   9.239   8.035  1.00  0.00     0.037 A 
BRANCH  52  66
ATOM     66  C   UNL     1       2.368   3.366   9.471  1.00  0.00     0.057 A 
ATOM     67  C   UNL     1       3.200   2.378  10.014  1.00  0.00     0.134 A 
ATOM     68  C   UNL     1       1.056   3.439   9.960  1.00  0.00     0.134 A 
ATOM     69  F   UNL     1       4.468   2.249   9.592  1.00  0.00    -0.206 F 
ATOM     70  C   UNL     1       2.737   1.473  10.972  1.00  0.00     0.040 A 
ATOM     71  C   UNL     1       0.591   2.561  10.942  1.00  0.00     0.040 A 
ATOM     72  F   UNL     1       0.207   4.369   9.499  1.00  0.00    -0.206 F 
ATOM     73  C   UNL     1       1.429   1.568  11.443  1.00  0.00     0.006 A 
ENDBRANCH  52  66
BRANCH  53  74
ATOM     74  C   UNL     1       5.244   9.548   2.207  1.00  0.00     0.057 A 
ATOM     75  C   UNL     1       6.469  10.226   2.244  1.00  0.00     0.134 A 
ATOM     76  C   UNL     1       4.417   9.774   1.101  1.00  0.00     0.134 A 
ATOM     77  F   UNL     1       7.298  10.065   3.285  1.00  0.00    -0.206 F 
ATOM     78  C   UNL     1       6.850  11.106   1.229  1.00  0.00     0.040 A 
ATOM     79  C   UNL     1       4.797  10.630   0.065  1.00  0.00     0.040 A 
ATOM     80  F   UNL     1       3.235   9.147   0.999  1.00  0.00    -0.206 F 
ATOM     81  C   UNL     1       6.014  11.304   0.131  1.00  0.00     0.006 A 
ENDBRANCH  53  74
BRANCH  65  82
ATOM     82  C   UNL     1       3.603  10.450   8.923  1.00  0.00     0.057 A 
ATOM     83  C   UNL     1       2.607  11.426   8.802  1.00  0.00     0.134 A 
ATOM     84  C   UNL     1       4.543  10.609   9.950  1.00  0.00     0.134 A 
ATOM     85  F   UNL     1       1.685  11.341   7.831  1.00  0.00    -0.206 F 
ATOM     86  C   UNL     1       2.556  12.527   9.660  1.00  0.00     0.040 A 
ATOM     87  C   UNL     1       4.486  11.690  10.832  1.00  0.00     0.040 A 
ATOM     88  F   UNL     1       5.519   9.707  10.127  1.00  0.00    -0.206 F 
ATOM     89  C   UNL     1       3.492  12.655  10.684  1.00  0.00     0.006 A 
ENDBRANCH  65  82
ENDBRANCH  39  40
ENDBRANCH  31  34
ENDBRANCH  29  30
ENDBRANCH  28  29
ENDBRANCH   1  28
TORSDOF 13
