REMARK SMILES Cc1c(CC(=O)N[C@H](CO)C(=O)NCCCCNC(=O)c2ccc(-c3c4nc(c(-c5c(F)cccc5F)c5ccc([nH]5)c(-c5c(F)cccc5F)c5nc(c(-c6c(F)cccc6F)c6ccc3[nH]6)C=C5)C=C4)cc2)cc(-c2ccc(S(C)(=O)=O)cc2)n1-c1cccc(F)c1
REMARK SMILES IDX 14 1 13 2 11 3 12 4 8 6 7 7 5 8 6 9 4 11 3 12 1 13 2 14
REMARK SMILES IDX 87 15 75 16 76 17 88 18 89 19 94 20 90 21 92 22 91 23 93 24
REMARK SMILES IDX 77 25 78 26 86 27 79 28 85 29 80 30 81 31 82 32 83 33 84 34
REMARK SMILES IDX 9 35 10 36 15 38 16 39 17 40 18 41 19 42 20 44 21 45 22 46
REMARK SMILES IDX 74 47 23 48 73 49 24 50 25 51 26 52 67 53 27 54 72 55 66 56
REMARK SMILES IDX 68 57 28 58 71 59 65 60 64 61 29 63 55 64 38 65 54 66 39 67
REMARK SMILES IDX 42 68 53 69 69 70 40 71 41 72 52 74 70 75 43 76 30 77 31 78
REMARK SMILES IDX 36 79 32 80 33 81 35 82 37 83 34 84 56 85 57 86 62 87 58 88
REMARK SMILES IDX 59 89 61 90 63 91 60 92 44 93 45 94 50 95 46 96 47 97 49 98
REMARK SMILES IDX 51 99 48 100
REMARK H PARENT 13 5 7 10 10 37 18 43 68 62 42 73
REMARK Flexibility Score: inf
ROOT
ATOM      1  C   UNL     1       4.854  -2.567  -6.542  1.00  0.00     0.116 C 
ENDROOT
BRANCH   1   2
ATOM      2  N   UNL     1       3.398  -2.684  -6.633  1.00  0.00    -0.354 N 
ATOM      3  C   UNL     1       2.298  -2.065  -6.117  1.00  0.00     0.244 C 
ATOM      4  O   UNL     1       1.252  -2.406  -6.694  1.00  0.00    -0.273 OA
ATOM      5  H   UNL     1       3.140  -3.416  -7.239  1.00  0.00     0.163 HD
BRANCH   3   6
ATOM      6  C   UNL     1       2.207  -0.993  -4.962  1.00  0.00     0.197 C 
BRANCH   6   7
ATOM      7  N   UNL     1       3.356  -0.304  -4.353  1.00  0.00    -0.342 N 
ATOM      8  C   UNL     1       4.211  -0.776  -3.394  1.00  0.00     0.225 C 
ATOM      9  O   UNL     1       4.788   0.031  -2.665  1.00  0.00    -0.275 OA
ATOM     10  H   UNL     1       3.532   0.610  -4.675  1.00  0.00     0.164 HD
BRANCH   8  11
ATOM     11  C   UNL     1       4.476  -2.258  -3.338  1.00  0.00     0.137 C 
BRANCH  11  12
ATOM     12  C   UNL     1       3.778  -3.019  -2.284  1.00  0.00    -0.017 A 
ATOM     13  C   UNL     1       5.134  -2.285  -0.224  1.00  0.00     0.065 C 
ATOM     14  C   UNL     1       4.023  -2.993  -0.930  1.00  0.00     0.024 A 
ATOM     15  N   UNL     1       3.067  -3.787  -0.309  1.00  0.00    -0.313 N 
ATOM     16  C   UNL     1       2.764  -3.985  -2.512  1.00  0.00     0.033 A 
ATOM     17  C   UNL     1       2.286  -4.407  -1.288  1.00  0.00     0.053 A 
BRANCH  15  18
ATOM     18  C   UNL     1       2.878  -3.881   1.090  1.00  0.00     0.049 A 
ATOM     19  C   UNL     1       2.699  -5.128   1.698  1.00  0.00     0.027 A 
ATOM     20  C   UNL     1       2.826  -2.703   1.841  1.00  0.00     0.065 A 
ATOM     21  C   UNL     1       2.482  -5.191   3.075  1.00  0.00     0.005 A 
ATOM     22  C   UNL     1       2.595  -2.785   3.203  1.00  0.00     0.125 A 
ATOM     23  C   UNL     1       2.427  -4.016   3.827  1.00  0.00     0.039 A 
ATOM     24  F   UNL     1       2.516  -1.659   3.923  1.00  0.00    -0.207 F 
ENDBRANCH  15  18
BRANCH  17  25
ATOM     25  C   UNL     1       1.058  -5.173  -1.052  1.00  0.00    -0.001 A 
ATOM     26  C   UNL     1       0.026  -4.609  -0.287  1.00  0.00     0.011 A 
ATOM     27  C   UNL     1       0.876  -6.445  -1.612  1.00  0.00     0.011 A 
ATOM     28  C   UNL     1      -1.128  -5.333  -0.005  1.00  0.00     0.021 A 
ATOM     29  C   UNL     1      -0.283  -7.180  -1.336  1.00  0.00     0.021 A 
ATOM     30  C   UNL     1      -1.261  -6.628  -0.504  1.00  0.00     0.067 A 
BRANCH  30  31
ATOM     31  S   UNL     1      -2.681  -7.589  -0.041  1.00  0.00     0.175 S 
ATOM     32  C   UNL     1      -2.463  -7.807   1.711  1.00  0.00     0.163 C 
ATOM     33  O   UNL     1      -3.852  -6.721  -0.241  1.00  0.00    -0.224 OA
ATOM     34  O   UNL     1      -2.590  -8.867  -0.665  1.00  0.00    -0.224 OA
ENDBRANCH  30  31
ENDBRANCH  17  25
ENDBRANCH  11  12
ENDBRANCH   8  11
ENDBRANCH   6   7
BRANCH   6  35
ATOM     35  C   UNL     1       1.142  -1.304  -3.852  1.00  0.00     0.191 C 
BRANCH  35  36
ATOM     36  O   UNL     1       0.275  -2.390  -4.115  1.00  0.00    -0.394 OA
ATOM     37  H   UNL     1      -0.263  -2.193  -4.898  1.00  0.00     0.210 HD
ENDBRANCH  35  36
ENDBRANCH   6  35
ENDBRANCH   3   6
ENDBRANCH   1   2
BRANCH   1  38
ATOM     38  C   UNL     1       5.549  -3.852  -6.013  1.00  0.00     0.023 C 
BRANCH  38  39
ATOM     39  C   UNL     1       5.826  -5.040  -6.974  1.00  0.00     0.023 C 
BRANCH  39  40
ATOM     40  C   UNL     1       6.601  -4.782  -8.294  1.00  0.00     0.116 C 
BRANCH  40  41
ATOM     41  N   UNL     1       7.926  -5.411  -8.347  1.00  0.00    -0.352 N 
ATOM     42  C   UNL     1       8.638  -6.115  -9.315  1.00  0.00     0.251 C 
ATOM     43  H   UNL     1       8.426  -5.313  -7.505  1.00  0.00     0.163 HD
ATOM     44  O   UNL     1       9.767  -6.492  -8.981  1.00  0.00    -0.269 OA
BRANCH  42  45
ATOM     45  C   UNL     1       8.183  -6.456 -10.728  1.00  0.00     0.039 A 
ATOM     46  C   UNL     1       8.557  -7.664 -11.346  1.00  0.00     0.014 A 
ATOM     47  C   UNL     1       7.552  -5.580 -11.584  1.00  0.00     0.014 A 
ATOM     48  C   UNL     1       8.327  -7.971 -12.766  1.00  0.00     0.010 A 
ATOM     49  C   UNL     1       7.324  -5.907 -12.998  1.00  0.00     0.010 A 
ATOM     50  C   UNL     1       7.772  -7.077 -13.724  1.00  0.00    -0.014 A 
BRANCH  50  51
ATOM     51  C   UNL     1       8.208  -7.288 -15.413  1.00  0.00     0.031 A 
ATOM     52  C   UNL     1       9.721  -7.150 -15.451  1.00  0.00     0.074 A 
ATOM     53  C   UNL     1       7.881  -7.122 -16.805  1.00  0.00     0.049 A 
ATOM     54  N   UNL     1      10.149  -6.019 -15.928  1.00  0.00    -0.248 NA
ATOM     55  C   UNL     1      10.640  -7.723 -14.475  1.00  0.00     0.031 C 
ATOM     56  C   UNL     1       8.851  -7.429 -17.958  1.00  0.00     0.029 A 
ATOM     57  N   UNL     1       6.827  -6.598 -17.602  1.00  0.00    -0.354 N 
ATOM     58  C   UNL     1      10.690  -5.460 -14.818  1.00  0.00     0.074 A 
ATOM     59  C   UNL     1      11.189  -6.584 -14.026  1.00  0.00     0.031 C 
ATOM     60  C   UNL     1       8.350  -7.162 -19.190  1.00  0.00     0.029 A 
ATOM     61  C   UNL     1       7.029  -6.591 -19.057  1.00  0.00     0.049 A 
ATOM     62  H   UNL     1       5.998  -6.255 -17.197  1.00  0.00     0.167 HD
ATOM     63  C   UNL     1      10.320  -4.203 -14.466  1.00  0.00     0.037 A 
ATOM     64  C   UNL     1       6.300  -5.992 -20.076  1.00  0.00     0.037 A 
ATOM     65  C   UNL     1       9.100  -3.687 -15.123  1.00  0.00     0.049 A 
ATOM     66  C   UNL     1       6.207  -4.599 -19.565  1.00  0.00     0.074 A 
ATOM     67  C   UNL     1       7.792  -4.101 -15.281  1.00  0.00     0.029 A 
ATOM     68  N   UNL     1       9.132  -2.604 -15.983  1.00  0.00    -0.354 N 
ATOM     69  N   UNL     1       7.061  -3.640 -19.796  1.00  0.00    -0.248 NA
ATOM     70  C   UNL     1       5.080  -4.272 -18.705  1.00  0.00     0.031 C 
ATOM     71  C   UNL     1       6.994  -3.069 -15.784  1.00  0.00     0.029 A 
ATOM     72  C   UNL     1       7.899  -2.501 -16.646  1.00  0.00     0.049 A 
ATOM     73  H   UNL     1       9.899  -2.000 -16.111  1.00  0.00     0.167 HD
ATOM     74  C   UNL     1       6.796  -2.741 -18.778  1.00  0.00     0.074 A 
ATOM     75  C   UNL     1       5.460  -3.066 -18.304  1.00  0.00     0.031 C 
ATOM     76  C   UNL     1       7.842  -2.238 -18.062  1.00  0.00     0.037 A 
BRANCH  63  77
ATOM     77  C   UNL     1      11.112  -3.405 -13.483  1.00  0.00     0.057 A 
ATOM     78  C   UNL     1      12.420  -3.731 -13.077  1.00  0.00     0.134 A 
ATOM     79  C   UNL     1      10.662  -2.128 -13.117  1.00  0.00     0.134 A 
ATOM     80  F   UNL     1      13.005  -4.896 -13.377  1.00  0.00    -0.206 F 
ATOM     81  C   UNL     1      13.244  -2.826 -12.414  1.00  0.00     0.040 A 
ATOM     82  C   UNL     1      11.504  -1.191 -12.521  1.00  0.00     0.040 A 
ATOM     83  F   UNL     1       9.415  -1.714 -13.385  1.00  0.00    -0.206 F 
ATOM     84  C   UNL     1      12.804  -1.535 -12.180  1.00  0.00     0.006 A 
ENDBRANCH  63  77
BRANCH  64  85
ATOM     85  C   UNL     1       5.947  -5.987 -21.584  1.00  0.00     0.057 A 
ATOM     86  C   UNL     1       6.621  -6.427 -22.733  1.00  0.00     0.134 A 
ATOM     87  C   UNL     1       4.663  -5.429 -21.887  1.00  0.00     0.134 A 
ATOM     88  F   UNL     1       7.857  -6.939 -22.660  1.00  0.00    -0.206 F 
ATOM     89  C   UNL     1       6.039  -6.348 -24.044  1.00  0.00     0.040 A 
ATOM     90  C   UNL     1       4.088  -5.329 -23.166  1.00  0.00     0.040 A 
ATOM     91  F   UNL     1       3.875  -4.971 -20.904  1.00  0.00    -0.206 F 
ATOM     92  C   UNL     1       4.769  -5.811 -24.261  1.00  0.00     0.006 A 
ENDBRANCH  64  85
BRANCH  76  93
ATOM     93  C   UNL     1       9.050  -1.862 -18.827  1.00  0.00     0.057 A 
ATOM     94  C   UNL     1       9.031  -0.647 -19.508  1.00  0.00     0.134 A 
ATOM     95  C   UNL     1      10.257  -2.568 -18.766  1.00  0.00     0.134 A 
ATOM     96  F   UNL     1       7.894   0.060 -19.606  1.00  0.00    -0.206 F 
ATOM     97  C   UNL     1      10.197  -0.105 -20.036  1.00  0.00     0.040 A 
ATOM     98  C   UNL     1      11.438  -2.017 -19.250  1.00  0.00     0.040 A 
ATOM     99  F   UNL     1      10.337  -3.752 -18.144  1.00  0.00    -0.206 F 
ATOM    100  C   UNL     1      11.410  -0.775 -19.877  1.00  0.00     0.006 A 
ENDBRANCH  76  93
ENDBRANCH  50  51
ENDBRANCH  42  45
ENDBRANCH  40  41
ENDBRANCH  39  40
ENDBRANCH  38  39
ENDBRANCH   1  38
TORSDOF 19
