REMARK SMILES C[C@@H](C#N)CN(C)C(=O)N1CCC(CC(=O)NCCCCNC(=O)c2ccc(-c3c4nc(c(-c5c(F)cccc5F)c5ccc([nH]5)c(-c5c(F)cccc5F)c5nc(c(-c6c(F)cccc6F)c6ccc3[nH]6)C=C5)C=C4)cc2)CC1
REMARK SMILES IDX 18 1 17 2 15 3 16 4 14 6 13 7 8 8 9 9 10 10 11 11 80 12
REMARK SMILES IDX 12 13 79 14 6 15 7 16 5 17 2 18 1 19 3 20 4 21 19 22 20 23
REMARK SMILES IDX 21 24 22 25 23 26 24 28 25 29 26 30 78 31 27 32 77 33 28 34
REMARK SMILES IDX 29 35 30 36 71 37 31 38 76 39 70 40 72 41 32 42 75 43 69 44
REMARK SMILES IDX 68 45 33 47 59 48 42 49 58 50 43 51 46 52 57 53 73 54 44 55
REMARK SMILES IDX 45 56 56 58 74 59 47 60 34 61 35 62 40 63 36 64 37 65 39 66
REMARK SMILES IDX 41 67 38 68 60 69 61 70 66 71 62 72 63 73 65 74 67 75 64 76
REMARK SMILES IDX 48 77 49 78 54 79 50 80 51 81 53 82 55 83 52 84
REMARK H PARENT 17 5 22 27 72 46 46 57
REMARK Flexibility Score: inf
ROOT
ATOM      1  C   UNL     1      -0.559   3.575  -5.898  1.00  0.00     0.116 C 
ENDROOT
BRANCH   1   2
ATOM      2  N   UNL     1      -1.519   3.251  -6.940  1.00  0.00    -0.356 N 
ATOM      3  C   UNL     1      -2.770   2.713  -6.850  1.00  0.00     0.220 C 
ATOM      4  O   UNL     1      -3.364   2.441  -7.894  1.00  0.00    -0.275 OA
ATOM      5  H   UNL     1      -1.219   3.451  -7.856  1.00  0.00     0.163 HD
BRANCH   3   6
ATOM      6  C   UNL     1      -3.414   2.453  -5.497  1.00  0.00     0.103 C 
BRANCH   6   7
ATOM      7  C   UNL     1      -3.277   0.997  -5.007  1.00  0.00     0.002 C 
ATOM      8  C   UNL     1      -1.827  -0.337  -1.671  1.00  0.00     0.319 C 
ATOM      9  O   UNL     1      -1.397   0.805  -1.537  1.00  0.00    -0.248 OA
ATOM     10  N   UNL     1      -2.396  -0.776  -2.855  1.00  0.00    -0.325 N 
ATOM     11  C   UNL     1      -1.594  -0.695  -4.054  1.00  0.00     0.121 C 
ATOM     12  C   UNL     1      -3.819  -0.572  -3.066  1.00  0.00     0.121 C 
ATOM     13  C   UNL     1      -1.810   0.622  -4.780  1.00  0.00     0.026 C 
ATOM     14  C   UNL     1      -4.095   0.787  -3.718  1.00  0.00     0.026 C 
BRANCH   8  15
ATOM     15  N   UNL     1      -1.704  -1.320  -0.697  1.00  0.00    -0.326 N 
ATOM     16  C   UNL     1      -2.114  -2.697  -0.931  1.00  0.00     0.148 C 
BRANCH  15  17
ATOM     17  C   UNL     1      -1.061  -0.997   0.583  1.00  0.00     0.139 C 
BRANCH  17  18
ATOM     18  C   UNL     1       0.454  -1.275   0.589  1.00  0.00     0.109 C 
ATOM     19  C   UNL     1       1.254  -0.231  -0.189  1.00  0.00     0.026 C 
BRANCH  18  20
ATOM     20  C   UNL     1       0.961  -1.317   2.021  1.00  0.00     0.067 C 
ATOM     21  N   UNL     1       1.381  -1.353   3.209  1.00  0.00    -0.198 NA
ENDBRANCH  18  20
ENDBRANCH  17  18
ENDBRANCH  15  17
ENDBRANCH   8  15
ENDBRANCH   6   7
ENDBRANCH   3   6
ENDBRANCH   1   2
BRANCH   1  22
ATOM     22  C   UNL     1       0.592   2.565  -5.866  1.00  0.00     0.023 C 
BRANCH  22  23
ATOM     23  C   UNL     1       1.744   2.871  -6.808  1.00  0.00     0.023 C 
BRANCH  23  24
ATOM     24  C   UNL     1       2.561   4.085  -6.412  1.00  0.00     0.116 C 
BRANCH  24  25
ATOM     25  N   UNL     1       3.201   3.956  -5.108  1.00  0.00    -0.352 N 
ATOM     26  C   UNL     1       4.507   4.234  -4.759  1.00  0.00     0.251 C 
ATOM     27  H   UNL     1       2.625   3.627  -4.380  1.00  0.00     0.163 HD
ATOM     28  O   UNL     1       4.931   3.988  -3.648  1.00  0.00    -0.269 OA
BRANCH  26  29
ATOM     29  C   UNL     1       5.394   4.798  -5.798  1.00  0.00     0.039 A 
ATOM     30  C   UNL     1       6.613   4.171  -6.062  1.00  0.00     0.014 A 
ATOM     31  C   UNL     1       4.954   5.867  -6.580  1.00  0.00     0.014 A 
ATOM     32  C   UNL     1       7.350   4.558  -7.182  1.00  0.00     0.010 A 
ATOM     33  C   UNL     1       5.632   6.174  -7.749  1.00  0.00     0.010 A 
ATOM     34  C   UNL     1       6.837   5.525  -8.062  1.00  0.00    -0.014 A 
BRANCH  34  35
ATOM     35  C   UNL     1       7.541   5.906  -9.309  1.00  0.00     0.031 A 
ATOM     36  C   UNL     1       7.969   7.334  -9.499  1.00  0.00     0.074 A 
ATOM     37  C   UNL     1       7.695   5.011 -10.304  1.00  0.00     0.049 A 
ATOM     38  N   UNL     1       8.435   7.925 -10.569  1.00  0.00    -0.248 NA
ATOM     39  C   UNL     1       7.801   8.230  -8.342  1.00  0.00     0.031 C 
ATOM     40  C   UNL     1       7.266   3.611 -10.265  1.00  0.00     0.029 A 
ATOM     41  N   UNL     1       8.238   5.156 -11.556  1.00  0.00    -0.354 N 
ATOM     42  C   UNL     1       8.577   9.262 -10.224  1.00  0.00     0.074 A 
ATOM     43  C   UNL     1       8.093   9.408  -8.869  1.00  0.00     0.031 C 
ATOM     44  C   UNL     1       7.579   3.023 -11.431  1.00  0.00     0.029 A 
ATOM     45  C   UNL     1       8.194   4.010 -12.312  1.00  0.00     0.049 A 
ATOM     46  H   UNL     1       8.622   6.002 -11.881  1.00  0.00     0.167 HD
ATOM     47  C   UNL     1       9.091  10.275 -10.960  1.00  0.00     0.037 A 
ATOM     48  C   UNL     1       8.597   3.787 -13.577  1.00  0.00     0.037 A 
ATOM     49  C   UNL     1       9.624  10.114 -12.284  1.00  0.00     0.049 A 
ATOM     50  C   UNL     1       9.208   4.915 -14.361  1.00  0.00     0.074 A 
ATOM     51  C   UNL     1      10.233  11.058 -13.090  1.00  0.00     0.029 A 
ATOM     52  N   UNL     1       9.622   8.920 -12.990  1.00  0.00    -0.354 N 
ATOM     53  N   UNL     1       9.385   6.165 -14.005  1.00  0.00    -0.248 NA
ATOM     54  C   UNL     1       9.680   4.604 -15.717  1.00  0.00     0.031 C 
ATOM     55  C   UNL     1      10.581  10.439 -14.296  1.00  0.00     0.029 A 
ATOM     56  C   UNL     1      10.217   9.104 -14.226  1.00  0.00     0.049 A 
ATOM     57  H   UNL     1       9.253   8.069 -12.661  1.00  0.00     0.167 HD
ATOM     58  C   UNL     1      10.009   6.782 -15.081  1.00  0.00     0.074 A 
ATOM     59  C   UNL     1      10.188   5.767 -16.099  1.00  0.00     0.031 C 
ATOM     60  C   UNL     1      10.398   8.073 -15.215  1.00  0.00     0.037 A 
BRANCH  47  61
ATOM     61  C   UNL     1       9.113  11.635 -10.330  1.00  0.00     0.057 A 
ATOM     62  C   UNL     1       9.968  11.940  -9.262  1.00  0.00     0.134 A 
ATOM     63  C   UNL     1       8.267  12.652 -10.791  1.00  0.00     0.134 A 
ATOM     64  F   UNL     1      10.789  11.004  -8.761  1.00  0.00    -0.206 F 
ATOM     65  C   UNL     1       9.957  13.194  -8.652  1.00  0.00     0.040 A 
ATOM     66  C   UNL     1       8.268  13.920 -10.207  1.00  0.00     0.040 A 
ATOM     67  F   UNL     1       7.425  12.428 -11.811  1.00  0.00    -0.206 F 
ATOM     68  C   UNL     1       9.108  14.191  -9.129  1.00  0.00     0.006 A 
ENDBRANCH  47  61
BRANCH  48  69
ATOM     69  C   UNL     1       8.461   2.434 -14.171  1.00  0.00     0.057 A 
ATOM     70  C   UNL     1       9.583   1.622 -14.373  1.00  0.00     0.134 A 
ATOM     71  C   UNL     1       7.215   1.918 -14.544  1.00  0.00     0.134 A 
ATOM     72  F   UNL     1      10.806   2.070 -14.052  1.00  0.00    -0.206 F 
ATOM     73  C   UNL     1       9.474   0.351 -14.939  1.00  0.00     0.040 A 
ATOM     74  C   UNL     1       7.088   0.640 -15.091  1.00  0.00     0.040 A 
ATOM     75  F   UNL     1       6.101   2.643 -14.367  1.00  0.00    -0.206 F 
ATOM     76  C   UNL     1       8.221  -0.145 -15.295  1.00  0.00     0.006 A 
ENDBRANCH  48  69
BRANCH  60  77
ATOM     77  C   UNL     1      11.086   8.454 -16.489  1.00  0.00     0.057 A 
ATOM     78  C   UNL     1      10.377   8.639 -17.681  1.00  0.00     0.134 A 
ATOM     79  C   UNL     1      12.464   8.704 -16.505  1.00  0.00     0.134 A 
ATOM     80  F   UNL     1       9.057   8.404 -17.730  1.00  0.00    -0.206 F 
ATOM     81  C   UNL     1      11.018   9.050 -18.851  1.00  0.00     0.040 A 
ATOM     82  C   UNL     1      13.112   9.134 -17.662  1.00  0.00     0.040 A 
ATOM     83  F   UNL     1      13.197   8.552 -15.391  1.00  0.00    -0.206 F 
ATOM     84  C   UNL     1      12.388   9.307 -18.840  1.00  0.00     0.006 A 
ENDBRANCH  60  77
ENDBRANCH  34  35
ENDBRANCH  26  29
ENDBRANCH  24  25
ENDBRANCH  23  24
ENDBRANCH  22  23
ENDBRANCH   1  22
TORSDOF 16
