REMARK SMILES O=C(NCCCCNC(=O)c1cc(S(=O)(=O)Nc2cccc(Cl)c2)ccc1O)c1ccc(-c2c3nc(c(-c4c(F)cccc4F)c4ccc([nH]4)c(-c4c(F)cccc4F)c4nc(c(-c5c(F)cccc5F)c5ccc2[nH]5)C=C4)C=C3)cc1
REMARK SMILES IDX 6 1 5 2 4 3 3 4 1 5 2 6 29 8 30 9 82 10 31 11 81 12 32 13
REMARK SMILES IDX 33 14 34 15 75 16 35 17 80 18 74 19 76 20 36 21 79 22 73 23
REMARK SMILES IDX 72 24 37 26 63 27 46 28 62 29 47 30 50 31 61 32 77 33 48 34
REMARK SMILES IDX 49 35 60 37 78 38 51 39 38 40 39 41 44 42 40 43 41 44 43 45
REMARK SMILES IDX 45 46 42 47 64 48 65 49 70 50 66 51 67 52 69 53 71 54 68 55
REMARK SMILES IDX 52 56 53 57 58 58 54 59 55 60 57 61 59 62 56 63 7 64 8 65
REMARK SMILES IDX 9 66 10 68 11 69 12 70 27 71 13 72 26 73 25 74 28 75 14 77
REMARK SMILES IDX 15 78 16 79 17 80 18 82 19 83 24 84 20 85 22 86 21 87 23 88
REMARK H PARENT 3 7 76 25 50 36 8 67 28 76 17 81
REMARK Flexibility Score: inf
ROOT
ATOM      1  C   UNL     1       4.724  -2.105   3.128  1.00  0.00     0.023 C 
ENDROOT
BRANCH   1   2
ATOM      2  C   UNL     1       5.179  -0.911   2.298  1.00  0.00     0.023 C 
BRANCH   2   3
ATOM      3  C   UNL     1       4.811  -0.962   0.820  1.00  0.00     0.116 C 
BRANCH   3   4
ATOM      4  N   UNL     1       3.375  -1.013   0.589  1.00  0.00    -0.352 N 
ATOM      5  O   UNL     1       1.332  -0.275  -0.014  1.00  0.00    -0.269 OA
ATOM      6  C   UNL     1       2.548  -0.111  -0.036  1.00  0.00     0.251 C 
ATOM      7  H   UNL     1       2.926  -1.818   0.935  1.00  0.00     0.163 HD
BRANCH   6   8
ATOM      8  C   UNL     1       3.116   1.077  -0.707  1.00  0.00     0.039 A 
ATOM      9  C   UNL     1       4.217   0.966  -1.560  1.00  0.00     0.014 A 
ATOM     10  C   UNL     1       2.528   2.325  -0.479  1.00  0.00     0.014 A 
ATOM     11  C   UNL     1       4.823   2.114  -2.061  1.00  0.00     0.010 A 
ATOM     12  C   UNL     1       3.092   3.470  -1.045  1.00  0.00     0.010 A 
ATOM     13  C   UNL     1       4.267   3.377  -1.808  1.00  0.00    -0.014 A 
BRANCH  13  14
ATOM     14  C   UNL     1       4.905   4.596  -2.365  1.00  0.00     0.031 A 
ATOM     15  C   UNL     1       5.514   5.626  -1.457  1.00  0.00     0.074 A 
ATOM     16  C   UNL     1       4.927   4.774  -3.699  1.00  0.00     0.049 A 
ATOM     17  N   UNL     1       6.056   6.779  -1.763  1.00  0.00    -0.248 NA
ATOM     18  C   UNL     1       5.508   5.328  -0.017  1.00  0.00     0.031 C 
ATOM     19  C   UNL     1       4.369   3.844  -4.682  1.00  0.00     0.029 A 
ATOM     20  N   UNL     1       5.434   5.797  -4.456  1.00  0.00    -0.354 N 
ATOM     21  C   UNL     1       6.430   7.354  -0.556  1.00  0.00     0.074 A 
ATOM     22  C   UNL     1       6.039   6.433   0.490  1.00  0.00     0.031 C 
ATOM     23  C   UNL     1       4.580   4.331  -5.914  1.00  0.00     0.029 A 
ATOM     24  C   UNL     1       5.237   5.629  -5.804  1.00  0.00     0.049 A 
ATOM     25  H   UNL     1       5.896   6.577  -4.071  1.00  0.00     0.167 HD
ATOM     26  C   UNL     1       7.048   8.541  -0.342  1.00  0.00     0.037 A 
ATOM     27  C   UNL     1       5.527   6.440  -6.837  1.00  0.00     0.037 A 
ATOM     28  C   UNL     1       7.454   9.446  -1.386  1.00  0.00     0.049 A 
ATOM     29  C   UNL     1       6.191   7.758  -6.574  1.00  0.00     0.074 A 
ATOM     30  C   UNL     1       8.119  10.655  -1.270  1.00  0.00     0.029 A 
ATOM     31  N   UNL     1       7.231   9.241  -2.739  1.00  0.00    -0.354 N 
ATOM     32  N   UNL     1       6.558   8.282  -5.429  1.00  0.00    -0.248 NA
ATOM     33  C   UNL     1       6.480   8.600  -7.742  1.00  0.00     0.031 C 
ATOM     34  C   UNL     1       8.266  11.198  -2.551  1.00  0.00     0.029 A 
ATOM     35  C   UNL     1       7.728  10.309  -3.468  1.00  0.00     0.049 A 
ATOM     36  H   UNL     1       6.784   8.453  -3.125  1.00  0.00     0.167 HD
ATOM     37  C   UNL     1       7.136   9.504  -5.739  1.00  0.00     0.074 A 
ATOM     38  C   UNL     1       7.080   9.641  -7.180  1.00  0.00     0.031 C 
ATOM     39  C   UNL     1       7.668  10.428  -4.902  1.00  0.00     0.037 A 
BRANCH  26  40
ATOM     40  C   UNL     1       7.302   8.940   1.083  1.00  0.00     0.057 A 
ATOM     41  C   UNL     1       8.295   8.328   1.858  1.00  0.00     0.134 A 
ATOM     42  C   UNL     1       6.561   9.970   1.676  1.00  0.00     0.134 A 
ATOM     43  F   UNL     1       9.031   7.327   1.353  1.00  0.00    -0.206 F 
ATOM     44  C   UNL     1       8.526   8.710   3.181  1.00  0.00     0.040 A 
ATOM     45  C   UNL     1       6.798  10.376   2.990  1.00  0.00     0.040 A 
ATOM     46  F   UNL     1       5.600  10.602   0.987  1.00  0.00    -0.206 F 
ATOM     47  C   UNL     1       7.779   9.741   3.749  1.00  0.00     0.006 A 
ENDBRANCH  26  40
BRANCH  27  48
ATOM     48  C   UNL     1       5.178   6.015  -8.213  1.00  0.00     0.057 A 
ATOM     49  C   UNL     1       6.165   5.602  -9.113  1.00  0.00     0.134 A 
ATOM     50  C   UNL     1       3.846   5.969  -8.643  1.00  0.00     0.134 A 
ATOM     51  F   UNL     1       7.458   5.638  -8.761  1.00  0.00    -0.206 F 
ATOM     52  C   UNL     1       5.840   5.158 -10.396  1.00  0.00     0.040 A 
ATOM     53  C   UNL     1       3.506   5.508  -9.914  1.00  0.00     0.040 A 
ATOM     54  F   UNL     1       2.856   6.344  -7.819  1.00  0.00    -0.206 F 
ATOM     55  C   UNL     1       4.505   5.103 -10.796  1.00  0.00     0.006 A 
ENDBRANCH  27  48
BRANCH  39  56
ATOM     56  C   UNL     1       8.261  11.654  -5.527  1.00  0.00     0.057 A 
ATOM     57  C   UNL     1       7.460  12.688  -6.026  1.00  0.00     0.134 A 
ATOM     58  C   UNL     1       9.650  11.820  -5.589  1.00  0.00     0.134 A 
ATOM     59  F   UNL     1       6.122  12.581  -6.008  1.00  0.00    -0.206 F 
ATOM     60  C   UNL     1       8.021  13.840  -6.578  1.00  0.00     0.040 A 
ATOM     61  C   UNL     1      10.222  12.976  -6.120  1.00  0.00     0.040 A 
ATOM     62  F   UNL     1      10.471  10.868  -5.122  1.00  0.00    -0.206 F 
ATOM     63  C   UNL     1       9.406  13.989  -6.620  1.00  0.00     0.006 A 
ENDBRANCH  39  56
ENDBRANCH  13  14
ENDBRANCH   6   8
ENDBRANCH   3   4
ENDBRANCH   2   3
ENDBRANCH   1   2
BRANCH   1  64
ATOM     64  C   UNL     1       5.075  -3.471   2.556  1.00  0.00     0.116 C 
BRANCH  64  65
ATOM     65  N   UNL     1       6.501  -3.716   2.409  1.00  0.00    -0.352 N 
ATOM     66  C   UNL     1       7.162  -4.916   2.574  1.00  0.00     0.255 C 
ATOM     67  H   UNL     1       7.056  -2.940   2.166  1.00  0.00     0.163 HD
ATOM     68  O   UNL     1       8.375  -4.998   2.409  1.00  0.00    -0.269 OA
BRANCH  66  69
ATOM     69  C   UNL     1       6.399  -6.077   3.076  1.00  0.00     0.082 A 
ATOM     70  C   UNL     1       6.796  -6.635   4.296  1.00  0.00     0.040 A 
ATOM     71  C   UNL     1       5.247  -6.543   2.435  1.00  0.00     0.128 A 
ATOM     72  C   UNL     1       5.948  -7.536   4.945  1.00  0.00     0.088 A 
ATOM     73  C   UNL     1       4.362  -7.361   3.123  1.00  0.00     0.048 A 
ATOM     74  C   UNL     1       4.683  -7.792   4.412  1.00  0.00     0.026 A 
BRANCH  71  75
ATOM     75  O   UNL     1       4.951  -6.154   1.161  1.00  0.00    -0.507 OA
ATOM     76  H   UNL     1       5.544  -5.601   0.690  1.00  0.00     0.293 HD
ENDBRANCH  71  75
BRANCH  72  77
ATOM     77  S   UNL     1       6.619  -8.399   6.354  1.00  0.00     0.261 S 
ATOM     78  O   UNL     1       7.812  -9.072   5.892  1.00  0.00    -0.201 OA
ATOM     79  O   UNL     1       6.666  -7.434   7.434  1.00  0.00    -0.201 OA
BRANCH  77  80
ATOM     80  N   UNL     1       5.538  -9.573   6.874  1.00  0.00    -0.280 N 
ATOM     81  H   UNL     1       5.421  -9.687   7.845  1.00  0.00     0.180 HD
BRANCH  80  82
ATOM     82  C   UNL     1       4.778 -10.414   6.018  1.00  0.00     0.050 A 
ATOM     83  C   UNL     1       5.242 -10.891   4.790  1.00  0.00     0.027 A 
ATOM     84  C   UNL     1       3.450 -10.638   6.396  1.00  0.00     0.047 A 
ATOM     85  C   UNL     1       4.341 -11.467   3.888  1.00  0.00     0.004 A 
ATOM     86  C   UNL     1       2.561 -11.216   5.494  1.00  0.00     0.043 A 
ATOM     87  C   UNL     1       2.994 -11.609   4.231  1.00  0.00     0.020 A 
ATOM     88  Cl  UNL     1       0.901 -11.367   5.921  1.00  0.00    -0.084 Cl
ENDBRANCH  80  82
ENDBRANCH  77  80
ENDBRANCH  72  77
ENDBRANCH  66  69
ENDBRANCH  64  65
ENDBRANCH   1  64
TORSDOF 15
