REMARK SMILES COc1c(N)cc(-c2ccccc2)cc1C(=O)NCCCCNC(=O)c1ccc(-c2c3nc(c(-c4c(F)cccc4F)c4ccc([nH]4)c(-c4c(F)cccc4F)c4nc(c(-c5c(F)cccc5F)c5ccc2[nH]5)C=C4)C=C3)cc1
REMARK SMILES IDX 21 1 20 2 19 3 18 4 16 5 17 6 15 8 3 9 4 10 6 11 14 12 7 13
REMARK SMILES IDX 2 14 1 15 5 16 8 19 9 20 13 21 10 22 12 23 11 24 22 25 23 26
REMARK SMILES IDX 24 27 25 29 26 30 27 31 79 32 28 33 78 34 29 35 30 36 31 37
REMARK SMILES IDX 72 38 32 39 77 40 71 41 73 42 33 43 76 44 70 45 69 46 34 48
REMARK SMILES IDX 60 49 43 50 59 51 44 52 47 53 58 54 74 55 45 56 46 57 57 59
REMARK SMILES IDX 75 60 48 61 35 62 36 63 41 64 37 65 38 66 40 67 42 68 39 69
REMARK SMILES IDX 61 70 62 71 67 72 63 73 64 74 66 75 68 76 65 77 49 78 50 79
REMARK SMILES IDX 55 80 51 81 52 82 54 83 56 84 53 85
REMARK H PARENT 18 7 5 17 5 18 23 28 73 47 47 58
REMARK Flexibility Score: inf
ROOT
ATOM      1  C   UNL     1      -2.711  -0.194   1.183  1.00  0.00     0.023 C 
ENDROOT
BRANCH   1   2
ATOM      2  C   UNL     1      -1.409  -0.461   0.429  1.00  0.00     0.023 C 
BRANCH   2   3
ATOM      3  C   UNL     1      -1.297  -1.849  -0.206  1.00  0.00     0.116 C 
BRANCH   3   4
ATOM      4  N   UNL     1      -1.787  -1.801  -1.562  1.00  0.00    -0.352 N 
ATOM      5  C   UNL     1      -1.224  -1.494  -2.769  1.00  0.00     0.255 C 
ATOM      6  O   UNL     1      -2.044  -1.419  -3.694  1.00  0.00    -0.269 OA
ATOM      7  H   UNL     1      -2.739  -2.043  -1.633  1.00  0.00     0.163 HD
BRANCH   5   8
ATOM      8  C   UNL     1       0.233  -1.308  -3.097  1.00  0.00     0.084 A 
ATOM      9  C   UNL     1       1.329  -1.010  -2.271  1.00  0.00     0.154 A 
ATOM     10  C   UNL     1       2.650  -1.021  -2.792  1.00  0.00     0.076 A 
ATOM     11  C   UNL     1       2.846  -1.091  -4.172  1.00  0.00     0.038 A 
ATOM     12  C   UNL     1       0.497  -1.432  -4.485  1.00  0.00     0.026 A 
ATOM     13  C   UNL     1       1.776  -1.289  -5.044  1.00  0.00    -0.015 A 
BRANCH   9  14
ATOM     14  O   UNL     1       1.198  -0.735  -0.933  1.00  0.00    -0.494 OA
ATOM     15  C   UNL     1       1.419   0.654  -0.657  1.00  0.00     0.278 C 
ENDBRANCH   9  14
BRANCH  10  16
ATOM     16  N   UNL     1       3.763  -0.822  -1.968  1.00  0.00    -0.396 N 
ATOM     17  H   UNL     1       3.649  -0.769  -0.992  1.00  0.00     0.156 HD
ATOM     18  H   UNL     1       4.660  -0.735  -2.365  1.00  0.00     0.156 HD
ENDBRANCH  10  16
BRANCH  13  19
ATOM     19  C   UNL     1       1.986  -1.345  -6.499  1.00  0.00    -0.018 A 
ATOM     20  C   UNL     1       2.931  -2.220  -7.060  1.00  0.00     0.009 A 
ATOM     21  C   UNL     1       1.262  -0.510  -7.367  1.00  0.00     0.009 A 
ATOM     22  C   UNL     1       3.152  -2.252  -8.439  1.00  0.00     0.001 A 
ATOM     23  C   UNL     1       1.483  -0.540  -8.746  1.00  0.00     0.001 A 
ATOM     24  C   UNL     1       2.430  -1.411  -9.281  1.00  0.00     0.000 A 
ENDBRANCH  13  19
ENDBRANCH   5   8
ENDBRANCH   3   4
ENDBRANCH   2   3
ENDBRANCH   1   2
BRANCH   1  25
ATOM     25  C   UNL     1      -2.904  -1.054   2.424  1.00  0.00     0.116 C 
BRANCH  25  26
ATOM     26  N   UNL     1      -1.799  -0.981   3.371  1.00  0.00    -0.352 N 
ATOM     27  C   UNL     1      -1.825  -1.212   4.726  1.00  0.00     0.251 C 
ATOM     28  H   UNL     1      -0.923  -0.737   2.992  1.00  0.00     0.163 HD
ATOM     29  O   UNL     1      -0.827  -1.048   5.413  1.00  0.00    -0.269 OA
BRANCH  27  30
ATOM     30  C   UNL     1      -3.104  -1.609   5.343  1.00  0.00     0.039 A 
ATOM     31  C   UNL     1      -3.593  -0.856   6.412  1.00  0.00     0.014 A 
ATOM     32  C   UNL     1      -3.849  -2.661   4.807  1.00  0.00     0.014 A 
ATOM     33  C   UNL     1      -4.877  -1.110   6.894  1.00  0.00     0.010 A 
ATOM     34  C   UNL     1      -5.153  -2.861   5.235  1.00  0.00     0.010 A 
ATOM     35  C   UNL     1      -5.680  -2.085   6.279  1.00  0.00    -0.014 A 
BRANCH  35  36
ATOM     36  C   UNL     1      -7.079  -2.310   6.708  1.00  0.00     0.031 A 
ATOM     37  C   UNL     1      -7.473  -3.627   7.309  1.00  0.00     0.074 A 
ATOM     38  C   UNL     1      -8.005  -1.359   6.483  1.00  0.00     0.049 A 
ATOM     39  N   UNL     1      -8.655  -4.048   7.676  1.00  0.00    -0.248 NA
ATOM     40  C   UNL     1      -6.398  -4.616   7.492  1.00  0.00     0.031 C 
ATOM     41  C   UNL     1      -7.754  -0.060   5.855  1.00  0.00     0.029 A 
ATOM     42  N   UNL     1      -9.350  -1.343   6.751  1.00  0.00    -0.354 N 
ATOM     43  C   UNL     1      -8.470  -5.354   8.110  1.00  0.00     0.074 A 
ATOM     44  C   UNL     1      -7.074  -5.674   7.911  1.00  0.00     0.031 C 
ATOM     45  C   UNL     1      -8.900   0.639   5.818  1.00  0.00     0.029 A 
ATOM     46  C   UNL     1      -9.970  -0.173   6.387  1.00  0.00     0.049 A 
ATOM     47  H   UNL     1      -9.825  -2.099   7.166  1.00  0.00     0.167 HD
ATOM     48  C   UNL     1      -9.378  -6.201   8.650  1.00  0.00     0.037 A 
ATOM     49  C   UNL     1     -11.258   0.199   6.505  1.00  0.00     0.037 A 
ATOM     50  C   UNL     1     -10.757  -5.866   8.880  1.00  0.00     0.049 A 
ATOM     51  C   UNL     1     -12.243  -0.754   7.119  1.00  0.00     0.074 A 
ATOM     52  C   UNL     1     -11.742  -6.627   9.483  1.00  0.00     0.029 A 
ATOM     53  N   UNL     1     -11.344  -4.663   8.517  1.00  0.00    -0.354 N 
ATOM     54  N   UNL     1     -12.043  -1.962   7.586  1.00  0.00    -0.248 NA
ATOM     55  C   UNL     1     -13.634  -0.290   7.223  1.00  0.00     0.031 C 
ATOM     56  C   UNL     1     -12.934  -5.894   9.460  1.00  0.00     0.029 A 
ATOM     57  C   UNL     1     -12.682  -4.665   8.871  1.00  0.00     0.049 A 
ATOM     58  H   UNL     1     -10.878  -3.918   8.072  1.00  0.00     0.167 HD
ATOM     59  C   UNL     1     -13.272  -2.392   8.067  1.00  0.00     0.074 A 
ATOM     60  C   UNL     1     -14.211  -1.312   7.840  1.00  0.00     0.031 C 
ATOM     61  C   UNL     1     -13.595  -3.574   8.645  1.00  0.00     0.037 A 
BRANCH  48  62
ATOM     62  C   UNL     1      -8.892  -7.567   9.032  1.00  0.00     0.057 A 
ATOM     63  C   UNL     1      -8.034  -7.765  10.122  1.00  0.00     0.134 A 
ATOM     64  C   UNL     1      -9.280  -8.696   8.301  1.00  0.00     0.134 A 
ATOM     65  F   UNL     1      -7.610  -6.722  10.852  1.00  0.00    -0.206 F 
ATOM     66  C   UNL     1      -7.552  -9.033  10.451  1.00  0.00     0.040 A 
ATOM     67  C   UNL     1      -8.827  -9.973   8.637  1.00  0.00     0.040 A 
ATOM     68  F   UNL     1     -10.102  -8.577   7.248  1.00  0.00    -0.206 F 
ATOM     69  C   UNL     1      -7.953 -10.143   9.709  1.00  0.00     0.006 A 
ENDBRANCH  48  62
BRANCH  49  70
ATOM     70  C   UNL     1     -11.680   1.555   6.078  1.00  0.00     0.057 A 
ATOM     71  C   UNL     1     -11.997   2.535   7.026  1.00  0.00     0.134 A 
ATOM     72  C   UNL     1     -11.779   1.905   4.727  1.00  0.00     0.134 A 
ATOM     73  F   UNL     1     -11.936   2.251   8.335  1.00  0.00    -0.206 F 
ATOM     74  C   UNL     1     -12.411   3.812   6.646  1.00  0.00     0.040 A 
ATOM     75  C   UNL     1     -12.174   3.185   4.333  1.00  0.00     0.040 A 
ATOM     76  F   UNL     1     -11.482   1.012   3.772  1.00  0.00    -0.206 F 
ATOM     77  C   UNL     1     -12.497   4.141   5.295  1.00  0.00     0.006 A 
ENDBRANCH  49  70
BRANCH  61  78
ATOM     78  C   UNL     1     -15.012  -3.743   9.104  1.00  0.00     0.057 A 
ATOM     79  C   UNL     1     -16.056  -3.974   8.201  1.00  0.00     0.134 A 
ATOM     80  C   UNL     1     -15.326  -3.711  10.469  1.00  0.00     0.134 A 
ATOM     81  F   UNL     1     -15.820  -4.001   6.881  1.00  0.00    -0.206 F 
ATOM     82  C   UNL     1     -17.370  -4.149   8.639  1.00  0.00     0.040 A 
ATOM     83  C   UNL     1     -16.631  -3.906  10.920  1.00  0.00     0.040 A 
ATOM     84  F   UNL     1     -14.367  -3.500  11.384  1.00  0.00    -0.206 F 
ATOM     85  C   UNL     1     -17.658  -4.122  10.003  1.00  0.00     0.006 A 
ENDBRANCH  61  78
ENDBRANCH  35  36
ENDBRANCH  27  30
ENDBRANCH  25  26
ENDBRANCH   1  25
TORSDOF 14
