REMARK SMILES Cc1c(C[NH2+]C[C@@H]2CCCO2)c(C(=O)NCCCCNC(=O)c2ccc(-c3c4nc(c(-c5c(F)cccc5F)c5ccc([nH]5)c(-c5c(F)cccc5F)c5nc(c(-c6c(F)cccc6F)c6ccc3[nH]6)C=C5)C=C4)cc2)c(C)n1Cc1ccc(F)cc1
REMARK SMILES IDX 16 1 15 2 13 3 14 4 12 6 1 7 2 8 3 9 79 10 77 11 78 12 4 13
REMARK SMILES IDX 5 14 6 17 7 18 8 19 11 20 9 21 10 22 80 23 81 24 82 25 87 26
REMARK SMILES IDX 83 27 86 28 84 29 85 30 17 31 18 32 19 33 20 34 21 35 22 37
REMARK SMILES IDX 23 38 24 39 76 40 25 41 75 42 26 43 27 44 28 45 69 46 29 47
REMARK SMILES IDX 74 48 68 49 70 50 30 51 73 52 67 53 66 54 31 56 57 57 40 58
REMARK SMILES IDX 56 59 41 60 44 61 55 62 71 63 42 64 43 65 54 67 72 68 45 69
REMARK SMILES IDX 32 70 33 71 38 72 34 73 35 74 37 75 39 76 36 77 58 78 59 79
REMARK SMILES IDX 64 80 60 81 61 82 63 83 65 84 62 85 46 86 47 87 52 88 48 89
REMARK SMILES IDX 49 90 51 91 53 92 50 93
REMARK H PARENT 15 5 5 15 5 16 20 36 70 55 44 66
REMARK Flexibility Score: inf
ROOT
ATOM      1  C   UNL     1       0.241   5.840  -3.481  1.00  0.00     0.116 C 
ENDROOT
BRANCH   1   2
ATOM      2  N   UNL     1      -0.461   4.835  -4.234  1.00  0.00    -0.352 N 
ATOM      3  C   UNL     1      -0.788   3.532  -3.885  1.00  0.00     0.253 C 
ATOM      4  O   UNL     1      -1.416   2.908  -4.734  1.00  0.00    -0.269 OA
ATOM      5  H   UNL     1      -0.753   5.113  -5.131  1.00  0.00     0.163 HD
BRANCH   3   6
ATOM      6  C   UNL     1      -0.289   2.909  -2.636  1.00  0.00     0.069 A 
ATOM      7  C   UNL     1       0.922   0.070  -0.477  1.00  0.00     0.065 C 
ATOM      8  C   UNL     1       0.531   1.313  -1.205  1.00  0.00     0.025 A 
ATOM      9  C   UNL     1      -0.162   1.477  -2.406  1.00  0.00     0.040 A 
ATOM     10  N   UNL     1       0.834   2.579  -0.740  1.00  0.00    -0.343 N 
ATOM     11  C   UNL     1      -0.018   3.465  -1.381  1.00  0.00     0.028 A 
ATOM     12  C   UNL     1      -0.512   4.707  -0.717  1.00  0.00     0.065 C 
BRANCH   9  13
ATOM     13  C   UNL     1      -0.690   0.373  -3.292  1.00  0.00     0.300 C 
BRANCH  13  14
ATOM     14  N   UNL     1      -2.142   0.332  -3.154  1.00  0.00    -0.340 N 
ATOM     15  H   UNL     1      -2.510   1.252  -3.397  1.00  0.00     0.346 HD
ATOM     16  H   UNL     1      -2.332   0.065  -2.188  1.00  0.00     0.346 HD
BRANCH  14  17
ATOM     17  C   UNL     1      -2.810  -0.664  -3.996  1.00  0.00     0.293 C 
BRANCH  17  18
ATOM     18  C   UNL     1      -2.679  -2.128  -3.533  1.00  0.00     0.173 C 
ATOM     19  C   UNL     1      -1.488  -2.883  -4.100  1.00  0.00     0.040 C 
ATOM     20  O   UNL     1      -3.833  -2.894  -3.941  1.00  0.00    -0.372 OA
ATOM     21  C   UNL     1      -1.931  -4.315  -3.924  1.00  0.00     0.031 C 
ATOM     22  C   UNL     1      -3.413  -4.237  -4.222  1.00  0.00     0.161 C 
ENDBRANCH  17  18
ENDBRANCH  14  17
ENDBRANCH  13  14
ENDBRANCH   9  13
BRANCH  10  23
ATOM     23  C   UNL     1       1.714   2.894   0.395  1.00  0.00     0.157 C 
BRANCH  23  24
ATOM     24  C   UNL     1       3.058   3.499   0.013  1.00  0.00    -0.028 A 
ATOM     25  C   UNL     1       4.251   2.917   0.482  1.00  0.00     0.008 A 
ATOM     26  C   UNL     1       3.160   4.706  -0.699  1.00  0.00     0.008 A 
ATOM     27  C   UNL     1       5.491   3.524   0.248  1.00  0.00     0.039 A 
ATOM     28  C   UNL     1       4.397   5.312  -0.939  1.00  0.00     0.039 A 
ATOM     29  C   UNL     1       5.552   4.718  -0.458  1.00  0.00     0.123 A 
ATOM     30  F   UNL     1       6.736   5.310  -0.664  1.00  0.00    -0.207 F 
ENDBRANCH  23  24
ENDBRANCH  10  23
ENDBRANCH   3   6
ENDBRANCH   1   2
BRANCH   1  31
ATOM     31  C   UNL     1       1.091   6.840  -4.259  1.00  0.00     0.023 C 
BRANCH  31  32
ATOM     32  C   UNL     1       0.442   7.724  -5.333  1.00  0.00     0.023 C 
BRANCH  32  33
ATOM     33  C   UNL     1      -1.007   8.192  -5.139  1.00  0.00     0.116 C 
BRANCH  33  34
ATOM     34  N   UNL     1      -1.145   9.572  -4.715  1.00  0.00    -0.352 N 
ATOM     35  C   UNL     1      -2.204  10.427  -4.974  1.00  0.00     0.251 C 
ATOM     36  H   UNL     1      -0.404   9.942  -4.182  1.00  0.00     0.163 HD
ATOM     37  O   UNL     1      -2.208  11.542  -4.457  1.00  0.00    -0.269 OA
BRANCH  35  38
ATOM     38  C   UNL     1      -3.273  10.057  -5.966  1.00  0.00     0.039 A 
ATOM     39  C   UNL     1      -3.060  10.417  -7.281  1.00  0.00     0.014 A 
ATOM     40  C   UNL     1      -4.530   9.505  -5.656  1.00  0.00     0.014 A 
ATOM     41  C   UNL     1      -4.062  10.175  -8.254  1.00  0.00     0.010 A 
ATOM     42  C   UNL     1      -5.591   9.355  -6.649  1.00  0.00     0.010 A 
ATOM     43  C   UNL     1      -5.408   9.710  -7.997  1.00  0.00    -0.014 A 
BRANCH  43  44
ATOM     44  C   UNL     1      -6.512  10.086  -9.124  1.00  0.00     0.031 A 
ATOM     45  C   UNL     1      -6.083  11.454  -9.540  1.00  0.00     0.074 A 
ATOM     46  C   UNL     1      -7.721   9.710  -9.715  1.00  0.00     0.049 A 
ATOM     47  N   UNL     1      -5.992  12.385  -8.631  1.00  0.00    -0.248 NA
ATOM     48  C   UNL     1      -5.343  11.725 -10.775  1.00  0.00     0.031 C 
ATOM     49  C   UNL     1      -8.606   8.589  -9.360  1.00  0.00     0.029 A 
ATOM     50  N   UNL     1      -8.472  10.262 -10.810  1.00  0.00    -0.354 N 
ATOM     51  C   UNL     1      -5.424  13.469  -9.247  1.00  0.00     0.074 A 
ATOM     52  C   UNL     1      -4.846  12.930 -10.470  1.00  0.00     0.031 C 
ATOM     53  C   UNL     1      -9.636   8.450 -10.250  1.00  0.00     0.029 A 
ATOM     54  C   UNL     1      -9.602   9.493 -11.277  1.00  0.00     0.049 A 
ATOM     55  H   UNL     1      -8.228  11.123 -11.221  1.00  0.00     0.167 HD
ATOM     56  C   UNL     1      -6.076  14.651  -9.059  1.00  0.00     0.037 A 
ATOM     57  C   UNL     1     -10.488   9.699 -12.337  1.00  0.00     0.037 A 
ATOM     58  C   UNL     1      -6.875  14.991 -10.204  1.00  0.00     0.049 A 
ATOM     59  C   UNL     1     -10.478  11.138 -12.608  1.00  0.00     0.074 A 
ATOM     60  C   UNL     1      -6.630  14.949 -11.563  1.00  0.00     0.029 A 
ATOM     61  N   UNL     1      -8.242  14.940 -10.047  1.00  0.00    -0.354 N 
ATOM     62  N   UNL     1     -11.162  11.961 -11.876  1.00  0.00    -0.248 NA
ATOM     63  C   UNL     1      -9.824  11.725 -13.772  1.00  0.00     0.031 C 
ATOM     64  C   UNL     1      -7.776  14.329 -12.107  1.00  0.00     0.029 A 
ATOM     65  C   UNL     1      -8.805  14.387 -11.176  1.00  0.00     0.049 A 
ATOM     66  H   UNL     1      -8.738  15.249  -9.255  1.00  0.00     0.167 HD
ATOM     67  C   UNL     1     -10.592  13.157 -12.153  1.00  0.00     0.074 A 
ATOM     68  C   UNL     1     -10.022  13.013 -13.480  1.00  0.00     0.031 C 
ATOM     69  C   UNL     1     -10.138  13.851 -11.084  1.00  0.00     0.037 A 
BRANCH  56  70
ATOM     70  C   UNL     1      -6.473  14.869  -7.623  1.00  0.00     0.057 A 
ATOM     71  C   UNL     1      -5.710  15.731  -6.835  1.00  0.00     0.134 A 
ATOM     72  C   UNL     1      -7.439  14.085  -6.960  1.00  0.00     0.134 A 
ATOM     73  F   UNL     1      -4.804  16.542  -7.402  1.00  0.00    -0.206 F 
ATOM     74  C   UNL     1      -5.844  15.759  -5.444  1.00  0.00     0.040 A 
ATOM     75  C   UNL     1      -7.539  14.058  -5.570  1.00  0.00     0.040 A 
ATOM     76  F   UNL     1      -8.281  13.300  -7.652  1.00  0.00    -0.206 F 
ATOM     77  C   UNL     1      -6.729  14.890  -4.805  1.00  0.00     0.006 A 
ENDBRANCH  56  70
BRANCH  57  78
ATOM     78  C   UNL     1     -11.612   9.055 -13.201  1.00  0.00     0.057 A 
ATOM     79  C   UNL     1     -12.639   9.855 -13.819  1.00  0.00     0.134 A 
ATOM     80  C   UNL     1     -11.509   7.783 -13.769  1.00  0.00     0.134 A 
ATOM     81  F   UNL     1     -12.936  11.088 -13.386  1.00  0.00    -0.206 F 
ATOM     82  C   UNL     1     -13.382   9.480 -14.954  1.00  0.00     0.040 A 
ATOM     83  C   UNL     1     -12.283   7.378 -14.894  1.00  0.00     0.040 A 
ATOM     84  F   UNL     1     -10.600   6.913 -13.311  1.00  0.00    -0.206 F 
ATOM     85  C   UNL     1     -13.190   8.236 -15.515  1.00  0.00     0.006 A 
ENDBRANCH  57  78
BRANCH  69  86
ATOM     86  C   UNL     1     -11.008  13.842  -9.835  1.00  0.00     0.057 A 
ATOM     87  C   UNL     1     -11.585  12.720  -9.196  1.00  0.00     0.134 A 
ATOM     88  C   UNL     1     -11.349  15.084  -9.284  1.00  0.00     0.134 A 
ATOM     89  F   UNL     1     -11.261  11.459  -9.517  1.00  0.00    -0.206 F 
ATOM     90  C   UNL     1     -12.518  12.844  -8.158  1.00  0.00     0.040 A 
ATOM     91  C   UNL     1     -12.230  15.217  -8.206  1.00  0.00     0.040 A 
ATOM     92  F   UNL     1     -10.817  16.210  -9.783  1.00  0.00    -0.206 F 
ATOM     93  C   UNL     1     -12.844  14.097  -7.659  1.00  0.00     0.006 A 
ENDBRANCH  69  86
ENDBRANCH  43  44
ENDBRANCH  35  38
ENDBRANCH  33  34
ENDBRANCH  32  33
ENDBRANCH  31  32
ENDBRANCH   1  31
TORSDOF 17
