REMARK SMILES C=CCN(CC(=O)NCCCCNC(=O)c1ccc(-c2c3nc(c(-c4c(F)cccc4F)c4ccc([nH]4)c(-c4c(F)cccc4F)c4nc(c(-c5c(F)cccc5F)c5ccc2[nH]5)C=C4)C=C3)cc1)C(=O)C[NH3+]
REMARK SMILES IDX 9 1 8 2 6 3 7 4 5 6 4 7 3 8 2 9 1 10 70 11 71 12 72 13 73 14
REMARK SMILES IDX 10 18 11 19 12 20 13 21 14 22 15 24 16 25 17 26 69 27 18 28
REMARK SMILES IDX 68 29 19 30 20 31 21 32 62 33 22 34 67 35 61 36 63 37 23 38
REMARK SMILES IDX 66 39 60 40 59 41 24 43 50 44 33 45 49 46 34 47 37 48 48 49
REMARK SMILES IDX 64 50 35 51 36 52 47 54 65 55 38 56 25 57 26 58 31 59 27 60
REMARK SMILES IDX 28 61 30 62 32 63 29 64 51 65 52 66 57 67 53 68 54 69 56 70
REMARK SMILES IDX 58 71 55 72 39 73 40 74 45 75 41 76 42 77 44 78 46 79 43 80
REMARK H PARENT 8 5 73 15 73 16 73 17 13 23 63 42 37 53
REMARK Flexibility Score: inf
ROOT
ATOM      1  C   UNL     1      -4.447   1.013   0.187  1.00  0.00     0.116 C 
ENDROOT
BRANCH   1   2
ATOM      2  N   UNL     1      -4.715   1.849   1.335  1.00  0.00    -0.355 N 
ATOM      3  C   UNL     1      -3.905   2.756   1.955  1.00  0.00     0.239 C 
ATOM      4  O   UNL     1      -4.431   3.497   2.790  1.00  0.00    -0.273 OA
ATOM      5  H   UNL     1      -5.612   1.750   1.727  1.00  0.00     0.163 HD
BRANCH   3   6
ATOM      6  C   UNL     1      -2.426   2.926   1.556  1.00  0.00     0.220 C 
BRANCH   6   7
ATOM      7  N   UNL     1      -1.621   1.696   1.608  1.00  0.00    -0.325 N 
BRANCH   7   8
ATOM      8  C   UNL     1      -1.074   1.172   0.361  1.00  0.00     0.147 C 
BRANCH   8   9
ATOM      9  C   UNL     1       0.417   1.310   0.322  1.00  0.00    -0.014 C 
ATOM     10  C   UNL     1       1.240   0.270   0.119  1.00  0.00     0.006 C 
ENDBRANCH   8   9
ENDBRANCH   7   8
BRANCH   7  11
ATOM     11  C   UNL     1      -1.340   1.016   2.794  1.00  0.00     0.278 C 
ATOM     12  O   UNL     1      -0.775  -0.083   2.796  1.00  0.00    -0.268 OA
BRANCH  11  13
ATOM     13  C   UNL     1      -1.792   1.622   4.132  1.00  0.00     0.360 C 
BRANCH  13  14
ATOM     14  N   UNL     1      -1.134   2.909   4.393  1.00  0.00    -0.350 N 
ATOM     15  H   UNL     1      -0.125   2.771   4.443  1.00  0.00     0.344 HD
ATOM     16  H   UNL     1      -1.470   3.289   5.279  1.00  0.00     0.344 HD
ATOM     17  H   UNL     1      -1.352   3.561   3.639  1.00  0.00     0.344 HD
ENDBRANCH  13  14
ENDBRANCH  11  13
ENDBRANCH   7  11
ENDBRANCH   6   7
ENDBRANCH   3   6
ENDBRANCH   1   2
BRANCH   1  18
ATOM     18  C   UNL     1      -4.194  -0.444   0.568  1.00  0.00     0.023 C 
BRANCH  18  19
ATOM     19  C   UNL     1      -5.419  -1.195   1.091  1.00  0.00     0.023 C 
BRANCH  19  20
ATOM     20  C   UNL     1      -6.631  -1.193   0.168  1.00  0.00     0.116 C 
BRANCH  20  21
ATOM     21  N   UNL     1      -6.358  -1.750  -1.148  1.00  0.00    -0.352 N 
ATOM     22  C   UNL     1      -7.158  -2.554  -1.924  1.00  0.00     0.251 C 
ATOM     23  H   UNL     1      -5.482  -1.520  -1.534  1.00  0.00     0.163 HD
ATOM     24  O   UNL     1      -6.729  -3.025  -2.973  1.00  0.00    -0.269 OA
BRANCH  22  25
ATOM     25  C   UNL     1      -8.525  -2.882  -1.470  1.00  0.00     0.039 A 
ATOM     26  C   UNL     1      -8.943  -4.214  -1.501  1.00  0.00     0.014 A 
ATOM     27  C   UNL     1      -9.381  -1.886  -0.990  1.00  0.00     0.014 A 
ATOM     28  C   UNL     1     -10.194  -4.559  -0.984  1.00  0.00     0.010 A 
ATOM     29  C   UNL     1     -10.597  -2.240  -0.411  1.00  0.00     0.010 A 
ATOM     30  C   UNL     1     -11.015  -3.580  -0.399  1.00  0.00    -0.014 A 
BRANCH  30  31
ATOM     31  C   UNL     1     -12.312  -3.938   0.229  1.00  0.00     0.031 A 
ATOM     32  C   UNL     1     -13.598  -3.405  -0.340  1.00  0.00     0.074 A 
ATOM     33  C   UNL     1     -12.329  -4.697   1.343  1.00  0.00     0.049 A 
ATOM     34  N   UNL     1     -14.820  -3.539   0.111  1.00  0.00    -0.248 NA
ATOM     35  C   UNL     1     -13.496  -2.594  -1.564  1.00  0.00     0.031 C 
ATOM     36  C   UNL     1     -11.149  -5.245   2.015  1.00  0.00     0.029 A 
ATOM     37  N   UNL     1     -13.379  -5.131   2.113  1.00  0.00    -0.354 N 
ATOM     38  C   UNL     1     -15.627  -2.831  -0.770  1.00  0.00     0.074 A 
ATOM     39  C   UNL     1     -14.754  -2.218  -1.746  1.00  0.00     0.031 C 
ATOM     40  C   UNL     1     -11.542  -5.961   3.081  1.00  0.00     0.029 A 
ATOM     41  C   UNL     1     -12.995  -5.890   3.193  1.00  0.00     0.049 A 
ATOM     42  H   UNL     1     -14.319  -4.919   1.911  1.00  0.00     0.167 HD
ATOM     43  C   UNL     1     -16.977  -2.724  -0.782  1.00  0.00     0.037 A 
ATOM     44  C   UNL     1     -13.733  -6.456   4.167  1.00  0.00     0.037 A 
ATOM     45  C   UNL     1     -17.849  -3.348   0.178  1.00  0.00     0.049 A 
ATOM     46  C   UNL     1     -15.229  -6.294   4.145  1.00  0.00     0.074 A 
ATOM     47  C   UNL     1     -19.232  -3.318   0.233  1.00  0.00     0.029 A 
ATOM     48  N   UNL     1     -17.422  -4.118   1.248  1.00  0.00    -0.354 N 
ATOM     49  N   UNL     1     -15.981  -5.662   3.277  1.00  0.00    -0.248 NA
ATOM     50  C   UNL     1     -15.980  -6.929   5.238  1.00  0.00     0.031 C 
ATOM     51  C   UNL     1     -19.640  -4.043   1.357  1.00  0.00     0.029 A 
ATOM     52  C   UNL     1     -18.514  -4.562   1.975  1.00  0.00     0.049 A 
ATOM     53  H   UNL     1     -16.482  -4.321   1.459  1.00  0.00     0.167 HD
ATOM     54  C   UNL     1     -17.291  -5.857   3.696  1.00  0.00     0.074 A 
ATOM     55  C   UNL     1     -17.232  -6.675   4.888  1.00  0.00     0.031 C 
ATOM     56  C   UNL     1     -18.440  -5.398   3.144  1.00  0.00     0.037 A 
BRANCH  43  57
ATOM     57  C   UNL     1     -17.599  -1.917  -1.884  1.00  0.00     0.057 A 
ATOM     58  C   UNL     1     -17.622  -2.379  -3.207  1.00  0.00     0.134 A 
ATOM     59  C   UNL     1     -18.229  -0.695  -1.615  1.00  0.00     0.134 A 
ATOM     60  F   UNL     1     -17.026  -3.535  -3.533  1.00  0.00    -0.206 F 
ATOM     61  C   UNL     1     -18.235  -1.647  -4.225  1.00  0.00     0.040 A 
ATOM     62  C   UNL     1     -18.868   0.033  -2.620  1.00  0.00     0.040 A 
ATOM     63  F   UNL     1     -18.249  -0.198  -0.369  1.00  0.00    -0.206 F 
ATOM     64  C   UNL     1     -18.868  -0.441  -3.931  1.00  0.00     0.006 A 
ENDBRANCH  43  57
BRANCH  44  65
ATOM     65  C   UNL     1     -13.082  -7.245   5.246  1.00  0.00     0.057 A 
ATOM     66  C   UNL     1     -13.281  -8.627   5.349  1.00  0.00     0.134 A 
ATOM     67  C   UNL     1     -12.291  -6.633   6.226  1.00  0.00     0.134 A 
ATOM     68  F   UNL     1     -14.046  -9.267   4.452  1.00  0.00    -0.206 F 
ATOM     69  C   UNL     1     -12.748  -9.367   6.405  1.00  0.00     0.040 A 
ATOM     70  C   UNL     1     -11.727  -7.366   7.272  1.00  0.00     0.040 A 
ATOM     71  F   UNL     1     -12.056  -5.314   6.181  1.00  0.00    -0.206 F 
ATOM     72  C   UNL     1     -11.966  -8.736   7.370  1.00  0.00     0.006 A 
ENDBRANCH  44  65
BRANCH  56  73
ATOM     73  C   UNL     1     -19.728  -5.816   3.791  1.00  0.00     0.057 A 
ATOM     74  C   UNL     1     -20.140  -5.303   5.027  1.00  0.00     0.134 A 
ATOM     75  C   UNL     1     -20.583  -6.721   3.148  1.00  0.00     0.134 A 
ATOM     76  F   UNL     1     -19.360  -4.443   5.699  1.00  0.00    -0.206 F 
ATOM     77  C   UNL     1     -21.345  -5.695   5.613  1.00  0.00     0.040 A 
ATOM     78  C   UNL     1     -21.802  -7.099   3.710  1.00  0.00     0.040 A 
ATOM     79  F   UNL     1     -20.252  -7.243   1.957  1.00  0.00    -0.206 F 
ATOM     80  C   UNL     1     -22.183  -6.590   4.950  1.00  0.00     0.006 A 
ENDBRANCH  56  73
ENDBRANCH  30  31
ENDBRANCH  22  25
ENDBRANCH  20  21
ENDBRANCH  19  20
ENDBRANCH  18  19
ENDBRANCH   1  18
TORSDOF 17
