REMARK SMILES CCCc1nc(C)cc(N2CCC(C(=O)NCCCCNC(=O)c3ccc(-c4c5nc(c(-c6c(F)cccc6F)c6ccc([nH]6)c(-c6c(F)cccc6F)c6nc(c(-c7c(F)cccc7F)c7ccc4[nH]7)C=C6)C=C5)cc3)(n3ccc(C(C)C)n3)CC2)n1
REMARK SMILES IDX 18 1 17 2 16 3 14 4 15 5 13 7 10 8 11 9 87 10 12 11 86 12
REMARK SMILES IDX 9 13 4 14 5 15 88 16 6 17 7 18 8 19 3 20 2 21 1 22 78 23
REMARK SMILES IDX 79 24 85 25 80 26 81 27 82 28 83 29 84 30 19 31 20 32 21 33
REMARK SMILES IDX 22 34 23 36 24 37 25 38 77 39 26 40 76 41 27 42 28 43 29 44
REMARK SMILES IDX 70 45 30 46 75 47 69 48 71 49 31 50 74 51 68 52 67 53 32 55
REMARK SMILES IDX 58 56 41 57 57 58 42 59 45 60 56 61 72 62 43 63 44 64 55 66
REMARK SMILES IDX 73 67 46 68 33 69 34 70 39 71 35 72 36 73 38 74 40 75 37 76
REMARK SMILES IDX 59 77 60 78 65 79 61 80 62 81 64 82 66 83 63 84 47 85 48 86
REMARK SMILES IDX 53 87 49 88 50 89 52 90 54 91 51 92
REMARK H PARENT 16 6 21 35 71 54 45 65
REMARK Flexibility Score: inf
ROOT
ATOM      1  C   UNL     1      -2.276  -5.354   3.688  1.00  0.00     0.023 C 
ENDROOT
BRANCH   1   2
ATOM      2  C   UNL     1      -3.176  -4.277   4.293  1.00  0.00     0.116 C 
BRANCH   2   3
ATOM      3  N   UNL     1      -3.872  -4.746   5.484  1.00  0.00    -0.354 N 
ATOM      4  C   UNL     1      -3.833  -4.356   6.806  1.00  0.00     0.248 C 
ATOM      5  O   UNL     1      -4.578  -5.025   7.524  1.00  0.00    -0.272 OA
ATOM      6  H   UNL     1      -4.493  -5.490   5.311  1.00  0.00     0.163 HD
BRANCH   4   7
ATOM      7  C   UNL     1      -2.928  -3.165   7.278  1.00  0.00     0.144 C 
ATOM      8  N   UNL     1      -1.259  -1.499   5.699  1.00  0.00    -0.356 N 
ATOM      9  C   UNL     1      -0.542  -2.452   6.527  1.00  0.00     0.121 C 
ATOM     10  C   UNL     1      -2.427  -0.845   6.245  1.00  0.00     0.121 C 
ATOM     11  C   UNL     1      -1.463  -3.579   6.964  1.00  0.00     0.062 C 
ATOM     12  C   UNL     1      -3.476  -1.897   6.563  1.00  0.00     0.062 C 
BRANCH   8  13
ATOM     13  C   UNL     1      -0.503  -0.883   4.720  1.00  0.00     0.132 A 
ATOM     14  C   UNL     1       0.679  -1.089   2.760  1.00  0.00     0.130 A 
ATOM     15  N   UNL     1       1.034   0.206   2.749  1.00  0.00    -0.238 NA
ATOM     16  N   UNL     1      -0.051  -1.668   3.728  1.00  0.00    -0.216 NA
ATOM     17  C   UNL     1       0.569   0.977   3.746  1.00  0.00     0.043 A 
ATOM     18  C   UNL     1       0.920   2.431   3.688  1.00  0.00     0.067 C 
ATOM     19  C   UNL     1      -0.225   0.470   4.753  1.00  0.00     0.070 A 
BRANCH  14  20
ATOM     20  C   UNL     1       1.110  -1.946   1.602  1.00  0.00     0.077 C 
BRANCH  20  21
ATOM     21  C   UNL     1       0.471  -1.546   0.268  1.00  0.00     0.005 C 
ATOM     22  C   UNL     1       0.969  -0.213  -0.281  1.00  0.00     0.004 C 
ENDBRANCH  20  21
ENDBRANCH  14  20
ENDBRANCH   8  13
BRANCH   7  23
ATOM     23  N   UNL     1      -2.979  -2.872   8.749  1.00  0.00    -0.257 N 
ATOM     24  C   UNL     1      -2.231  -1.922   9.412  1.00  0.00     0.110 A 
ATOM     25  N   UNL     1      -3.811  -3.505   9.592  1.00  0.00    -0.177 NA
ATOM     26  C   UNL     1      -2.591  -1.972  10.732  1.00  0.00     0.045 A 
ATOM     27  C   UNL     1      -3.567  -2.985  10.798  1.00  0.00     0.065 A 
BRANCH  27  28
ATOM     28  C   UNL     1      -4.299  -3.487  12.008  1.00  0.00     0.034 C 
ATOM     29  C   UNL     1      -3.326  -4.027  13.059  1.00  0.00     0.014 C 
ATOM     30  C   UNL     1      -5.187  -2.396  12.609  1.00  0.00     0.014 C 
ENDBRANCH  27  28
ENDBRANCH   7  23
ENDBRANCH   4   7
ENDBRANCH   2   3
ENDBRANCH   1   2
BRANCH   1  31
ATOM     31  C   UNL     1      -3.015  -6.571   3.130  1.00  0.00     0.023 C 
BRANCH  31  32
ATOM     32  C   UNL     1      -4.075  -6.260   2.081  1.00  0.00     0.116 C 
BRANCH  32  33
ATOM     33  N   UNL     1      -3.541  -5.561   0.921  1.00  0.00    -0.352 N 
ATOM     34  C   UNL     1      -3.732  -5.826  -0.413  1.00  0.00     0.251 C 
ATOM     35  H   UNL     1      -2.963  -4.789   1.121  1.00  0.00     0.163 HD
ATOM     36  O   UNL     1      -3.096  -5.212  -1.265  1.00  0.00    -0.269 OA
BRANCH  34  37
ATOM     37  C   UNL     1      -4.683  -6.882  -0.820  1.00  0.00     0.039 A 
ATOM     38  C   UNL     1      -4.285  -7.820  -1.774  1.00  0.00     0.014 A 
ATOM     39  C   UNL     1      -5.953  -6.959  -0.243  1.00  0.00     0.014 A 
ATOM     40  C   UNL     1      -5.134  -8.880  -2.097  1.00  0.00     0.010 A 
ATOM     41  C   UNL     1      -6.765  -8.058  -0.507  1.00  0.00     0.010 A 
ATOM     42  C   UNL     1      -6.365  -9.029  -1.437  1.00  0.00    -0.014 A 
BRANCH  42  43
ATOM     43  C   UNL     1      -7.253 -10.189  -1.707  1.00  0.00     0.031 A 
ATOM     44  C   UNL     1      -8.619  -9.968  -2.296  1.00  0.00     0.074 A 
ATOM     45  C   UNL     1      -6.858 -11.430  -1.363  1.00  0.00     0.049 A 
ATOM     46  N   UNL     1      -9.572 -10.835  -2.524  1.00  0.00    -0.248 NA
ATOM     47  C   UNL     1      -8.969  -8.584  -2.653  1.00  0.00     0.031 C 
ATOM     48  C   UNL     1      -5.574 -11.773  -0.748  1.00  0.00     0.029 A 
ATOM     49  N   UNL     1      -7.505 -12.636  -1.471  1.00  0.00    -0.354 N 
ATOM     50  C   UNL     1     -10.634 -10.102  -3.038  1.00  0.00     0.074 A 
ATOM     51  C   UNL     1     -10.231  -8.713  -3.033  1.00  0.00     0.031 C 
ATOM     52  C   UNL     1      -5.519 -13.101  -0.557  1.00  0.00     0.029 A 
ATOM     53  C   UNL     1      -6.776 -13.699  -0.995  1.00  0.00     0.049 A 
ATOM     54  H   UNL     1      -8.407 -12.730  -1.854  1.00  0.00     0.167 HD
ATOM     55  C   UNL     1     -11.828 -10.548  -3.497  1.00  0.00     0.037 A 
ATOM     56  C   UNL     1      -7.090 -15.005  -0.913  1.00  0.00     0.037 A 
ATOM     57  C   UNL     1     -12.220 -11.932  -3.519  1.00  0.00     0.049 A 
ATOM     58  C   UNL     1      -8.433 -15.471  -1.406  1.00  0.00     0.074 A 
ATOM     59  C   UNL     1     -13.392 -12.488  -4.001  1.00  0.00     0.029 A 
ATOM     60  N   UNL     1     -11.448 -12.979  -3.039  1.00  0.00    -0.354 N 
ATOM     61  N   UNL     1      -9.406 -14.773  -1.940  1.00  0.00    -0.248 NA
ATOM     62  C   UNL     1      -8.720 -16.908  -1.289  1.00  0.00     0.031 C 
ATOM     63  C   UNL     1     -13.346 -13.868  -3.776  1.00  0.00     0.029 A 
ATOM     64  C   UNL     1     -12.125 -14.177  -3.200  1.00  0.00     0.049 A 
ATOM     65  H   UNL     1     -10.551 -12.885  -2.643  1.00  0.00     0.167 HD
ATOM     66  C   UNL     1     -10.402 -15.688  -2.256  1.00  0.00     0.074 A 
ATOM     67  C   UNL     1      -9.912 -16.993  -1.862  1.00  0.00     0.031 C 
ATOM     68  C   UNL     1     -11.614 -15.469  -2.820  1.00  0.00     0.037 A 
BRANCH  55  69
ATOM     69  C   UNL     1     -12.791  -9.524  -4.023  1.00  0.00     0.057 A 
ATOM     70  C   UNL     1     -12.556  -8.841  -5.224  1.00  0.00     0.134 A 
ATOM     71  C   UNL     1     -13.981  -9.239  -3.342  1.00  0.00     0.134 A 
ATOM     72  F   UNL     1     -11.429  -9.057  -5.920  1.00  0.00    -0.206 F 
ATOM     73  C   UNL     1     -13.456  -7.894  -5.715  1.00  0.00     0.040 A 
ATOM     74  C   UNL     1     -14.903  -8.315  -3.837  1.00  0.00     0.040 A 
ATOM     75  F   UNL     1     -14.272  -9.861  -2.189  1.00  0.00    -0.206 F 
ATOM     76  C   UNL     1     -14.638  -7.634  -5.024  1.00  0.00     0.006 A 
ENDBRANCH  55  69
BRANCH  56  77
ATOM     77  C   UNL     1      -6.112 -15.978  -0.362  1.00  0.00     0.057 A 
ATOM     78  C   UNL     1      -5.507 -16.935  -1.186  1.00  0.00     0.134 A 
ATOM     79  C   UNL     1      -5.779 -15.995   0.997  1.00  0.00     0.134 A 
ATOM     80  F   UNL     1      -5.800 -16.982  -2.494  1.00  0.00    -0.206 F 
ATOM     81  C   UNL     1      -4.626 -17.890  -0.675  1.00  0.00     0.040 A 
ATOM     82  C   UNL     1      -4.879 -16.927   1.518  1.00  0.00     0.040 A 
ATOM     83  F   UNL     1      -6.319 -15.101   1.839  1.00  0.00    -0.206 F 
ATOM     84  C   UNL     1      -4.308 -17.885   0.682  1.00  0.00     0.006 A 
ENDBRANCH  56  77
BRANCH  68  85
ATOM     85  C   UNL     1     -12.473 -16.669  -3.096  1.00  0.00     0.057 A 
ATOM     86  C   UNL     1     -13.107 -17.379  -2.069  1.00  0.00     0.134 A 
ATOM     87  C   UNL     1     -12.700 -17.092  -4.412  1.00  0.00     0.134 A 
ATOM     88  F   UNL     1     -12.921 -17.033  -0.786  1.00  0.00    -0.206 F 
ATOM     89  C   UNL     1     -13.919 -18.482  -2.341  1.00  0.00     0.040 A 
ATOM     90  C   UNL     1     -13.531 -18.175  -4.697  1.00  0.00     0.040 A 
ATOM     91  F   UNL     1     -12.130 -16.449  -5.442  1.00  0.00    -0.206 F 
ATOM     92  C   UNL     1     -14.139 -18.878  -3.659  1.00  0.00     0.006 A 
ENDBRANCH  68  85
ENDBRANCH  42  43
ENDBRANCH  34  37
ENDBRANCH  32  33
ENDBRANCH  31  32
ENDBRANCH   1  31
TORSDOF 16
