REMARK SMILES O=C(NCCCCNC(=O)[C@@]1(Cl)C=CC=C(c2ccccc2)[C@H]1Cl)c1ccc(-c2c3nc(c(-c4c(F)cccc4F)c4ccc([nH]4)c(-c4c(F)cccc4F)c4nc(c(-c5c(F)cccc5F)c5ccc2[nH]5)C=C4)C=C3)cc1
REMARK SMILES IDX 5 1 4 2 3 3 1 4 2 5 25 7 26 8 78 9 27 10 77 11 28 12 29 13
REMARK SMILES IDX 30 14 71 15 31 16 76 17 70 18 72 19 32 20 75 21 69 22 68 23
REMARK SMILES IDX 33 25 59 26 42 27 58 28 43 29 46 30 57 31 73 32 44 33 45 34
REMARK SMILES IDX 56 36 74 37 47 38 34 39 35 40 40 41 36 42 37 43 39 44 41 45
REMARK SMILES IDX 38 46 60 47 61 48 66 49 62 50 63 51 65 52 67 53 64 54 48 55
REMARK SMILES IDX 49 56 54 57 50 58 51 59 53 60 55 61 52 62 6 63 7 64 8 65
REMARK SMILES IDX 9 66 10 68 11 69 12 70 13 71 23 72 14 73 16 74 24 75 15 76
REMARK SMILES IDX 17 77 18 78 22 79 19 80 21 81 20 82
REMARK H PARENT 3 6 72 24 46 35 8 67
REMARK Flexibility Score: inf
ROOT
ATOM      1  C   UNL     1       4.921  -2.463   0.774  1.00  0.00     0.023 C 
ENDROOT
BRANCH   1   2
ATOM      2  C   UNL     1       4.535  -1.312  -0.147  1.00  0.00     0.116 C 
BRANCH   2   3
ATOM      3  N   UNL     1       3.100  -1.105  -0.257  1.00  0.00    -0.352 N 
ATOM      4  O   UNL     1       1.115  -0.059  -0.049  1.00  0.00    -0.269 OA
ATOM      5  C   UNL     1       2.338   0.002   0.036  1.00  0.00     0.251 C 
ATOM      6  H   UNL     1       2.594  -1.879  -0.595  1.00  0.00     0.163 HD
BRANCH   5   7
ATOM      7  C   UNL     1       2.980   1.252   0.498  1.00  0.00     0.039 A 
ATOM      8  C   UNL     1       4.119   1.757  -0.130  1.00  0.00     0.014 A 
ATOM      9  C   UNL     1       2.432   1.925   1.595  1.00  0.00     0.014 A 
ATOM     10  C   UNL     1       4.814   2.814   0.449  1.00  0.00     0.010 A 
ATOM     11  C   UNL     1       3.081   3.047   2.120  1.00  0.00     0.010 A 
ATOM     12  C   UNL     1       4.307   3.468   1.584  1.00  0.00    -0.014 A 
BRANCH  12  13
ATOM     13  C   UNL     1       5.074   4.591   2.182  1.00  0.00     0.031 A 
ATOM     14  C   UNL     1       5.653   4.484   3.567  1.00  0.00     0.074 A 
ATOM     15  C   UNL     1       5.287   5.701   1.450  1.00  0.00     0.049 A 
ATOM     16  N   UNL     1       6.381   5.351   4.226  1.00  0.00    -0.248 NA
ATOM     17  C   UNL     1       5.374   3.248   4.315  1.00  0.00     0.031 C 
ATOM     18  C   UNL     1       4.773   5.928   0.098  1.00  0.00     0.029 A 
ATOM     19  N   UNL     1       6.012   6.832   1.725  1.00  0.00    -0.354 N 
ATOM     20  C   UNL     1       6.621   4.782   5.471  1.00  0.00     0.074 A 
ATOM     21  C   UNL     1       5.945   3.503   5.485  1.00  0.00     0.031 C 
ATOM     22  C   UNL     1       5.247   7.096  -0.361  1.00  0.00     0.029 A 
ATOM     23  C   UNL     1       6.050   7.724   0.682  1.00  0.00     0.049 A 
ATOM     24  H   UNL     1       6.461   6.989   2.587  1.00  0.00     0.167 HD
ATOM     25  C   UNL     1       7.343   5.278   6.505  1.00  0.00     0.037 A 
ATOM     26  C   UNL     1       6.662   8.917   0.576  1.00  0.00     0.037 A 
ATOM     27  C   UNL     1       8.043   6.536   6.480  1.00  0.00     0.049 A 
ATOM     28  C   UNL     1       7.458   9.441   1.734  1.00  0.00     0.074 A 
ATOM     29  C   UNL     1       8.839   7.102   7.462  1.00  0.00     0.029 A 
ATOM     30  N   UNL     1       8.033   7.424   5.415  1.00  0.00    -0.354 N 
ATOM     31  N   UNL     1       7.695   8.879   2.893  1.00  0.00    -0.248 NA
ATOM     32  C   UNL     1       8.065  10.768   1.569  1.00  0.00     0.031 C 
ATOM     33  C   UNL     1       9.280   8.349   7.005  1.00  0.00     0.029 A 
ATOM     34  C   UNL     1       8.793   8.542   5.723  1.00  0.00     0.049 A 
ATOM     35  H   UNL     1       7.557   7.282   4.565  1.00  0.00     0.167 HD
ATOM     36  C   UNL     1       8.495   9.773   3.591  1.00  0.00     0.074 A 
ATOM     37  C   UNL     1       8.712  10.909   2.718  1.00  0.00     0.031 C 
ATOM     38  C   UNL     1       9.002   9.662   4.842  1.00  0.00     0.037 A 
BRANCH  25  39
ATOM     39  C   UNL     1       7.396   4.463   7.765  1.00  0.00     0.057 A 
ATOM     40  C   UNL     1       8.148   3.285   7.858  1.00  0.00     0.134 A 
ATOM     41  C   UNL     1       6.709   4.883   8.912  1.00  0.00     0.134 A 
ATOM     42  F   UNL     1       8.819   2.822   6.793  1.00  0.00    -0.206 F 
ATOM     43  C   UNL     1       8.195   2.541   9.039  1.00  0.00     0.040 A 
ATOM     44  C   UNL     1       6.767   4.160  10.105  1.00  0.00     0.040 A 
ATOM     45  F   UNL     1       5.976   6.006   8.894  1.00  0.00    -0.206 F 
ATOM     46  C   UNL     1       7.507   2.981  10.168  1.00  0.00     0.006 A 
ENDBRANCH  25  39
BRANCH  26  47
ATOM     47  C   UNL     1       6.559   9.682  -0.690  1.00  0.00     0.057 A 
ATOM     48  C   UNL     1       7.658   9.807  -1.547  1.00  0.00     0.134 A 
ATOM     49  C   UNL     1       5.357  10.280  -1.086  1.00  0.00     0.134 A 
ATOM     50  F   UNL     1       8.839   9.268  -1.212  1.00  0.00    -0.206 F 
ATOM     51  C   UNL     1       7.567  10.505  -2.752  1.00  0.00     0.040 A 
ATOM     52  C   UNL     1       5.245  10.961  -2.298  1.00  0.00     0.040 A 
ATOM     53  F   UNL     1       4.267  10.187  -0.310  1.00  0.00    -0.206 F 
ATOM     54  C   UNL     1       6.355  11.078  -3.133  1.00  0.00     0.006 A 
ENDBRANCH  26  47
BRANCH  38  55
ATOM     55  C   UNL     1       9.867  10.787   5.325  1.00  0.00     0.057 A 
ATOM     56  C   UNL     1       9.327  12.021   5.707  1.00  0.00     0.134 A 
ATOM     57  C   UNL     1      11.255  10.627   5.425  1.00  0.00     0.134 A 
ATOM     58  F   UNL     1       8.007  12.242   5.619  1.00  0.00    -0.206 F 
ATOM     59  C   UNL     1      10.140  13.066   6.149  1.00  0.00     0.040 A 
ATOM     60  C   UNL     1      12.076  11.656   5.887  1.00  0.00     0.040 A 
ATOM     61  F   UNL     1      11.833   9.466   5.080  1.00  0.00    -0.206 F 
ATOM     62  C   UNL     1      11.519  12.882   6.244  1.00  0.00     0.006 A 
ENDBRANCH  38  55
ENDBRANCH  12  13
ENDBRANCH   5   7
ENDBRANCH   2   3
ENDBRANCH   1   2
BRANCH   1  63
ATOM     63  C   UNL     1       4.395  -3.843   0.388  1.00  0.00     0.023 C 
BRANCH  63  64
ATOM     64  C   UNL     1       4.554  -4.247  -1.074  1.00  0.00     0.116 C 
BRANCH  64  65
ATOM     65  N   UNL     1       5.910  -4.122  -1.576  1.00  0.00    -0.354 N 
ATOM     66  C   UNL     1       6.635  -4.927  -2.412  1.00  0.00     0.247 C 
ATOM     67  H   UNL     1       6.389  -3.321  -1.263  1.00  0.00     0.163 HD
ATOM     68  O   UNL     1       7.651  -4.406  -2.892  1.00  0.00    -0.273 OA
BRANCH  66  69
ATOM     69  C   UNL     1       6.263  -6.411  -2.690  1.00  0.00     0.161 C 
ATOM     70  Cl  UNL     1       4.600  -6.431  -3.454  1.00  0.00    -0.102 Cl
ATOM     71  C   UNL     1       7.135  -6.997  -3.793  1.00  0.00     0.008 C 
ATOM     72  C   UNL     1       6.291  -7.276  -1.390  1.00  0.00     0.146 C 
ATOM     73  C   UNL     1       7.447  -8.300  -3.834  1.00  0.00    -0.002 C 
ATOM     74  C   UNL     1       6.487  -8.768  -1.644  1.00  0.00    -0.020 C 
ATOM     75  Cl  UNL     1       7.639  -6.786  -0.269  1.00  0.00    -0.115 Cl
ATOM     76  C   UNL     1       6.989  -9.211  -2.814  1.00  0.00     0.006 C 
BRANCH  74  77
ATOM     77  C   UNL     1       6.181  -9.725  -0.558  1.00  0.00    -0.021 A 
ATOM     78  C   UNL     1       7.159 -10.654  -0.163  1.00  0.00     0.008 A 
ATOM     79  C   UNL     1       4.970  -9.691   0.143  1.00  0.00     0.008 A 
ATOM     80  C   UNL     1       6.931 -11.528   0.901  1.00  0.00     0.001 A 
ATOM     81  C   UNL     1       4.743 -10.566   1.211  1.00  0.00     0.001 A 
ATOM     82  C   UNL     1       5.723 -11.482   1.589  1.00  0.00     0.000 A 
ENDBRANCH  74  77
ENDBRANCH  66  69
ENDBRANCH  64  65
ENDBRANCH  63  64
ENDBRANCH   1  63
TORSDOF 12
