REMARK SMILES CN(C(=O)N(CC(=O)NCCCCNC(=O)c1ccc(-c2c3nc(c(-c4c(F)cccc4F)c4ccc([nH]4)c(-c4c(F)cccc4F)c4nc(c(-c5c(F)cccc5F)c5ccc2[nH]5)C=C4)C=C3)cc1)C(C)(C)C)C1CCCCCC1
REMARK SMILES IDX 7 1 8 2 9 3 6 5 5 6 3 7 4 8 2 9 1 10 75 11 76 12 77 13 78 14
REMARK SMILES IDX 81 16 80 17 79 18 71 20 72 21 73 22 74 23 10 24 11 25 12 26
REMARK SMILES IDX 13 27 14 28 15 29 16 31 17 32 18 33 70 34 19 35 69 36 20 37
REMARK SMILES IDX 21 38 22 39 63 40 23 41 68 42 62 43 64 44 24 45 67 46 61 47
REMARK SMILES IDX 60 48 25 50 51 51 34 52 50 53 35 54 38 55 49 56 65 57 36 58
REMARK SMILES IDX 37 59 48 61 66 62 39 63 26 64 27 65 32 66 28 67 29 68 31 69
REMARK SMILES IDX 33 70 30 71 52 72 53 73 58 74 54 75 55 76 57 77 59 78 56 79
REMARK SMILES IDX 40 80 41 81 46 82 42 83 43 84 45 85 47 86 44 87
REMARK H PARENT 9 4 14 30 64 49 38 60
REMARK Flexibility Score: 90.00
ROOT
ATOM      1  C   UNL     1      -1.332   0.938   2.496  1.00  0.00     0.239 C 
ATOM      2  O   UNL     1      -1.410   1.825   3.357  1.00  0.00    -0.273 OA
ATOM      3  N   UNL     1      -2.205   1.050   1.454  1.00  0.00    -0.355 N 
ATOM      4  H   UNL     1      -2.986   1.619   1.645  1.00  0.00     0.163 HD
ENDROOT
BRANCH   1   5
ATOM      5  C   UNL     1      -0.206  -0.117   2.604  1.00  0.00     0.221 C 
BRANCH   5   6
ATOM      6  N   UNL     1      -0.518  -1.468   2.136  1.00  0.00    -0.311 N 
BRANCH   6   7
ATOM      7  C   UNL     1      -0.187  -2.031   0.898  1.00  0.00     0.320 C 
ATOM      8  O   UNL     1      -0.732  -3.100   0.607  1.00  0.00    -0.248 OA
BRANCH   7   9
ATOM      9  N   UNL     1       0.710  -1.463  -0.024  1.00  0.00    -0.325 N 
ATOM     10  C   UNL     1       1.192  -0.079  -0.047  1.00  0.00     0.149 C 
BRANCH   9  11
ATOM     11  C   UNL     1       1.006  -2.215  -1.328  1.00  0.00     0.086 C 
BRANCH  11  12
ATOM     12  C   UNL     1       2.312  -1.767  -2.053  1.00  0.00     0.025 C 
BRANCH  12  13
ATOM     13  C   UNL     1       3.587  -2.438  -1.543  1.00  0.00     0.002 C 
BRANCH  13  14
ATOM     14  C   UNL     1       3.969  -3.649  -2.388  1.00  0.00     0.000 CG0
ATOM     15  G   UNL     1       3.033  -4.844  -2.252  1.00  0.00     0.000 G0
ENDBRANCH  13  14
ENDBRANCH  12  13
ENDBRANCH  11  12
BRANCH  11  16
ATOM     16  C   UNL     1       0.931  -3.768  -1.270  1.00  0.00     0.025 C 
BRANCH  16  17
ATOM     17  C   UNL     1       1.549  -4.539  -2.443  1.00  0.00     0.002 C 
BRANCH  17  18
ATOM     18  C   UNL     1       3.033  -4.844  -2.252  1.00  0.00     0.000 CG0
ATOM     19  G   UNL     1       3.969  -3.649  -2.388  1.00  0.00     0.000 G0
ENDBRANCH  17  18
ENDBRANCH  16  17
ENDBRANCH  11  16
ENDBRANCH   9  11
ENDBRANCH   7   9
ENDBRANCH   6   7
BRANCH   6  20
ATOM     20  C   UNL     1      -1.312  -2.342   3.135  1.00  0.00     0.037 C 
ATOM     21  C   UNL     1      -2.720  -2.723   2.626  1.00  0.00     0.034 C 
ATOM     22  C   UNL     1      -0.511  -3.624   3.467  1.00  0.00     0.034 C 
ATOM     23  C   UNL     1      -1.588  -1.671   4.518  1.00  0.00     0.034 C 
ENDBRANCH   6  20
ENDBRANCH   5   6
ENDBRANCH   1   5
BRANCH   3  24
ATOM     24  C   UNL     1      -2.199   0.487   0.119  1.00  0.00     0.116 C 
BRANCH  24  25
ATOM     25  C   UNL     1      -3.329  -0.485  -0.182  1.00  0.00     0.023 C 
BRANCH  25  26
ATOM     26  C   UNL     1      -4.718   0.138  -0.228  1.00  0.00     0.023 C 
BRANCH  26  27
ATOM     27  C   UNL     1      -4.883   1.229  -1.276  1.00  0.00     0.116 C 
BRANCH  27  28
ATOM     28  N   UNL     1      -4.588   0.775  -2.628  1.00  0.00    -0.352 N 
ATOM     29  C   UNL     1      -5.270   1.038  -3.792  1.00  0.00     0.251 C 
ATOM     30  H   UNL     1      -3.792   0.203  -2.721  1.00  0.00     0.163 HD
ATOM     31  O   UNL     1      -4.957   0.486  -4.839  1.00  0.00    -0.269 OA
BRANCH  29  32
ATOM     32  C   UNL     1      -6.413   1.972  -3.757  1.00  0.00     0.039 A 
ATOM     33  C   UNL     1      -7.622   1.579  -4.335  1.00  0.00     0.014 A 
ATOM     34  C   UNL     1      -6.299   3.208  -3.116  1.00  0.00     0.014 A 
ATOM     35  C   UNL     1      -8.743   2.401  -4.206  1.00  0.00     0.010 A 
ATOM     36  C   UNL     1      -7.432   3.989  -2.924  1.00  0.00     0.010 A 
ATOM     37  C   UNL     1      -8.664   3.593  -3.468  1.00  0.00    -0.014 A 
BRANCH  37  38
ATOM     38  C   UNL     1      -9.859   4.444  -3.248  1.00  0.00     0.031 A 
ATOM     39  C   UNL     1      -9.897   5.839  -3.807  1.00  0.00     0.074 A 
ATOM     40  C   UNL     1     -10.865   3.994  -2.474  1.00  0.00     0.049 A 
ATOM     41  N   UNL     1     -10.803   6.769  -3.645  1.00  0.00    -0.248 NA
ATOM     42  C   UNL     1      -8.748   6.258  -4.627  1.00  0.00     0.031 C 
ATOM     43  C   UNL     1     -10.912   2.684  -1.819  1.00  0.00     0.029 A 
ATOM     44  N   UNL     1     -12.035   4.598  -2.090  1.00  0.00    -0.354 N 
ATOM     45  C   UNL     1     -10.321   7.886  -4.315  1.00  0.00     0.074 A 
ATOM     46  C   UNL     1      -9.026   7.533  -4.853  1.00  0.00     0.031 C 
ATOM     47  C   UNL     1     -12.056   2.582  -1.123  1.00  0.00     0.029 A 
ATOM     48  C   UNL     1     -12.807   3.825  -1.257  1.00  0.00     0.049 A 
ATOM     49  H   UNL     1     -12.297   5.501  -2.383  1.00  0.00     0.167 HD
ATOM     50  C   UNL     1     -10.915   9.090  -4.482  1.00  0.00     0.037 A 
ATOM     51  C   UNL     1     -13.984   4.095  -0.661  1.00  0.00     0.037 A 
ATOM     52  C   UNL     1     -12.227   9.418  -3.994  1.00  0.00     0.049 A 
ATOM     53  C   UNL     1     -14.644   5.423  -0.906  1.00  0.00     0.074 A 
ATOM     54  C   UNL     1     -12.958  10.575  -4.201  1.00  0.00     0.029 A 
ATOM     55  N   UNL     1     -13.005   8.586  -3.204  1.00  0.00    -0.354 N 
ATOM     56  N   UNL     1     -14.217   6.437  -1.620  1.00  0.00    -0.248 NA
ATOM     57  C   UNL     1     -15.951   5.643  -0.272  1.00  0.00     0.031 C 
ATOM     58  C   UNL     1     -14.165  10.457  -3.506  1.00  0.00     0.029 A 
ATOM     59  C   UNL     1     -14.201   9.213  -2.898  1.00  0.00     0.049 A 
ATOM     60  H   UNL     1     -12.746   7.685  -2.906  1.00  0.00     0.167 HD
ATOM     61  C   UNL     1     -15.213   7.402  -1.541  1.00  0.00     0.074 A 
ATOM     62  C   UNL     1     -16.271   6.847  -0.724  1.00  0.00     0.031 C 
ATOM     63  C   UNL     1     -15.247   8.638  -2.094  1.00  0.00     0.037 A 
BRANCH  50  64
ATOM     64  C   UNL     1     -10.159  10.143  -5.236  1.00  0.00     0.057 A 
ATOM     65  C   UNL     1      -9.981  10.074  -6.623  1.00  0.00     0.134 A 
ATOM     66  C   UNL     1      -9.654  11.268  -4.572  1.00  0.00     0.134 A 
ATOM     67  F   UNL     1     -10.430   9.016  -7.314  1.00  0.00    -0.206 F 
ATOM     68  C   UNL     1      -9.315  11.081  -7.323  1.00  0.00     0.040 A 
ATOM     69  C   UNL     1      -9.007  12.293  -5.264  1.00  0.00     0.040 A 
ATOM     70  F   UNL     1      -9.794  11.397  -3.244  1.00  0.00    -0.206 F 
ATOM     71  C   UNL     1      -8.834  12.199  -6.644  1.00  0.00     0.006 A 
ENDBRANCH  50  64
BRANCH  51  72
ATOM     72  C   UNL     1     -14.627   3.084   0.215  1.00  0.00     0.057 A 
ATOM     73  C   UNL     1     -15.792   2.417  -0.183  1.00  0.00     0.134 A 
ATOM     74  C   UNL     1     -14.108   2.777   1.479  1.00  0.00     0.134 A 
ATOM     75  F   UNL     1     -16.346   2.683  -1.375  1.00  0.00    -0.206 F 
ATOM     76  C   UNL     1     -16.433   1.502   0.653  1.00  0.00     0.040 A 
ATOM     77  C   UNL     1     -14.725   1.847   2.316  1.00  0.00     0.040 A 
ATOM     78  F   UNL     1     -12.990   3.376   1.915  1.00  0.00    -0.206 F 
ATOM     79  C   UNL     1     -15.897   1.213   1.907  1.00  0.00     0.006 A 
ENDBRANCH  51  72
BRANCH  63  80
ATOM     80  C   UNL     1     -16.479   9.459  -1.862  1.00  0.00     0.057 A 
ATOM     81  C   UNL     1     -16.742  10.059  -0.624  1.00  0.00     0.134 A 
ATOM     82  C   UNL     1     -17.390   9.687  -2.901  1.00  0.00     0.134 A 
ATOM     83  F   UNL     1     -15.913   9.868   0.413  1.00  0.00    -0.206 F 
ATOM     84  C   UNL     1     -17.879  10.842  -0.423  1.00  0.00     0.040 A 
ATOM     85  C   UNL     1     -18.518  10.487  -2.718  1.00  0.00     0.040 A 
ATOM     86  F   UNL     1     -17.190   9.147  -4.113  1.00  0.00    -0.206 F 
ATOM     87  C   UNL     1     -18.767  11.064  -1.474  1.00  0.00     0.006 A 
ENDBRANCH  63  80
ENDBRANCH  37  38
ENDBRANCH  29  32
ENDBRANCH  27  28
ENDBRANCH  26  27
ENDBRANCH  25  26
ENDBRANCH  24  25
ENDBRANCH   3  24
TORSDOF 16
