REMARK SMILES Cc1n[nH]c(C(=O)N[C@@H](CC(C)C)C(=O)NCCCCNC(=O)c2ccc(-c3c4nc(c(-c5c(F)cccc5F)c5ccc([nH]5)c(-c5c(F)cccc5F)c5nc(c(-c6c(F)cccc6F)c6ccc3[nH]6)C=C5)C=C4)cc2)n1
REMARK SMILES IDX 18 1 17 2 16 3 14 4 15 5 9 7 8 8 6 9 7 10 5 12 1 13 2 14
REMARK SMILES IDX 3 15 78 16 4 17 10 19 11 20 12 21 13 22 19 23 20 24 21 25
REMARK SMILES IDX 22 26 23 28 24 29 25 30 77 31 26 32 76 33 27 34 28 35 29 36
REMARK SMILES IDX 70 37 30 38 75 39 69 40 71 41 31 42 74 43 68 44 67 45 32 47
REMARK SMILES IDX 58 48 41 49 57 50 42 51 45 52 56 53 72 54 43 55 44 56 55 58
REMARK SMILES IDX 73 59 46 60 33 61 34 62 39 63 35 64 36 65 38 66 40 67 37 68
REMARK SMILES IDX 59 69 60 70 65 71 61 72 62 73 64 74 66 75 63 76 47 77 48 78
REMARK SMILES IDX 53 79 49 80 50 81 52 82 54 83 51 84
REMARK H PARENT 16 6 8 11 4 18 21 27 71 46 45 57
REMARK Flexibility Score: inf
ROOT
ATOM      1  C   UNL     1      -1.140   9.400   1.595  1.00  0.00     0.023 C 
ENDROOT
BRANCH   1   2
ATOM      2  C   UNL     1      -0.987   8.323   2.667  1.00  0.00     0.116 C 
BRANCH   2   3
ATOM      3  N   UNL     1      -1.984   7.269   2.612  1.00  0.00    -0.354 N 
ATOM      4  C   UNL     1      -1.950   5.977   3.054  1.00  0.00     0.242 C 
ATOM      5  O   UNL     1      -3.035   5.397   3.174  1.00  0.00    -0.273 OA
ATOM      6  H   UNL     1      -2.830   7.530   2.182  1.00  0.00     0.163 HD
BRANCH   4   7
ATOM      7  C   UNL     1      -0.655   5.238   3.472  1.00  0.00     0.172 C 
BRANCH   7   8
ATOM      8  N   UNL     1       0.381   5.353   2.450  1.00  0.00    -0.338 N 
ATOM      9  C   UNL     1       0.780   4.560   1.398  1.00  0.00     0.289 C 
ATOM     10  O   UNL     1       1.476   5.167   0.576  1.00  0.00    -0.266 OA
ATOM     11  H   UNL     1       0.911   6.179   2.531  1.00  0.00     0.164 HD
BRANCH   9  12
ATOM     12  C   UNL     1       0.493   3.139   1.274  1.00  0.00     0.214 A 
ATOM     13  C   UNL     1       1.123  -0.051  -0.159  1.00  0.00     0.092 C 
ATOM     14  C   UNL     1       0.654   1.117   0.611  1.00  0.00     0.148 A 
ATOM     15  N   UNL     1      -0.212   1.028   1.622  1.00  0.00    -0.159 NA
ATOM     16  N   UNL     1       1.091   2.386   0.358  1.00  0.00    -0.207 NA
ATOM     17  N   UNL     1      -0.313   2.312   2.003  1.00  0.00    -0.255 N 
ATOM     18  H   UNL     1      -0.903   2.623   2.727  1.00  0.00     0.192 HD
ENDBRANCH   9  12
ENDBRANCH   7   8
BRANCH   7  19
ATOM     19  C   UNL     1      -0.116   5.433   4.907  1.00  0.00     0.038 C 
BRANCH  19  20
ATOM     20  C   UNL     1      -0.052   6.846   5.509  1.00  0.00    -0.015 C 
ATOM     21  C   UNL     1      -1.414   7.316   6.032  1.00  0.00     0.007 C 
ATOM     22  C   UNL     1       0.942   6.898   6.676  1.00  0.00     0.007 C 
ENDBRANCH  19  20
ENDBRANCH   7  19
ENDBRANCH   4   7
ENDBRANCH   2   3
ENDBRANCH   1   2
BRANCH   1  23
ATOM     23  C   UNL     1      -2.387  10.287   1.703  1.00  0.00     0.023 C 
BRANCH  23  24
ATOM     24  C   UNL     1      -2.569  10.982   3.045  1.00  0.00     0.116 C 
BRANCH  24  25
ATOM     25  N   UNL     1      -1.516  11.944   3.360  1.00  0.00    -0.352 N 
ATOM     26  C   UNL     1      -1.522  12.889   4.374  1.00  0.00     0.251 C 
ATOM     27  H   UNL     1      -0.714  11.919   2.790  1.00  0.00     0.163 HD
ATOM     28  O   UNL     1      -0.773  13.851   4.353  1.00  0.00    -0.269 OA
BRANCH  26  29
ATOM     29  C   UNL     1      -2.450  12.691   5.505  1.00  0.00     0.039 A 
ATOM     30  C   UNL     1      -3.179  13.748   6.056  1.00  0.00     0.014 A 
ATOM     31  C   UNL     1      -2.591  11.395   5.995  1.00  0.00     0.014 A 
ATOM     32  C   UNL     1      -4.102  13.472   7.064  1.00  0.00     0.010 A 
ATOM     33  C   UNL     1      -3.598  11.102   6.875  1.00  0.00     0.010 A 
ATOM     34  C   UNL     1      -4.314  12.141   7.458  1.00  0.00    -0.014 A 
BRANCH  34  35
ATOM     35  C   UNL     1      -5.393  11.781   8.372  1.00  0.00     0.031 A 
ATOM     36  C   UNL     1      -6.742  12.187   7.887  1.00  0.00     0.074 A 
ATOM     37  C   UNL     1      -5.204  10.935   9.411  1.00  0.00     0.049 A 
ATOM     38  N   UNL     1      -7.546  13.043   8.423  1.00  0.00    -0.248 NA
ATOM     39  C   UNL     1      -7.185  11.710   6.563  1.00  0.00     0.031 C 
ATOM     40  C   UNL     1      -3.970  10.230   9.784  1.00  0.00     0.029 A 
ATOM     41  N   UNL     1      -6.107  10.422  10.293  1.00  0.00    -0.354 N 
ATOM     42  C   UNL     1      -8.695  13.029   7.636  1.00  0.00     0.074 A 
ATOM     43  C   UNL     1      -8.336  12.370   6.410  1.00  0.00     0.031 C 
ATOM     44  C   UNL     1      -4.258   9.220  10.634  1.00  0.00     0.029 A 
ATOM     45  C   UNL     1      -5.660   9.302  10.996  1.00  0.00     0.049 A 
ATOM     46  H   UNL     1      -7.002  10.810  10.424  1.00  0.00     0.167 HD
ATOM     47  C   UNL     1      -9.912  13.302   8.185  1.00  0.00     0.037 A 
ATOM     48  C   UNL     1      -6.405   8.487  11.789  1.00  0.00     0.037 A 
ATOM     49  C   UNL     1      -9.758  13.955   9.463  1.00  0.00     0.049 A 
ATOM     50  C   UNL     1      -7.641   9.227  12.140  1.00  0.00     0.074 A 
ATOM     51  C   UNL     1      -9.155  15.118   9.900  1.00  0.00     0.029 A 
ATOM     52  N   UNL     1      -9.936  13.182  10.584  1.00  0.00    -0.354 N 
ATOM     53  N   UNL     1      -7.660  10.280  12.907  1.00  0.00    -0.248 NA
ATOM     54  C   UNL     1      -8.782   9.078  11.252  1.00  0.00     0.031 C 
ATOM     55  C   UNL     1      -8.568  14.779  11.155  1.00  0.00     0.029 A 
ATOM     56  C   UNL     1      -8.921  13.464  11.459  1.00  0.00     0.049 A 
ATOM     57  H   UNL     1     -10.666  12.539  10.733  1.00  0.00     0.167 HD
ATOM     58  C   UNL     1      -8.540  11.148  12.280  1.00  0.00     0.074 A 
ATOM     59  C   UNL     1      -9.262  10.323  11.311  1.00  0.00     0.031 C 
ATOM     60  C   UNL     1      -8.384  12.501  12.390  1.00  0.00     0.037 A 
BRANCH  47  61
ATOM     61  C   UNL     1     -11.200  12.602   7.803  1.00  0.00     0.057 A 
ATOM     62  C   UNL     1     -12.400  13.017   8.413  1.00  0.00     0.134 A 
ATOM     63  C   UNL     1     -11.275  11.366   7.129  1.00  0.00     0.134 A 
ATOM     64  F   UNL     1     -12.465  14.174   9.088  1.00  0.00    -0.206 F 
ATOM     65  C   UNL     1     -13.548  12.216   8.438  1.00  0.00     0.040 A 
ATOM     66  C   UNL     1     -12.432  10.583   7.104  1.00  0.00     0.040 A 
ATOM     67  F   UNL     1     -10.217  10.793   6.544  1.00  0.00    -0.206 F 
ATOM     68  C   UNL     1     -13.563  10.988   7.792  1.00  0.00     0.006 A 
ENDBRANCH  47  61
BRANCH  48  69
ATOM     69  C   UNL     1      -6.296   7.021  11.998  1.00  0.00     0.057 A 
ATOM     70  C   UNL     1      -6.989   6.386  13.041  1.00  0.00     0.134 A 
ATOM     71  C   UNL     1      -5.766   6.175  11.009  1.00  0.00     0.134 A 
ATOM     72  F   UNL     1      -7.564   7.107  14.015  1.00  0.00    -0.206 F 
ATOM     73  C   UNL     1      -7.178   4.996  13.079  1.00  0.00     0.040 A 
ATOM     74  C   UNL     1      -5.944   4.786  11.037  1.00  0.00     0.040 A 
ATOM     75  F   UNL     1      -5.141   6.673   9.933  1.00  0.00    -0.206 F 
ATOM     76  C   UNL     1      -6.667   4.193  12.065  1.00  0.00     0.006 A 
ENDBRANCH  48  69
BRANCH  60  77
ATOM     77  C   UNL     1      -7.423  13.015  13.429  1.00  0.00     0.057 A 
ATOM     78  C   UNL     1      -6.045  12.749  13.451  1.00  0.00     0.134 A 
ATOM     79  C   UNL     1      -7.904  13.922  14.380  1.00  0.00     0.134 A 
ATOM     80  F   UNL     1      -5.469  11.975  12.523  1.00  0.00    -0.206 F 
ATOM     81  C   UNL     1      -5.199  13.318  14.409  1.00  0.00     0.040 A 
ATOM     82  C   UNL     1      -7.065  14.525  15.317  1.00  0.00     0.040 A 
ATOM     83  F   UNL     1      -9.201  14.268  14.386  1.00  0.00    -0.206 F 
ATOM     84  C   UNL     1      -5.709  14.213  15.344  1.00  0.00     0.006 A 
ENDBRANCH  60  77
ENDBRANCH  34  35
ENDBRANCH  26  29
ENDBRANCH  24  25
ENDBRANCH  23  24
ENDBRANCH   1  23
TORSDOF 15
