REMARK SMILES COc1cc(/C=N/NC(=O)c2cccnc2)ccc1OCC(=O)NCCCCNC(=O)c1ccc(-c2c3nc(c(-c4c(F)cccc4F)c4ccc([nH]4)c(-c4c(F)cccc4F)c4nc(c(-c5c(F)cccc5F)c5ccc2[nH]5)C=C4)C=C3)cc1
REMARK SMILES IDX 25 1 24 2 22 3 23 4 21 6 20 7 19 8 3 9 4 10 5 11 18 12 17 13
REMARK SMILES IDX 2 14 1 15 6 16 7 17 8 18 9 19 10 21 11 22 12 23 16 24 13 25
REMARK SMILES IDX 15 26 14 27 26 28 27 29 28 30 29 31 30 32 31 34 32 35 33 36
REMARK SMILES IDX 85 37 34 38 84 39 35 40 36 41 37 42 78 43 38 44 83 45 77 46
REMARK SMILES IDX 79 47 39 48 82 49 76 50 75 51 40 53 66 54 49 55 65 56 50 57
REMARK SMILES IDX 53 58 64 59 80 60 51 61 52 62 63 64 81 65 54 66 41 67 42 68
REMARK SMILES IDX 47 69 43 70 44 71 46 72 48 73 45 74 67 75 68 76 73 77 69 78
REMARK SMILES IDX 70 79 72 80 74 81 71 82 55 83 56 84 61 85 57 86 58 87 60 88
REMARK SMILES IDX 62 89 59 90
REMARK H PARENT 24 5 8 20 29 33 79 52 53 63
REMARK Flexibility Score: inf
ROOT
ATOM      1  C   UNL     1       3.683  -1.784  -2.306  1.00  0.00     0.116 C 
ENDROOT
BRANCH   1   2
ATOM      2  N   UNL     1       2.615  -0.826  -2.115  1.00  0.00    -0.353 N 
ATOM      3  C   UNL     1       2.401   0.005  -1.053  1.00  0.00     0.257 C 
ATOM      4  O   UNL     1       1.586   0.919  -1.199  1.00  0.00    -0.271 OA
ATOM      5  H   UNL     1       1.957  -0.766  -2.845  1.00  0.00     0.163 HD
BRANCH   3   6
ATOM      6  C   UNL     1       3.215  -0.166   0.237  1.00  0.00     0.329 C 
BRANCH   6   7
ATOM      7  O   UNL     1       3.366  -1.476   0.758  1.00  0.00    -0.480 OA
BRANCH   7   8
ATOM      8  C   UNL     1       2.267  -2.178   1.168  1.00  0.00     0.161 A 
ATOM      9  C   UNL     1       1.029  -1.681   1.598  1.00  0.00     0.161 A 
ATOM     10  C   UNL     1       0.036  -2.567   2.044  1.00  0.00     0.060 A 
ATOM     11  C   UNL     1       0.264  -3.945   2.013  1.00  0.00    -0.002 A 
ATOM     12  C   UNL     1       2.482  -3.564   1.168  1.00  0.00     0.051 A 
ATOM     13  C   UNL     1       1.480  -4.451   1.562  1.00  0.00     0.014 A 
BRANCH   9  14
ATOM     14  O   UNL     1       0.832  -0.333   1.714  1.00  0.00    -0.493 OA
ATOM     15  C   UNL     1      -0.310   0.130   0.991  1.00  0.00     0.278 C 
ENDBRANCH   9  14
BRANCH  11  16
ATOM     16  C   UNL     1      -0.725  -4.898   2.548  1.00  0.00     0.141 C 
ATOM     17  N   UNL     1      -1.545  -4.554   3.488  1.00  0.00    -0.180 NA
BRANCH  17  18
ATOM     18  N   UNL     1      -2.325  -5.523   4.056  1.00  0.00    -0.243 N 
ATOM     19  C   UNL     1      -1.994  -6.802   4.473  1.00  0.00     0.272 C 
ATOM     20  H   UNL     1      -3.268  -5.273   4.189  1.00  0.00     0.194 HD
ATOM     21  O   UNL     1      -2.857  -7.555   4.923  1.00  0.00    -0.267 OA
BRANCH  19  22
ATOM     22  C   UNL     1      -0.609  -7.298   4.388  1.00  0.00     0.059 A 
ATOM     23  C   UNL     1       0.501  -6.558   4.798  1.00  0.00     0.017 A 
ATOM     24  C   UNL     1      -0.396  -8.560   3.851  1.00  0.00     0.124 A 
ATOM     25  C   UNL     1       1.777  -7.075   4.586  1.00  0.00     0.021 A 
ATOM     26  N   UNL     1       0.835  -9.083   3.627  1.00  0.00    -0.264 NA
ATOM     27  C   UNL     1       1.892  -8.325   3.995  1.00  0.00     0.111 A 
ENDBRANCH  19  22
ENDBRANCH  17  18
ENDBRANCH  11  16
ENDBRANCH   7   8
ENDBRANCH   6   7
ENDBRANCH   3   6
ENDBRANCH   1   2
BRANCH   1  28
ATOM     28  C   UNL     1       3.179  -3.207  -2.525  1.00  0.00     0.023 C 
BRANCH  28  29
ATOM     29  C   UNL     1       2.203  -3.399  -3.687  1.00  0.00     0.023 C 
BRANCH  29  30
ATOM     30  C   UNL     1       2.611  -2.763  -5.010  1.00  0.00     0.116 C 
BRANCH  30  31
ATOM     31  N   UNL     1       3.916  -3.201  -5.478  1.00  0.00    -0.352 N 
ATOM     32  C   UNL     1       4.292  -3.660  -6.715  1.00  0.00     0.251 C 
ATOM     33  H   UNL     1       4.636  -3.162  -4.808  1.00  0.00     0.163 HD
ATOM     34  O   UNL     1       5.429  -4.089  -6.890  1.00  0.00    -0.269 OA
BRANCH  32  35
ATOM     35  C   UNL     1       3.319  -3.677  -7.828  1.00  0.00     0.039 A 
ATOM     36  C   UNL     1       3.218  -4.830  -8.609  1.00  0.00     0.014 A 
ATOM     37  C   UNL     1       2.503  -2.574  -8.095  1.00  0.00     0.014 A 
ATOM     38  C   UNL     1       2.251  -4.904  -9.613  1.00  0.00     0.010 A 
ATOM     39  C   UNL     1       1.490  -2.678  -9.045  1.00  0.00     0.010 A 
ATOM     40  C   UNL     1       1.351  -3.844  -9.813  1.00  0.00    -0.014 A 
BRANCH  40  41
ATOM     41  C   UNL     1       0.256  -3.946 -10.812  1.00  0.00     0.031 A 
ATOM     42  C   UNL     1       0.210  -3.007 -11.987  1.00  0.00     0.074 A 
ATOM     43  C   UNL     1      -0.736  -4.839 -10.623  1.00  0.00     0.049 A 
ATOM     44  N   UNL     1      -0.700  -2.898 -12.922  1.00  0.00    -0.248 NA
ATOM     45  C   UNL     1       1.318  -2.046 -12.115  1.00  0.00     0.031 C 
ATOM     46  C   UNL     1      -0.838  -5.767  -9.494  1.00  0.00     0.029 A 
ATOM     47  N   UNL     1      -1.859  -5.103 -11.368  1.00  0.00    -0.354 N 
ATOM     48  C   UNL     1      -0.287  -1.848 -13.732  1.00  0.00     0.074 A 
ATOM     49  C   UNL     1       0.932  -1.324 -13.158  1.00  0.00     0.031 C 
ATOM     50  C   UNL     1      -1.952  -6.504  -9.628  1.00  0.00     0.029 A 
ATOM     51  C   UNL     1      -2.665  -6.077 -10.827  1.00  0.00     0.049 A 
ATOM     52  H   UNL     1      -2.068  -4.638 -12.210  1.00  0.00     0.167 HD
ATOM     53  C   UNL     1      -0.865  -1.375 -14.861  1.00  0.00     0.037 A 
ATOM     54  C   UNL     1      -3.852  -6.561 -11.242  1.00  0.00     0.037 A 
ATOM     55  C   UNL     1      -2.058  -1.924 -15.452  1.00  0.00     0.049 A 
ATOM     56  C   UNL     1      -4.462  -6.023 -12.508  1.00  0.00     0.074 A 
ATOM     57  C   UNL     1      -2.666  -1.571 -16.644  1.00  0.00     0.029 A 
ATOM     58  N   UNL     1      -2.825  -2.934 -14.893  1.00  0.00    -0.354 N 
ATOM     59  N   UNL     1      -4.009  -5.094 -13.315  1.00  0.00    -0.248 NA
ATOM     60  C   UNL     1      -5.744  -6.607 -12.928  1.00  0.00     0.031 C 
ATOM     61  C   UNL     1      -3.833  -2.328 -16.779  1.00  0.00     0.029 A 
ATOM     62  C   UNL     1      -3.919  -3.194 -15.702  1.00  0.00     0.049 A 
ATOM     63  H   UNL     1      -2.622  -3.397 -14.049  1.00  0.00     0.167 HD
ATOM     64  C   UNL     1      -4.932  -5.005 -14.350  1.00  0.00     0.074 A 
ATOM     65  C   UNL     1      -5.960  -5.986 -14.079  1.00  0.00     0.031 C 
ATOM     66  C   UNL     1      -4.929  -4.183 -15.427  1.00  0.00     0.037 A 
BRANCH  53  67
ATOM     67  C   UNL     1      -0.222  -0.204 -15.545  1.00  0.00     0.057 A 
ATOM     68  C   UNL     1       0.990  -0.322 -16.237  1.00  0.00     0.134 A 
ATOM     69  C   UNL     1      -0.866   1.040 -15.576  1.00  0.00     0.134 A 
ATOM     70  F   UNL     1       1.662  -1.483 -16.238  1.00  0.00    -0.206 F 
ATOM     71  C   UNL     1       1.545   0.758 -16.926  1.00  0.00     0.040 A 
ATOM     72  C   UNL     1      -0.334   2.120 -16.284  1.00  0.00     0.040 A 
ATOM     73  F   UNL     1      -2.033   1.220 -14.940  1.00  0.00    -0.206 F 
ATOM     74  C   UNL     1       0.876   1.981 -16.959  1.00  0.00     0.006 A 
ENDBRANCH  53  67
BRANCH  54  75
ATOM     75  C   UNL     1      -4.553  -7.609 -10.455  1.00  0.00     0.057 A 
ATOM     76  C   UNL     1      -4.729  -8.903 -10.960  1.00  0.00     0.134 A 
ATOM     77  C   UNL     1      -5.103  -7.330  -9.198  1.00  0.00     0.134 A 
ATOM     78  F   UNL     1      -4.242  -9.228 -12.167  1.00  0.00    -0.206 F 
ATOM     79  C   UNL     1      -5.454  -9.870 -10.261  1.00  0.00     0.040 A 
ATOM     80  C   UNL     1      -5.804  -8.296  -8.474  1.00  0.00     0.040 A 
ATOM     81  F   UNL     1      -4.964  -6.112  -8.652  1.00  0.00    -0.206 F 
ATOM     82  C   UNL     1      -5.992  -9.567  -9.012  1.00  0.00     0.006 A 
ENDBRANCH  54  75
BRANCH  66  83
ATOM     83  C   UNL     1      -6.047  -4.337 -16.416  1.00  0.00     0.057 A 
ATOM     84  C   UNL     1      -7.357  -3.937 -16.123  1.00  0.00     0.134 A 
ATOM     85  C   UNL     1      -5.800  -4.855 -17.694  1.00  0.00     0.134 A 
ATOM     86  F   UNL     1      -7.664  -3.445 -14.913  1.00  0.00    -0.206 F 
ATOM     87  C   UNL     1      -8.386  -4.070 -17.058  1.00  0.00     0.040 A 
ATOM     88  C   UNL     1      -6.813  -4.964 -18.647  1.00  0.00     0.040 A 
ATOM     89  F   UNL     1      -4.565  -5.247 -18.043  1.00  0.00    -0.206 F 
ATOM     90  C   UNL     1      -8.113  -4.578 -18.326  1.00  0.00     0.006 A 
ENDBRANCH  66  83
ENDBRANCH  40  41
ENDBRANCH  32  35
ENDBRANCH  30  31
ENDBRANCH  29  30
ENDBRANCH  28  29
ENDBRANCH   1  28
TORSDOF 17
