REMARK SMILES CCc1cccc(C)c1Nc1ccccc1CC(=O)NCCCCNC(=O)c1ccc(-c2c3nc(c(-c4c(F)cccc4F)c4ccc([nH]4)c(-c4c(F)cccc4F)c4nc(c(-c5c(F)cccc5F)c5ccc2[nH]5)C=C4)C=C3)cc1
REMARK SMILES IDX 21 1 20 2 18 3 19 4 17 6 16 7 11 8 12 9 13 10 15 11 14 12
REMARK SMILES IDX 10 13 9 15 3 16 4 17 5 18 7 19 6 20 8 21 2 22 1 23 22 24
REMARK SMILES IDX 23 25 24 26 25 27 26 28 27 30 28 31 29 32 81 33 30 34 80 35
REMARK SMILES IDX 31 36 32 37 33 38 74 39 34 40 79 41 73 42 75 43 35 44 78 45
REMARK SMILES IDX 72 46 71 47 36 49 62 50 45 51 61 52 46 53 49 54 60 55 76 56
REMARK SMILES IDX 47 57 48 58 59 60 77 61 50 62 37 63 38 64 43 65 39 66 40 67
REMARK SMILES IDX 42 68 44 69 41 70 63 71 64 72 69 73 65 74 66 75 68 76 70 77
REMARK SMILES IDX 67 78 51 79 52 80 57 81 53 82 54 83 56 84 58 85 55 86
REMARK H PARENT 20 5 10 14 25 29 75 48 49 59
REMARK Flexibility Score: inf
ROOT
ATOM      1  C   UNL     1       7.636   2.822   0.945  1.00  0.00     0.116 C 
ENDROOT
BRANCH   1   2
ATOM      2  N   UNL     1       6.266   3.230   1.198  1.00  0.00    -0.356 N 
ATOM      3  C   UNL     1       5.187   2.569   1.703  1.00  0.00     0.224 C 
ATOM      4  O   UNL     1       4.250   3.279   2.086  1.00  0.00    -0.275 OA
ATOM      5  H   UNL     1       6.080   4.166   0.958  1.00  0.00     0.163 HD
BRANCH   3   6
ATOM      6  C   UNL     1       5.167   1.075   1.952  1.00  0.00     0.137 C 
BRANCH   6   7
ATOM      7  C   UNL     1       5.391   0.142   0.780  1.00  0.00    -0.015 A 
ATOM      8  C   UNL     1       4.404  -0.197  -0.173  1.00  0.00     0.042 A 
ATOM      9  C   UNL     1       4.731  -1.136  -1.175  1.00  0.00     0.026 A 
ATOM     10  C   UNL     1       5.986  -1.740  -1.240  1.00  0.00     0.002 A 
ATOM     11  C   UNL     1       6.637  -0.526   0.728  1.00  0.00     0.006 A 
ATOM     12  C   UNL     1       6.939  -1.441  -0.279  1.00  0.00     0.000 A 
BRANCH   8  13
ATOM     13  N   UNL     1       3.105   0.358  -0.233  1.00  0.00    -0.355 N 
ATOM     14  H   UNL     1       2.380  -0.302  -0.148  1.00  0.00     0.167 HD
BRANCH  13  15
ATOM     15  C   UNL     1       2.659   1.690  -0.393  1.00  0.00     0.045 A 
ATOM     16  C   UNL     1       1.438   2.123   0.175  1.00  0.00    -0.024 A 
ATOM     17  C   UNL     1       1.155   3.511   0.190  1.00  0.00     0.006 A 
ATOM     18  C   UNL     1       1.999   4.441  -0.403  1.00  0.00     0.001 A 
ATOM     19  C   UNL     1       3.402   2.621  -1.160  1.00  0.00    -0.027 A 
ATOM     20  C   UNL     1       3.099   3.992  -1.112  1.00  0.00     0.005 A 
ATOM     21  C   UNL     1       4.455   2.173  -2.134  1.00  0.00     0.046 C 
BRANCH  16  22
ATOM     22  C   UNL     1       0.330   1.272   0.773  1.00  0.00     0.034 C 
ATOM     23  C   UNL     1       0.360  -0.245   0.699  1.00  0.00     0.009 C 
ENDBRANCH  16  22
ENDBRANCH  13  15
ENDBRANCH   8  13
ENDBRANCH   6   7
ENDBRANCH   3   6
ENDBRANCH   1   2
BRANCH   1  24
ATOM     24  C   UNL     1       7.953   2.478  -0.517  1.00  0.00     0.023 C 
BRANCH  24  25
ATOM     25  C   UNL     1       7.430   3.463  -1.561  1.00  0.00     0.023 C 
BRANCH  25  26
ATOM     26  C   UNL     1       8.291   4.689  -1.795  1.00  0.00     0.116 C 
BRANCH  26  27
ATOM     27  N   UNL     1       9.070   4.623  -3.033  1.00  0.00    -0.352 N 
ATOM     28  C   UNL     1       9.828   5.619  -3.634  1.00  0.00     0.251 C 
ATOM     29  H   UNL     1       9.054   3.757  -3.501  1.00  0.00     0.163 HD
ATOM     30  O   UNL     1      10.483   5.404  -4.636  1.00  0.00    -0.269 OA
BRANCH  28  31
ATOM     31  C   UNL     1       9.934   6.915  -2.925  1.00  0.00     0.039 A 
ATOM     32  C   UNL     1      11.189   7.228  -2.397  1.00  0.00     0.014 A 
ATOM     33  C   UNL     1       8.778   7.530  -2.455  1.00  0.00     0.014 A 
ATOM     34  C   UNL     1      11.249   7.907  -1.189  1.00  0.00     0.010 A 
ATOM     35  C   UNL     1       8.829   8.111  -1.203  1.00  0.00     0.010 A 
ATOM     36  C   UNL     1      10.056   8.206  -0.532  1.00  0.00    -0.014 A 
BRANCH  36  37
ATOM     37  C   UNL     1      10.004   8.451   0.906  1.00  0.00     0.031 A 
ATOM     38  C   UNL     1       9.708   9.804   1.415  1.00  0.00     0.074 A 
ATOM     39  C   UNL     1      10.187   7.425   1.768  1.00  0.00     0.049 A 
ATOM     40  N   UNL     1      10.004  10.223   2.598  1.00  0.00    -0.248 NA
ATOM     41  C   UNL     1       9.102  10.829   0.578  1.00  0.00     0.031 C 
ATOM     42  C   UNL     1       9.929   7.419   3.206  1.00  0.00     0.029 A 
ATOM     43  N   UNL     1      10.872   6.221   1.533  1.00  0.00    -0.354 N 
ATOM     44  C   UNL     1       9.404  11.450   2.776  1.00  0.00     0.074 A 
ATOM     45  C   UNL     1       8.917  11.809   1.466  1.00  0.00     0.031 C 
ATOM     46  C   UNL     1      10.671   6.457   3.775  1.00  0.00     0.029 A 
ATOM     47  C   UNL     1      11.528   5.902   2.743  1.00  0.00     0.049 A 
ATOM     48  H   UNL     1      10.891   5.705   0.695  1.00  0.00     0.167 HD
ATOM     49  C   UNL     1       9.285  11.950   4.041  1.00  0.00     0.037 A 
ATOM     50  C   UNL     1      12.887   5.826   2.819  1.00  0.00     0.037 A 
ATOM     51  C   UNL     1      10.052  11.145   4.995  1.00  0.00     0.049 A 
ATOM     52  C   UNL     1      13.510   6.812   3.780  1.00  0.00     0.074 A 
ATOM     53  C   UNL     1       9.702  10.147   5.892  1.00  0.00     0.029 A 
ATOM     54  N   UNL     1      11.439  11.101   4.887  1.00  0.00    -0.354 N 
ATOM     55  N   UNL     1      12.885   7.848   4.269  1.00  0.00    -0.248 NA
ATOM     56  C   UNL     1      14.895   6.730   4.238  1.00  0.00     0.031 C 
ATOM     57  C   UNL     1      10.883   9.455   6.264  1.00  0.00     0.029 A 
ATOM     58  C   UNL     1      11.953  10.044   5.613  1.00  0.00     0.049 A 
ATOM     59  H   UNL     1      11.980  11.737   4.365  1.00  0.00     0.167 HD
ATOM     60  C   UNL     1      13.749   8.582   5.040  1.00  0.00     0.074 A 
ATOM     61  C   UNL     1      14.985   7.823   5.017  1.00  0.00     0.031 C 
ATOM     62  C   UNL     1      13.382   9.765   5.615  1.00  0.00     0.037 A 
BRANCH  49  63
ATOM     63  C   UNL     1       8.238  12.974   4.444  1.00  0.00     0.057 A 
ATOM     64  C   UNL     1       7.706  12.986   5.751  1.00  0.00     0.134 A 
ATOM     65  C   UNL     1       7.642  13.914   3.585  1.00  0.00     0.134 A 
ATOM     66  F   UNL     1       8.231  12.242   6.734  1.00  0.00    -0.206 F 
ATOM     67  C   UNL     1       6.599  13.763   6.124  1.00  0.00     0.040 A 
ATOM     68  C   UNL     1       6.502  14.659   3.926  1.00  0.00     0.040 A 
ATOM     69  F   UNL     1       8.170  14.214   2.395  1.00  0.00    -0.206 F 
ATOM     70  C   UNL     1       5.964  14.573   5.198  1.00  0.00     0.006 A 
ENDBRANCH  49  63
BRANCH  50  71
ATOM     71  C   UNL     1      13.525   5.312   1.582  1.00  0.00     0.057 A 
ATOM     72  C   UNL     1      13.321   3.965   1.235  1.00  0.00     0.134 A 
ATOM     73  C   UNL     1      13.990   6.165   0.579  1.00  0.00     0.134 A 
ATOM     74  F   UNL     1      12.877   3.093   2.154  1.00  0.00    -0.206 F 
ATOM     75  C   UNL     1      13.467   3.510  -0.078  1.00  0.00     0.040 A 
ATOM     76  C   UNL     1      14.143   5.719  -0.740  1.00  0.00     0.040 A 
ATOM     77  F   UNL     1      14.188   7.467   0.829  1.00  0.00    -0.206 F 
ATOM     78  C   UNL     1      13.845   4.399  -1.079  1.00  0.00     0.006 A 
ENDBRANCH  50  71
BRANCH  62  79
ATOM     79  C   UNL     1      14.316  10.734   6.295  1.00  0.00     0.057 A 
ATOM     80  C   UNL     1      15.657  10.923   5.930  1.00  0.00     0.134 A 
ATOM     81  C   UNL     1      13.828  11.630   7.272  1.00  0.00     0.134 A 
ATOM     82  F   UNL     1      16.219  10.220   4.937  1.00  0.00    -0.206 F 
ATOM     83  C   UNL     1      16.471  11.892   6.534  1.00  0.00     0.040 A 
ATOM     84  C   UNL     1      14.616  12.633   7.844  1.00  0.00     0.040 A 
ATOM     85  F   UNL     1      12.556  11.582   7.697  1.00  0.00    -0.206 F 
ATOM     86  C   UNL     1      15.949  12.758   7.486  1.00  0.00     0.006 A 
ENDBRANCH  62  79
ENDBRANCH  36  37
ENDBRANCH  28  31
ENDBRANCH  26  27
ENDBRANCH  25  26
ENDBRANCH  24  25
ENDBRANCH   1  24
TORSDOF 15
