REMARK SMILES COc1cc([N+](=O)[O-])cc([C@H]2[NH2+][C@H](C(=O)NCCCCNC(=O)c3ccc(-c4c5nc(c(-c6c(F)cccc6F)c6ccc([nH]6)c(-c6c(F)cccc6F)c6nc(c(-c7c(F)cccc7F)c7ccc4[nH]7)C=C6)C=C5)cc3)CS2)c1O
REMARK SMILES IDX 18 1 17 2 16 3 14 4 15 5 13 7 11 8 12 9 79 10 78 13 10 14
REMARK SMILES IDX 3 15 4 16 80 17 5 18 9 19 2 20 1 21 81 22 6 24 7 25 8 26
REMARK SMILES IDX 19 27 20 28 21 29 22 30 23 32 24 33 25 34 77 35 26 36 76 37
REMARK SMILES IDX 27 38 28 39 29 40 70 41 30 42 75 43 69 44 71 45 31 46 74 47
REMARK SMILES IDX 68 48 67 49 32 51 58 52 41 53 57 54 42 55 45 56 56 57 72 58
REMARK SMILES IDX 43 59 44 60 55 62 73 63 46 64 33 65 34 66 39 67 35 68 36 69
REMARK SMILES IDX 38 70 40 71 37 72 59 73 60 74 65 75 61 76 62 77 64 78 66 79
REMARK SMILES IDX 63 80 47 81 48 82 53 83 49 84 50 85 52 86 54 87 51 88
REMARK H PARENT 16 6 12 11 12 12 81 23 21 31 71 50 45 61
REMARK Flexibility Score: inf
ROOT
ATOM      1  C   UNL     1       1.893  -2.762   1.331  1.00  0.00     0.023 C 
ENDROOT
BRANCH   1   2
ATOM      2  C   UNL     1       1.654  -1.923   0.077  1.00  0.00     0.116 C 
BRANCH   2   3
ATOM      3  N   UNL     1       2.882  -1.365  -0.446  1.00  0.00    -0.351 N 
ATOM      4  C   UNL     1       3.720  -1.814  -1.421  1.00  0.00     0.279 C 
ATOM      5  O   UNL     1       4.723  -1.130  -1.651  1.00  0.00    -0.268 OA
ATOM      6  H   UNL     1       3.158  -0.518  -0.026  1.00  0.00     0.163 HD
BRANCH   4   7
ATOM      7  C   UNL     1       3.452  -3.088  -2.243  1.00  0.00     0.283 C 
ATOM      8  C   UNL     1       2.218  -5.017  -1.430  1.00  0.00     0.278 C 
ATOM      9  N   UNL     1       3.502  -4.312  -1.397  1.00  0.00    -0.320 N 
ATOM     10  S   UNL     1       1.482  -4.652  -3.033  1.00  0.00    -0.087 SA
ATOM     11  H   UNL     1       4.232  -4.932  -1.747  1.00  0.00     0.348 HD
ATOM     12  H   UNL     1       3.701  -4.038  -0.435  1.00  0.00     0.348 HD
ATOM     13  C   UNL     1       2.213  -3.005  -3.123  1.00  0.00     0.151 C 
BRANCH   8  14
ATOM     14  C   UNL     1       2.350  -6.474  -0.989  1.00  0.00     0.073 A 
ATOM     15  C   UNL     1       1.880  -8.890  -1.041  1.00  0.00     0.167 A 
ATOM     16  C   UNL     1       2.638  -9.074   0.120  1.00  0.00     0.136 A 
ATOM     17  C   UNL     1       1.725  -7.595  -1.581  1.00  0.00     0.168 A 
ATOM     18  C   UNL     1       3.228  -7.980   0.747  1.00  0.00     0.273 A 
ATOM     19  C   UNL     1       3.089  -6.699   0.203  1.00  0.00     0.100 A 
BRANCH  15  20
ATOM     20  O   UNL     1       1.360 -10.073  -1.500  1.00  0.00    -0.493 OA
ATOM     21  C   UNL     1       0.516 -10.062  -2.641  1.00  0.00     0.278 C 
ENDBRANCH  15  20
BRANCH  17  22
ATOM     22  O   UNL     1       0.928  -7.459  -2.684  1.00  0.00    -0.504 OA
ATOM     23  H   UNL     1       0.522  -8.212  -3.063  1.00  0.00     0.293 HD
ENDBRANCH  17  22
BRANCH  18  24
ATOM     24  N   UNL     1       3.975  -8.170   1.997  1.00  0.00     0.062 N 
ATOM     25  O   UNL     1       4.144  -9.329   2.400  1.00  0.00    -0.258 OA
ATOM     26  O   UNL     1       4.386  -7.157   2.579  1.00  0.00    -0.258 OA
ENDBRANCH  18  24
ENDBRANCH   8  14
ENDBRANCH   4   7
ENDBRANCH   2   3
ENDBRANCH   1   2
BRANCH   1  27
ATOM     27  C   UNL     1       2.032  -1.952   2.620  1.00  0.00     0.023 C 
BRANCH  27  28
ATOM     28  C   UNL     1       0.828  -1.085   2.972  1.00  0.00     0.116 C 
BRANCH  28  29
ATOM     29  N   UNL     1      -0.421  -1.826   3.059  1.00  0.00    -0.352 N 
ATOM     30  C   UNL     1      -1.520  -1.554   3.836  1.00  0.00     0.251 C 
ATOM     31  H   UNL     1      -0.487  -2.625   2.487  1.00  0.00     0.163 HD
ATOM     32  O   UNL     1      -2.466  -2.336   3.868  1.00  0.00    -0.269 OA
BRANCH  30  33
ATOM     33  C   UNL     1      -1.538  -0.333   4.667  1.00  0.00     0.039 A 
ATOM     34  C   UNL     1      -1.905  -0.441   6.010  1.00  0.00     0.014 A 
ATOM     35  C   UNL     1      -1.172   0.904   4.132  1.00  0.00     0.014 A 
ATOM     36  C   UNL     1      -1.847   0.685   6.832  1.00  0.00     0.010 A 
ATOM     37  C   UNL     1      -1.043   2.008   4.968  1.00  0.00     0.010 A 
ATOM     38  C   UNL     1      -1.387   1.912   6.325  1.00  0.00    -0.014 A 
BRANCH  38  39
ATOM     39  C   UNL     1      -1.276   3.105   7.199  1.00  0.00     0.031 A 
ATOM     40  C   UNL     1      -2.138   4.310   6.943  1.00  0.00     0.074 A 
ATOM     41  C   UNL     1      -0.370   3.119   8.196  1.00  0.00     0.049 A 
ATOM     42  N   UNL     1      -2.169   5.454   7.577  1.00  0.00    -0.248 NA
ATOM     43  C   UNL     1      -3.072   4.228   5.808  1.00  0.00     0.031 C 
ATOM     44  C   UNL     1       0.559   2.033   8.513  1.00  0.00     0.029 A 
ATOM     45  N   UNL     1      -0.081   4.084   9.127  1.00  0.00    -0.354 N 
ATOM     46  C   UNL     1      -3.117   6.226   6.917  1.00  0.00     0.074 A 
ATOM     47  C   UNL     1      -3.592   5.446   5.796  1.00  0.00     0.031 C 
ATOM     48  C   UNL     1       1.292   2.379   9.584  1.00  0.00     0.029 A 
ATOM     49  C   UNL     1       0.908   3.721  10.010  1.00  0.00     0.049 A 
ATOM     50  H   UNL     1      -0.539   4.955   9.161  1.00  0.00     0.167 HD
ATOM     51  C   UNL     1      -3.573   7.460   7.235  1.00  0.00     0.037 A 
ATOM     52  C   UNL     1       1.440   4.395  11.046  1.00  0.00     0.037 A 
ATOM     53  C   UNL     1      -3.117   8.224   8.365  1.00  0.00     0.049 A 
ATOM     54  C   UNL     1       0.921   5.769  11.371  1.00  0.00     0.074 A 
ATOM     55  C   UNL     1      -3.551   9.464   8.800  1.00  0.00     0.029 A 
ATOM     56  N   UNL     1      -2.122   7.817   9.241  1.00  0.00    -0.354 N 
ATOM     57  N   UNL     1      -0.025   6.457  10.780  1.00  0.00    -0.248 NA
ATOM     58  C   UNL     1       1.538   6.455  12.515  1.00  0.00     0.031 C 
ATOM     59  C   UNL     1      -2.792   9.824   9.919  1.00  0.00     0.029 A 
ATOM     60  C   UNL     1      -1.916   8.790  10.205  1.00  0.00     0.049 A 
ATOM     61  H   UNL     1      -1.634   6.964   9.185  1.00  0.00     0.167 HD
ATOM     62  C   UNL     1      -0.136   7.642  11.495  1.00  0.00     0.074 A 
ATOM     63  C   UNL     1       0.827   7.572  12.574  1.00  0.00     0.031 C 
ATOM     64  C   UNL     1      -0.961   8.696  11.279  1.00  0.00     0.037 A 
BRANCH  51  65
ATOM     65  C   UNL     1      -4.634   8.053   6.354  1.00  0.00     0.057 A 
ATOM     66  C   UNL     1      -5.944   7.555   6.344  1.00  0.00     0.134 A 
ATOM     67  C   UNL     1      -4.355   9.153   5.534  1.00  0.00     0.134 A 
ATOM     68  F   UNL     1      -6.273   6.494   7.095  1.00  0.00    -0.206 F 
ATOM     69  C   UNL     1      -6.932   8.115   5.533  1.00  0.00     0.040 A 
ATOM     70  C   UNL     1      -5.342   9.739   4.739  1.00  0.00     0.040 A 
ATOM     71  F   UNL     1      -3.123   9.682   5.499  1.00  0.00    -0.206 F 
ATOM     72  C   UNL     1      -6.634   9.216   4.733  1.00  0.00     0.006 A 
ENDBRANCH  51  65
BRANCH  52  73
ATOM     73  C   UNL     1       2.506   3.776  11.874  1.00  0.00     0.057 A 
ATOM     74  C   UNL     1       2.259   3.393  13.198  1.00  0.00     0.134 A 
ATOM     75  C   UNL     1       3.798   3.574  11.376  1.00  0.00     0.134 A 
ATOM     76  F   UNL     1       1.045   3.579  13.738  1.00  0.00    -0.206 F 
ATOM     77  C   UNL     1       3.263   2.857  14.005  1.00  0.00     0.040 A 
ATOM     78  C   UNL     1       4.806   3.015  12.164  1.00  0.00     0.040 A 
ATOM     79  F   UNL     1       4.098   3.912  10.113  1.00  0.00    -0.206 F 
ATOM     80  C   UNL     1       4.542   2.664  13.486  1.00  0.00     0.006 A 
ENDBRANCH  52  73
BRANCH  64  81
ATOM     81  C   UNL     1      -0.882   9.838  12.248  1.00  0.00     0.057 A 
ATOM     82  C   UNL     1       0.205  10.722  12.261  1.00  0.00     0.134 A 
ATOM     83  C   UNL     1      -1.924  10.078  13.152  1.00  0.00     0.134 A 
ATOM     84  F   UNL     1       1.240  10.539  11.428  1.00  0.00    -0.206 F 
ATOM     85  C   UNL     1       0.263  11.790  13.158  1.00  0.00     0.040 A 
ATOM     86  C   UNL     1      -1.889  11.158  14.035  1.00  0.00     0.040 A 
ATOM     87  F   UNL     1      -2.998   9.274  13.184  1.00  0.00    -0.206 F 
ATOM     88  C   UNL     1      -0.789  12.014  14.043  1.00  0.00     0.006 A 
ENDBRANCH  64  81
ENDBRANCH  38  39
ENDBRANCH  30  33
ENDBRANCH  28  29
ENDBRANCH  27  28
ENDBRANCH   1  27
TORSDOF 15
