REMARK SMILES O=C(NCCCCNC(=O)[C@@H]1CCCC[C@@H]1C(=O)Nc1cccc(C(F)(F)F)c1)c1ccc(-c2c3nc(c(-c4c(F)cccc4F)c4ccc([nH]4)c(-c4c(F)cccc4F)c4nc(c(-c5c(F)cccc5F)c5ccc2[nH]5)C=C4)C=C3)cc1
REMARK SMILES IDX 6 1 5 2 4 3 3 4 1 5 2 6 30 8 31 9 83 10 32 11 82 12 33 13
REMARK SMILES IDX 34 14 35 15 76 16 36 17 81 18 75 19 77 20 37 21 80 22 74 23
REMARK SMILES IDX 73 24 38 26 64 27 47 28 63 29 48 30 51 31 62 32 78 33 49 34
REMARK SMILES IDX 50 35 61 37 79 38 52 39 39 40 40 41 45 42 41 43 42 44 44 45
REMARK SMILES IDX 46 46 43 47 65 48 66 49 71 50 67 51 68 52 70 53 72 54 69 55
REMARK SMILES IDX 53 56 54 57 59 58 55 59 56 60 58 61 60 62 57 63 7 64 8 65
REMARK SMILES IDX 9 66 10 68 11 69 12 70 16 71 13 72 15 73 14 74 17 75 18 76
REMARK SMILES IDX 19 77 20 79 21 80 29 81 22 82 24 83 23 84 25 85 26 86 27 87
REMARK SMILES IDX 28 88
REMARK H PARENT 3 7 77 25 51 36 8 67 19 78
REMARK Flexibility Score: inf
ROOT
ATOM      1  C   UNL     1       4.266   2.987   2.478  1.00  0.00     0.023 C 
ENDROOT
BRANCH   1   2
ATOM      2  C   UNL     1       4.767   2.335   1.188  1.00  0.00     0.023 C 
BRANCH   2   3
ATOM      3  C   UNL     1       4.453   0.851   1.058  1.00  0.00     0.116 C 
BRANCH   3   4
ATOM      4  N   UNL     1       3.024   0.588   1.011  1.00  0.00    -0.352 N 
ATOM      5  O   UNL     1       1.066  -0.013   0.060  1.00  0.00    -0.269 OA
ATOM      6  C   UNL     1       2.294  -0.026   0.024  1.00  0.00     0.251 C 
ATOM      7  H   UNL     1       2.510   0.891   1.794  1.00  0.00     0.163 HD
BRANCH   6   8
ATOM      8  C   UNL     1       2.994  -0.690  -1.094  1.00  0.00     0.039 A 
ATOM      9  C   UNL     1       4.076  -1.540  -0.847  1.00  0.00     0.014 A 
ATOM     10  C   UNL     1       2.552  -0.474  -2.402  1.00  0.00     0.014 A 
ATOM     11  C   UNL     1       4.789  -2.079  -1.910  1.00  0.00     0.010 A 
ATOM     12  C   UNL     1       3.218  -1.086  -3.466  1.00  0.00     0.010 A 
ATOM     13  C   UNL     1       4.348  -1.885  -3.229  1.00  0.00    -0.014 A 
BRANCH  13  14
ATOM     14  C   UNL     1       5.003  -2.627  -4.333  1.00  0.00     0.031 A 
ATOM     15  C   UNL     1       5.738  -1.913  -5.430  1.00  0.00     0.074 A 
ATOM     16  C   UNL     1       4.903  -3.971  -4.341  1.00  0.00     0.049 A 
ATOM     17  N   UNL     1       6.319  -2.416  -6.490  1.00  0.00    -0.248 NA
ATOM     18  C   UNL     1       5.829  -0.448  -5.335  1.00  0.00     0.031 C 
ATOM     19  C   UNL     1       4.197  -4.768  -3.333  1.00  0.00     0.029 A 
ATOM     20  N   UNL     1       5.384  -4.905  -5.222  1.00  0.00    -0.354 N 
ATOM     21  C   UNL     1       6.824  -1.334  -7.199  1.00  0.00     0.074 A 
ATOM     22  C   UNL     1       6.472  -0.143  -6.456  1.00  0.00     0.031 C 
ATOM     23  C   UNL     1       4.305  -6.067  -3.643  1.00  0.00     0.029 A 
ATOM     24  C   UNL     1       5.024  -6.192  -4.904  1.00  0.00     0.049 A 
ATOM     25  H   UNL     1       5.934  -4.676  -6.006  1.00  0.00     0.167 HD
ATOM     26  C   UNL     1       7.518  -1.343  -8.362  1.00  0.00     0.037 A 
ATOM     27  C   UNL     1       5.212  -7.344  -5.573  1.00  0.00     0.037 A 
ATOM     28  C   UNL     1       7.878  -2.539  -9.081  1.00  0.00     0.049 A 
ATOM     29  C   UNL     1       5.946  -7.312  -6.881  1.00  0.00     0.074 A 
ATOM     30  C   UNL     1       8.650  -2.655 -10.225  1.00  0.00     0.029 A 
ATOM     31  N   UNL     1       7.479  -3.822  -8.738  1.00  0.00    -0.354 N 
ATOM     32  N   UNL     1       6.486  -6.290  -7.498  1.00  0.00    -0.248 NA
ATOM     33  C   UNL     1       6.091  -8.590  -7.591  1.00  0.00     0.031 C 
ATOM     34  C   UNL     1       8.660  -3.998 -10.612  1.00  0.00     0.029 A 
ATOM     35  C   UNL     1       7.946  -4.728  -9.677  1.00  0.00     0.049 A 
ATOM     36  H   UNL     1       6.944  -4.055  -7.945  1.00  0.00     0.167 HD
ATOM     37  C   UNL     1       7.045  -6.802  -8.661  1.00  0.00     0.074 A 
ATOM     38  C   UNL     1       6.802  -8.229  -8.649  1.00  0.00     0.031 C 
ATOM     39  C   UNL     1       7.694  -6.146  -9.652  1.00  0.00     0.037 A 
BRANCH  26  40
ATOM     40  C   UNL     1       7.921  -0.027  -8.960  1.00  0.00     0.057 A 
ATOM     41  C   UNL     1       8.949   0.754  -8.419  1.00  0.00     0.134 A 
ATOM     42  C   UNL     1       7.334   0.416 -10.154  1.00  0.00     0.134 A 
ATOM     43  F   UNL     1       9.550   0.390  -7.277  1.00  0.00    -0.206 F 
ATOM     44  C   UNL     1       9.374   1.932  -9.039  1.00  0.00     0.040 A 
ATOM     45  C   UNL     1       7.766   1.579 -10.795  1.00  0.00     0.040 A 
ATOM     46  F   UNL     1       6.350  -0.289 -10.732  1.00  0.00    -0.206 F 
ATOM     47  C   UNL     1       8.789   2.341 -10.236  1.00  0.00     0.006 A 
ENDBRANCH  26  40
BRANCH  27  48
ATOM     48  C   UNL     1       4.651  -8.612  -5.041  1.00  0.00     0.057 A 
ATOM     49  C   UNL     1       5.482  -9.651  -4.609  1.00  0.00     0.134 A 
ATOM     50  C   UNL     1       3.267  -8.819  -4.968  1.00  0.00     0.134 A 
ATOM     51  F   UNL     1       6.815  -9.519  -4.669  1.00  0.00    -0.206 F 
ATOM     52  C   UNL     1       4.958 -10.860  -4.147  1.00  0.00     0.040 A 
ATOM     53  C   UNL     1       2.730 -10.010  -4.478  1.00  0.00     0.040 A 
ATOM     54  F   UNL     1       2.416  -7.859  -5.358  1.00  0.00    -0.206 F 
ATOM     55  C   UNL     1       3.578 -11.039  -4.077  1.00  0.00     0.006 A 
ENDBRANCH  27  48
BRANCH  39  56
ATOM     56  C   UNL     1       8.200  -6.969 -10.800  1.00  0.00     0.057 A 
ATOM     57  C   UNL     1       7.330  -7.514 -11.753  1.00  0.00     0.134 A 
ATOM     58  C   UNL     1       9.573  -7.180 -10.979  1.00  0.00     0.134 A 
ATOM     59  F   UNL     1       6.003  -7.363 -11.628  1.00  0.00    -0.206 F 
ATOM     60  C   UNL     1       7.808  -8.254 -12.836  1.00  0.00     0.040 A 
ATOM     61  C   UNL     1      10.064  -7.893 -12.073  1.00  0.00     0.040 A 
ATOM     62  F   UNL     1      10.459  -6.680 -10.105  1.00  0.00    -0.206 F 
ATOM     63  C   UNL     1       9.180  -8.436 -13.003  1.00  0.00     0.006 A 
ENDBRANCH  39  56
ENDBRANCH  13  14
ENDBRANCH   6   8
ENDBRANCH   3   4
ENDBRANCH   2   3
ENDBRANCH   1   2
BRANCH   1  64
ATOM     64  C   UNL     1       4.709   2.288   3.760  1.00  0.00     0.116 C 
BRANCH  64  65
ATOM     65  N   UNL     1       6.157   2.233   3.861  1.00  0.00    -0.356 N 
ATOM     66  C   UNL     1       7.011   2.715   4.803  1.00  0.00     0.223 C 
ATOM     67  H   UNL     1       6.598   1.764   3.116  1.00  0.00     0.163 HD
ATOM     68  O   UNL     1       8.216   2.580   4.595  1.00  0.00    -0.275 OA
BRANCH  66  69
ATOM     69  C   UNL     1       6.468   3.321   6.084  1.00  0.00     0.091 C 
ATOM     70  C   UNL     1       6.937   4.768   6.236  1.00  0.00     0.014 C 
ATOM     71  C   UNL     1       6.777   2.436   7.304  1.00  0.00     0.091 C 
ATOM     72  C   UNL     1       6.332   5.391   7.490  1.00  0.00     0.001 C 
ATOM     73  C   UNL     1       6.269   3.104   8.598  1.00  0.00     0.014 C 
ATOM     74  C   UNL     1       6.657   4.577   8.738  1.00  0.00     0.001 C 
BRANCH  71  75
ATOM     75  C   UNL     1       8.258   2.072   7.470  1.00  0.00     0.228 C 
ATOM     76  O   UNL     1       9.110   2.943   7.669  1.00  0.00    -0.274 OA
ATOM     77  N   UNL     1       8.652   0.768   7.598  1.00  0.00    -0.326 N 
ATOM     78  H   UNL     1       9.554   0.665   7.979  1.00  0.00     0.169 HD
BRANCH  77  79
ATOM     79  C   UNL     1       8.029  -0.452   7.296  1.00  0.00     0.041 A 
ATOM     80  C   UNL     1       8.434  -1.578   8.019  1.00  0.00     0.026 A 
ATOM     81  C   UNL     1       7.087  -0.611   6.280  1.00  0.00     0.039 A 
ATOM     82  C   UNL     1       7.838  -2.820   7.793  1.00  0.00     0.003 A 
ATOM     83  C   UNL     1       6.491  -1.858   6.024  1.00  0.00     0.058 A 
ATOM     84  C   UNL     1       6.859  -2.958   6.809  1.00  0.00     0.013 A 
BRANCH  83  85
ATOM     85  C   UNL     1       5.459  -2.011   4.936  1.00  0.00     0.416 C 
ATOM     86  F   UNL     1       5.662  -3.113   4.161  1.00  0.00    -0.166 F 
ATOM     87  F   UNL     1       4.197  -2.125   5.431  1.00  0.00    -0.166 F 
ATOM     88  F   UNL     1       5.421  -0.958   4.070  1.00  0.00    -0.166 F 
ENDBRANCH  83  85
ENDBRANCH  77  79
ENDBRANCH  71  75
ENDBRANCH  66  69
ENDBRANCH  64  65
ENDBRANCH   1  64
TORSDOF 14
