REMARK SMILES CCc1cc(C(=O)c2[nH]c3cc(Cl)ccc3c2CC(=O)NCCCCNC(=O)c2ccc(-c3c4nc(c(-c5c(F)cccc5F)c5ccc([nH]5)c(-c5c(F)cccc5F)c5nc(c(-c6c(F)cccc6F)c6ccc3[nH]6)C=C5)C=C4)cc2)ncc1Cl
REMARK SMILES IDX 22 1 21 2 19 3 20 4 18 6 17 7 8 8 9 9 10 10 16 12 11 13
REMARK SMILES IDX 15 14 12 15 14 16 13 17 6 18 7 19 5 20 3 21 4 22 85 23 84 24
REMARK SMILES IDX 86 25 83 26 2 27 1 28 23 29 24 30 25 31 26 32 27 33 28 35
REMARK SMILES IDX 29 36 30 37 82 38 31 39 81 40 32 41 33 42 34 43 75 44 35 45
REMARK SMILES IDX 80 46 74 47 76 48 36 49 79 50 73 51 72 52 37 54 63 55 46 56
REMARK SMILES IDX 62 57 47 58 50 59 61 60 77 61 48 62 49 63 60 65 78 66 51 67
REMARK SMILES IDX 38 68 39 69 44 70 40 71 41 72 43 73 45 74 42 75 64 76 65 77
REMARK SMILES IDX 70 78 66 79 67 80 69 81 71 82 68 83 52 84 53 85 58 86 54 87
REMARK SMILES IDX 55 88 57 89 59 90 56 91
REMARK H PARENT 21 5 9 11 26 34 76 53 50 64
REMARK Flexibility Score: inf
ROOT
ATOM      1  C   UNL     1       1.357   8.828  -5.735  1.00  0.00     0.116 C 
ENDROOT
BRANCH   1   2
ATOM      2  N   UNL     1       1.158   7.617  -6.503  1.00  0.00    -0.356 N 
ATOM      3  C   UNL     1       0.372   6.534  -6.226  1.00  0.00     0.224 C 
ATOM      4  O   UNL     1       0.263   5.660  -7.090  1.00  0.00    -0.275 OA
ATOM      5  H   UNL     1       1.662   7.566  -7.347  1.00  0.00     0.163 HD
BRANCH   3   6
ATOM      6  C   UNL     1      -0.441   6.461  -4.943  1.00  0.00     0.138 C 
BRANCH   6   7
ATOM      7  C   UNL     1       0.362   6.447  -3.671  1.00  0.00    -0.002 A 
ATOM      8  C   UNL     1       1.358   5.546  -3.302  1.00  0.00     0.093 A 
ATOM      9  N   UNL     1       1.881   5.978  -2.106  1.00  0.00    -0.351 N 
ATOM     10  C   UNL     1       1.208   7.084  -1.649  1.00  0.00     0.048 A 
ATOM     11  H   UNL     1       2.637   5.553  -1.640  1.00  0.00     0.167 HD
ATOM     12  C   UNL     1       0.234   7.392  -2.596  1.00  0.00     0.004 A 
ATOM     13  C   UNL     1       1.410   7.845  -0.490  1.00  0.00     0.047 A 
ATOM     14  C   UNL     1      -0.593   8.514  -2.366  1.00  0.00     0.012 A 
ATOM     15  C   UNL     1       0.584   8.954  -0.297  1.00  0.00     0.043 A 
ATOM     16  C   UNL     1      -0.406   9.288  -1.215  1.00  0.00     0.021 A 
ATOM     17  Cl  UNL     1       0.805   9.932   1.103  1.00  0.00    -0.084 Cl
BRANCH   8  18
ATOM     18  C   UNL     1       1.919   4.432  -4.048  1.00  0.00     0.227 C 
ATOM     19  O   UNL     1       2.641   4.633  -5.019  1.00  0.00    -0.285 OA
BRANCH  18  20
ATOM     20  C   UNL     1       1.642   3.021  -3.580  1.00  0.00     0.113 A 
ATOM     21  C   UNL     1       0.784   1.400  -1.981  1.00  0.00    -0.026 A 
ATOM     22  C   UNL     1       1.003   2.739  -2.370  1.00  0.00     0.037 A 
ATOM     23  C   UNL     1       1.176   0.392  -2.869  1.00  0.00     0.062 A 
ATOM     24  C   UNL     1       1.814   0.761  -4.048  1.00  0.00     0.132 A 
ATOM     25  Cl  UNL     1       0.869  -1.279  -2.599  1.00  0.00    -0.082 Cl
ATOM     26  N   UNL     1       2.070   2.039  -4.410  1.00  0.00    -0.251 NA
BRANCH  21  27
ATOM     27  C   UNL     1       0.110   1.135  -0.651  1.00  0.00     0.034 C 
ATOM     28  C   UNL     1       0.953   0.343   0.343  1.00  0.00     0.009 C 
ENDBRANCH  21  27
ENDBRANCH  18  20
ENDBRANCH   8  18
ENDBRANCH   6   7
ENDBRANCH   3   6
ENDBRANCH   1   2
BRANCH   1  29
ATOM     29  C   UNL     1       2.635   8.801  -4.898  1.00  0.00     0.023 C 
BRANCH  29  30
ATOM     30  C   UNL     1       3.944   8.798  -5.691  1.00  0.00     0.023 C 
BRANCH  30  31
ATOM     31  C   UNL     1       4.144   9.974  -6.641  1.00  0.00     0.116 C 
BRANCH  31  32
ATOM     32  N   UNL     1       4.061  11.268  -5.982  1.00  0.00    -0.352 N 
ATOM     33  C   UNL     1       4.739  12.429  -6.261  1.00  0.00     0.251 C 
ATOM     34  H   UNL     1       3.430  11.318  -5.229  1.00  0.00     0.163 HD
ATOM     35  O   UNL     1       4.600  13.409  -5.535  1.00  0.00    -0.269 OA
BRANCH  33  36
ATOM     36  C   UNL     1       5.670  12.493  -7.409  1.00  0.00     0.039 A 
ATOM     37  C   UNL     1       6.928  13.071  -7.213  1.00  0.00     0.014 A 
ATOM     38  C   UNL     1       5.313  12.000  -8.668  1.00  0.00     0.014 A 
ATOM     39  C   UNL     1       7.855  13.093  -8.257  1.00  0.00     0.010 A 
ATOM     40  C   UNL     1       6.253  11.981  -9.697  1.00  0.00     0.010 A 
ATOM     41  C   UNL     1       7.534  12.519  -9.496  1.00  0.00    -0.014 A 
BRANCH  41  42
ATOM     42  C   UNL     1       8.529  12.456 -10.592  1.00  0.00     0.031 A 
ATOM     43  C   UNL     1       8.351  13.294 -11.824  1.00  0.00     0.074 A 
ATOM     44  C   UNL     1       9.560  11.596 -10.503  1.00  0.00     0.049 A 
ATOM     45  N   UNL     1       9.052  13.296 -12.929  1.00  0.00    -0.248 NA
ATOM     46  C   UNL     1       7.226  14.242 -11.820  1.00  0.00     0.031 C 
ATOM     47  C   UNL     1       9.829  10.709  -9.370  1.00  0.00     0.029 A 
ATOM     48  N   UNL     1      10.569  11.319 -11.390  1.00  0.00    -0.354 N 
ATOM     49  C   UNL     1       8.443  14.226 -13.759  1.00  0.00     0.074 A 
ATOM     50  C   UNL     1       7.305  14.757 -13.039  1.00  0.00     0.031 C 
ATOM     51  C   UNL     1      10.939   9.997  -9.625  1.00  0.00     0.029 A 
ATOM     52  C   UNL     1      11.440  10.355 -10.948  1.00  0.00     0.049 A 
ATOM     53  H   UNL     1      10.659  11.769 -12.261  1.00  0.00     0.167 HD
ATOM     54  C   UNL     1       8.804  14.609 -15.007  1.00  0.00     0.037 A 
ATOM     55  C   UNL     1      12.518   9.816 -11.547  1.00  0.00     0.037 A 
ATOM     56  C   UNL     1       9.948  14.104 -15.717  1.00  0.00     0.049 A 
ATOM     57  C   UNL     1      12.909  10.274 -12.921  1.00  0.00     0.074 A 
ATOM     58  C   UNL     1      10.402  14.446 -16.980  1.00  0.00     0.029 A 
ATOM     59  N   UNL     1      10.826  13.154 -15.220  1.00  0.00    -0.354 N 
ATOM     60  N   UNL     1      12.328  11.160 -13.691  1.00  0.00    -0.248 NA
ATOM     61  C   UNL     1      14.106   9.656 -13.509  1.00  0.00     0.031 C 
ATOM     62  C   UNL     1      11.553  13.696 -17.249  1.00  0.00     0.029 A 
ATOM     63  C   UNL     1      11.822  12.901 -16.147  1.00  0.00     0.049 A 
ATOM     64  H   UNL     1      10.752  12.724 -14.338  1.00  0.00     0.167 HD
ATOM     65  C   UNL     1      13.095  11.219 -14.846  1.00  0.00     0.074 A 
ATOM     66  C   UNL     1      14.188  10.284 -14.674  1.00  0.00     0.031 C 
ATOM     67  C   UNL     1      12.908  11.979 -15.951  1.00  0.00     0.037 A 
BRANCH  54  68
ATOM     68  C   UNL     1       7.944  15.631 -15.682  1.00  0.00     0.057 A 
ATOM     69  C   UNL     1       8.033  16.989 -15.356  1.00  0.00     0.134 A 
ATOM     70  C   UNL     1       7.038  15.258 -16.681  1.00  0.00     0.134 A 
ATOM     71  F   UNL     1       8.873  17.404 -14.395  1.00  0.00    -0.206 F 
ATOM     72  C   UNL     1       7.238  17.943 -15.992  1.00  0.00     0.040 A 
ATOM     73  C   UNL     1       6.248  16.204 -17.335  1.00  0.00     0.040 A 
ATOM     74  F   UNL     1       6.907  13.971 -17.036  1.00  0.00    -0.206 F 
ATOM     75  C   UNL     1       6.345  17.551 -16.988  1.00  0.00     0.006 A 
ENDBRANCH  54  68
BRANCH  55  76
ATOM     76  C   UNL     1      13.320   8.793 -10.839  1.00  0.00     0.057 A 
ATOM     77  C   UNL     1      14.549   9.124 -10.259  1.00  0.00     0.134 A 
ATOM     78  C   UNL     1      12.883   7.469 -10.730  1.00  0.00     0.134 A 
ATOM     79  F   UNL     1      15.023  10.375 -10.351  1.00  0.00    -0.206 F 
ATOM     80  C   UNL     1      15.324   8.169  -9.602  1.00  0.00     0.040 A 
ATOM     81  C   UNL     1      13.642   6.506 -10.063  1.00  0.00     0.040 A 
ATOM     82  F   UNL     1      11.712   7.096 -11.266  1.00  0.00    -0.206 F 
ATOM     83  C   UNL     1      14.869   6.855  -9.500  1.00  0.00     0.006 A 
ENDBRANCH  55  76
BRANCH  67  84
ATOM     84  C   UNL     1      13.925  11.851 -17.040  1.00  0.00     0.057 A 
ATOM     85  C   UNL     1      13.892  10.789 -17.951  1.00  0.00     0.134 A 
ATOM     86  C   UNL     1      14.930  12.813 -17.194  1.00  0.00     0.134 A 
ATOM     87  F   UNL     1      12.960   9.830 -17.844  1.00  0.00    -0.206 F 
ATOM     88  C   UNL     1      14.833  10.683 -18.976  1.00  0.00     0.040 A 
ATOM     89  C   UNL     1      15.869  12.724 -18.221  1.00  0.00     0.040 A 
ATOM     90  F   UNL     1      15.011  13.853 -16.350  1.00  0.00    -0.206 F 
ATOM     91  C   UNL     1      15.823  11.655 -19.114  1.00  0.00     0.006 A 
ENDBRANCH  67  84
ENDBRANCH  41  42
ENDBRANCH  33  36
ENDBRANCH  31  32
ENDBRANCH  30  31
ENDBRANCH  29  30
ENDBRANCH   1  29
TORSDOF 15
