REMARK SMILES C[C@@H](CCC(=O)NCCCCNC(=O)c1ccc(-c2c3nc(c(-c4c(F)cccc4F)c4ccc([nH]4)c(-c4c(F)cccc4F)c4nc(c(-c5c(F)cccc5F)c5ccc2[nH]5)C=C4)C=C3)cc1)[C@@H]1CC[C@H]2[C@@H]3CC[C@H]4CC(=O)CC[C@@]4(C)[C@H]3CC(=O)[C@@]21C
REMARK SMILES IDX 9 1 8 2 7 3 5 4 6 5 4 7 3 8 2 9 1 10 69 11 70 12 88 13 71 14
REMARK SMILES IDX 72 15 86 16 89 17 73 18 85 19 87 20 74 21 84 22 75 23 82 24
REMARK SMILES IDX 76 25 81 26 83 27 77 28 80 29 78 30 79 31 10 32 11 33 12 34
REMARK SMILES IDX 13 35 14 37 15 38 16 39 68 40 17 41 67 42 18 43 19 44 20 45
REMARK SMILES IDX 61 46 21 47 66 48 60 49 62 50 22 51 65 52 59 53 58 54 23 56
REMARK SMILES IDX 49 57 32 58 48 59 33 60 36 61 47 62 63 63 34 64 35 65 46 67
REMARK SMILES IDX 64 68 37 69 24 70 25 71 30 72 26 73 27 74 29 75 31 76 28 77
REMARK SMILES IDX 50 78 51 79 56 80 52 81 53 82 55 83 57 84 54 85 38 86 39 87
REMARK SMILES IDX 44 88 40 89 41 90 43 91 45 92 42 93
REMARK H PARENT 7 6 12 36 62 55 36 66
REMARK Flexibility Score: inf
ROOT
ATOM      1  C   UNL     1      -1.528   0.246   1.150  1.00  0.00     0.023 C 
ENDROOT
BRANCH   1   2
ATOM      2  C   UNL     1      -2.072   0.961  -0.841  1.00  0.00     0.116 C 
BRANCH   2   3
ATOM      3  N   UNL     1      -2.204   2.534  -1.423  1.00  0.00    -0.356 N 
ATOM      4  C   UNL     1      -1.354   3.599  -1.702  1.00  0.00     0.220 C 
ATOM      5  O   UNL     1      -1.907   4.635  -2.098  1.00  0.00    -0.275 OA
ATOM      6  H   UNL     1      -3.141   2.764  -1.620  1.00  0.00     0.163 HD
BRANCH   4   7
ATOM      7  C   UNL     1       0.209   3.602  -1.603  1.00  0.00     0.100 C 
BRANCH   7   8
ATOM      8  C   UNL     1       0.879   3.555  -0.187  1.00  0.00     0.013 C 
BRANCH   8   9
ATOM      9  C   UNL     1       0.768   2.228   0.643  1.00  0.00    -0.010 C 
ATOM     10  C   UNL     1       2.073   1.469   0.780  1.00  0.00     0.008 C 
BRANCH   9  11
ATOM     11  C   UNL     1      -0.354   1.408   0.027  1.00  0.00     0.005 C 
ATOM     12  C   UNL     1      -2.165   2.030   0.790  1.00  0.00     0.005 C 
ATOM     13  C   UNL     1      -0.533  -0.468  -0.673  1.00  0.00     0.032 C 
ATOM     14  C   UNL     1      -3.443   0.477   0.447  1.00  0.00     0.005 C 
ATOM     15  C   UNL     1      -2.335  -1.095  -0.193  1.00  0.00     0.006 C 
ATOM     16  C   UNL     1       0.481  -1.543  -0.333  1.00  0.00     0.139 C 
ATOM     17  C   UNL     1      -0.338  -0.533  -2.346  1.00  0.00     0.020 C 
ATOM     18  C   UNL     1      -2.492  -2.664  -0.606  1.00  0.00    -0.003 C 
ATOM     19  C   UNL     1       0.186  -2.934  -0.877  1.00  0.00     0.080 C 
ATOM     20  O   UNL     1       1.540  -1.308   0.238  1.00  0.00    -0.299 OA
ATOM     21  C   UNL     1      -3.513  -3.361   0.334  1.00  0.00     0.004 C 
ATOM     22  C   UNL     1      -1.130  -3.491  -0.350  1.00  0.00     0.006 C 
ATOM     23  C   UNL     1      -3.467  -4.862   0.646  1.00  0.00     0.005 C 
ATOM     24  C   UNL     1      -1.260  -5.082  -0.539  1.00  0.00    -0.025 C 
ATOM     25  C   UNL     1      -2.070  -5.517   0.695  1.00  0.00     0.002 C 
ATOM     26  C   UNL     1      -1.991  -5.585  -1.819  1.00  0.00     0.015 C 
ATOM     27  C   UNL     1       0.145  -5.755  -0.556  1.00  0.00     0.012 C 
ATOM     28  C   UNL     1      -2.180  -7.034   0.814  1.00  0.00     0.079 C 
ATOM     29  C   UNL     1      -2.882  -6.849  -1.685  1.00  0.00     0.076 C 
ATOM     30  C   UNL     1      -2.979  -7.559  -0.341  1.00  0.00     0.133 C 
ATOM     31  O   UNL     1      -3.709  -8.541  -0.199  1.00  0.00    -0.300 OA
ENDBRANCH   9  11
ENDBRANCH   8   9
ENDBRANCH   7   8
ENDBRANCH   4   7
ENDBRANCH   2   3
ENDBRANCH   1   2
BRANCH   1  32
ATOM     32  C   UNL     1      -2.446   0.083   2.703  1.00  0.00     0.023 C 
BRANCH  32  33
ATOM     33  C   UNL     1      -3.546  -0.965   2.996  1.00  0.00     0.116 C 
BRANCH  33  34
ATOM     34  N   UNL     1      -3.165  -2.180   3.665  1.00  0.00    -0.352 N 
ATOM     35  C   UNL     1      -3.921  -3.308   3.938  1.00  0.00     0.251 C 
ATOM     36  H   UNL     1      -2.231  -2.215   3.974  1.00  0.00     0.163 HD
ATOM     37  O   UNL     1      -3.380  -4.191   4.605  1.00  0.00    -0.269 OA
BRANCH  35  38
ATOM     38  C   UNL     1      -5.337  -3.535   3.466  1.00  0.00     0.039 A 
ATOM     39  C   UNL     1      -6.096  -4.502   4.148  1.00  0.00     0.014 A 
ATOM     40  C   UNL     1      -5.934  -2.928   2.356  1.00  0.00     0.014 A 
ATOM     41  C   UNL     1      -7.419  -4.784   3.774  1.00  0.00     0.010 A 
ATOM     42  C   UNL     1      -7.221  -3.238   1.936  1.00  0.00     0.010 A 
ATOM     43  C   UNL     1      -7.992  -4.117   2.685  1.00  0.00    -0.014 A 
BRANCH  43  44
ATOM     44  C   UNL     1      -9.450  -4.029   2.500  1.00  0.00     0.031 A 
ATOM     45  C   UNL     1     -10.163  -4.780   1.428  1.00  0.00     0.074 A 
ATOM     46  C   UNL     1     -10.063  -3.077   3.229  1.00  0.00     0.049 A 
ATOM     47  N   UNL     1     -11.447  -4.846   1.199  1.00  0.00    -0.248 NA
ATOM     48  C   UNL     1      -9.335  -5.520   0.464  1.00  0.00     0.031 C 
ATOM     49  C   UNL     1      -9.381  -2.173   4.166  1.00  0.00     0.029 A 
ATOM     50  N   UNL     1     -11.368  -2.682   3.285  1.00  0.00    -0.354 N 
ATOM     51  C   UNL     1     -11.591  -5.669   0.091  1.00  0.00     0.074 A 
ATOM     52  C   UNL     1     -10.257  -6.014  -0.355  1.00  0.00     0.031 C 
ATOM     53  C   UNL     1     -10.277  -1.347   4.718  1.00  0.00     0.029 A 
ATOM     54  C   UNL     1     -11.592  -1.674   4.191  1.00  0.00     0.049 A 
ATOM     55  H   UNL     1     -12.079  -3.079   2.731  1.00  0.00     0.167 HD
ATOM     56  C   UNL     1     -12.745  -6.106  -0.468  1.00  0.00     0.037 A 
ATOM     57  C   UNL     1     -12.746  -1.112   4.583  1.00  0.00     0.037 A 
ATOM     58  C   UNL     1     -14.046  -5.693  -0.000  1.00  0.00     0.049 A 
ATOM     59  C   UNL     1     -14.012  -1.665   4.004  1.00  0.00     0.074 A 
ATOM     60  C   UNL     1     -15.295  -6.124  -0.408  1.00  0.00     0.029 A 
ATOM     61  N   UNL     1     -14.256  -4.726   0.977  1.00  0.00    -0.354 N 
ATOM     62  N   UNL     1     -14.159  -2.592   3.085  1.00  0.00    -0.248 NA
ATOM     63  C   UNL     1     -15.268  -1.129   4.533  1.00  0.00     0.031 C 
ATOM     64  C   UNL     1     -16.258  -5.381   0.288  1.00  0.00     0.029 A 
ATOM     65  C   UNL     1     -15.612  -4.525   1.167  1.00  0.00     0.049 A 
ATOM     66  H   UNL     1     -13.543  -4.252   1.463  1.00  0.00     0.167 HD
ATOM     67  C   UNL     1     -15.525  -2.773   2.945  1.00  0.00     0.074 A 
ATOM     68  C   UNL     1     -16.158  -1.871   3.890  1.00  0.00     0.031 C 
ATOM     69  C   UNL     1     -16.199  -3.606   2.113  1.00  0.00     0.037 A 
BRANCH  56  70
ATOM     70  C   UNL     1     -12.650  -7.082  -1.607  1.00  0.00     0.057 A 
ATOM     71  C   UNL     1     -12.155  -8.382  -1.419  1.00  0.00     0.134 A 
ATOM     72  C   UNL     1     -13.094  -6.749  -2.893  1.00  0.00     0.134 A 
ATOM     73  F   UNL     1     -11.713  -8.773  -0.215  1.00  0.00    -0.206 F 
ATOM     74  C   UNL     1     -12.077  -9.299  -2.470  1.00  0.00     0.040 A 
ATOM     75  C   UNL     1     -13.045  -7.667  -3.947  1.00  0.00     0.040 A 
ATOM     76  F   UNL     1     -13.588  -5.529  -3.149  1.00  0.00    -0.206 F 
ATOM     77  C   UNL     1     -12.529  -8.944  -3.739  1.00  0.00     0.006 A 
ENDBRANCH  56  70
BRANCH  57  78
ATOM     78  C   UNL     1     -12.741  -0.080   5.648  1.00  0.00     0.057 A 
ATOM     79  C   UNL     1     -13.203  -0.375   6.936  1.00  0.00     0.134 A 
ATOM     80  C   UNL     1     -12.225   1.203   5.427  1.00  0.00     0.134 A 
ATOM     81  F   UNL     1     -13.698  -1.590   7.213  1.00  0.00    -0.206 F 
ATOM     82  C   UNL     1     -13.182   0.575   7.958  1.00  0.00     0.040 A 
ATOM     83  C   UNL     1     -12.175   2.156   6.446  1.00  0.00     0.040 A 
ATOM     84  F   UNL     1     -11.731   1.537   4.226  1.00  0.00    -0.206 F 
ATOM     85  C   UNL     1     -12.663   1.845   7.714  1.00  0.00     0.006 A 
ENDBRANCH  57  78
BRANCH  69  86
ATOM     86  C   UNL     1     -17.693  -3.572   2.210  1.00  0.00     0.057 A 
ATOM     87  C   UNL     1     -18.436  -2.481   1.743  1.00  0.00     0.134 A 
ATOM     88  C   UNL     1     -18.395  -4.654   2.753  1.00  0.00     0.134 A 
ATOM     89  F   UNL     1     -17.817  -1.407   1.229  1.00  0.00    -0.206 F 
ATOM     90  C   UNL     1     -19.826  -2.455   1.839  1.00  0.00     0.040 A 
ATOM     91  C   UNL     1     -19.787  -4.654   2.825  1.00  0.00     0.040 A 
ATOM     92  F   UNL     1     -17.740  -5.732   3.212  1.00  0.00    -0.206 F 
ATOM     93  C   UNL     1     -20.506  -3.548   2.374  1.00  0.00     0.006 A 
ENDBRANCH  69  86
ENDBRANCH  43  44
ENDBRANCH  35  38
ENDBRANCH  33  34
ENDBRANCH  32  33
ENDBRANCH   1  32
TORSDOF 14
