REMARK SMILES O=C1O[C@@H](c2ccc(O)c(O)c2)[C@H](C(=O)NCCCCNC(=O)c2ccc(-c3c4nc(c(-c5c(F)cccc5F)c5ccc([nH]5)c(-c5c(F)cccc5F)c5nc(c(-c6c(F)cccc6F)c6ccc3[nH]6)C=C5)C=C4)cc2)/C1=C\c1ccc(O)c(O)c1
REMARK SMILES IDX 18 1 17 2 16 3 14 4 15 5 13 7 1 8 2 9 3 10 78 11 4 12 79 13
REMARK SMILES IDX 5 14 6 15 12 16 7 17 10 18 8 19 11 20 9 22 80 24 81 25 87 26
REMARK SMILES IDX 82 27 85 28 83 29 86 30 84 32 19 34 20 35 21 36 22 37 23 39
REMARK SMILES IDX 24 40 25 41 77 42 26 43 76 44 27 45 28 46 29 47 70 48 30 49
REMARK SMILES IDX 75 50 69 51 71 52 31 53 74 54 68 55 67 56 32 58 58 59 41 60
REMARK SMILES IDX 57 61 42 62 45 63 56 64 72 65 43 66 44 67 55 69 73 70 46 71
REMARK SMILES IDX 33 72 34 73 39 74 35 75 36 76 38 77 40 78 37 79 59 80 60 81
REMARK SMILES IDX 65 82 61 83 62 84 64 85 66 86 63 87 47 88 48 89 53 90 49 91
REMARK SMILES IDX 50 92 52 93 54 94 51 95
REMARK H PARENT 16 6 11 21 9 23 86 31 84 33 21 38 71 57 45 68
REMARK Flexibility Score: inf
ROOT
ATOM      1  C   UNL     1       5.200   1.637   1.349  1.00  0.00     0.023 C 
ENDROOT
BRANCH   1   2
ATOM      2  C   UNL     1       4.082   0.608   1.423  1.00  0.00     0.116 C 
BRANCH   2   3
ATOM      3  N   UNL     1       2.887   1.082   2.090  1.00  0.00    -0.355 N 
ATOM      4  C   UNL     1       1.587   1.136   1.666  1.00  0.00     0.231 C 
ATOM      5  O   UNL     1       0.744   1.423   2.518  1.00  0.00    -0.274 OA
ATOM      6  H   UNL     1       3.035   1.422   3.002  1.00  0.00     0.163 HD
BRANCH   4   7
ATOM      7  C   UNL     1       1.237   0.952   0.183  1.00  0.00     0.161 C 
ATOM      8  O   UNL     1      -1.867  -0.803  -0.089  1.00  0.00    -0.247 OA
ATOM      9  C   UNL     1      -0.711  -0.420  -0.121  1.00  0.00     0.335 C 
ATOM     10  O   UNL     1       0.373  -1.218  -0.267  1.00  0.00    -0.453 OA
ATOM     11  C   UNL     1      -0.239   0.972  -0.037  1.00  0.00     0.054 C 
ATOM     12  C   UNL     1       1.577  -0.438  -0.348  1.00  0.00     0.224 C 
ATOM     13  C   UNL     1      -1.111   1.979  -0.198  1.00  0.00     0.020 C 
BRANCH  12  14
ATOM     14  C   UNL     1       2.174  -0.453  -1.759  1.00  0.00    -0.002 A 
ATOM     15  C   UNL     1       3.214   0.432  -2.129  1.00  0.00     0.012 A 
ATOM     16  C   UNL     1       1.772  -1.414  -2.699  1.00  0.00     0.057 A 
ATOM     17  C   UNL     1       3.848   0.350  -3.374  1.00  0.00     0.050 A 
ATOM     18  C   UNL     1       2.389  -1.473  -3.944  1.00  0.00     0.157 A 
ATOM     19  C   UNL     1       3.427  -0.609  -4.277  1.00  0.00     0.157 A 
BRANCH  18  20
ATOM     20  O   UNL     1       1.972  -2.409  -4.847  1.00  0.00    -0.504 OA
ATOM     21  H   UNL     1       2.379  -2.461  -5.689  1.00  0.00     0.293 HD
ENDBRANCH  18  20
BRANCH  19  22
ATOM     22  O   UNL     1       4.008  -0.747  -5.506  1.00  0.00    -0.504 OA
ATOM     23  H   UNL     1       4.710  -0.179  -5.758  1.00  0.00     0.293 HD
ENDBRANCH  19  22
ENDBRANCH  12  14
BRANCH  13  24
ATOM     24  C   UNL     1      -0.756   3.396  -0.162  1.00  0.00    -0.021 A 
ATOM     25  C   UNL     1       0.102   3.955  -1.122  1.00  0.00     0.012 A 
ATOM     26  C   UNL     1      -1.319   4.213   0.824  1.00  0.00     0.058 A 
ATOM     27  C   UNL     1       0.424   5.315  -1.082  1.00  0.00     0.051 A 
ATOM     28  C   UNL     1      -1.002   5.563   0.851  1.00  0.00     0.157 A 
ATOM     29  C   UNL     1      -0.133   6.111  -0.089  1.00  0.00     0.157 A 
BRANCH  28  30
ATOM     30  O   UNL     1      -1.558   6.359   1.811  1.00  0.00    -0.504 OA
ATOM     31  H   UNL     1      -1.351   7.272   1.840  1.00  0.00     0.293 HD
ENDBRANCH  28  30
BRANCH  29  32
ATOM     32  O   UNL     1       0.141   7.448   0.003  1.00  0.00    -0.504 OA
ATOM     33  H   UNL     1       0.722   7.850  -0.613  1.00  0.00     0.293 HD
ENDBRANCH  29  32
ENDBRANCH  13  24
ENDBRANCH   4   7
ENDBRANCH   2   3
ENDBRANCH   1   2
BRANCH   1  34
ATOM     34  C   UNL     1       5.846   1.968   2.688  1.00  0.00     0.023 C 
BRANCH  34  35
ATOM     35  C   UNL     1       6.314   0.762   3.489  1.00  0.00     0.116 C 
BRANCH  35  36
ATOM     36  N   UNL     1       7.309  -0.047   2.795  1.00  0.00    -0.352 N 
ATOM     37  C   UNL     1       8.490  -0.547   3.298  1.00  0.00     0.251 C 
ATOM     38  H   UNL     1       7.114  -0.262   1.855  1.00  0.00     0.163 HD
ATOM     39  O   UNL     1       9.297  -1.116   2.575  1.00  0.00    -0.269 OA
BRANCH  37  40
ATOM     40  C   UNL     1       8.777  -0.342   4.731  1.00  0.00     0.039 A 
ATOM     41  C   UNL     1       9.959   0.298   5.108  1.00  0.00     0.014 A 
ATOM     42  C   UNL     1       7.809  -0.678   5.681  1.00  0.00     0.014 A 
ATOM     43  C   UNL     1      10.133   0.680   6.440  1.00  0.00     0.010 A 
ATOM     44  C   UNL     1       7.945  -0.214   6.981  1.00  0.00     0.010 A 
ATOM     45  C   UNL     1       9.107   0.469   7.375  1.00  0.00    -0.014 A 
BRANCH  45  46
ATOM     46  C   UNL     1       9.218   0.918   8.786  1.00  0.00     0.031 A 
ATOM     47  C   UNL     1       9.159  -0.105   9.886  1.00  0.00     0.074 A 
ATOM     48  C   UNL     1       9.270   2.232   9.083  1.00  0.00     0.049 A 
ATOM     49  N   UNL     1       9.061   0.071  11.178  1.00  0.00    -0.248 NA
ATOM     50  C   UNL     1       9.174  -1.517   9.470  1.00  0.00     0.031 C 
ATOM     51  C   UNL     1       9.308   3.325   8.110  1.00  0.00     0.029 A 
ATOM     52  N   UNL     1       9.277   2.871  10.298  1.00  0.00    -0.354 N 
ATOM     53  C   UNL     1       8.979  -1.204  11.723  1.00  0.00     0.074 A 
ATOM     54  C   UNL     1       8.975  -2.139  10.621  1.00  0.00     0.031 C 
ATOM     55  C   UNL     1       9.350   4.497   8.766  1.00  0.00     0.029 A 
ATOM     56  C   UNL     1       9.290   4.242  10.202  1.00  0.00     0.049 A 
ATOM     57  H   UNL     1       9.274   2.392  11.158  1.00  0.00     0.167 HD
ATOM     58  C   UNL     1       8.938  -1.565  13.027  1.00  0.00     0.037 A 
ATOM     59  C   UNL     1       9.238   5.185  11.163  1.00  0.00     0.037 A 
ATOM     60  C   UNL     1       8.966  -0.632  14.121  1.00  0.00     0.049 A 
ATOM     61  C   UNL     1       9.154   4.759  12.605  1.00  0.00     0.074 A 
ATOM     62  C   UNL     1       8.966  -0.897  15.479  1.00  0.00     0.029 A 
ATOM     63  N   UNL     1       9.001   0.747  13.980  1.00  0.00    -0.354 N 
ATOM     64  N   UNL     1       9.122   3.549  13.111  1.00  0.00    -0.248 NA
ATOM     65  C   UNL     1       9.100   5.829  13.612  1.00  0.00     0.031 C 
ATOM     66  C   UNL     1       8.952   0.323  16.160  1.00  0.00     0.029 A 
ATOM     67  C   UNL     1       9.008   1.347  15.227  1.00  0.00     0.049 A 
ATOM     68  H   UNL     1       9.019   1.228  13.121  1.00  0.00     0.167 HD
ATOM     69  C   UNL     1       9.093   3.713  14.491  1.00  0.00     0.074 A 
ATOM     70  C   UNL     1       9.111   5.138  14.743  1.00  0.00     0.031 C 
ATOM     71  C   UNL     1       9.061   2.767  15.461  1.00  0.00     0.037 A 
BRANCH  58  72
ATOM     72  C   UNL     1       8.862  -3.032  13.336  1.00  0.00     0.057 A 
ATOM     73  C   UNL     1       9.934  -3.898  13.081  1.00  0.00     0.134 A 
ATOM     74  C   UNL     1       7.713  -3.582  13.917  1.00  0.00     0.134 A 
ATOM     75  F   UNL     1      11.059  -3.439  12.511  1.00  0.00    -0.206 F 
ATOM     76  C   UNL     1       9.854  -5.263  13.363  1.00  0.00     0.040 A 
ATOM     77  C   UNL     1       7.633  -4.939  14.235  1.00  0.00     0.040 A 
ATOM     78  F   UNL     1       6.651  -2.810  14.193  1.00  0.00    -0.206 F 
ATOM     79  C   UNL     1       8.704  -5.785  13.950  1.00  0.00     0.006 A 
ENDBRANCH  58  72
BRANCH  59  80
ATOM     80  C   UNL     1       9.277   6.627  10.806  1.00  0.00     0.057 A 
ATOM     81  C   UNL     1      10.378   7.423  11.147  1.00  0.00     0.134 A 
ATOM     82  C   UNL     1       8.211   7.253  10.148  1.00  0.00     0.134 A 
ATOM     83  F   UNL     1      11.423   6.888  11.794  1.00  0.00    -0.206 F 
ATOM     84  C   UNL     1      10.406   8.792  10.874  1.00  0.00     0.040 A 
ATOM     85  C   UNL     1       8.238   8.615   9.843  1.00  0.00     0.040 A 
ATOM     86  F   UNL     1       7.130   6.547   9.786  1.00  0.00    -0.206 F 
ATOM     87  C   UNL     1       9.334   9.391  10.216  1.00  0.00     0.006 A 
ENDBRANCH  59  80
BRANCH  71  88
ATOM     88  C   UNL     1       9.123   3.229  16.888  1.00  0.00     0.057 A 
ATOM     89  C   UNL     1       8.041   3.854  17.519  1.00  0.00     0.134 A 
ATOM     90  C   UNL     1      10.264   2.974  17.661  1.00  0.00     0.134 A 
ATOM     91  F   UNL     1       6.924   4.138  16.833  1.00  0.00    -0.206 F 
ATOM     92  C   UNL     1       8.097   4.223  18.865  1.00  0.00     0.040 A 
ATOM     93  C   UNL     1      10.321   3.310  19.014  1.00  0.00     0.040 A 
ATOM     94  F   UNL     1      11.332   2.368  17.120  1.00  0.00    -0.206 F 
ATOM     95  C   UNL     1       9.236   3.940  19.618  1.00  0.00     0.006 A 
ENDBRANCH  71  88
ENDBRANCH  45  46
ENDBRANCH  37  40
ENDBRANCH  35  36
ENDBRANCH  34  35
ENDBRANCH   1  34
TORSDOF 17
