REMARK SMILES COc1cc2c(cc1OC)[C@H](C(=O)NCCCCNC(=O)c1ccc(-c3c4nc(c(-c5c(F)cccc5F)c5ccc([nH]5)c(-c5c(F)cccc5F)c5nc(c(-c6c(F)cccc6F)c6ccc3[nH]6)C=C5)C=C4)cc1)[C@@H](c1ccc(SC)cc1)N(C)C2=O
REMARK SMILES IDX 16 1 15 2 14 3 12 4 13 5 11 7 3 8 4 9 8 10 5 11 7 12 6 13
REMARK SMILES IDX 87 14 85 15 88 16 76 17 86 18 2 19 1 20 9 21 10 22 77 23
REMARK SMILES IDX 78 24 84 25 79 26 83 27 80 28 81 29 82 30 17 31 18 32 19 33
REMARK SMILES IDX 20 34 21 36 22 37 23 38 75 39 24 40 74 41 25 42 26 43 27 44
REMARK SMILES IDX 68 45 28 46 73 47 67 48 69 49 29 50 72 51 66 52 65 53 30 55
REMARK SMILES IDX 56 56 39 57 55 58 40 59 43 60 54 61 70 62 41 63 42 64 53 66
REMARK SMILES IDX 71 67 44 68 31 69 32 70 37 71 33 72 34 73 36 74 38 75 35 76
REMARK SMILES IDX 57 77 58 78 63 79 59 80 60 81 62 82 64 83 61 84 45 85 46 86
REMARK SMILES IDX 51 87 47 88 48 89 50 90 52 91 49 92
REMARK H PARENT 14 6 19 35 69 54 43 65
REMARK Flexibility Score: inf
ROOT
ATOM      1  C   UNL     1      -1.368  -3.538   7.442  1.00  0.00     0.023 C 
ENDROOT
BRANCH   1   2
ATOM      2  C   UNL     1      -0.805  -2.357   6.662  1.00  0.00     0.116 C 
BRANCH   2   3
ATOM      3  N   UNL     1      -0.214  -1.336   7.517  1.00  0.00    -0.355 N 
ATOM      4  C   UNL     1       0.948  -0.627   7.327  1.00  0.00     0.230 C 
ATOM      5  O   UNL     1       1.150   0.367   8.022  1.00  0.00    -0.274 OA
ATOM      6  H   UNL     1      -0.714  -1.126   8.339  1.00  0.00     0.163 HD
BRANCH   4   7
ATOM      7  C   UNL     1       1.911  -1.087   6.235  1.00  0.00     0.136 C 
ATOM      8  C   UNL     1       0.970   0.382   2.247  1.00  0.00     0.161 A 
ATOM      9  C   UNL     1       2.253  -0.083   2.573  1.00  0.00     0.064 A 
ATOM     10  C   UNL     1      -0.003   0.461   3.246  1.00  0.00     0.161 A 
ATOM     11  C   UNL     1       2.556  -0.524   3.871  1.00  0.00     0.048 A 
ATOM     12  C   UNL     1       0.322   0.043   4.545  1.00  0.00     0.056 A 
ATOM     13  C   UNL     1       1.584  -0.483   4.873  1.00  0.00    -0.016 A 
ATOM     14  C   UNL     1       3.915  -1.064   4.151  1.00  0.00     0.254 C 
ATOM     15  N   UNL     1       4.256  -1.309   5.484  1.00  0.00    -0.334 N 
ATOM     16  O   UNL     1       4.666  -1.286   3.205  1.00  0.00    -0.269 OA
ATOM     17  C   UNL     1       3.396  -0.795   6.595  1.00  0.00     0.132 C 
ATOM     18  C   UNL     1       5.596  -1.821   5.740  1.00  0.00     0.147 C 
BRANCH   8  19
ATOM     19  O   UNL     1       0.698   0.839   0.985  1.00  0.00    -0.493 OA
ATOM     20  C   UNL     1       1.072  -0.073  -0.047  1.00  0.00     0.278 C 
ENDBRANCH   8  19
BRANCH  10  21
ATOM     21  O   UNL     1      -1.300   0.891   3.152  1.00  0.00    -0.493 OA
ATOM     22  C   UNL     1      -1.858   1.093   1.863  1.00  0.00     0.278 C 
ENDBRANCH  10  21
BRANCH  17  23
ATOM     23  C   UNL     1       3.840  -1.283   7.984  1.00  0.00    -0.024 A 
ATOM     24  C   UNL     1       3.204  -2.321   8.680  1.00  0.00     0.007 A 
ATOM     25  C   UNL     1       4.929  -0.654   8.617  1.00  0.00     0.007 A 
ATOM     26  C   UNL     1       3.611  -2.678   9.973  1.00  0.00     0.015 A 
ATOM     27  C   UNL     1       5.362  -1.043   9.894  1.00  0.00     0.015 A 
ATOM     28  C   UNL     1       4.698  -2.053  10.590  1.00  0.00     0.007 A 
BRANCH  28  29
ATOM     29  S   UNL     1       5.102  -2.571  12.253  1.00  0.00    -0.130 SA
ATOM     30  C   UNL     1       6.861  -2.159  12.389  1.00  0.00     0.091 C 
ENDBRANCH  28  29
ENDBRANCH  17  23
ENDBRANCH   4   7
ENDBRANCH   2   3
ENDBRANCH   1   2
BRANCH   1  31
ATOM     31  C   UNL     1      -2.496  -3.192   8.413  1.00  0.00     0.023 C 
BRANCH  31  32
ATOM     32  C   UNL     1      -3.656  -2.400   7.819  1.00  0.00     0.116 C 
BRANCH  32  33
ATOM     33  N   UNL     1      -4.353  -3.112   6.758  1.00  0.00    -0.352 N 
ATOM     34  C   UNL     1      -5.685  -3.438   6.654  1.00  0.00     0.251 C 
ATOM     35  H   UNL     1      -3.789  -3.403   6.006  1.00  0.00     0.163 HD
ATOM     36  O   UNL     1      -6.075  -4.157   5.739  1.00  0.00    -0.269 OA
BRANCH  34  37
ATOM     37  C   UNL     1      -6.643  -2.954   7.671  1.00  0.00     0.039 A 
ATOM     38  C   UNL     1      -7.532  -3.865   8.247  1.00  0.00     0.014 A 
ATOM     39  C   UNL     1      -6.646  -1.617   8.077  1.00  0.00     0.014 A 
ATOM     40  C   UNL     1      -8.360  -3.455   9.294  1.00  0.00     0.010 A 
ATOM     41  C   UNL     1      -7.416  -1.229   9.171  1.00  0.00     0.010 A 
ATOM     42  C   UNL     1      -8.273  -2.146   9.798  1.00  0.00    -0.014 A 
BRANCH  42  43
ATOM     43  C   UNL     1      -9.048  -1.731  10.996  1.00  0.00     0.031 A 
ATOM     44  C   UNL     1     -10.089  -0.652  10.894  1.00  0.00     0.074 A 
ATOM     45  C   UNL     1      -8.763  -2.279  12.194  1.00  0.00     0.049 A 
ATOM     46  N   UNL     1     -10.820  -0.117  11.839  1.00  0.00    -0.248 NA
ATOM     47  C   UNL     1     -10.322  -0.080   9.559  1.00  0.00     0.031 C 
ATOM     48  C   UNL     1      -7.738  -3.296  12.439  1.00  0.00     0.029 A 
ATOM     49  N   UNL     1      -9.304  -2.049  13.435  1.00  0.00    -0.354 N 
ATOM     50  C   UNL     1     -11.587   0.859  11.218  1.00  0.00     0.074 A 
ATOM     51  C   UNL     1     -11.197   0.879   9.825  1.00  0.00     0.031 C 
ATOM     52  C   UNL     1      -7.740  -3.618  13.742  1.00  0.00     0.029 A 
ATOM     53  C   UNL     1      -8.738  -2.807  14.432  1.00  0.00     0.049 A 
ATOM     54  H   UNL     1     -10.028  -1.402  13.595  1.00  0.00     0.167 HD
ATOM     55  C   UNL     1     -12.547   1.651  11.754  1.00  0.00     0.037 A 
ATOM     56  C   UNL     1      -8.990  -2.841  15.754  1.00  0.00     0.037 A 
ATOM     57  C   UNL     1     -12.952   1.615  13.134  1.00  0.00     0.049 A 
ATOM     58  C   UNL     1     -10.056  -1.948  16.325  1.00  0.00     0.074 A 
ATOM     59  C   UNL     1     -13.961   2.330  13.755  1.00  0.00     0.029 A 
ATOM     60  N   UNL     1     -12.366   0.822  14.109  1.00  0.00    -0.354 N 
ATOM     61  N   UNL     1     -10.828  -1.085  15.710  1.00  0.00    -0.248 NA
ATOM     62  C   UNL     1     -10.290  -2.036  17.774  1.00  0.00     0.031 C 
ATOM     63  C   UNL     1     -13.957   2.003  15.115  1.00  0.00     0.029 A 
ATOM     64  C   UNL     1     -12.976   1.050  15.332  1.00  0.00     0.049 A 
ATOM     65  H   UNL     1     -11.626   0.192  13.956  1.00  0.00     0.167 HD
ATOM     66  C   UNL     1     -11.653  -0.547  16.689  1.00  0.00     0.074 A 
ATOM     67  C   UNL     1     -11.299  -1.192  17.936  1.00  0.00     0.031 C 
ATOM     68  C   UNL     1     -12.618   0.397  16.565  1.00  0.00     0.037 A 
BRANCH  55  69
ATOM     69  C   UNL     1     -13.232   2.622  10.837  1.00  0.00     0.057 A 
ATOM     70  C   UNL     1     -14.126   2.195   9.846  1.00  0.00     0.134 A 
ATOM     71  C   UNL     1     -13.027   4.001  10.972  1.00  0.00     0.134 A 
ATOM     72  F   UNL     1     -14.359   0.887   9.658  1.00  0.00    -0.206 F 
ATOM     73  C   UNL     1     -14.771   3.103   9.004  1.00  0.00     0.040 A 
ATOM     74  C   UNL     1     -13.686   4.920  10.153  1.00  0.00     0.040 A 
ATOM     75  F   UNL     1     -12.190   4.478  11.905  1.00  0.00    -0.206 F 
ATOM     76  C   UNL     1     -14.556   4.471   9.162  1.00  0.00     0.006 A 
ENDBRANCH  55  69
BRANCH  56  77
ATOM     77  C   UNL     1      -8.234  -3.769  16.632  1.00  0.00     0.057 A 
ATOM     78  C   UNL     1      -8.856  -4.883  17.209  1.00  0.00     0.134 A 
ATOM     79  C   UNL     1      -6.881  -3.561  16.926  1.00  0.00     0.134 A 
ATOM     80  F   UNL     1     -10.155  -5.123  16.981  1.00  0.00    -0.206 F 
ATOM     81  C   UNL     1      -8.166  -5.745  18.062  1.00  0.00     0.040 A 
ATOM     82  C   UNL     1      -6.172  -4.430  17.757  1.00  0.00     0.040 A 
ATOM     83  F   UNL     1      -6.226  -2.516  16.398  1.00  0.00    -0.206 F 
ATOM     84  C   UNL     1      -6.817  -5.522  18.334  1.00  0.00     0.006 A 
ENDBRANCH  56  77
BRANCH  68  85
ATOM     85  C   UNL     1     -13.380   0.767  17.803  1.00  0.00     0.057 A 
ATOM     86  C   UNL     1     -12.803   1.534  18.823  1.00  0.00     0.134 A 
ATOM     87  C   UNL     1     -14.719   0.386  17.958  1.00  0.00     0.134 A 
ATOM     88  F   UNL     1     -11.520   1.919  18.743  1.00  0.00    -0.206 F 
ATOM     89  C   UNL     1     -13.525   1.892  19.963  1.00  0.00     0.040 A 
ATOM     90  C   UNL     1     -15.459   0.759  19.080  1.00  0.00     0.040 A 
ATOM     91  F   UNL     1     -15.333  -0.343  17.014  1.00  0.00    -0.206 F 
ATOM     92  C   UNL     1     -14.860   1.510  20.090  1.00  0.00     0.006 A 
ENDBRANCH  68  85
ENDBRANCH  42  43
ENDBRANCH  34  37
ENDBRANCH  32  33
ENDBRANCH  31  32
ENDBRANCH   1  31
TORSDOF 15
