REMARK SMILES [NH3+][C@H]1C=C[C@H](C(=O)N2CCCc3c(C(=O)NCCCCNC(=O)c4ccc(-c5c6nc(c(-c7c(F)cccc7F)c7ccc([nH]7)c(-c7c(F)cccc7F)c7nc(c(-c8c(F)cccc8F)c8ccc5[nH]8)C=C7)C=C6)cc4)cccc32)C1
REMARK SMILES IDX 18 1 17 2 16 3 14 4 15 5 13 7 8 8 9 9 81 10 10 11 12 12
REMARK SMILES IDX 80 13 11 14 79 15 78 16 6 17 7 18 5 19 2 20 3 21 82 22 4 23
REMARK SMILES IDX 1 24 19 28 20 29 21 30 22 31 23 33 24 34 25 35 77 36 26 37
REMARK SMILES IDX 76 38 27 39 28 40 29 41 70 42 30 43 75 44 69 45 71 46 31 47
REMARK SMILES IDX 74 48 68 49 67 50 32 52 58 53 41 54 57 55 42 56 45 57 56 58
REMARK SMILES IDX 72 59 43 60 44 61 55 63 73 64 46 65 33 66 34 67 39 68 35 69
REMARK SMILES IDX 36 70 38 71 40 72 37 73 59 74 60 75 65 76 61 77 62 78 64 79
REMARK SMILES IDX 66 80 63 81 47 82 48 83 53 84 49 85 50 86 52 87 54 88 51 89
REMARK H PARENT 16 6 1 25 1 26 1 27 21 32 71 51 45 62
REMARK Flexibility Score: inf
ROOT
ATOM      1  C   UNL     1      -6.247  -0.619  -4.923  1.00  0.00     0.023 C 
ENDROOT
BRANCH   1   2
ATOM      2  C   UNL     1      -5.936  -1.984  -4.294  1.00  0.00     0.116 C 
BRANCH   2   3
ATOM      3  N   UNL     1      -5.439  -2.902  -5.298  1.00  0.00    -0.352 N 
ATOM      4  C   UNL     1      -4.242  -3.300  -5.823  1.00  0.00     0.251 C 
ATOM      5  O   UNL     1      -4.378  -4.147  -6.719  1.00  0.00    -0.269 OA
ATOM      6  H   UNL     1      -6.183  -3.380  -5.729  1.00  0.00     0.163 HD
BRANCH   4   7
ATOM      7  C   UNL     1      -2.829  -2.905  -5.459  1.00  0.00     0.045 A 
ATOM      8  N   UNL     1      -0.339  -0.328  -4.210  1.00  0.00    -0.312 N 
ATOM      9  C   UNL     1      -1.262   0.559  -3.519  1.00  0.00     0.126 C 
ATOM     10  C   UNL     1      -0.890  -1.514  -4.816  1.00  0.00     0.048 A 
ATOM     11  C   UNL     1      -2.478   0.802  -4.379  1.00  0.00     0.027 C 
ATOM     12  C   UNL     1      -2.302  -1.686  -4.951  1.00  0.00    -0.011 A 
ATOM     13  C   UNL     1      -0.025  -2.531  -5.236  1.00  0.00     0.027 A 
ATOM     14  C   UNL     1      -3.178  -0.523  -4.609  1.00  0.00     0.040 C 
ATOM     15  C   UNL     1      -0.523  -3.722  -5.738  1.00  0.00     0.003 A 
ATOM     16  C   UNL     1      -1.899  -3.905  -5.829  1.00  0.00     0.014 A 
BRANCH   8  17
ATOM     17  C   UNL     1       0.984   0.050  -4.429  1.00  0.00     0.234 C 
ATOM     18  O   UNL     1       1.517  -0.029  -5.541  1.00  0.00    -0.274 OA
BRANCH  17  19
ATOM     19  C   UNL     1       1.836   0.493  -3.225  1.00  0.00     0.108 C 
ATOM     20  C   UNL     1       1.039   0.418  -0.904  1.00  0.00     0.205 C 
ATOM     21  C   UNL     1       1.200   1.817  -1.394  1.00  0.00     0.033 C 
ATOM     22  C   UNL     1       1.713  -0.423  -1.997  1.00  0.00     0.087 C 
ATOM     23  C   UNL     1       1.603   1.862  -2.670  1.00  0.00    -0.012 C 
BRANCH  20  24
ATOM     24  N   UNL     1       1.642   0.229   0.400  1.00  0.00    -0.352 N 
ATOM     25  H   UNL     1       1.158   0.808   1.086  1.00  0.00     0.345 HD
ATOM     26  H   UNL     1       2.625   0.498   0.362  1.00  0.00     0.345 HD
ATOM     27  H   UNL     1       1.568  -0.751   0.670  1.00  0.00     0.345 HD
ENDBRANCH  20  24
ENDBRANCH  17  19
ENDBRANCH   8  17
ENDBRANCH   4   7
ENDBRANCH   2   3
ENDBRANCH   1   2
BRANCH   1  28
ATOM     28  C   UNL     1      -7.719  -0.243  -5.003  1.00  0.00     0.023 C 
BRANCH  28  29
ATOM     29  C   UNL     1      -8.367   0.004  -3.653  1.00  0.00     0.116 C 
BRANCH  29  30
ATOM     30  N   UNL     1      -7.783   1.108  -2.901  1.00  0.00    -0.352 N 
ATOM     31  C   UNL     1      -8.415   1.935  -1.994  1.00  0.00     0.251 C 
ATOM     32  H   UNL     1      -6.827   1.285  -3.058  1.00  0.00     0.163 HD
ATOM     33  O   UNL     1      -7.832   2.860  -1.462  1.00  0.00    -0.269 OA
BRANCH  31  34
ATOM     34  C   UNL     1      -9.852   1.696  -1.740  1.00  0.00     0.039 A 
ATOM     35  C   UNL     1     -10.758   2.729  -1.986  1.00  0.00     0.014 A 
ATOM     36  C   UNL     1     -10.296   0.413  -1.417  1.00  0.00     0.014 A 
ATOM     37  C   UNL     1     -12.124   2.445  -2.006  1.00  0.00     0.010 A 
ATOM     38  C   UNL     1     -11.646   0.114  -1.531  1.00  0.00     0.010 A 
ATOM     39  C   UNL     1     -12.572   1.125  -1.834  1.00  0.00    -0.014 A 
BRANCH  39  40
ATOM     40  C   UNL     1     -14.005   0.769  -1.972  1.00  0.00     0.031 A 
ATOM     41  C   UNL     1     -14.745   0.197  -0.797  1.00  0.00     0.074 A 
ATOM     42  C   UNL     1     -14.610   0.872  -3.171  1.00  0.00     0.049 A 
ATOM     43  N   UNL     1     -15.968  -0.262  -0.735  1.00  0.00    -0.248 NA
ATOM     44  C   UNL     1     -13.996   0.088   0.465  1.00  0.00     0.031 C 
ATOM     45  C   UNL     1     -13.980   1.347  -4.405  1.00  0.00     0.029 A 
ATOM     46  N   UNL     1     -15.895   0.573  -3.549  1.00  0.00    -0.354 N 
ATOM     47  C   UNL     1     -16.122  -0.742   0.559  1.00  0.00     0.074 A 
ATOM     48  C   UNL     1     -14.853  -0.568   1.231  1.00  0.00     0.031 C 
ATOM     49  C   UNL     1     -14.889   1.340  -5.394  1.00  0.00     0.029 A 
ATOM     50  C   UNL     1     -16.154   0.832  -4.873  1.00  0.00     0.049 A 
ATOM     51  H   UNL     1     -16.567   0.207  -2.930  1.00  0.00     0.167 HD
ATOM     52  C   UNL     1     -17.229  -1.255   1.145  1.00  0.00     0.037 A 
ATOM     53  C   UNL     1     -17.288   0.681  -5.582  1.00  0.00     0.037 A 
ATOM     54  C   UNL     1     -18.503  -1.376   0.492  1.00  0.00     0.049 A 
ATOM     55  C   UNL     1     -18.516   0.149  -4.900  1.00  0.00     0.074 A 
ATOM     56  C   UNL     1     -19.709  -1.798   1.024  1.00  0.00     0.029 A 
ATOM     57  N   UNL     1     -18.737  -1.066  -0.839  1.00  0.00    -0.354 N 
ATOM     58  N   UNL     1     -18.670  -0.230  -3.655  1.00  0.00    -0.248 NA
ATOM     59  C   UNL     1     -19.730   0.030  -5.720  1.00  0.00     0.031 C 
ATOM     60  C   UNL     1     -20.668  -1.769   0.005  1.00  0.00     0.029 A 
ATOM     61  C   UNL     1     -20.065  -1.300  -1.152  1.00  0.00     0.049 A 
ATOM     62  H   UNL     1     -18.059  -0.730  -1.469  1.00  0.00     0.167 HD
ATOM     63  C   UNL     1     -20.000  -0.609  -3.534  1.00  0.00     0.074 A 
ATOM     64  C   UNL     1     -20.612  -0.406  -4.832  1.00  0.00     0.031 C 
ATOM     65  C   UNL     1     -20.656  -1.083  -2.447  1.00  0.00     0.037 A 
BRANCH  52  66
ATOM     66  C   UNL     1     -17.099  -1.708   2.568  1.00  0.00     0.057 A 
ATOM     67  C   UNL     1     -16.945  -0.796   3.621  1.00  0.00     0.134 A 
ATOM     68  C   UNL     1     -17.120  -3.070   2.889  1.00  0.00     0.134 A 
ATOM     69  F   UNL     1     -16.898   0.522   3.377  1.00  0.00    -0.206 F 
ATOM     70  C   UNL     1     -16.782  -1.225   4.939  1.00  0.00     0.040 A 
ATOM     71  C   UNL     1     -16.984  -3.510   4.206  1.00  0.00     0.040 A 
ATOM     72  F   UNL     1     -17.265  -3.995   1.928  1.00  0.00    -0.206 F 
ATOM     73  C   UNL     1     -16.805  -2.587   5.235  1.00  0.00     0.006 A 
ENDBRANCH  52  66
BRANCH  53  74
ATOM     74  C   UNL     1     -17.329   1.087  -7.008  1.00  0.00     0.057 A 
ATOM     75  C   UNL     1     -17.996   2.254  -7.399  1.00  0.00     0.134 A 
ATOM     76  C   UNL     1     -16.705   0.333  -8.008  1.00  0.00     0.134 A 
ATOM     77  F   UNL     1     -18.626   3.008  -6.486  1.00  0.00    -0.206 F 
ATOM     78  C   UNL     1     -18.053   2.651  -8.735  1.00  0.00     0.040 A 
ATOM     79  C   UNL     1     -16.739   0.728  -9.346  1.00  0.00     0.040 A 
ATOM     80  F   UNL     1     -16.044  -0.791  -7.695  1.00  0.00    -0.206 F 
ATOM     81  C   UNL     1     -17.418   1.889  -9.713  1.00  0.00     0.006 A 
ENDBRANCH  53  74
BRANCH  65  82
ATOM     82  C   UNL     1     -22.114  -1.385  -2.607  1.00  0.00     0.057 A 
ATOM     83  C   UNL     1     -22.559  -2.528  -3.281  1.00  0.00     0.134 A 
ATOM     84  C   UNL     1     -23.081  -0.545  -2.040  1.00  0.00     0.134 A 
ATOM     85  F   UNL     1     -21.681  -3.363  -3.856  1.00  0.00    -0.206 F 
ATOM     86  C   UNL     1     -23.919  -2.818  -3.399  1.00  0.00     0.040 A 
ATOM     87  C   UNL     1     -24.442  -0.835  -2.134  1.00  0.00     0.040 A 
ATOM     88  F   UNL     1     -22.717   0.563  -1.377  1.00  0.00    -0.206 F 
ATOM     89  C   UNL     1     -24.864  -1.974  -2.819  1.00  0.00     0.006 A 
ENDBRANCH  65  82
ENDBRANCH  39  40
ENDBRANCH  31  34
ENDBRANCH  29  30
ENDBRANCH  28  29
ENDBRANCH   1  28
TORSDOF 14
