REMARK SMILES CCCCCCNC(=O)Oc1cccc(-c2ccc([C@@H](C)C(=O)NCCCCNC(=O)c3ccc(-c4c5nc(c(-c6c(F)cccc6F)c6ccc([nH]6)c(-c6c(F)cccc6F)c6nc(c(-c7c(F)cccc7F)c7ccc4[nH]7)C=C6)C=C5)cc3)cc2C)c1
REMARK SMILES IDX 20 1 21 2 19 3 16 4 17 5 87 6 18 7 86 8 88 9 15 10 11 11
REMARK SMILES IDX 12 12 89 13 13 14 14 15 10 16 8 17 7 18 9 20 6 21 5 22 4 23
REMARK SMILES IDX 3 24 2 25 1 26 22 27 23 28 24 29 25 31 26 32 27 33 28 34
REMARK SMILES IDX 29 35 30 36 31 38 32 39 33 40 85 41 34 42 84 43 35 44 36 45
REMARK SMILES IDX 37 46 78 47 38 48 83 49 77 50 79 51 39 52 82 53 76 54 75 55
REMARK SMILES IDX 40 57 66 58 49 59 65 60 50 61 53 62 64 63 80 64 51 65 52 66
REMARK SMILES IDX 63 68 81 69 54 70 41 71 42 72 47 73 43 74 44 75 46 76 48 77
REMARK SMILES IDX 45 78 67 79 68 80 73 81 69 82 70 83 72 84 74 85 71 86 55 87
REMARK SMILES IDX 56 88 61 89 57 90 58 91 60 92 62 93 59 94
REMARK H PARENT 7 19 24 30 29 37 79 56 53 67
REMARK Flexibility Score: inf
ROOT
ATOM      1  C   UNL     1      -4.911 -10.886   7.847  1.00  0.00     0.105 C 
ATOM      2  C   UNL     1      -6.180 -11.547   8.385  1.00  0.00     0.023 C 
ENDROOT
BRANCH   1   3
ATOM      3  C   UNL     1      -5.072 -10.146   6.528  1.00  0.00    -0.036 A 
ATOM      4  C   UNL     1      -5.169  -8.749   4.024  1.00  0.00    -0.015 A 
ATOM      5  C   UNL     1      -5.702 -10.041   4.187  1.00  0.00     0.009 A 
ATOM      6  C   UNL     1      -4.661  -8.119   5.182  1.00  0.00    -0.043 A 
ATOM      7  C   UNL     1      -5.710 -10.697   5.422  1.00  0.00     0.005 A 
ATOM      8  C   UNL     1      -4.565  -8.846   6.393  1.00  0.00     0.008 A 
ATOM      9  C   UNL     1      -4.236  -6.674   5.243  1.00  0.00     0.045 C 
BRANCH   4  10
ATOM     10  C   UNL     1      -5.194  -8.137   2.671  1.00  0.00    -0.014 A 
ATOM     11  C   UNL     1      -4.170  -6.837   0.889  1.00  0.00     0.133 A 
ATOM     12  C   UNL     1      -5.308  -6.960   0.096  1.00  0.00     0.047 A 
ATOM     13  C   UNL     1      -4.093  -7.438   2.148  1.00  0.00     0.056 A 
ATOM     14  C   UNL     1      -6.388  -7.691   0.572  1.00  0.00     0.004 A 
ATOM     15  C   UNL     1      -6.336  -8.255   1.851  1.00  0.00     0.009 A 
BRANCH  11  16
ATOM     16  O   UNL     1      -3.196  -5.927   0.439  1.00  0.00    -0.410 OA
BRANCH  16  17
ATOM     17  C   UNL     1      -1.848  -6.233   0.522  1.00  0.00     0.412 C 
ATOM     18  N   UNL     1      -1.046  -5.155   0.261  1.00  0.00    -0.321 N 
ATOM     19  H   UNL     1      -0.075  -5.317   0.253  1.00  0.00     0.167 HD
ATOM     20  O   UNL     1      -1.375  -7.330   0.786  1.00  0.00    -0.224 OA
BRANCH  18  21
ATOM     21  C   UNL     1      -1.482  -3.797  -0.005  1.00  0.00     0.119 C 
BRANCH  21  22
ATOM     22  C   UNL     1      -0.900  -2.801   0.999  1.00  0.00     0.021 C 
BRANCH  22  23
ATOM     23  C   UNL     1       0.628  -2.673   0.969  1.00  0.00     0.002 C 
BRANCH  23  24
ATOM     24  C   UNL     1       1.230  -2.271  -0.382  1.00  0.00    -0.000 C 
BRANCH  24  25
ATOM     25  C   UNL     1       0.739  -0.937  -0.949  1.00  0.00    -0.003 C 
ATOM     26  C   UNL     1       1.101   0.256  -0.077  1.00  0.00     0.004 C 
ENDBRANCH  24  25
ENDBRANCH  23  24
ENDBRANCH  22  23
ENDBRANCH  21  22
ENDBRANCH  18  21
ENDBRANCH  16  17
ENDBRANCH  11  16
ENDBRANCH   4  10
ENDBRANCH   1   3
BRANCH   1  27
ATOM     27  C   UNL     1      -3.658 -11.774   7.925  1.00  0.00     0.227 C 
ATOM     28  O   UNL     1      -2.695 -11.419   8.617  1.00  0.00    -0.274 OA
ATOM     29  N   UNL     1      -3.531 -12.974   7.295  1.00  0.00    -0.356 N 
ATOM     30  H   UNL     1      -2.706 -13.463   7.520  1.00  0.00     0.163 HD
BRANCH  29  31
ATOM     31  C   UNL     1      -4.389 -13.661   6.354  1.00  0.00     0.116 C 
BRANCH  31  32
ATOM     32  C   UNL     1      -3.995 -13.371   4.905  1.00  0.00     0.023 C 
BRANCH  32  33
ATOM     33  C   UNL     1      -2.945 -14.310   4.320  1.00  0.00     0.023 C 
BRANCH  33  34
ATOM     34  C   UNL     1      -3.358 -15.774   4.250  1.00  0.00     0.116 C 
BRANCH  34  35
ATOM     35  N   UNL     1      -4.582 -16.016   3.497  1.00  0.00    -0.352 N 
ATOM     36  C   UNL     1      -4.917 -17.131   2.763  1.00  0.00     0.251 C 
ATOM     37  H   UNL     1      -5.251 -15.294   3.516  1.00  0.00     0.163 HD
ATOM     38  O   UNL     1      -5.958 -17.172   2.119  1.00  0.00    -0.269 OA
BRANCH  36  39
ATOM     39  C   UNL     1      -3.969 -18.262   2.723  1.00  0.00     0.039 A 
ATOM     40  C   UNL     1      -3.554 -18.753   1.483  1.00  0.00     0.014 A 
ATOM     41  C   UNL     1      -3.428 -18.771   3.906  1.00  0.00     0.014 A 
ATOM     42  C   UNL     1      -2.531 -19.701   1.428  1.00  0.00     0.010 A 
ATOM     43  C   UNL     1      -2.354 -19.649   3.846  1.00  0.00     0.010 A 
ATOM     44  C   UNL     1      -1.893 -20.121   2.607  1.00  0.00    -0.014 A 
BRANCH  44  45
ATOM     45  C   UNL     1      -0.737 -21.049   2.571  1.00  0.00     0.031 A 
ATOM     46  C   UNL     1      -0.833 -22.395   3.232  1.00  0.00     0.074 A 
ATOM     47  C   UNL     1       0.428 -20.644   2.030  1.00  0.00     0.049 A 
ATOM     48  N   UNL     1       0.089 -23.309   3.385  1.00  0.00    -0.248 NA
ATOM     49  C   UNL     1      -2.129 -22.741   3.837  1.00  0.00     0.031 C 
ATOM     50  C   UNL     1       0.672 -19.332   1.426  1.00  0.00     0.029 A 
ATOM     51  N   UNL     1       1.633 -21.290   1.917  1.00  0.00    -0.354 N 
ATOM     52  C   UNL     1      -0.505 -24.322   4.126  1.00  0.00     0.074 A 
ATOM     53  C   UNL     1      -1.849 -23.888   4.437  1.00  0.00     0.031 C 
ATOM     54  C   UNL     1       1.942 -19.276   0.993  1.00  0.00     0.029 A 
ATOM     55  C   UNL     1       2.609 -20.534   1.315  1.00  0.00     0.049 A 
ATOM     56  H   UNL     1       1.785 -22.208   2.238  1.00  0.00     0.167 HD
ATOM     57  C   UNL     1       0.015 -25.517   4.495  1.00  0.00     0.037 A 
ATOM     58  C   UNL     1       3.899 -20.820   1.055  1.00  0.00     0.037 A 
ATOM     59  C   UNL     1       1.337 -25.962   4.147  1.00  0.00     0.049 A 
ATOM     60  C   UNL     1       4.441 -22.170   1.432  1.00  0.00     0.074 A 
ATOM     61  C   UNL     1       1.924 -27.192   4.385  1.00  0.00     0.029 A 
ATOM     62  N   UNL     1       2.281 -25.188   3.487  1.00  0.00    -0.354 N 
ATOM     63  N   UNL     1       3.840 -23.158   2.049  1.00  0.00    -0.248 NA
ATOM     64  C   UNL     1       5.837 -22.450   1.068  1.00  0.00     0.031 C 
ATOM     65  C   UNL     1       3.238 -27.149   3.907  1.00  0.00     0.029 A 
ATOM     66  C   UNL     1       3.454 -25.907   3.331  1.00  0.00     0.049 A 
ATOM     67  H   UNL     1       2.138 -24.265   3.177  1.00  0.00     0.167 HD
ATOM     68  C   UNL     1       4.774 -24.182   2.129  1.00  0.00     0.074 A 
ATOM     69  C   UNL     1       5.978 -23.701   1.484  1.00  0.00     0.031 C 
ATOM     70  C   UNL     1       4.644 -25.411   2.686  1.00  0.00     0.037 A 
BRANCH  57  71
ATOM     71  C   UNL     1      -0.857 -26.423   5.315  1.00  0.00     0.057 A 
ATOM     72  C   UNL     1      -1.991 -27.047   4.778  1.00  0.00     0.134 A 
ATOM     73  C   UNL     1      -0.553 -26.681   6.657  1.00  0.00     0.134 A 
ATOM     74  F   UNL     1      -2.346 -26.831   3.502  1.00  0.00    -0.206 F 
ATOM     75  C   UNL     1      -2.812 -27.866   5.556  1.00  0.00     0.040 A 
ATOM     76  C   UNL     1      -1.349 -27.522   7.437  1.00  0.00     0.040 A 
ATOM     77  F   UNL     1       0.521 -26.121   7.233  1.00  0.00    -0.206 F 
ATOM     78  C   UNL     1      -2.488 -28.109   6.889  1.00  0.00     0.006 A 
ENDBRANCH  57  71
BRANCH  58  79
ATOM     79  C   UNL     1       4.754 -19.815   0.376  1.00  0.00     0.057 A 
ATOM     80  C   UNL     1       5.139 -19.979  -0.959  1.00  0.00     0.134 A 
ATOM     81  C   UNL     1       5.187 -18.660   1.037  1.00  0.00     0.134 A 
ATOM     82  F   UNL     1       4.768 -21.074  -1.639  1.00  0.00    -0.206 F 
ATOM     83  C   UNL     1       5.935 -19.036  -1.611  1.00  0.00     0.040 A 
ATOM     84  C   UNL     1       5.965 -17.698   0.391  1.00  0.00     0.040 A 
ATOM     85  F   UNL     1       4.843 -18.441   2.314  1.00  0.00    -0.206 F 
ATOM     86  C   UNL     1       6.345 -17.887  -0.937  1.00  0.00     0.006 A 
ENDBRANCH  58  79
BRANCH  70  87
ATOM     87  C   UNL     1       5.827 -26.330   2.604  1.00  0.00     0.057 A 
ATOM     88  C   UNL     1       6.968 -26.135   3.392  1.00  0.00     0.134 A 
ATOM     89  C   UNL     1       5.804 -27.448   1.761  1.00  0.00     0.134 A 
ATOM     90  F   UNL     1       7.057 -25.076   4.210  1.00  0.00    -0.206 F 
ATOM     91  C   UNL     1       8.053 -27.011   3.330  1.00  0.00     0.040 A 
ATOM     92  C   UNL     1       6.872 -28.344   1.709  1.00  0.00     0.040 A 
ATOM     93  F   UNL     1       4.737 -27.696   0.987  1.00  0.00    -0.206 F 
ATOM     94  C   UNL     1       8.003 -28.124   2.493  1.00  0.00     0.006 A 
ENDBRANCH  70  87
ENDBRANCH  44  45
ENDBRANCH  36  39
ENDBRANCH  34  35
ENDBRANCH  33  34
ENDBRANCH  32  33
ENDBRANCH  31  32
ENDBRANCH  29  31
ENDBRANCH   1  27
TORSDOF 20
