REMARK SMILES CC[C@](C)([NH3+])C(=O)Nc1ccc(C(F)(F)F)cc1C(=O)NCCCCNC(=O)c1ccc(-c2c3nc(c(-c4c(F)cccc4F)c4ccc([nH]4)c(-c4c(F)cccc4F)c4nc(c(-c5c(F)cccc5F)c5ccc2[nH]5)C=C4)C=C3)cc1
REMARK SMILES IDX 23 1 22 2 21 3 19 4 20 5 18 7 9 8 10 9 11 10 17 11 12 12
REMARK SMILES IDX 8 13 6 14 7 15 3 17 4 18 2 19 1 20 5 21 13 25 14 26 15 27
REMARK SMILES IDX 16 28 24 29 25 30 26 31 27 32 28 34 29 35 30 36 82 37 31 38
REMARK SMILES IDX 81 39 32 40 33 41 34 42 75 43 35 44 80 45 74 46 76 47 36 48
REMARK SMILES IDX 79 49 73 50 72 51 37 53 63 54 46 55 62 56 47 57 50 58 61 59
REMARK SMILES IDX 77 60 48 61 49 62 60 64 78 65 51 66 38 67 39 68 44 69 40 70
REMARK SMILES IDX 41 71 43 72 45 73 42 74 64 75 65 76 70 77 66 78 67 79 69 80
REMARK SMILES IDX 71 81 68 82 52 83 53 84 58 85 54 86 55 87 57 88 59 89 56 90
REMARK H PARENT 21 6 8 16 5 22 5 23 5 24 26 33 76 52 50 63
REMARK Flexibility Score: inf
ROOT
ATOM      1  C   UNL     1       4.580  -2.056  -3.655  1.00  0.00     0.023 C 
ENDROOT
BRANCH   1   2
ATOM      2  C   UNL     1       3.718  -2.904  -2.726  1.00  0.00     0.116 C 
BRANCH   2   3
ATOM      3  N   UNL     1       2.520  -3.459  -3.313  1.00  0.00    -0.352 N 
ATOM      4  C   UNL     1       1.635  -4.407  -2.845  1.00  0.00     0.253 C 
ATOM      5  O   UNL     1       0.704  -4.705  -3.600  1.00  0.00    -0.269 OA
ATOM      6  H   UNL     1       2.297  -3.097  -4.201  1.00  0.00     0.163 HD
BRANCH   4   7
ATOM      7  C   UNL     1       1.770  -5.174  -1.552  1.00  0.00     0.063 A 
ATOM      8  C   UNL     1       2.381  -4.780  -0.349  1.00  0.00     0.054 A 
ATOM      9  C   UNL     1       2.639  -5.741   0.647  1.00  0.00     0.027 A 
ATOM     10  C   UNL     1       2.103  -7.023   0.570  1.00  0.00     0.015 A 
ATOM     11  C   UNL     1       1.200  -6.474  -1.590  1.00  0.00     0.029 A 
ATOM     12  C   UNL     1       1.311  -7.381  -0.520  1.00  0.00     0.056 A 
BRANCH   8  13
ATOM     13  N   UNL     1       2.787  -3.495   0.019  1.00  0.00    -0.320 N 
ATOM     14  C   UNL     1       2.132  -2.296   0.062  1.00  0.00     0.285 C 
ATOM     15  O   UNL     1       2.863  -1.315   0.274  1.00  0.00    -0.267 OA
ATOM     16  H   UNL     1       3.728  -3.443   0.303  1.00  0.00     0.170 HD
BRANCH  14  17
ATOM     17  C   UNL     1       0.581  -2.144   0.083  1.00  0.00     0.171 C 
ATOM     18  C   UNL     1       0.230  -0.669  -0.194  1.00  0.00     0.090 C 
BRANCH  17  19
ATOM     19  C   UNL     1       0.035  -2.606   1.453  1.00  0.00     0.075 C 
ATOM     20  C   UNL     1       0.709  -1.958   2.659  1.00  0.00     0.011 C 
ENDBRANCH  17  19
BRANCH  17  21
ATOM     21  N   UNL     1      -0.089  -2.916  -0.974  1.00  0.00    -0.345 N 
ATOM     22  H   UNL     1       0.261  -2.621  -1.885  1.00  0.00     0.345 HD
ATOM     23  H   UNL     1      -1.095  -2.754  -0.928  1.00  0.00     0.345 HD
ATOM     24  H   UNL     1       0.101  -3.909  -0.842  1.00  0.00     0.345 HD
ENDBRANCH  17  21
ENDBRANCH  14  17
ENDBRANCH   8  13
BRANCH  12  25
ATOM     25  C   UNL     1       0.605  -8.717  -0.528  1.00  0.00     0.416 C 
ATOM     26  F   UNL     1       1.444  -9.750  -0.805  1.00  0.00    -0.166 F 
ATOM     27  F   UNL     1       0.044  -9.006   0.681  1.00  0.00    -0.166 F 
ATOM     28  F   UNL     1      -0.409  -8.792  -1.431  1.00  0.00    -0.166 F 
ENDBRANCH  12  25
ENDBRANCH   4   7
ENDBRANCH   2   3
ENDBRANCH   1   2
BRANCH   1  29
ATOM     29  C   UNL     1       3.991  -0.700  -4.069  1.00  0.00     0.023 C 
BRANCH  29  30
ATOM     30  C   UNL     1       3.443   0.203  -2.958  1.00  0.00     0.116 C 
BRANCH  30  31
ATOM     31  N   UNL     1       4.422   0.594  -1.951  1.00  0.00    -0.352 N 
ATOM     32  C   UNL     1       5.021   1.812  -1.705  1.00  0.00     0.251 C 
ATOM     33  H   UNL     1       4.701  -0.131  -1.346  1.00  0.00     0.163 HD
ATOM     34  O   UNL     1       5.895   1.922  -0.855  1.00  0.00    -0.269 OA
BRANCH  32  35
ATOM     35  C   UNL     1       4.633   2.994  -2.504  1.00  0.00     0.039 A 
ATOM     36  C   UNL     1       5.627   3.722  -3.164  1.00  0.00     0.014 A 
ATOM     37  C   UNL     1       3.291   3.356  -2.635  1.00  0.00     0.014 A 
ATOM     38  C   UNL     1       5.262   4.719  -4.072  1.00  0.00     0.010 A 
ATOM     39  C   UNL     1       2.926   4.301  -3.590  1.00  0.00     0.010 A 
ATOM     40  C   UNL     1       3.906   4.959  -4.349  1.00  0.00    -0.014 A 
BRANCH  40  41
ATOM     41  C   UNL     1       3.487   5.803  -5.498  1.00  0.00     0.031 A 
ATOM     42  C   UNL     1       2.692   7.057  -5.286  1.00  0.00     0.074 A 
ATOM     43  C   UNL     1       3.732   5.368  -6.751  1.00  0.00     0.049 A 
ATOM     44  N   UNL     1       2.144   7.847  -6.175  1.00  0.00    -0.248 NA
ATOM     45  C   UNL     1       2.465   7.464  -3.893  1.00  0.00     0.031 C 
ATOM     46  C   UNL     1       4.458   4.144  -7.096  1.00  0.00     0.029 A 
ATOM     47  N   UNL     1       3.383   5.899  -7.968  1.00  0.00    -0.354 N 
ATOM     48  C   UNL     1       1.496   8.837  -5.450  1.00  0.00     0.074 A 
ATOM     49  C   UNL     1       1.683   8.523  -4.048  1.00  0.00     0.031 C 
ATOM     50  C   UNL     1       4.524   4.032  -8.431  1.00  0.00     0.029 A 
ATOM     51  C   UNL     1       3.803   5.145  -9.038  1.00  0.00     0.049 A 
ATOM     52  H   UNL     1       2.880   6.739  -8.065  1.00  0.00     0.167 HD
ATOM     53  C   UNL     1       0.822   9.918  -5.910  1.00  0.00     0.037 A 
ATOM     54  C   UNL     1       3.616   5.320 -10.359  1.00  0.00     0.037 A 
ATOM     55  C   UNL     1       0.646  10.236  -7.304  1.00  0.00     0.049 A 
ATOM     56  C   UNL     1       2.815   6.494 -10.843  1.00  0.00     0.074 A 
ATOM     57  C   UNL     1       0.046  11.350  -7.866  1.00  0.00     0.029 A 
ATOM     58  N   UNL     1       1.058   9.431  -8.355  1.00  0.00    -0.354 N 
ATOM     59  N   UNL     1       2.264   7.459 -10.149  1.00  0.00    -0.248 NA
ATOM     60  C   UNL     1       2.597   6.593 -12.293  1.00  0.00     0.031 C 
ATOM     61  C   UNL     1       0.054  11.196  -9.258  1.00  0.00     0.029 A 
ATOM     62  C   UNL     1       0.693  10.005  -9.563  1.00  0.00     0.049 A 
ATOM     63  H   UNL     1       1.539   8.578  -8.258  1.00  0.00     0.167 HD
ATOM     64  C   UNL     1       1.650   8.290 -11.075  1.00  0.00     0.074 A 
ATOM     65  C   UNL     1       1.904   7.721 -12.383  1.00  0.00     0.031 C 
ATOM     66  C   UNL     1       0.941   9.424 -10.858  1.00  0.00     0.037 A 
BRANCH  53  67
ATOM     67  C   UNL     1       0.219  10.835  -4.886  1.00  0.00     0.057 A 
ATOM     68  C   UNL     1       1.013  11.659  -4.078  1.00  0.00     0.134 A 
ATOM     69  C   UNL     1      -1.168  10.900  -4.712  1.00  0.00     0.134 A 
ATOM     70  F   UNL     1       2.350  11.636  -4.189  1.00  0.00    -0.206 F 
ATOM     71  C   UNL     1       0.450  12.490  -3.108  1.00  0.00     0.040 A 
ATOM     72  C   UNL     1      -1.744  11.746  -3.762  1.00  0.00     0.040 A 
ATOM     73  F   UNL     1      -1.986  10.144  -5.458  1.00  0.00    -0.206 F 
ATOM     74  C   UNL     1      -0.933  12.537  -2.950  1.00  0.00     0.006 A 
ENDBRANCH  53  67
BRANCH  54  75
ATOM     75  C   UNL     1       4.215   4.364 -11.321  1.00  0.00     0.057 A 
ATOM     76  C   UNL     1       5.317   4.734 -12.101  1.00  0.00     0.134 A 
ATOM     77  C   UNL     1       3.721   3.063 -11.475  1.00  0.00     0.134 A 
ATOM     78  F   UNL     1       5.820   5.973 -12.010  1.00  0.00    -0.206 F 
ATOM     79  C   UNL     1       5.905   3.846 -13.002  1.00  0.00     0.040 A 
ATOM     80  C   UNL     1       4.311   2.159 -12.358  1.00  0.00     0.040 A 
ATOM     81  F   UNL     1       2.670   2.648 -10.752  1.00  0.00    -0.206 F 
ATOM     82  C   UNL     1       5.405   2.551 -13.128  1.00  0.00     0.006 A 
ENDBRANCH  54  75
BRANCH  66  83
ATOM     83  C   UNL     1       0.395  10.131 -12.062  1.00  0.00     0.057 A 
ATOM     84  C   UNL     1      -0.720   9.644 -12.755  1.00  0.00     0.134 A 
ATOM     85  C   UNL     1       0.963  11.331 -12.508  1.00  0.00     0.134 A 
ATOM     86  F   UNL     1      -1.298   8.491 -12.389  1.00  0.00    -0.206 F 
ATOM     87  C   UNL     1      -1.246  10.322 -13.857  1.00  0.00     0.040 A 
ATOM     88  C   UNL     1       0.434  12.028 -13.595  1.00  0.00     0.040 A 
ATOM     89  F   UNL     1       2.031  11.851 -11.885  1.00  0.00    -0.206 F 
ATOM     90  C   UNL     1      -0.672  11.522 -14.274  1.00  0.00     0.006 A 
ENDBRANCH  66  83
ENDBRANCH  40  41
ENDBRANCH  32  35
ENDBRANCH  30  31
ENDBRANCH  29  30
ENDBRANCH   1  29
TORSDOF 16
