REMARK SMILES Cc1nc(-c2ccco2)nc(S)c1C(=O)NCCCCNC(=O)c1ccc(-c2c3nc(c(-c4c(F)cccc4F)c4ccc([nH]4)c(-c4c(F)cccc4F)c4nc(c(-c5c(F)cccc5F)c5ccc2[nH]5)C=C4)C=C3)cc1
REMARK SMILES IDX 19 1 18 2 17 3 16 4 14 5 15 6 13 8 1 9 2 10 3 11 4 12 11 13
REMARK SMILES IDX 10 14 5 15 6 16 9 17 7 18 8 19 12 20 20 22 21 23 22 24 23 26
REMARK SMILES IDX 24 27 25 28 77 29 26 30 76 31 27 32 28 33 29 34 70 35 30 36
REMARK SMILES IDX 75 37 69 38 71 39 31 40 74 41 68 42 67 43 32 45 58 46 41 47
REMARK SMILES IDX 57 48 42 49 45 50 56 51 72 52 43 53 44 54 55 56 73 57 46 58
REMARK SMILES IDX 33 59 34 60 39 61 35 62 36 63 38 64 40 65 37 66 59 67 60 68
REMARK SMILES IDX 65 69 61 70 62 71 64 72 66 73 63 74 47 75 48 76 53 77 49 78
REMARK SMILES IDX 50 79 52 80 54 81 51 82
REMARK H PARENT 16 7 12 21 21 25 71 44 45 55
REMARK Flexibility Score: inf
ROOT
ATOM      1  C   UNL     1      -1.259   3.448  -1.175  1.00  0.00     0.023 C 
ENDROOT
BRANCH   1   2
ATOM      2  C   UNL     1      -1.410   1.927  -1.221  1.00  0.00     0.023 C 
BRANCH   2   3
ATOM      3  C   UNL     1      -0.463   1.127  -0.331  1.00  0.00     0.116 C 
BRANCH   3   4
ATOM      4  N   UNL     1      -0.454   1.537   1.062  1.00  0.00    -0.352 N 
ATOM      5  C   UNL     1      -0.107   0.811   2.176  1.00  0.00     0.255 C 
ATOM      6  O   UNL     1      -0.050   1.361   3.272  1.00  0.00    -0.269 OA
ATOM      7  H   UNL     1      -0.737   2.465   1.232  1.00  0.00     0.163 HD
BRANCH   5   8
ATOM      8  C   UNL     1       0.149  -0.632   2.087  1.00  0.00     0.093 A 
ATOM      9  C   UNL     1       2.267  -0.362   0.696  1.00  0.00     0.068 C 
ATOM     10  C   UNL     1       1.227  -1.174   1.405  1.00  0.00     0.055 A 
ATOM     11  N   UNL     1       1.412  -2.510   1.313  1.00  0.00    -0.230 NA
ATOM     12  C   UNL     1       0.533  -3.303   1.949  1.00  0.00     0.196 A 
ATOM     13  C   UNL     1      -0.665  -1.534   2.763  1.00  0.00     0.110 A 
ATOM     14  N   UNL     1      -0.506  -2.874   2.677  1.00  0.00    -0.218 NA
BRANCH  12  15
ATOM     15  C   UNL     1       0.682  -4.739   1.797  1.00  0.00     0.171 A 
ATOM     16  C   UNL     1      -0.167  -5.815   1.982  1.00  0.00     0.054 A 
ATOM     17  O   UNL     1       1.906  -5.195   1.381  1.00  0.00    -0.461 OA
ATOM     18  C   UNL     1       0.570  -6.979   1.651  1.00  0.00     0.043 A 
ATOM     19  C   UNL     1       1.828  -6.548   1.303  1.00  0.00     0.196 A 
ENDBRANCH  12  15
BRANCH  13  20
ATOM     20  S   UNL     1      -2.038  -1.048   3.799  1.00  0.00    -0.123 SA
ATOM     21  H   UNL     1      -2.631  -2.158   4.316  1.00  0.00     0.110 HD
ENDBRANCH  13  20
ENDBRANCH   5   8
ENDBRANCH   3   4
ENDBRANCH   2   3
ENDBRANCH   1   2
BRANCH   1  22
ATOM     22  C   UNL     1       0.166   3.994  -1.189  1.00  0.00     0.116 C 
BRANCH  22  23
ATOM     23  N   UNL     1       0.880   3.758  -2.435  1.00  0.00    -0.352 N 
ATOM     24  C   UNL     1       1.295   4.635  -3.411  1.00  0.00     0.251 C 
ATOM     25  H   UNL     1       1.104   2.815  -2.608  1.00  0.00     0.163 HD
ATOM     26  O   UNL     1       1.826   4.204  -4.432  1.00  0.00    -0.269 OA
BRANCH  24  27
ATOM     27  C   UNL     1       1.054   6.089  -3.270  1.00  0.00     0.039 A 
ATOM     28  C   UNL     1       1.312   6.753  -2.073  1.00  0.00     0.014 A 
ATOM     29  C   UNL     1       0.521   6.795  -4.354  1.00  0.00     0.014 A 
ATOM     30  C   UNL     1       0.825   8.042  -1.883  1.00  0.00     0.010 A 
ATOM     31  C   UNL     1       0.128   8.128  -4.194  1.00  0.00     0.010 A 
ATOM     32  C   UNL     1       0.206   8.739  -2.934  1.00  0.00    -0.014 A 
BRANCH  32  33
ATOM     33  C   UNL     1      -0.385  10.080  -2.672  1.00  0.00     0.031 A 
ATOM     34  C   UNL     1      -1.871  10.304  -2.800  1.00  0.00     0.074 A 
ATOM     35  C   UNL     1       0.404  11.079  -2.232  1.00  0.00     0.049 A 
ATOM     36  N   UNL     1      -2.565  11.391  -2.561  1.00  0.00    -0.248 NA
ATOM     37  C   UNL     1      -2.688   9.167  -3.254  1.00  0.00     0.031 C 
ATOM     38  C   UNL     1       1.854  10.988  -2.049  1.00  0.00     0.029 A 
ATOM     39  N   UNL     1       0.097  12.351  -1.819  1.00  0.00    -0.354 N 
ATOM     40  C   UNL     1      -3.886  11.074  -2.855  1.00  0.00     0.074 A 
ATOM     41  C   UNL     1      -3.898   9.704  -3.316  1.00  0.00     0.031 C 
ATOM     42  C   UNL     1       2.298  12.124  -1.493  1.00  0.00     0.029 A 
ATOM     43  C   UNL     1       1.179  13.048  -1.339  1.00  0.00     0.049 A 
ATOM     44  H   UNL     1      -0.812  12.728  -1.862  1.00  0.00     0.167 HD
ATOM     45  C   UNL     1      -4.991  11.848  -2.736  1.00  0.00     0.037 A 
ATOM     46  C   UNL     1       1.266  14.293  -0.833  1.00  0.00     0.037 A 
ATOM     47  C   UNL     1      -4.989  13.202  -2.246  1.00  0.00     0.049 A 
ATOM     48  C   UNL     1       0.032  15.141  -0.744  1.00  0.00     0.074 A 
ATOM     49  C   UNL     1      -6.064  14.058  -2.079  1.00  0.00     0.029 A 
ATOM     50  N   UNL     1      -3.860  13.892  -1.835  1.00  0.00    -0.354 N 
ATOM     51  N   UNL     1      -1.206  14.829  -1.038  1.00  0.00    -0.248 NA
ATOM     52  C   UNL     1       0.209  16.520  -0.266  1.00  0.00     0.031 C 
ATOM     53  C   UNL     1      -5.580  15.279  -1.598  1.00  0.00     0.029 A 
ATOM     54  C   UNL     1      -4.210  15.169  -1.429  1.00  0.00     0.049 A 
ATOM     55  H   UNL     1      -2.945  13.529  -1.832  1.00  0.00     0.167 HD
ATOM     56  C   UNL     1      -1.957  15.966  -0.775  1.00  0.00     0.074 A 
ATOM     57  C   UNL     1      -1.039  16.970  -0.280  1.00  0.00     0.031 C 
ATOM     58  C   UNL     1      -3.287  16.159  -0.937  1.00  0.00     0.037 A 
BRANCH  45  59
ATOM     59  C   UNL     1      -6.308  11.256  -3.146  1.00  0.00     0.057 A 
ATOM     60  C   UNL     1      -6.969  10.310  -2.353  1.00  0.00     0.134 A 
ATOM     61  C   UNL     1      -6.955  11.691  -4.310  1.00  0.00     0.134 A 
ATOM     62  F   UNL     1      -6.398   9.844  -1.232  1.00  0.00    -0.206 F 
ATOM     63  C   UNL     1      -8.223   9.809  -2.709  1.00  0.00     0.040 A 
ATOM     64  C   UNL     1      -8.217  11.213  -4.665  1.00  0.00     0.040 A 
ATOM     65  F   UNL     1      -6.379  12.602  -5.109  1.00  0.00    -0.206 F 
ATOM     66  C   UNL     1      -8.854  10.267  -3.864  1.00  0.00     0.006 A 
ENDBRANCH  45  59
BRANCH  46  67
ATOM     67  C   UNL     1       2.579  14.800  -0.364  1.00  0.00     0.057 A 
ATOM     68  C   UNL     1       2.837  14.975   1.000  1.00  0.00     0.134 A 
ATOM     69  C   UNL     1       3.615  15.086  -1.261  1.00  0.00     0.134 A 
ATOM     70  F   UNL     1       1.877  14.733   1.905  1.00  0.00    -0.206 F 
ATOM     71  C   UNL     1       4.080  15.416   1.456  1.00  0.00     0.040 A 
ATOM     72  C   UNL     1       4.869  15.505  -0.818  1.00  0.00     0.040 A 
ATOM     73  F   UNL     1       3.429  14.933  -2.580  1.00  0.00    -0.206 F 
ATOM     74  C   UNL     1       5.104  15.673   0.546  1.00  0.00     0.006 A 
ENDBRANCH  46  67
BRANCH  58  75
ATOM     75  C   UNL     1      -3.840  17.501  -0.567  1.00  0.00     0.057 A 
ATOM     76  C   UNL     1      -3.662  18.618  -1.391  1.00  0.00     0.134 A 
ATOM     77  C   UNL     1      -4.614  17.662   0.589  1.00  0.00     0.134 A 
ATOM     78  F   UNL     1      -2.922  18.529  -2.506  1.00  0.00    -0.206 F 
ATOM     79  C   UNL     1      -4.229  19.854  -1.073  1.00  0.00     0.040 A 
ATOM     80  C   UNL     1      -5.202  18.886   0.907  1.00  0.00     0.040 A 
ATOM     81  F   UNL     1      -4.829  16.626   1.415  1.00  0.00    -0.206 F 
ATOM     82  C   UNL     1      -5.008  19.987   0.075  1.00  0.00     0.006 A 
ENDBRANCH  58  75
ENDBRANCH  32  33
ENDBRANCH  24  27
ENDBRANCH  22  23
ENDBRANCH   1  22
TORSDOF 13
