REMARK SMILES O=C(NCCCCNC(=O)c1cn(C2C[NH+](CC[NH+]3CCCCC3)C2)nn1)c1ccc(-c2c3nc(c(-c4c(F)cccc4F)c4ccc([nH]4)c(-c4c(F)cccc4F)c4nc(c(-c5c(F)cccc5F)c5ccc2[nH]5)C=C4)C=C3)cc1
REMARK SMILES IDX 6 1 5 2 4 3 3 4 1 5 2 6 28 8 29 9 81 10 30 11 80 12 31 13
REMARK SMILES IDX 32 14 33 15 74 16 34 17 79 18 73 19 75 20 35 21 78 22 72 23
REMARK SMILES IDX 71 24 36 26 62 27 45 28 61 29 46 30 49 31 60 32 76 33 47 34
REMARK SMILES IDX 48 35 59 37 77 38 50 39 37 40 38 41 43 42 39 43 40 44 42 45
REMARK SMILES IDX 44 46 41 47 63 48 64 49 69 50 65 51 66 52 68 53 70 54 67 55
REMARK SMILES IDX 51 56 52 57 57 58 53 59 54 60 56 61 58 62 55 63 7 64 8 65
REMARK SMILES IDX 9 66 10 68 11 69 12 70 27 71 13 72 26 73 14 74 15 75 25 76
REMARK SMILES IDX 16 77 17 79 18 80 19 81 20 82 24 83 21 85 23 86 22 87
REMARK H PARENT 3 7 75 25 49 36 8 67 16 78 19 84
REMARK Flexibility Score: inf
ROOT
ATOM      1  C   UNL     1       4.556   1.872  -2.952  1.00  0.00     0.023 C 
ENDROOT
BRANCH   1   2
ATOM      2  C   UNL     1       5.003   0.703  -2.066  1.00  0.00     0.023 C 
BRANCH   2   3
ATOM      3  C   UNL     1       4.714   0.866  -0.574  1.00  0.00     0.116 C 
BRANCH   3   4
ATOM      4  N   UNL     1       3.312   1.039  -0.260  1.00  0.00    -0.352 N 
ATOM      5  O   UNL     1       1.248   0.714   0.442  1.00  0.00    -0.269 OA
ATOM      6  C   UNL     1       2.282   0.186   0.024  1.00  0.00     0.251 C 
ATOM      7  H   UNL     1       3.039   1.984  -0.247  1.00  0.00     0.163 HD
BRANCH   6   8
ATOM      8  C   UNL     1       2.291  -1.286  -0.200  1.00  0.00     0.039 A 
ATOM      9  C   UNL     1       3.383  -2.045  -0.625  1.00  0.00     0.014 A 
ATOM     10  C   UNL     1       1.053  -1.935  -0.023  1.00  0.00     0.014 A 
ATOM     11  C   UNL     1       3.221  -3.386  -0.960  1.00  0.00     0.010 A 
ATOM     12  C   UNL     1       0.887  -3.276  -0.345  1.00  0.00     0.010 A 
ATOM     13  C   UNL     1       1.966  -3.988  -0.857  1.00  0.00    -0.014 A 
BRANCH  13  14
ATOM     14  C   UNL     1       1.855  -5.410  -1.169  1.00  0.00     0.031 A 
ATOM     15  C   UNL     1       2.598  -6.309  -0.237  1.00  0.00     0.074 A 
ATOM     16  C   UNL     1       1.033  -5.893  -2.122  1.00  0.00     0.049 A 
ATOM     17  N   UNL     1       3.529  -7.164  -0.512  1.00  0.00    -0.248 NA
ATOM     18  C   UNL     1       2.337  -6.157   1.204  1.00  0.00     0.031 C 
ATOM     19  C   UNL     1       0.031  -5.164  -2.905  1.00  0.00     0.029 A 
ATOM     20  N   UNL     1       0.851  -7.183  -2.526  1.00  0.00    -0.354 N 
ATOM     21  C   UNL     1       3.848  -7.789   0.695  1.00  0.00     0.074 A 
ATOM     22  C   UNL     1       3.191  -7.035   1.728  1.00  0.00     0.031 C 
ATOM     23  C   UNL     1      -0.794  -6.049  -3.510  1.00  0.00     0.029 A 
ATOM     24  C   UNL     1      -0.304  -7.395  -3.266  1.00  0.00     0.049 A 
ATOM     25  H   UNL     1       1.486  -7.904  -2.310  1.00  0.00     0.167 HD
ATOM     26  C   UNL     1       4.453  -9.009   0.730  1.00  0.00     0.037 A 
ATOM     27  C   UNL     1      -0.851  -8.593  -3.595  1.00  0.00     0.037 A 
ATOM     28  C   UNL     1       5.129  -9.292  -0.509  1.00  0.00     0.049 A 
ATOM     29  C   UNL     1       0.199  -9.628  -3.435  1.00  0.00     0.074 A 
ATOM     30  C   UNL     1       6.154  -8.699  -1.220  1.00  0.00     0.029 A 
ATOM     31  N   UNL     1       4.535 -10.166  -1.384  1.00  0.00    -0.354 N 
ATOM     32  N   UNL     1       1.246  -9.730  -4.204  1.00  0.00    -0.248 NA
ATOM     33  C   UNL     1       0.307 -10.282  -2.140  1.00  0.00     0.031 C 
ATOM     34  C   UNL     1       5.796  -8.868  -2.590  1.00  0.00     0.029 A 
ATOM     35  C   UNL     1       4.609  -9.598  -2.627  1.00  0.00     0.049 A 
ATOM     36  H   UNL     1       4.134 -11.037  -1.161  1.00  0.00     0.167 HD
ATOM     37  C   UNL     1       2.280 -10.069  -3.345  1.00  0.00     0.074 A 
ATOM     38  C   UNL     1       1.627 -10.478  -2.103  1.00  0.00     0.031 C 
ATOM     39  C   UNL     1       3.571  -9.719  -3.621  1.00  0.00     0.037 A 
BRANCH  26  40
ATOM     40  C   UNL     1       4.103 -10.103   1.719  1.00  0.00     0.057 A 
ATOM     41  C   UNL     1       4.800 -11.326   1.658  1.00  0.00     0.134 A 
ATOM     42  C   UNL     1       2.923 -10.133   2.491  1.00  0.00     0.134 A 
ATOM     43  F   UNL     1       5.947 -11.433   0.970  1.00  0.00    -0.206 F 
ATOM     44  C   UNL     1       4.297 -12.509   2.213  1.00  0.00     0.040 A 
ATOM     45  C   UNL     1       2.438 -11.299   3.090  1.00  0.00     0.040 A 
ATOM     46  F   UNL     1       2.123  -9.071   2.632  1.00  0.00    -0.206 F 
ATOM     47  C   UNL     1       3.102 -12.502   2.917  1.00  0.00     0.006 A 
ENDBRANCH  26  40
BRANCH  27  48
ATOM     48  C   UNL     1      -2.284  -8.949  -3.721  1.00  0.00     0.057 A 
ATOM     49  C   UNL     1      -2.692 -10.123  -4.372  1.00  0.00     0.134 A 
ATOM     50  C   UNL     1      -3.269  -8.292  -2.964  1.00  0.00     0.134 A 
ATOM     51  F   UNL     1      -1.815 -10.849  -5.080  1.00  0.00    -0.206 F 
ATOM     52  C   UNL     1      -3.998 -10.622  -4.262  1.00  0.00     0.040 A 
ATOM     53  C   UNL     1      -4.577  -8.774  -2.851  1.00  0.00     0.040 A 
ATOM     54  F   UNL     1      -2.971  -7.208  -2.233  1.00  0.00    -0.206 F 
ATOM     55  C   UNL     1      -4.943  -9.951  -3.491  1.00  0.00     0.006 A 
ENDBRANCH  27  48
BRANCH  39  56
ATOM     56  C   UNL     1       3.878  -9.175  -4.986  1.00  0.00     0.057 A 
ATOM     57  C   UNL     1       3.362  -7.968  -5.483  1.00  0.00     0.134 A 
ATOM     58  C   UNL     1       4.856  -9.810  -5.758  1.00  0.00     0.134 A 
ATOM     59  F   UNL     1       2.496  -7.237  -4.769  1.00  0.00    -0.206 F 
ATOM     60  C   UNL     1       3.774  -7.441  -6.710  1.00  0.00     0.040 A 
ATOM     61  C   UNL     1       5.301  -9.277  -6.969  1.00  0.00     0.040 A 
ATOM     62  F   UNL     1       5.436 -10.938  -5.318  1.00  0.00    -0.206 F 
ATOM     63  C   UNL     1       4.753  -8.092  -7.453  1.00  0.00     0.006 A 
ENDBRANCH  39  56
ENDBRANCH  13  14
ENDBRANCH   6   8
ENDBRANCH   3   4
ENDBRANCH   2   3
ENDBRANCH   1   2
BRANCH   1  64
ATOM     64  C   UNL     1       5.052   3.256  -2.531  1.00  0.00     0.116 C 
BRANCH  64  65
ATOM     65  N   UNL     1       6.502   3.336  -2.494  1.00  0.00    -0.351 N 
ATOM     66  C   UNL     1       7.350   4.266  -3.061  1.00  0.00     0.273 C 
ATOM     67  H   UNL     1       6.947   2.619  -1.989  1.00  0.00     0.163 HD
ATOM     68  O   UNL     1       8.550   4.029  -3.066  1.00  0.00    -0.267 OA
BRANCH  66  69
ATOM     69  C   UNL     1       6.786   5.482  -3.624  1.00  0.00     0.170 A 
ATOM     70  C   UNL     1       5.841   6.328  -3.079  1.00  0.00     0.145 A 
ATOM     71  N   UNL     1       7.155   5.965  -4.853  1.00  0.00    -0.125 NA
ATOM     72  N   UNL     1       5.568   7.217  -4.082  1.00  0.00    -0.237 N 
ATOM     73  N   UNL     1       6.391   7.013  -5.130  1.00  0.00    -0.066 NA
BRANCH  72  74
ATOM     74  C   UNL     1       4.314   7.863  -4.283  1.00  0.00     0.218 C 
ATOM     75  C   UNL     1       3.304   7.882  -3.115  1.00  0.00     0.296 C 
ATOM     76  C   UNL     1       4.275   9.392  -4.122  1.00  0.00     0.296 C 
ATOM     77  N   UNL     1       2.895   9.236  -3.563  1.00  0.00    -0.326 N 
ATOM     78  H   UNL     1       2.506   9.936  -2.932  1.00  0.00     0.348 HD
BRANCH  77  79
ATOM     79  C   UNL     1       1.792   9.217  -4.560  1.00  0.00     0.324 C 
BRANCH  79  80
ATOM     80  C   UNL     1       1.864   8.848  -6.090  1.00  0.00     0.324 C 
BRANCH  80  81
ATOM     81  N   UNL     1       1.978   7.462  -6.594  1.00  0.00    -0.330 N 
ATOM     82  C   UNL     1       1.559   6.384  -5.710  1.00  0.00     0.262 C 
ATOM     83  C   UNL     1       1.334   7.298  -7.912  1.00  0.00     0.262 C 
ATOM     84  H   UNL     1       2.990   7.355  -6.663  1.00  0.00     0.348 HD
ATOM     85  C   UNL     1       2.085   5.056  -6.255  1.00  0.00     0.062 C 
ATOM     86  C   UNL     1       1.653   5.937  -8.553  1.00  0.00     0.062 C 
ATOM     87  C   UNL     1       1.446   4.763  -7.600  1.00  0.00     0.012 C 
ENDBRANCH  80  81
ENDBRANCH  79  80
ENDBRANCH  77  79
ENDBRANCH  72  74
ENDBRANCH  66  69
ENDBRANCH  64  65
ENDBRANCH   1  64
TORSDOF 15
