REMARK SMILES O=C1[NH+]=C(Nc2ccc(C(=O)NCCCCNC(=O)c3ccc(-c4c5nc(c(-c6c(F)cccc6F)c6ccc([nH]6)c(-c6c(F)cccc6F)c6nc(c(-c7c(F)cccc7F)c7ccc4[nH]7)C=C6)C=C5)cc3)c(O)c2)S/C1=C\c1ccc[nH]1
REMARK SMILES IDX 14 1 13 2 12 3 10 4 11 5 9 7 6 8 7 9 76 10 8 11 74 12 5 13
REMARK SMILES IDX 1 14 2 15 3 16 78 17 4 18 77 20 79 21 80 23 81 24 84 25
REMARK SMILES IDX 82 26 83 27 75 29 15 31 16 32 17 33 18 34 19 36 20 37 21 38
REMARK SMILES IDX 73 39 22 40 72 41 23 42 24 43 25 44 66 45 26 46 71 47 65 48
REMARK SMILES IDX 67 49 27 50 70 51 64 52 63 53 28 55 54 56 37 57 53 58 38 59
REMARK SMILES IDX 41 60 52 61 68 62 39 63 40 64 51 66 69 67 42 68 29 69 30 70
REMARK SMILES IDX 35 71 31 72 32 73 34 74 36 75 33 76 55 77 56 78 61 79 57 80
REMARK SMILES IDX 58 81 60 82 62 83 59 84 43 85 44 86 49 87 45 88 46 89 48 90
REMARK SMILES IDX 50 91 47 92
REMARK H PARENT 12 6 3 19 5 22 84 28 75 30 17 35 67 54 41 65
REMARK Flexibility Score: inf
ROOT
ATOM      1  C   UNL     1      -1.254   8.479  -3.632  1.00  0.00     0.023 C 
ENDROOT
BRANCH   1   2
ATOM      2  C   UNL     1      -0.328   8.062  -2.493  1.00  0.00     0.116 C 
BRANCH   2   3
ATOM      3  N   UNL     1      -0.777   8.450  -1.166  1.00  0.00    -0.352 N 
ATOM      4  C   UNL     1      -0.611   7.813   0.043  1.00  0.00     0.255 C 
ATOM      5  O   UNL     1      -1.076   8.332   1.056  1.00  0.00    -0.269 OA
ATOM      6  H   UNL     1      -1.275   9.299  -1.125  1.00  0.00     0.163 HD
BRANCH   4   7
ATOM      7  C   UNL     1       0.059   6.493   0.147  1.00  0.00     0.081 A 
ATOM      8  C   UNL     1       1.031   3.842   0.262  1.00  0.00     0.129 A 
ATOM      9  C   UNL     1      -0.090   4.225   1.004  1.00  0.00     0.053 A 
ATOM     10  C   UNL     1       1.701   4.821  -0.481  1.00  0.00     0.098 A 
ATOM     11  C   UNL     1      -0.570   5.537   0.955  1.00  0.00     0.022 A 
ATOM     12  C   UNL     1       1.244   6.141  -0.502  1.00  0.00     0.132 A 
BRANCH   8  13
ATOM     13  N   UNL     1       1.450   2.510   0.170  1.00  0.00    -0.234 N 
ATOM     14  O   UNL     1      -2.279  -0.285  -0.045  1.00  0.00    -0.240 OA
ATOM     15  C   UNL     1      -1.100   0.034   0.046  1.00  0.00     0.346 C 
ATOM     16  N   UNL     1      -0.637   1.327   0.118  1.00  0.00    -0.199 N 
ATOM     17  C   UNL     1       0.015  -0.956   0.081  1.00  0.00     0.111 C 
ATOM     18  C   UNL     1       0.651   1.407   0.158  1.00  0.00     0.322 C 
ATOM     19  H   UNL     1      -1.229   2.113   0.137  1.00  0.00     0.316 HD
ATOM     20  S   UNL     1       1.513  -0.115   0.144  1.00  0.00     0.006 SA
ATOM     21  C   UNL     1      -0.201  -2.277   0.039  1.00  0.00     0.050 C 
ATOM     22  H   UNL     1       2.420   2.355   0.107  1.00  0.00     0.313 HD
BRANCH  21  23
ATOM     23  C   UNL     1       0.847  -3.223   0.136  1.00  0.00     0.039 A 
ATOM     24  C   UNL     1       1.849  -3.444   1.060  1.00  0.00     0.027 A 
ATOM     25  N   UNL     1       0.979  -4.169  -0.852  1.00  0.00    -0.362 N 
ATOM     26  C   UNL     1       2.631  -4.527   0.596  1.00  0.00     0.020 A 
ATOM     27  C   UNL     1       2.078  -4.950  -0.592  1.00  0.00     0.083 A 
ATOM     28  H   UNL     1       0.379  -4.272  -1.625  1.00  0.00     0.166 HD
ENDBRANCH  21  23
ENDBRANCH   8  13
BRANCH  12  29
ATOM     29  O   UNL     1       2.044   7.029  -1.166  1.00  0.00    -0.507 OA
ATOM     30  H   UNL     1       1.798   7.932  -1.219  1.00  0.00     0.293 HD
ENDBRANCH  12  29
ENDBRANCH   4   7
ENDBRANCH   2   3
ENDBRANCH   1   2
BRANCH   1  31
ATOM     31  C   UNL     1      -1.546   9.973  -3.760  1.00  0.00     0.023 C 
BRANCH  31  32
ATOM     32  C   UNL     1      -0.341  10.903  -3.687  1.00  0.00     0.116 C 
BRANCH  32  33
ATOM     33  N   UNL     1       0.635  10.683  -4.745  1.00  0.00    -0.352 N 
ATOM     34  C   UNL     1       1.059  11.525  -5.748  1.00  0.00     0.251 C 
ATOM     35  H   UNL     1       1.057   9.794  -4.743  1.00  0.00     0.163 HD
ATOM     36  O   UNL     1       1.820  11.110  -6.618  1.00  0.00    -0.269 OA
BRANCH  34  37
ATOM     37  C   UNL     1       0.567  12.918  -5.808  1.00  0.00     0.039 A 
ATOM     38  C   UNL     1       0.111  13.424  -7.028  1.00  0.00     0.014 A 
ATOM     39  C   UNL     1       0.525  13.715  -4.662  1.00  0.00     0.014 A 
ATOM     40  C   UNL     1      -0.477  14.690  -7.076  1.00  0.00     0.010 A 
ATOM     41  C   UNL     1      -0.151  14.931  -4.692  1.00  0.00     0.010 A 
ATOM     42  C   UNL     1      -0.664  15.431  -5.898  1.00  0.00    -0.014 A 
BRANCH  42  43
ATOM     43  C   UNL     1      -1.402  16.723  -5.903  1.00  0.00     0.031 A 
ATOM     44  C   UNL     1      -0.720  17.988  -5.457  1.00  0.00     0.074 A 
ATOM     45  C   UNL     1      -2.708  16.747  -6.237  1.00  0.00     0.049 A 
ATOM     46  N   UNL     1      -1.215  19.192  -5.323  1.00  0.00    -0.248 NA
ATOM     47  C   UNL     1       0.700  17.879  -5.084  1.00  0.00     0.031 C 
ATOM     48  C   UNL     1      -3.503  15.582  -6.634  1.00  0.00     0.029 A 
ATOM     49  N   UNL     1      -3.603  17.788  -6.284  1.00  0.00    -0.354 N 
ATOM     50  C   UNL     1      -0.176  19.976  -4.837  1.00  0.00     0.074 A 
ATOM     51  C   UNL     1       0.958  19.100  -4.640  1.00  0.00     0.031 C 
ATOM     52  C   UNL     1      -4.755  15.977  -6.911  1.00  0.00     0.029 A 
ATOM     53  C   UNL     1      -4.868  17.411  -6.666  1.00  0.00     0.049 A 
ATOM     54  H   UNL     1      -3.360  18.716  -6.065  1.00  0.00     0.167 HD
ATOM     55  C   UNL     1      -0.159  21.309  -4.599  1.00  0.00     0.037 A 
ATOM     56  C   UNL     1      -5.996  18.136  -6.795  1.00  0.00     0.037 A 
ATOM     57  C   UNL     1      -1.284  22.182  -4.813  1.00  0.00     0.049 A 
ATOM     58  C   UNL     1      -5.956  19.613  -6.510  1.00  0.00     0.074 A 
ATOM     59  C   UNL     1      -1.348  23.556  -4.662  1.00  0.00     0.029 A 
ATOM     60  N   UNL     1      -2.544  21.765  -5.215  1.00  0.00    -0.354 N 
ATOM     61  N   UNL     1      -4.946  20.355  -6.126  1.00  0.00    -0.248 NA
ATOM     62  C   UNL     1      -7.213  20.356  -6.684  1.00  0.00     0.031 C 
ATOM     63  C   UNL     1      -2.662  23.962  -4.913  1.00  0.00     0.029 A 
ATOM     64  C   UNL     1      -3.400  22.851  -5.287  1.00  0.00     0.049 A 
ATOM     65  H   UNL     1      -2.793  20.834  -5.418  1.00  0.00     0.167 HD
ATOM     66  C   UNL     1      -5.434  21.653  -6.043  1.00  0.00     0.074 A 
ATOM     67  C   UNL     1      -6.828  21.599  -6.431  1.00  0.00     0.031 C 
ATOM     68  C   UNL     1      -4.785  22.787  -5.681  1.00  0.00     0.037 A 
BRANCH  55  69
ATOM     69  C   UNL     1       1.118  21.905  -4.076  1.00  0.00     0.057 A 
ATOM     70  C   UNL     1       2.277  21.981  -4.860  1.00  0.00     0.134 A 
ATOM     71  C   UNL     1       1.180  22.437  -2.782  1.00  0.00     0.134 A 
ATOM     72  F   UNL     1       2.292  21.481  -6.105  1.00  0.00    -0.206 F 
ATOM     73  C   UNL     1       3.460  22.535  -4.365  1.00  0.00     0.040 A 
ATOM     74  C   UNL     1       2.347  23.024  -2.288  1.00  0.00     0.040 A 
ATOM     75  F   UNL     1       0.106  22.405  -1.979  1.00  0.00    -0.206 F 
ATOM     76  C   UNL     1       3.494  23.066  -3.078  1.00  0.00     0.006 A 
ENDBRANCH  55  69
BRANCH  56  77
ATOM     77  C   UNL     1      -7.258  17.481  -7.227  1.00  0.00     0.057 A 
ATOM     78  C   UNL     1      -7.828  17.759  -8.476  1.00  0.00     0.134 A 
ATOM     79  C   UNL     1      -7.931  16.571  -6.403  1.00  0.00     0.134 A 
ATOM     80  F   UNL     1      -7.242  18.636  -9.305  1.00  0.00    -0.206 F 
ATOM     81  C   UNL     1      -9.030  17.174  -8.880  1.00  0.00     0.040 A 
ATOM     82  C   UNL     1      -9.117  15.956  -6.805  1.00  0.00     0.040 A 
ATOM     83  F   UNL     1      -7.435  16.254  -5.198  1.00  0.00    -0.206 F 
ATOM     84  C   UNL     1      -9.675  16.265  -8.044  1.00  0.00     0.006 A 
ENDBRANCH  56  77
BRANCH  68  85
ATOM     85  C   UNL     1      -5.561  24.073  -5.729  1.00  0.00     0.057 A 
ATOM     86  C   UNL     1      -6.581  24.362  -4.815  1.00  0.00     0.134 A 
ATOM     87  C   UNL     1      -5.248  25.054  -6.680  1.00  0.00     0.134 A 
ATOM     88  F   UNL     1      -6.939  23.462  -3.887  1.00  0.00    -0.206 F 
ATOM     89  C   UNL     1      -7.280  25.570  -4.861  1.00  0.00     0.040 A 
ATOM     90  C   UNL     1      -5.917  26.278  -6.715  1.00  0.00     0.040 A 
ATOM     91  F   UNL     1      -4.274  24.847  -7.579  1.00  0.00    -0.206 F 
ATOM     92  C   UNL     1      -6.942  26.535  -5.807  1.00  0.00     0.006 A 
ENDBRANCH  68  85
ENDBRANCH  42  43
ENDBRANCH  34  37
ENDBRANCH  32  33
ENDBRANCH  31  32
ENDBRANCH   1  31
TORSDOF 14
