REMARK SMILES O=C(NCCCCNC(=O)[C@@H]1[C@@H](C(=O)Nc2cccc([N+](=O)[O-])c2)[C@@H]2C=C[C@H]1O2)c1ccc(-c2c3nc(c(-c4c(F)cccc4F)c4ccc([nH]4)c(-c4c(F)cccc4F)c4nc(c(-c5c(F)cccc5F)c5ccc2[nH]5)C=C4)C=C3)cc1
REMARK SMILES IDX 6 1 5 2 4 3 3 4 1 5 2 6 30 8 31 9 83 10 32 11 82 12 33 13
REMARK SMILES IDX 34 14 35 15 76 16 36 17 81 18 75 19 77 20 37 21 80 22 74 23
REMARK SMILES IDX 73 24 38 26 64 27 47 28 63 29 48 30 51 31 62 32 78 33 49 34
REMARK SMILES IDX 50 35 61 37 79 38 52 39 39 40 40 41 45 42 41 43 42 44 44 45
REMARK SMILES IDX 46 46 43 47 65 48 66 49 71 50 67 51 68 52 70 53 72 54 69 55
REMARK SMILES IDX 53 56 54 57 59 58 55 59 56 60 58 61 60 62 57 63 7 64 8 65
REMARK SMILES IDX 9 66 10 68 11 69 12 70 28 71 25 72 27 73 29 74 26 75 13 76
REMARK SMILES IDX 14 77 15 78 16 80 17 81 24 82 18 83 20 84 19 85 21 86 22 87
REMARK SMILES IDX 23 88
REMARK H PARENT 3 7 77 25 51 36 8 67 15 79
REMARK Flexibility Score: inf
ROOT
ATOM      1  C   UNL     1       4.945  -1.691  -3.054  1.00  0.00     0.023 C 
ENDROOT
BRANCH   1   2
ATOM      2  C   UNL     1       5.252  -1.736  -1.562  1.00  0.00     0.023 C 
BRANCH   2   3
ATOM      3  C   UNL     1       4.691  -0.569  -0.762  1.00  0.00     0.116 C 
BRANCH   3   4
ATOM      4  N   UNL     1       3.244  -0.420  -0.849  1.00  0.00    -0.352 N 
ATOM      5  O   UNL     1       1.172   0.015  -0.035  1.00  0.00    -0.269 OA
ATOM      6  C   UNL     1       2.378   0.011   0.138  1.00  0.00     0.251 C 
ATOM      7  H   UNL     1       2.834  -0.655  -1.713  1.00  0.00     0.163 HD
BRANCH   6   8
ATOM      8  C   UNL     1       2.951   0.419   1.439  1.00  0.00     0.039 A 
ATOM      9  C   UNL     1       4.039   1.291   1.478  1.00  0.00     0.014 A 
ATOM     10  C   UNL     1       2.458  -0.155   2.612  1.00  0.00     0.014 A 
ATOM     11  C   UNL     1       4.752   1.436   2.658  1.00  0.00     0.010 A 
ATOM     12  C   UNL     1       3.118   0.078   3.822  1.00  0.00     0.010 A 
ATOM     13  C   UNL     1       4.299   0.834   3.845  1.00  0.00    -0.014 A 
BRANCH  13  14
ATOM     14  C   UNL     1       5.072   1.047   5.093  1.00  0.00     0.031 A 
ATOM     15  C   UNL     1       5.736  -0.098   5.808  1.00  0.00     0.074 A 
ATOM     16  C   UNL     1       5.224   2.307   5.545  1.00  0.00     0.049 A 
ATOM     17  N   UNL     1       6.470  -0.074   6.893  1.00  0.00    -0.248 NA
ATOM     18  C   UNL     1       5.548  -1.444   5.244  1.00  0.00     0.031 C 
ATOM     19  C   UNL     1       4.623   3.495   4.934  1.00  0.00     0.029 A 
ATOM     20  N   UNL     1       5.953   2.804   6.592  1.00  0.00    -0.354 N 
ATOM     21  C   UNL     1       6.803  -1.396   7.159  1.00  0.00     0.074 A 
ATOM     22  C   UNL     1       6.183  -2.202   6.129  1.00  0.00     0.031 C 
ATOM     23  C   UNL     1       5.064   4.588   5.572  1.00  0.00     0.029 A 
ATOM     24  C   UNL     1       5.917   4.174   6.679  1.00  0.00     0.049 A 
ATOM     25  H   UNL     1       6.454   2.235   7.221  1.00  0.00     0.167 HD
ATOM     26  C   UNL     1       7.560  -1.889   8.170  1.00  0.00     0.037 A 
ATOM     27  C   UNL     1       6.494   5.008   7.561  1.00  0.00     0.037 A 
ATOM     28  C   UNL     1       8.201  -1.079   9.173  1.00  0.00     0.049 A 
ATOM     29  C   UNL     1       7.329   4.435   8.665  1.00  0.00     0.074 A 
ATOM     30  C   UNL     1       9.011  -1.483  10.221  1.00  0.00     0.029 A 
ATOM     31  N   UNL     1       8.110   0.303   9.251  1.00  0.00    -0.354 N 
ATOM     32  N   UNL     1       7.633   3.183   8.902  1.00  0.00    -0.248 NA
ATOM     33  C   UNL     1       7.889   5.388   9.631  1.00  0.00     0.031 C 
ATOM     34  C   UNL     1       9.384  -0.348  10.951  1.00  0.00     0.029 A 
ATOM     35  C   UNL     1       8.836   0.766  10.336  1.00  0.00     0.049 A 
ATOM     36  H   UNL     1       7.604   0.871   8.626  1.00  0.00     0.167 HD
ATOM     37  C   UNL     1       8.421   3.195  10.043  1.00  0.00     0.074 A 
ATOM     38  C   UNL     1       8.570   4.583  10.434  1.00  0.00     0.031 C 
ATOM     39  C   UNL     1       8.965   2.150  10.712  1.00  0.00     0.037 A 
BRANCH  26  40
ATOM     40  C   UNL     1       7.721  -3.379   8.257  1.00  0.00     0.057 A 
ATOM     41  C   UNL     1       8.551  -4.088   7.381  1.00  0.00     0.134 A 
ATOM     42  C   UNL     1       7.077  -4.105   9.268  1.00  0.00     0.134 A 
ATOM     43  F   UNL     1       9.187  -3.455   6.384  1.00  0.00    -0.206 F 
ATOM     44  C   UNL     1       8.724  -5.470   7.497  1.00  0.00     0.040 A 
ATOM     45  C   UNL     1       7.258  -5.482   9.407  1.00  0.00     0.040 A 
ATOM     46  F   UNL     1       6.272  -3.485  10.144  1.00  0.00    -0.206 F 
ATOM     47  C   UNL     1       8.081  -6.169   8.518  1.00  0.00     0.006 A 
ENDBRANCH  26  40
BRANCH  27  48
ATOM     48  C   UNL     1       6.287   6.470   7.429  1.00  0.00     0.057 A 
ATOM     49  C   UNL     1       7.325   7.313   7.019  1.00  0.00     0.134 A 
ATOM     50  C   UNL     1       5.037   7.052   7.673  1.00  0.00     0.134 A 
ATOM     51  F   UNL     1       8.547   6.814   6.785  1.00  0.00    -0.206 F 
ATOM     52  C   UNL     1       7.129   8.685   6.861  1.00  0.00     0.040 A 
ATOM     53  C   UNL     1       4.820   8.418   7.494  1.00  0.00     0.040 A 
ATOM     54  F   UNL     1       4.000   6.293   8.058  1.00  0.00    -0.206 F 
ATOM     55  C   UNL     1       5.870   9.239   7.090  1.00  0.00     0.006 A 
ENDBRANCH  27  48
BRANCH  39  56
ATOM     56  C   UNL     1       9.776   2.480  11.927  1.00  0.00     0.057 A 
ATOM     57  C   UNL     1       9.171   2.871  13.128  1.00  0.00     0.134 A 
ATOM     58  C   UNL     1      11.173   2.397  11.898  1.00  0.00     0.134 A 
ATOM     59  F   UNL     1       7.837   2.984  13.212  1.00  0.00    -0.206 F 
ATOM     60  C   UNL     1       9.931   3.191  14.254  1.00  0.00     0.040 A 
ATOM     61  C   UNL     1      11.942   2.695  13.023  1.00  0.00     0.040 A 
ATOM     62  F   UNL     1      11.811   2.025  10.778  1.00  0.00    -0.206 F 
ATOM     63  C   UNL     1      11.321   3.099  14.204  1.00  0.00     0.006 A 
ENDBRANCH  39  56
ENDBRANCH  13  14
ENDBRANCH   6   8
ENDBRANCH   3   4
ENDBRANCH   2   3
ENDBRANCH   1   2
BRANCH   1  64
ATOM     64  C   UNL     1       5.453  -0.444  -3.772  1.00  0.00     0.116 C 
BRANCH  64  65
ATOM     65  N   UNL     1       6.881  -0.514  -4.036  1.00  0.00    -0.356 N 
ATOM     66  C   UNL     1       7.518  -0.883  -5.193  1.00  0.00     0.227 C 
ATOM     67  H   UNL     1       7.467  -0.262  -3.286  1.00  0.00     0.163 HD
ATOM     68  O   UNL     1       8.741  -0.993  -5.188  1.00  0.00    -0.275 OA
BRANCH  66  69
ATOM     69  C   UNL     1       6.661  -1.162  -6.407  1.00  0.00     0.127 C 
ATOM     70  C   UNL     1       7.362  -1.836  -7.610  1.00  0.00     0.127 C 
ATOM     71  C   UNL     1       6.135   0.136  -7.045  1.00  0.00     0.155 C 
ATOM     72  C   UNL     1       7.090  -0.827  -8.741  1.00  0.00     0.155 C 
ATOM     73  C   UNL     1       7.252   1.046  -7.458  1.00  0.00     0.004 C 
ATOM     74  O   UNL     1       5.759  -0.378  -8.350  1.00  0.00    -0.365 OA
ATOM     75  C   UNL     1       7.847   0.448  -8.498  1.00  0.00     0.004 C 
BRANCH  70  76
ATOM     76  C   UNL     1       6.981  -3.223  -8.130  1.00  0.00     0.231 C 
ATOM     77  O   UNL     1       7.578  -3.652  -9.129  1.00  0.00    -0.274 OA
ATOM     78  N   UNL     1       6.199  -4.129  -7.484  1.00  0.00    -0.325 N 
ATOM     79  H   UNL     1       6.511  -5.056  -7.601  1.00  0.00     0.169 HD
BRANCH  78  80
ATOM     80  C   UNL     1       5.050  -4.038  -6.691  1.00  0.00     0.048 A 
ATOM     81  C   UNL     1       4.846  -5.053  -5.747  1.00  0.00     0.026 A 
ATOM     82  C   UNL     1       4.096  -3.031  -6.833  1.00  0.00     0.111 A 
ATOM     83  C   UNL     1       3.761  -5.005  -4.868  1.00  0.00     0.009 A 
ATOM     84  C   UNL     1       3.027  -2.970  -5.926  1.00  0.00     0.271 A 
ATOM     85  C   UNL     1       2.856  -3.950  -4.940  1.00  0.00     0.086 A 
BRANCH  84  86
ATOM     86  N   UNL     1       2.140  -1.805  -5.939  1.00  0.00     0.062 N 
ATOM     87  O   UNL     1       1.560  -1.523  -4.881  1.00  0.00    -0.258 OA
ATOM     88  O   UNL     1       2.072  -1.143  -6.981  1.00  0.00    -0.258 OA
ENDBRANCH  84  86
ENDBRANCH  78  80
ENDBRANCH  70  76
ENDBRANCH  66  69
ENDBRANCH  64  65
ENDBRANCH   1  64
TORSDOF 14
