REMARK SMILES Nc1cc([N+](=O)[O-])ccc1[C@H]([NH3+])C(=O)NCCCCNC(=O)c1ccc(-c2c3nc(c(-c4c(F)cccc4F)c4ccc([nH]4)c(-c4c(F)cccc4F)c4nc(c(-c5c(F)cccc5F)c5ccc2[nH]5)C=C4)C=C3)cc1
REMARK SMILES IDX 17 1 16 2 15 3 13 4 14 5 11 7 10 8 2 9 3 10 4 11 9 12 8 13
REMARK SMILES IDX 1 14 5 17 6 18 7 19 12 20 18 24 19 25 20 26 21 27 22 29
REMARK SMILES IDX 23 30 24 31 76 32 25 33 75 34 26 35 27 36 28 37 69 38 29 39
REMARK SMILES IDX 74 40 68 41 70 42 30 43 73 44 67 45 66 46 31 48 57 49 40 50
REMARK SMILES IDX 56 51 41 52 44 53 55 54 71 55 42 56 43 57 54 59 72 60 45 61
REMARK SMILES IDX 32 62 33 63 38 64 34 65 35 66 37 67 39 68 36 69 58 70 59 71
REMARK SMILES IDX 64 72 60 73 61 74 63 75 65 76 62 77 46 78 47 79 52 80 48 81
REMARK SMILES IDX 49 82 51 83 53 84 50 85
REMARK H PARENT 15 6 1 15 1 16 12 21 12 22 12 23 20 28 70 47 44 58
REMARK Flexibility Score: inf
ROOT
ATOM      1  C   UNL     1      -2.807   2.362   1.202  1.00  0.00     0.023 C 
ENDROOT
BRANCH   1   2
ATOM      2  C   UNL     1      -1.841   3.280   0.461  1.00  0.00     0.116 C 
BRANCH   2   3
ATOM      3  N   UNL     1      -0.710   3.649   1.288  1.00  0.00    -0.351 N 
ATOM      4  C   UNL     1       0.614   3.337   1.132  1.00  0.00     0.283 C 
ATOM      5  O   UNL     1       1.408   3.791   1.963  1.00  0.00    -0.268 OA
ATOM      6  H   UNL     1      -0.923   4.203   2.073  1.00  0.00     0.163 HD
BRANCH   4   7
ATOM      7  C   UNL     1       1.108   2.485  -0.075  1.00  0.00     0.304 C 
BRANCH   7   8
ATOM      8  C   UNL     1       0.877   3.184  -1.427  1.00  0.00     0.042 A 
ATOM      9  C   UNL     1       0.459   2.558  -2.622  1.00  0.00     0.048 A 
ATOM     10  C   UNL     1       0.164   3.347  -3.749  1.00  0.00     0.111 A 
ATOM     11  C   UNL     1       0.373   4.730  -3.736  1.00  0.00     0.271 A 
ATOM     12  C   UNL     1       1.120   4.583  -1.460  1.00  0.00     0.020 A 
ATOM     13  C   UNL     1       0.866   5.354  -2.594  1.00  0.00     0.086 A 
BRANCH   9  14
ATOM     14  N   UNL     1       0.186   1.195  -2.714  1.00  0.00    -0.398 N 
ATOM     15  H   UNL     1      -0.103   0.808  -3.572  1.00  0.00     0.156 HD
ATOM     16  H   UNL     1       0.282   0.619  -1.922  1.00  0.00     0.156 HD
ENDBRANCH   9  14
BRANCH  11  17
ATOM     17  N   UNL     1       0.079   5.524  -4.933  1.00  0.00     0.062 N 
ATOM     18  O   UNL     1      -0.272   4.918  -5.955  1.00  0.00    -0.258 OA
ATOM     19  O   UNL     1       0.198   6.755  -4.851  1.00  0.00    -0.258 OA
ENDBRANCH  11  17
ENDBRANCH   7   8
BRANCH   7  20
ATOM     20  N   UNL     1       0.566   1.121   0.088  1.00  0.00    -0.343 N 
ATOM     21  H   UNL     1      -0.454   1.161   0.102  1.00  0.00     0.345 HD
ATOM     22  H   UNL     1       0.903   0.724   0.964  1.00  0.00     0.345 HD
ATOM     23  H   UNL     1       0.872   0.538  -0.691  1.00  0.00     0.345 HD
ENDBRANCH   7  20
ENDBRANCH   4   7
ENDBRANCH   2   3
ENDBRANCH   1   2
BRANCH   1  24
ATOM     24  C   UNL     1      -3.511   3.009   2.396  1.00  0.00     0.023 C 
BRANCH  24  25
ATOM     25  C   UNL     1      -4.250   4.309   2.094  1.00  0.00     0.116 C 
BRANCH  25  26
ATOM     26  N   UNL     1      -5.256   4.164   1.054  1.00  0.00    -0.352 N 
ATOM     27  C   UNL     1      -6.529   4.669   0.998  1.00  0.00     0.251 C 
ATOM     28  H   UNL     1      -4.983   3.624   0.278  1.00  0.00     0.163 HD
ATOM     29  O   UNL     1      -7.282   4.324   0.087  1.00  0.00    -0.269 OA
BRANCH  27  30
ATOM     30  C   UNL     1      -7.016   5.598   2.041  1.00  0.00     0.039 A 
ATOM     31  C   UNL     1      -8.310   5.422   2.538  1.00  0.00     0.014 A 
ATOM     32  C   UNL     1      -6.219   6.641   2.523  1.00  0.00     0.014 A 
ATOM     33  C   UNL     1      -8.781   6.255   3.554  1.00  0.00     0.010 A 
ATOM     34  C   UNL     1      -6.662   7.420   3.591  1.00  0.00     0.010 A 
ATOM     35  C   UNL     1      -7.950   7.241   4.113  1.00  0.00    -0.014 A 
BRANCH  35  36
ATOM     36  C   UNL     1      -8.430   8.070   5.249  1.00  0.00     0.031 A 
ATOM     37  C   UNL     1      -8.605   9.557   5.098  1.00  0.00     0.074 A 
ATOM     38  C   UNL     1      -8.690   7.479   6.433  1.00  0.00     0.049 A 
ATOM     39  N   UNL     1      -9.065  10.426   5.964  1.00  0.00    -0.248 NA
ATOM     40  C   UNL     1      -8.190  10.153   3.818  1.00  0.00     0.031 C 
ATOM     41  C   UNL     1      -8.496   6.058   6.729  1.00  0.00     0.029 A 
ATOM     42  N   UNL     1      -9.183   7.997   7.604  1.00  0.00    -0.354 N 
ATOM     43  C   UNL     1      -8.985  11.664   5.340  1.00  0.00     0.074 A 
ATOM     44  C   UNL     1      -8.382  11.444   4.044  1.00  0.00     0.031 C 
ATOM     45  C   UNL     1      -8.913   5.809   7.981  1.00  0.00     0.029 A 
ATOM     46  C   UNL     1      -9.373   7.054   8.585  1.00  0.00     0.049 A 
ATOM     47  H   UNL     1      -9.382   8.953   7.729  1.00  0.00     0.167 HD
ATOM     48  C   UNL     1      -9.399  12.871   5.794  1.00  0.00     0.037 A 
ATOM     49  C   UNL     1      -9.876   7.178   9.828  1.00  0.00     0.037 A 
ATOM     50  C   UNL     1     -10.023  13.085   7.075  1.00  0.00     0.049 A 
ATOM     51  C   UNL     1     -10.343   8.528  10.299  1.00  0.00     0.074 A 
ATOM     52  C   UNL     1     -10.547  14.256   7.594  1.00  0.00     0.029 A 
ATOM     53  N   UNL     1     -10.202  12.105   8.040  1.00  0.00    -0.354 N 
ATOM     54  N   UNL     1     -10.353   9.672   9.659  1.00  0.00    -0.248 NA
ATOM     55  C   UNL     1     -10.883   8.598  11.663  1.00  0.00     0.031 C 
ATOM     56  C   UNL     1     -10.998  13.996   8.893  1.00  0.00     0.029 A 
ATOM     57  C   UNL     1     -10.805  12.651   9.162  1.00  0.00     0.049 A 
ATOM     58  H   UNL     1      -9.941  11.161   7.942  1.00  0.00     0.167 HD
ATOM     59  C   UNL     1     -10.927  10.589  10.530  1.00  0.00     0.074 A 
ATOM     60  C   UNL     1     -11.274   9.861  11.732  1.00  0.00     0.031 C 
ATOM     61  C   UNL     1     -11.145  11.915  10.353  1.00  0.00     0.037 A 
BRANCH  48  62
ATOM     62  C   UNL     1      -9.195  14.061   4.899  1.00  0.00     0.057 A 
ATOM     63  C   UNL     1      -9.934  14.237   3.721  1.00  0.00     0.134 A 
ATOM     64  C   UNL     1      -8.284  15.068   5.245  1.00  0.00     0.134 A 
ATOM     65  F   UNL     1     -10.815  13.306   3.326  1.00  0.00    -0.206 F 
ATOM     66  C   UNL     1      -9.759  15.359   2.909  1.00  0.00     0.040 A 
ATOM     67  C   UNL     1      -8.121  16.207   4.455  1.00  0.00     0.040 A 
ATOM     68  F   UNL     1      -7.548  14.967   6.362  1.00  0.00    -0.206 F 
ATOM     69  C   UNL     1      -8.856  16.353   3.281  1.00  0.00     0.006 A 
ENDBRANCH  48  62
BRANCH  49  70
ATOM     70  C   UNL     1     -10.005   5.988  10.708  1.00  0.00     0.057 A 
ATOM     71  C   UNL     1     -11.264   5.485  11.059  1.00  0.00     0.134 A 
ATOM     72  C   UNL     1      -8.883   5.348  11.246  1.00  0.00     0.134 A 
ATOM     73  F   UNL     1     -12.378   6.066  10.590  1.00  0.00    -0.206 F 
ATOM     74  C   UNL     1     -11.404   4.409  11.937  1.00  0.00     0.040 A 
ATOM     75  C   UNL     1      -9.007   4.253  12.102  1.00  0.00     0.040 A 
ATOM     76  F   UNL     1      -7.649   5.776  10.943  1.00  0.00    -0.206 F 
ATOM     77  C   UNL     1     -10.272   3.788  12.459  1.00  0.00     0.006 A 
ENDBRANCH  49  70
BRANCH  61  78
ATOM     78  C   UNL     1     -11.819  12.649  11.476  1.00  0.00     0.057 A 
ATOM     79  C   UNL     1     -11.178  12.884  12.700  1.00  0.00     0.134 A 
ATOM     80  C   UNL     1     -13.130  13.124  11.333  1.00  0.00     0.134 A 
ATOM     81  F   UNL     1      -9.928  12.444  12.908  1.00  0.00    -0.206 F 
ATOM     82  C   UNL     1     -11.831  13.524  13.755  1.00  0.00     0.040 A 
ATOM     83  C   UNL     1     -13.781  13.795  12.368  1.00  0.00     0.040 A 
ATOM     84  F   UNL     1     -13.798  12.944  10.184  1.00  0.00    -0.206 F 
ATOM     85  C   UNL     1     -13.136  13.985  13.588  1.00  0.00     0.006 A 
ENDBRANCH  61  78
ENDBRANCH  35  36
ENDBRANCH  27  30
ENDBRANCH  25  26
ENDBRANCH  24  25
ENDBRANCH   1  24
TORSDOF 15
