REMARK SMILES N#CCC[NH+]1CC[NH+]([C@@H](C(=O)NCCCCNC(=O)c2ccc(-c3c4nc(c(-c5c(F)cccc5F)c5ccc([nH]5)c(-c5c(F)cccc5F)c5nc(c(-c6c(F)cccc6F)c6ccc3[nH]6)C=C5)C=C4)cc2)c2c[nH]c3cc(Cl)ccc23)CC1
REMARK SMILES IDX 13 1 12 2 10 3 11 4 9 6 8 7 5 8 6 9 85 10 7 12 84 13 4 15
REMARK SMILES IDX 3 16 2 17 1 18 74 19 75 20 83 21 76 22 77 23 82 24 78 26
REMARK SMILES IDX 81 27 79 28 80 29 14 30 15 31 16 32 17 33 18 34 19 36 20 37
REMARK SMILES IDX 21 38 73 39 22 40 72 41 23 42 24 43 25 44 66 45 26 46 71 47
REMARK SMILES IDX 65 48 67 49 27 50 70 51 64 52 63 53 28 55 54 56 37 57 53 58
REMARK SMILES IDX 38 59 41 60 52 61 68 62 39 63 40 64 51 66 69 67 42 68 29 69
REMARK SMILES IDX 30 70 35 71 31 72 32 73 34 74 36 75 33 76 55 77 56 78 61 79
REMARK SMILES IDX 57 80 58 81 60 82 62 83 59 84 43 85 44 86 49 87 45 88 46 89
REMARK SMILES IDX 48 90 50 91 47 92
REMARK H PARENT 12 5 5 11 8 14 76 25 17 35 67 54 41 65
REMARK Flexibility Score: inf
ROOT
ATOM      1  C   UNL     1       5.457   0.944   6.480  1.00  0.00     0.116 C 
ENDROOT
BRANCH   1   2
ATOM      2  N   UNL     1       4.242   0.208   6.059  1.00  0.00    -0.351 N 
ATOM      3  C   UNL     1       3.873  -1.017   5.532  1.00  0.00     0.283 C 
ATOM      4  O   UNL     1       2.655  -1.230   5.655  1.00  0.00    -0.268 OA
ATOM      5  H   UNL     1       3.445   0.768   6.199  1.00  0.00     0.163 HD
BRANCH   3   6
ATOM      6  C   UNL     1       4.811  -2.118   4.885  1.00  0.00     0.308 C 
BRANCH   6   7
ATOM      7  N   UNL     1       5.687  -1.733   3.691  1.00  0.00    -0.312 N 
ATOM      8  N   UNL     1       4.139   0.403   2.271  1.00  0.00    -0.325 N 
ATOM      9  C   UNL     1       3.772  -1.007   2.379  1.00  0.00     0.324 C 
ATOM     10  C   UNL     1       5.216   0.717   3.200  1.00  0.00     0.324 C 
ATOM     11  H   UNL     1       3.284   0.905   2.510  1.00  0.00     0.348 HD
ATOM     12  C   UNL     1       5.026  -1.873   2.389  1.00  0.00     0.325 C 
ATOM     13  C   UNL     1       6.224  -0.378   3.651  1.00  0.00     0.325 C 
ATOM     14  H   UNL     1       6.441  -2.404   3.845  1.00  0.00     0.349 HD
BRANCH   8  15
ATOM     15  C   UNL     1       4.486   0.867   0.953  1.00  0.00     0.278 C 
BRANCH  15  16
ATOM     16  C   UNL     1       3.858  -0.007  -0.063  1.00  0.00     0.181 C 
BRANCH  16  17
ATOM     17  C   UNL     1       2.338  -0.007  -0.063  1.00  0.00     0.068 C 
ATOM     18  N   UNL     1       1.077  -0.007  -0.063  1.00  0.00    -0.198 NA
ENDBRANCH  16  17
ENDBRANCH  15  16
ENDBRANCH   8  15
ENDBRANCH   6   7
BRANCH   6  19
ATOM     19  C   UNL     1       4.115  -3.504   4.438  1.00  0.00     0.044 A 
ATOM     20  C   UNL     1       4.859  -4.682   4.382  1.00  0.00     0.094 A 
ATOM     21  C   UNL     1       2.945  -3.796   3.582  1.00  0.00     0.009 A 
ATOM     22  N   UNL     1       4.519  -5.327   3.216  1.00  0.00    -0.361 N 
ATOM     23  C   UNL     1       3.398  -4.758   2.663  1.00  0.00     0.047 A 
ATOM     24  C   UNL     1       1.679  -3.219   3.298  1.00  0.00     0.012 A 
ATOM     25  H   UNL     1       5.009  -6.089   2.833  1.00  0.00     0.166 HD
ATOM     26  C   UNL     1       2.822  -4.950   1.392  1.00  0.00     0.047 A 
ATOM     27  C   UNL     1       1.017  -3.499   2.081  1.00  0.00     0.021 A 
ATOM     28  C   UNL     1       1.626  -4.290   1.115  1.00  0.00     0.043 A 
ATOM     29  Cl  UNL     1       0.921  -4.442  -0.452  1.00  0.00    -0.084 Cl
ENDBRANCH   6  19
ENDBRANCH   3   6
ENDBRANCH   1   2
BRANCH   1  30
ATOM     30  C   UNL     1       5.914   2.253   5.719  1.00  0.00     0.023 C 
BRANCH  30  31
ATOM     31  C   UNL     1       4.862   3.131   5.002  1.00  0.00     0.023 C 
BRANCH  31  32
ATOM     32  C   UNL     1       4.766   4.570   5.460  1.00  0.00     0.116 C 
BRANCH  32  33
ATOM     33  N   UNL     1       5.882   5.415   5.062  1.00  0.00    -0.352 N 
ATOM     34  C   UNL     1       5.886   6.777   4.819  1.00  0.00     0.251 C 
ATOM     35  H   UNL     1       6.747   4.957   4.952  1.00  0.00     0.163 HD
ATOM     36  O   UNL     1       6.903   7.318   4.405  1.00  0.00    -0.269 OA
BRANCH  34  37
ATOM     37  C   UNL     1       4.647   7.580   5.016  1.00  0.00     0.039 A 
ATOM     38  C   UNL     1       4.382   8.657   4.162  1.00  0.00     0.014 A 
ATOM     39  C   UNL     1       3.740   7.277   6.032  1.00  0.00     0.014 A 
ATOM     40  C   UNL     1       3.191   9.379   4.298  1.00  0.00     0.010 A 
ATOM     41  C   UNL     1       2.505   7.904   6.083  1.00  0.00     0.010 A 
ATOM     42  C   UNL     1       2.230   8.986   5.242  1.00  0.00    -0.014 A 
BRANCH  42  43
ATOM     43  C   UNL     1       0.955   9.719   5.428  1.00  0.00     0.031 A 
ATOM     44  C   UNL     1       0.658  10.362   6.757  1.00  0.00     0.074 A 
ATOM     45  C   UNL     1       0.037   9.726   4.444  1.00  0.00     0.049 A 
ATOM     46  N   UNL     1      -0.429  10.967   7.163  1.00  0.00    -0.248 NA
ATOM     47  C   UNL     1       1.708  10.273   7.786  1.00  0.00     0.031 C 
ATOM     48  C   UNL     1       0.184   9.071   3.143  1.00  0.00     0.029 A 
ATOM     49  N   UNL     1      -1.209  10.295   4.392  1.00  0.00    -0.354 N 
ATOM     50  C   UNL     1      -0.201  11.299   8.493  1.00  0.00     0.074 A 
ATOM     51  C   UNL     1       1.095  10.769   8.848  1.00  0.00     0.031 C 
ATOM     52  C   UNL     1      -0.916   9.302   2.409  1.00  0.00     0.029 A 
ATOM     53  C   UNL     1      -1.857  10.090   3.198  1.00  0.00     0.049 A 
ATOM     54  H   UNL     1      -1.603  10.801   5.139  1.00  0.00     0.167 HD
ATOM     55  C   UNL     1      -0.987  12.012   9.334  1.00  0.00     0.037 A 
ATOM     56  C   UNL     1      -3.073  10.497   2.790  1.00  0.00     0.037 A 
ATOM     57  C   UNL     1      -2.255  12.572   8.954  1.00  0.00     0.049 A 
ATOM     58  C   UNL     1      -3.914  11.320   3.725  1.00  0.00     0.074 A 
ATOM     59  C   UNL     1      -3.100  13.379   9.694  1.00  0.00     0.029 A 
ATOM     60  N   UNL     1      -2.858  12.382   7.719  1.00  0.00    -0.354 N 
ATOM     61  N   UNL     1      -3.653  11.699   4.954  1.00  0.00    -0.248 NA
ATOM     62  C   UNL     1      -5.212  11.780   3.216  1.00  0.00     0.031 C 
ATOM     63  C   UNL     1      -4.234  13.645   8.919  1.00  0.00     0.029 A 
ATOM     64  C   UNL     1      -4.074  13.042   7.681  1.00  0.00     0.049 A 
ATOM     65  H   UNL     1      -2.478  11.856   6.979  1.00  0.00     0.167 HD
ATOM     66  C   UNL     1      -4.742  12.459   5.358  1.00  0.00     0.074 A 
ATOM     67  C   UNL     1      -5.658  12.501   4.236  1.00  0.00     0.031 C 
ATOM     68  C   UNL     1      -4.966  13.068   6.549  1.00  0.00     0.037 A 
BRANCH  55  69
ATOM     69  C   UNL     1      -0.485  12.226  10.733  1.00  0.00     0.057 A 
ATOM     70  C   UNL     1       0.631  13.031  11.007  1.00  0.00     0.134 A 
ATOM     71  C   UNL     1      -1.122  11.621  11.824  1.00  0.00     0.134 A 
ATOM     72  F   UNL     1       1.299  13.628  10.008  1.00  0.00    -0.206 F 
ATOM     73  C   UNL     1       1.117  13.193  12.305  1.00  0.00     0.040 A 
ATOM     74  C   UNL     1      -0.663  11.801  13.131  1.00  0.00     0.040 A 
ATOM     75  F   UNL     1      -2.198  10.841  11.638  1.00  0.00    -0.206 F 
ATOM     76  C   UNL     1       0.466  12.580  13.373  1.00  0.00     0.006 A 
ENDBRANCH  55  69
BRANCH  56  77
ATOM     77  C   UNL     1      -3.539  10.170   1.420  1.00  0.00     0.057 A 
ATOM     78  C   UNL     1      -3.622  11.159   0.432  1.00  0.00     0.134 A 
ATOM     79  C   UNL     1      -3.887   8.864   1.054  1.00  0.00     0.134 A 
ATOM     80  F   UNL     1      -3.315  12.431   0.725  1.00  0.00    -0.206 F 
ATOM     81  C   UNL     1      -4.043  10.864  -0.866  1.00  0.00     0.040 A 
ATOM     82  C   UNL     1      -4.288   8.550  -0.246  1.00  0.00     0.040 A 
ATOM     83  F   UNL     1      -3.819   7.870   1.952  1.00  0.00    -0.206 F 
ATOM     84  C   UNL     1      -4.371   9.554  -1.209  1.00  0.00     0.006 A 
ENDBRANCH  56  77
BRANCH  68  85
ATOM     85  C   UNL     1      -6.238  13.849   6.686  1.00  0.00     0.057 A 
ATOM     86  C   UNL     1      -7.481  13.216   6.808  1.00  0.00     0.134 A 
ATOM     87  C   UNL     1      -6.213  15.248   6.740  1.00  0.00     0.134 A 
ATOM     88  F   UNL     1      -7.573  11.879   6.752  1.00  0.00    -0.206 F 
ATOM     89  C   UNL     1      -8.659  13.950   6.957  1.00  0.00     0.040 A 
ATOM     90  C   UNL     1      -7.379  15.991   6.916  1.00  0.00     0.040 A 
ATOM     91  F   UNL     1      -5.052  15.913   6.640  1.00  0.00    -0.206 F 
ATOM     92  C   UNL     1      -8.608  15.342   7.019  1.00  0.00     0.006 A 
ENDBRANCH  68  85
ENDBRANCH  42  43
ENDBRANCH  34  37
ENDBRANCH  32  33
ENDBRANCH  31  32
ENDBRANCH  30  31
ENDBRANCH   1  30
TORSDOF 16
