REMARK SMILES CCc1n[nH]c(C(=O)N[C@@]2(C(=O)NCCCCNC(=O)c3ccc(-c4c5nc(c(-c6c(F)cccc6F)c6ccc([nH]6)c(-c6c(F)cccc6F)c6nc(c(-c7c(F)cccc7F)c7ccc4[nH]7)C=C6)C=C5)cc3)CCCC[C@H]2C)n1
REMARK SMILES IDX 15 1 14 2 13 3 11 4 12 5 10 7 75 8 79 9 76 10 78 11 80 12
REMARK SMILES IDX 77 13 9 14 7 15 8 16 6 18 3 19 4 20 81 21 5 22 2 24 1 25
REMARK SMILES IDX 16 26 17 27 18 28 19 29 20 31 21 32 22 33 74 34 23 35 73 36
REMARK SMILES IDX 24 37 25 38 26 39 67 40 27 41 72 42 66 43 68 44 28 45 71 46
REMARK SMILES IDX 65 47 64 48 29 50 55 51 38 52 54 53 39 54 42 55 53 56 69 57
REMARK SMILES IDX 40 58 41 59 52 61 70 62 43 63 30 64 31 65 36 66 32 67 33 68
REMARK SMILES IDX 35 69 37 70 34 71 56 72 57 73 62 74 58 75 59 76 61 77 63 78
REMARK SMILES IDX 60 79 44 80 45 81 50 82 46 83 47 84 49 85 51 86 48 87
REMARK H PARENT 13 6 9 17 5 23 18 30 68 49 42 60
REMARK Flexibility Score: inf
ROOT
ATOM      1  C   UNL     1      -0.399   7.976   1.724  1.00  0.00     0.023 C 
ENDROOT
BRANCH   1   2
ATOM      2  C   UNL     1      -0.835   6.908   0.739  1.00  0.00     0.116 C 
BRANCH   2   3
ATOM      3  N   UNL     1      -1.027   7.377  -0.626  1.00  0.00    -0.354 N 
ATOM      4  C   UNL     1      -0.562   6.856  -1.811  1.00  0.00     0.246 C 
ATOM      5  O   UNL     1      -0.935   7.408  -2.853  1.00  0.00    -0.272 OA
ATOM      6  H   UNL     1      -1.573   8.191  -0.714  1.00  0.00     0.163 HD
BRANCH   4   7
ATOM      7  C   UNL     1       0.503   5.691  -1.844  1.00  0.00     0.122 C 
ATOM      8  C   UNL     1      -0.039   4.502  -1.025  1.00  0.00     0.039 C 
ATOM      9  C   UNL     1       1.811   6.342  -1.260  1.00  0.00     0.021 C 
ATOM     10  C   UNL     1       1.005   3.691  -0.247  1.00  0.00     0.003 C 
ATOM     11  C   UNL     1       2.828   5.301  -0.807  1.00  0.00     0.006 C 
ATOM     12  C   UNL     1       2.465   7.405  -2.151  1.00  0.00     0.011 C 
ATOM     13  C   UNL     1       2.203   4.450   0.287  1.00  0.00     0.000 C 
BRANCH   7  14
ATOM     14  N   UNL     1       0.692   5.347  -3.300  1.00  0.00    -0.335 N 
ATOM     15  C   UNL     1       1.151   4.276  -4.041  1.00  0.00     0.289 C 
ATOM     16  O   UNL     1       1.604   4.539  -5.159  1.00  0.00    -0.266 OA
ATOM     17  H   UNL     1       0.410   6.090  -3.882  1.00  0.00     0.165 HD
BRANCH  15  18
ATOM     18  C   UNL     1       1.129   2.909  -3.568  1.00  0.00     0.214 A 
ATOM     19  C   UNL     1       0.759   1.101  -2.507  1.00  0.00     0.151 A 
ATOM     20  N   UNL     1       1.879   0.822  -3.186  1.00  0.00    -0.158 NA
ATOM     21  N   UNL     1       0.219   2.324  -2.814  1.00  0.00    -0.207 NA
ATOM     22  N   UNL     1       2.034   1.946  -3.921  1.00  0.00    -0.255 N 
ATOM     23  H   UNL     1       2.715   2.058  -4.624  1.00  0.00     0.192 HD
BRANCH  19  24
ATOM     24  C   UNL     1       0.249   0.353  -1.317  1.00  0.00     0.076 C 
ATOM     25  C   UNL     1       0.965  -0.935  -0.964  1.00  0.00     0.012 C 
ENDBRANCH  19  24
ENDBRANCH  15  18
ENDBRANCH   7  14
ENDBRANCH   4   7
ENDBRANCH   2   3
ENDBRANCH   1   2
BRANCH   1  26
ATOM     26  C   UNL     1      -1.494   8.941   2.140  1.00  0.00     0.023 C 
BRANCH  26  27
ATOM     27  C   UNL     1      -2.781   8.288   2.628  1.00  0.00     0.116 C 
BRANCH  27  28
ATOM     28  N   UNL     1      -2.590   7.362   3.738  1.00  0.00    -0.352 N 
ATOM     29  C   UNL     1      -3.283   7.290   4.924  1.00  0.00     0.251 C 
ATOM     30  H   UNL     1      -1.869   6.701   3.623  1.00  0.00     0.163 HD
ATOM     31  O   UNL     1      -2.938   6.511   5.807  1.00  0.00    -0.269 OA
BRANCH  29  32
ATOM     32  C   UNL     1      -4.426   8.199   5.136  1.00  0.00     0.039 A 
ATOM     33  C   UNL     1      -4.462   8.985   6.289  1.00  0.00     0.014 A 
ATOM     34  C   UNL     1      -5.409   8.334   4.152  1.00  0.00     0.014 A 
ATOM     35  C   UNL     1      -5.439   9.973   6.414  1.00  0.00     0.010 A 
ATOM     36  C   UNL     1      -6.321   9.377   4.236  1.00  0.00     0.010 A 
ATOM     37  C   UNL     1      -6.345  10.209   5.366  1.00  0.00    -0.014 A 
BRANCH  37  38
ATOM     38  C   UNL     1      -7.323  11.324   5.427  1.00  0.00     0.031 A 
ATOM     39  C   UNL     1      -8.797  11.029   5.405  1.00  0.00     0.074 A 
ATOM     40  C   UNL     1      -6.887  12.599   5.426  1.00  0.00     0.049 A 
ATOM     41  N   UNL     1      -9.806  11.862   5.374  1.00  0.00    -0.248 NA
ATOM     42  C   UNL     1      -9.188   9.611   5.385  1.00  0.00     0.031 C 
ATOM     43  C   UNL     1      -5.484  13.017   5.392  1.00  0.00     0.029 A 
ATOM     44  N   UNL     1      -7.584  13.781   5.443  1.00  0.00    -0.354 N 
ATOM     45  C   UNL     1     -10.945  11.070   5.315  1.00  0.00     0.074 A 
ATOM     46  C   UNL     1     -10.503   9.694   5.253  1.00  0.00     0.031 C 
ATOM     47  C   UNL     1      -5.423  14.358   5.419  1.00  0.00     0.029 A 
ATOM     48  C   UNL     1      -6.780  14.896   5.432  1.00  0.00     0.049 A 
ATOM     49  H   UNL     1      -8.567  13.827   5.463  1.00  0.00     0.167 HD
ATOM     50  C   UNL     1     -12.244  11.452   5.339  1.00  0.00     0.037 A 
ATOM     51  C   UNL     1      -7.102  16.203   5.426  1.00  0.00     0.037 A 
ATOM     52  C   UNL     1     -12.681  12.820   5.427  1.00  0.00     0.049 A 
ATOM     53  C   UNL     1      -8.552  16.602   5.447  1.00  0.00     0.074 A 
ATOM     54  C   UNL     1     -13.973  13.307   5.517  1.00  0.00     0.029 A 
ATOM     55  N   UNL     1     -11.836  13.919   5.433  1.00  0.00    -0.354 N 
ATOM     56  N   UNL     1      -9.619  15.841   5.463  1.00  0.00    -0.248 NA
ATOM     57  C   UNL     1      -8.842  18.043   5.454  1.00  0.00     0.031 C 
ATOM     58  C   UNL     1     -13.912  14.704   5.533  1.00  0.00     0.029 A 
ATOM     59  C   UNL     1     -12.580  15.085   5.505  1.00  0.00     0.049 A 
ATOM     60  H   UNL     1     -10.853  13.877   5.393  1.00  0.00     0.167 HD
ATOM     61  C   UNL     1     -10.704  16.707   5.514  1.00  0.00     0.074 A 
ATOM     62  C   UNL     1     -10.165  18.051   5.538  1.00  0.00     0.031 C 
ATOM     63  C   UNL     1     -12.027  16.415   5.539  1.00  0.00     0.037 A 
BRANCH  50  64
ATOM     64  C   UNL     1     -13.283  10.370   5.276  1.00  0.00     0.057 A 
ATOM     65  C   UNL     1     -13.493   9.485   6.342  1.00  0.00     0.134 A 
ATOM     66  C   UNL     1     -14.101  10.229   4.149  1.00  0.00     0.134 A 
ATOM     67  F   UNL     1     -12.733   9.558   7.446  1.00  0.00    -0.206 F 
ATOM     68  C   UNL     1     -14.460   8.480   6.278  1.00  0.00     0.040 A 
ATOM     69  C   UNL     1     -15.091   9.246   4.085  1.00  0.00     0.040 A 
ATOM     70  F   UNL     1     -13.957  11.045   3.094  1.00  0.00    -0.206 F 
ATOM     71  C   UNL     1     -15.267   8.364   5.149  1.00  0.00     0.006 A 
ENDBRANCH  50  64
BRANCH  51  72
ATOM     72  C   UNL     1      -6.033  17.235   5.427  1.00  0.00     0.057 A 
ATOM     73  C   UNL     1      -5.806  18.037   6.551  1.00  0.00     0.134 A 
ATOM     74  C   UNL     1      -5.223  17.452   4.306  1.00  0.00     0.134 A 
ATOM     75  F   UNL     1      -6.561  17.889   7.649  1.00  0.00    -0.206 F 
ATOM     76  C   UNL     1      -4.828  19.033   6.554  1.00  0.00     0.040 A 
ATOM     77  C   UNL     1      -4.224  18.427   4.304  1.00  0.00     0.040 A 
ATOM     78  F   UNL     1      -5.383  16.711   3.200  1.00  0.00    -0.206 F 
ATOM     79  C   UNL     1      -4.030  19.227   5.429  1.00  0.00     0.006 A 
ENDBRANCH  51  72
BRANCH  63  80
ATOM     80  C   UNL     1     -12.983  17.568   5.637  1.00  0.00     0.057 A 
ATOM     81  C   UNL     1     -13.216  18.432   4.559  1.00  0.00     0.134 A 
ATOM     82  C   UNL     1     -13.712  17.788   6.813  1.00  0.00     0.134 A 
ATOM     83  F   UNL     1     -12.541  18.282   3.410  1.00  0.00    -0.206 F 
ATOM     84  C   UNL     1     -14.123  19.488   4.656  1.00  0.00     0.040 A 
ATOM     85  C   UNL     1     -14.642  18.823   6.912  1.00  0.00     0.040 A 
ATOM     86  F   UNL     1     -13.544  16.991   7.878  1.00  0.00    -0.206 F 
ATOM     87  C   UNL     1     -14.845  19.681   5.833  1.00  0.00     0.006 A 
ENDBRANCH  63  80
ENDBRANCH  37  38
ENDBRANCH  29  32
ENDBRANCH  27  28
ENDBRANCH  26  27
ENDBRANCH   1  26
TORSDOF 14
