REMARK SMILES CCC1(CC)CCN(c2ccc(/C=C/C(=O)NCCCCNC(=O)c3ccc(-c4c5nc(c(-c6c(F)cccc6F)c6ccc([nH]6)c(-c6c(F)cccc6F)c6nc(c(-c7c(F)cccc7F)c7ccc4[nH]7)C=C6)C=C5)cc3)cc2F)C1
REMARK SMILES IDX 19 1 18 2 17 3 15 4 16 5 14 7 13 8 12 9 9 10 10 11 80 12
REMARK SMILES IDX 11 13 79 14 81 15 8 16 3 17 6 18 82 19 7 20 2 21 1 22 4 23
REMARK SMILES IDX 5 24 20 25 21 26 22 27 23 28 24 30 25 31 26 32 78 33 27 34
REMARK SMILES IDX 77 35 28 36 29 37 30 38 71 39 31 40 76 41 70 42 72 43 32 44
REMARK SMILES IDX 75 45 69 46 68 47 33 49 59 50 42 51 58 52 43 53 46 54 57 55
REMARK SMILES IDX 73 56 44 57 45 58 56 60 74 61 47 62 34 63 35 64 40 65 36 66
REMARK SMILES IDX 37 67 39 68 41 69 38 70 60 71 61 72 66 73 62 74 63 75 65 76
REMARK SMILES IDX 67 77 64 78 48 79 49 80 54 81 50 82 51 83 53 84 55 85 52 86
REMARK H PARENT 17 6 22 29 72 48 46 59
REMARK Flexibility Score: inf
ROOT
ATOM      1  C   UNL     1       7.738   9.004  -0.212  1.00  0.00     0.023 C 
ENDROOT
BRANCH   1   2
ATOM      2  C   UNL     1       7.029   8.891  -1.563  1.00  0.00     0.116 C 
BRANCH   2   3
ATOM      3  N   UNL     1       7.814   8.114  -2.505  1.00  0.00    -0.353 N 
ATOM      4  C   UNL     1       7.620   6.853  -2.979  1.00  0.00     0.243 C 
ATOM      5  O   UNL     1       8.354   6.412  -3.860  1.00  0.00    -0.270 OA
ATOM      6  H   UNL     1       8.612   8.571  -2.856  1.00  0.00     0.163 HD
BRANCH   4   7
ATOM      7  C   UNL     1       6.479   6.038  -2.509  1.00  0.00     0.072 C 
ATOM      8  C   UNL     1       6.186   5.844  -1.216  1.00  0.00     0.014 C 
BRANCH   8   9
ATOM      9  C   UNL     1       5.058   5.029  -0.761  1.00  0.00    -0.022 A 
ATOM     10  C   UNL     1       2.926   3.452   0.247  1.00  0.00     0.073 A 
ATOM     11  C   UNL     1       3.804   2.953  -0.725  1.00  0.00     0.029 A 
ATOM     12  C   UNL     1       3.150   4.761   0.700  1.00  0.00     0.147 A 
ATOM     13  C   UNL     1       4.853   3.729  -1.230  1.00  0.00     0.010 A 
ATOM     14  C   UNL     1       4.201   5.539   0.216  1.00  0.00     0.049 A 
ATOM     15  F   UNL     1       2.381   5.285   1.669  1.00  0.00    -0.205 F 
BRANCH  10  16
ATOM     16  N   UNL     1       1.935   2.628   0.740  1.00  0.00    -0.369 N 
ATOM     17  C   UNL     1       0.970   0.988   2.159  1.00  0.00    -0.011 C 
ATOM     18  C   UNL     1       0.047   2.225   2.090  1.00  0.00     0.030 C 
ATOM     19  C   UNL     1       2.317   1.578   1.682  1.00  0.00     0.123 C 
ATOM     20  C   UNL     1       0.563   3.075   0.931  1.00  0.00     0.117 C 
BRANCH  17  21
ATOM     21  C   UNL     1       0.462  -0.183   1.266  1.00  0.00     0.005 C 
ATOM     22  C   UNL     1       0.699  -0.100  -0.237  1.00  0.00     0.004 C 
ENDBRANCH  17  21
BRANCH  17  23
ATOM     23  C   UNL     1       1.111   0.493   3.624  1.00  0.00     0.005 C 
ATOM     24  C   UNL     1      -0.184   0.014   4.269  1.00  0.00     0.004 C 
ENDBRANCH  17  23
ENDBRANCH  10  16
ENDBRANCH   8   9
ENDBRANCH   4   7
ENDBRANCH   2   3
ENDBRANCH   1   2
BRANCH   1  25
ATOM     25  C   UNL     1       8.928   9.968  -0.199  1.00  0.00     0.023 C 
BRANCH  25  26
ATOM     26  C   UNL     1       8.585  11.421  -0.510  1.00  0.00     0.116 C 
BRANCH  26  27
ATOM     27  N   UNL     1       7.614  11.995   0.409  1.00  0.00    -0.352 N 
ATOM     28  C   UNL     1       7.486  13.308   0.796  1.00  0.00     0.251 C 
ATOM     29  H   UNL     1       6.968  11.365   0.802  1.00  0.00     0.163 HD
ATOM     30  O   UNL     1       6.679  13.632   1.656  1.00  0.00    -0.269 OA
BRANCH  28  31
ATOM     31  C   UNL     1       8.374  14.320   0.189  1.00  0.00     0.039 A 
ATOM     32  C   UNL     1       9.112  15.159   1.027  1.00  0.00     0.014 A 
ATOM     33  C   UNL     1       8.506  14.407  -1.199  1.00  0.00     0.014 A 
ATOM     34  C   UNL     1      10.041  16.041   0.473  1.00  0.00     0.010 A 
ATOM     35  C   UNL     1       9.473  15.243  -1.746  1.00  0.00     0.010 A 
ATOM     36  C   UNL     1      10.253  16.063  -0.915  1.00  0.00    -0.014 A 
BRANCH  36  37
ATOM     37  C   UNL     1      11.279  16.939  -1.528  1.00  0.00     0.031 A 
ATOM     38  C   UNL     1      10.856  18.054  -2.441  1.00  0.00     0.074 A 
ATOM     39  C   UNL     1      12.586  16.687  -1.323  1.00  0.00     0.049 A 
ATOM     40  N   UNL     1      11.595  18.844  -3.177  1.00  0.00    -0.248 NA
ATOM     41  C   UNL     1       9.409  18.297  -2.561  1.00  0.00     0.031 C 
ATOM     42  C   UNL     1      13.121  15.621  -0.476  1.00  0.00     0.029 A 
ATOM     43  N   UNL     1      13.704  17.306  -1.824  1.00  0.00    -0.354 N 
ATOM     44  C   UNL     1      10.704  19.663  -3.859  1.00  0.00     0.074 A 
ATOM     45  C   UNL     1       9.370  19.248  -3.483  1.00  0.00     0.031 C 
ATOM     46  C   UNL     1      14.463  15.675  -0.496  1.00  0.00     0.029 A 
ATOM     47  C   UNL     1      14.883  16.750  -1.390  1.00  0.00     0.049 A 
ATOM     48  H   UNL     1      13.665  18.076  -2.436  1.00  0.00     0.167 HD
ATOM     49  C   UNL     1      10.976  20.682  -4.705  1.00  0.00     0.037 A 
ATOM     50  C   UNL     1      16.158  17.068  -1.686  1.00  0.00     0.037 A 
ATOM     51  C   UNL     1      12.303  21.115  -5.051  1.00  0.00     0.049 A 
ATOM     52  C   UNL     1      16.433  18.198  -2.640  1.00  0.00     0.074 A 
ATOM     53  C   UNL     1      12.681  22.158  -5.878  1.00  0.00     0.029 A 
ATOM     54  N   UNL     1      13.470  20.534  -4.577  1.00  0.00    -0.354 N 
ATOM     55  N   UNL     1      15.582  18.974  -3.265  1.00  0.00    -0.248 NA
ATOM     56  C   UNL     1      17.843  18.494  -2.932  1.00  0.00     0.031 C 
ATOM     57  C   UNL     1      14.077  22.194  -5.925  1.00  0.00     0.029 A 
ATOM     58  C   UNL     1      14.568  21.196  -5.098  1.00  0.00     0.049 A 
ATOM     59  H   UNL     1      13.511  19.766  -3.963  1.00  0.00     0.167 HD
ATOM     60  C   UNL     1      16.350  19.868  -3.998  1.00  0.00     0.074 A 
ATOM     61  C   UNL     1      17.737  19.541  -3.740  1.00  0.00     0.031 C 
ATOM     62  C   UNL     1      15.941  20.871  -4.810  1.00  0.00     0.037 A 
BRANCH  49  63
ATOM     63  C   UNL     1       9.815  21.416  -5.305  1.00  0.00     0.057 A 
ATOM     64  C   UNL     1       9.510  21.287  -6.666  1.00  0.00     0.134 A 
ATOM     65  C   UNL     1       9.034  22.295  -4.545  1.00  0.00     0.134 A 
ATOM     66  F   UNL     1      10.224  20.465  -7.449  1.00  0.00    -0.206 F 
ATOM     67  C   UNL     1       8.474  22.016  -7.252  1.00  0.00     0.040 A 
ATOM     68  C   UNL     1       7.981  23.012  -5.115  1.00  0.00     0.040 A 
ATOM     69  F   UNL     1       9.268  22.452  -3.234  1.00  0.00    -0.206 F 
ATOM     70  C   UNL     1       7.704  22.879  -6.474  1.00  0.00     0.006 A 
ENDBRANCH  49  63
BRANCH  50  71
ATOM     71  C   UNL     1      17.272  16.327  -1.047  1.00  0.00     0.057 A 
ATOM     72  C   UNL     1      17.573  15.005  -1.393  1.00  0.00     0.134 A 
ATOM     73  C   UNL     1      18.058  16.930  -0.059  1.00  0.00     0.134 A 
ATOM     74  F   UNL     1      16.852  14.369  -2.329  1.00  0.00    -0.206 F 
ATOM     75  C   UNL     1      18.609  14.305  -0.773  1.00  0.00     0.040 A 
ATOM     76  C   UNL     1      19.110  16.250   0.556  1.00  0.00     0.040 A 
ATOM     77  F   UNL     1      17.829  18.201   0.302  1.00  0.00    -0.206 F 
ATOM     78  C   UNL     1      19.384  14.930   0.203  1.00  0.00     0.006 A 
ENDBRANCH  50  71
BRANCH  62  79
ATOM     79  C   UNL     1      16.993  21.723  -5.451  1.00  0.00     0.057 A 
ATOM     80  C   UNL     1      17.204  23.038  -5.014  1.00  0.00     0.134 A 
ATOM     81  C   UNL     1      17.724  21.280  -6.559  1.00  0.00     0.134 A 
ATOM     82  F   UNL     1      16.525  23.523  -3.963  1.00  0.00    -0.206 F 
ATOM     83  C   UNL     1      18.093  23.889  -5.671  1.00  0.00     0.040 A 
ATOM     84  C   UNL     1      18.630  22.116  -7.212  1.00  0.00     0.040 A 
ATOM     85  F   UNL     1      17.571  20.029  -7.017  1.00  0.00    -0.206 F 
ATOM     86  C   UNL     1      18.808  23.428  -6.774  1.00  0.00     0.006 A 
ENDBRANCH  62  79
ENDBRANCH  36  37
ENDBRANCH  28  31
ENDBRANCH  26  27
ENDBRANCH  25  26
ENDBRANCH   1  25
TORSDOF 15
