REMARK SMILES CC[C@@H](C)[C@H](NC(=O)[C@H](C)N1C(=O)N2CCC3=c4cc(OC)ccc4=N[C@@H]3[C@@]2(C)C1=O)C(=O)NCCCCNC(=O)c1ccc(-c2c3nc(c(-c4c(F)cccc4F)c4ccc([nH]4)c(-c4c(F)cccc4F)c4nc(c(-c5c(F)cccc5F)c5ccc2[nH]5)C=C4)C=C3)cc1
REMARK SMILES IDX 35 1 34 2 32 3 33 4 5 6 3 7 4 8 2 9 1 10 6 11 7 12 8 14 9 15
REMARK SMILES IDX 10 16 11 17 12 18 30 19 14 20 13 21 28 22 31 23 15 24 27 25
REMARK SMILES IDX 29 26 16 27 17 28 26 29 18 30 25 31 19 32 24 33 20 34 23 35
REMARK SMILES IDX 21 36 22 37 36 38 37 39 38 40 39 41 40 42 41 44 42 45 43 46
REMARK SMILES IDX 95 47 44 48 94 49 45 50 46 51 47 52 88 53 48 54 93 55 87 56
REMARK SMILES IDX 89 57 49 58 92 59 86 60 85 61 50 63 76 64 59 65 75 66 60 67
REMARK SMILES IDX 63 68 74 69 90 70 61 71 62 72 73 74 91 75 64 76 51 77 52 78
REMARK SMILES IDX 57 79 53 80 54 81 56 82 58 83 55 84 77 85 78 86 83 87 79 88
REMARK SMILES IDX 80 89 82 90 84 91 81 92 65 93 66 94 71 95 67 96 68 97 70 98
REMARK SMILES IDX 72 99 69 100
REMARK H PARENT 34 5 6 13 39 43 89 62 63 73
REMARK Flexibility Score: inf
ROOT
ATOM      1  C   UNL     1      -1.756  -0.694  -4.996  1.00  0.00     0.116 C 
ENDROOT
BRANCH   1   2
ATOM      2  N   UNL     1      -2.014   0.351  -4.045  1.00  0.00    -0.354 N 
ATOM      3  C   UNL     1      -1.213   0.830  -3.060  1.00  0.00     0.242 C 
ATOM      4  O   UNL     1      -1.335   2.051  -2.880  1.00  0.00    -0.273 OA
ATOM      5  H   UNL     1      -2.897   0.781  -4.119  1.00  0.00     0.163 HD
BRANCH   3   6
ATOM      6  C   UNL     1      -0.002   0.062  -2.414  1.00  0.00     0.174 C 
BRANCH   6   7
ATOM      7  C   UNL     1       1.267   0.571  -3.195  1.00  0.00     0.018 C 
ATOM      8  C   UNL     1       1.687  -0.347  -4.346  1.00  0.00     0.010 C 
BRANCH   7   9
ATOM      9  C   UNL     1       2.426   0.888  -2.231  1.00  0.00     0.002 C 
ATOM     10  C   UNL     1       3.632   1.520  -2.921  1.00  0.00     0.004 C 
ENDBRANCH   7   9
ENDBRANCH   6   7
BRANCH   6  11
ATOM     11  N   UNL     1      -0.002  -1.407  -2.204  1.00  0.00    -0.342 N 
ATOM     12  C   UNL     1      -0.084  -2.254  -1.126  1.00  0.00     0.243 C 
ATOM     13  H   UNL     1       0.075  -1.899  -3.053  1.00  0.00     0.164 HD
ATOM     14  O   UNL     1      -0.113  -3.460  -1.416  1.00  0.00    -0.273 OA
BRANCH  12  15
ATOM     15  C   UNL     1      -0.216  -1.825   0.382  1.00  0.00     0.181 C 
ATOM     16  C   UNL     1       0.936  -2.429   1.168  1.00  0.00     0.042 C 
BRANCH  15  17
ATOM     17  N   UNL     1      -1.551  -2.235   0.878  1.00  0.00    -0.250 N 
ATOM     18  C   UNL     1      -2.037  -2.679   2.136  1.00  0.00     0.328 C 
ATOM     19  C   UNL     1      -2.563  -1.658   0.180  1.00  0.00     0.259 C 
ATOM     20  N   UNL     1      -3.495  -2.561   2.117  1.00  0.00    -0.307 N 
ATOM     21  O   UNL     1      -1.387  -2.939   3.138  1.00  0.00    -0.248 OA
ATOM     22  C   UNL     1      -3.709  -1.616   1.081  1.00  0.00     0.147 C 
ATOM     23  O   UNL     1      -2.541  -1.114  -0.914  1.00  0.00    -0.271 OA
ATOM     24  C   UNL     1      -4.543  -2.324   3.262  1.00  0.00     0.127 C 
ATOM     25  C   UNL     1      -3.563  -0.358   1.953  1.00  0.00     0.168 C 
ATOM     26  C   UNL     1      -4.952  -2.062   0.287  1.00  0.00     0.048 C 
ATOM     27  C   UNL     1      -5.500  -0.832   3.053  1.00  0.00     0.055 C 
ATOM     28  C   UNL     1      -4.892   0.213   2.042  1.00  0.00    -0.032 C 
ATOM     29  N   UNL     1      -2.510   0.650   2.127  1.00  0.00    -0.274 NA
ATOM     30  C   UNL     1      -4.682   1.532   1.777  1.00  0.00     0.005 A 
ATOM     31  C   UNL     1      -3.316   1.644   2.444  1.00  0.00     0.066 A 
ATOM     32  C   UNL     1      -4.201   1.996   0.347  1.00  0.00     0.056 A 
ATOM     33  C   UNL     1      -2.919   3.039   2.695  1.00  0.00     0.032 A 
ATOM     34  C   UNL     1      -3.120   2.848   0.321  1.00  0.00     0.119 A 
ATOM     35  C   UNL     1      -2.859   3.662   1.508  1.00  0.00     0.048 A 
BRANCH  34  36
ATOM     36  O   UNL     1      -1.977   2.504  -0.405  1.00  0.00    -0.497 OA
ATOM     37  C   UNL     1      -0.712   2.561   0.300  1.00  0.00     0.278 C 
ENDBRANCH  34  36
ENDBRANCH  15  17
ENDBRANCH  12  15
ENDBRANCH   6  11
ENDBRANCH   3   6
ENDBRANCH   1   2
BRANCH   1  38
ATOM     38  C   UNL     1      -3.026  -1.334  -5.533  1.00  0.00     0.023 C 
BRANCH  38  39
ATOM     39  C   UNL     1      -3.858  -0.469  -6.483  1.00  0.00     0.023 C 
BRANCH  39  40
ATOM     40  C   UNL     1      -3.118   0.159  -7.663  1.00  0.00     0.116 C 
BRANCH  40  41
ATOM     41  N   UNL     1      -2.288  -0.777  -8.411  1.00  0.00    -0.352 N 
ATOM     42  C   UNL     1      -2.262  -1.084  -9.751  1.00  0.00     0.251 C 
ATOM     43  H   UNL     1      -1.635  -1.272  -7.865  1.00  0.00     0.163 HD
ATOM     44  O   UNL     1      -1.513  -1.965 -10.161  1.00  0.00    -0.269 OA
BRANCH  42  45
ATOM     45  C   UNL     1      -3.165  -0.392 -10.694  1.00  0.00     0.039 A 
ATOM     46  C   UNL     1      -3.336   0.990 -10.643  1.00  0.00     0.014 A 
ATOM     47  C   UNL     1      -3.870  -1.150 -11.636  1.00  0.00     0.014 A 
ATOM     48  C   UNL     1      -4.348   1.583 -11.387  1.00  0.00     0.010 A 
ATOM     49  C   UNL     1      -4.825  -0.535 -12.452  1.00  0.00     0.010 A 
ATOM     50  C   UNL     1      -5.117   0.827 -12.289  1.00  0.00    -0.014 A 
BRANCH  50  51
ATOM     51  C   UNL     1      -6.223   1.494 -13.025  1.00  0.00     0.031 A 
ATOM     52  C   UNL     1      -7.660   1.115 -12.780  1.00  0.00     0.074 A 
ATOM     53  C   UNL     1      -5.931   2.517 -13.851  1.00  0.00     0.049 A 
ATOM     54  N   UNL     1      -8.751   1.680 -13.236  1.00  0.00    -0.248 NA
ATOM     55  C   UNL     1      -7.909  -0.051 -11.918  1.00  0.00     0.031 C 
ATOM     56  C   UNL     1      -4.578   2.972 -14.181  1.00  0.00     0.029 A 
ATOM     57  N   UNL     1      -6.748   3.389 -14.523  1.00  0.00    -0.354 N 
ATOM     58  C   UNL     1      -9.809   0.928 -12.739  1.00  0.00     0.074 A 
ATOM     59  C   UNL     1      -9.230  -0.149 -11.966  1.00  0.00     0.031 C 
ATOM     60  C   UNL     1      -4.659   4.088 -14.920  1.00  0.00     0.029 A 
ATOM     61  C   UNL     1      -6.065   4.397 -15.159  1.00  0.00     0.049 A 
ATOM     62  H   UNL     1      -7.729   3.301 -14.547  1.00  0.00     0.167 HD
ATOM     63  C   UNL     1     -11.140   1.122 -12.902  1.00  0.00     0.037 A 
ATOM     64  C   UNL     1      -6.519   5.460 -15.846  1.00  0.00     0.037 A 
ATOM     65  C   UNL     1     -11.720   2.211 -13.645  1.00  0.00     0.049 A 
ATOM     66  C   UNL     1      -7.998   5.657 -16.001  1.00  0.00     0.074 A 
ATOM     67  C   UNL     1     -13.058   2.511 -13.839  1.00  0.00     0.029 A 
ATOM     68  N   UNL     1     -10.993   3.183 -14.316  1.00  0.00    -0.354 N 
ATOM     69  N   UNL     1      -8.983   4.952 -15.502  1.00  0.00    -0.248 NA
ATOM     70  C   UNL     1      -8.426   6.797 -16.823  1.00  0.00     0.031 C 
ATOM     71  C   UNL     1     -13.140   3.647 -14.654  1.00  0.00     0.029 A 
ATOM     72  C   UNL     1     -11.854   4.075 -14.936  1.00  0.00     0.049 A 
ATOM     73  H   UNL     1     -10.010   3.233 -14.346  1.00  0.00     0.167 HD
ATOM     74  C   UNL     1     -10.148   5.569 -15.937  1.00  0.00     0.074 A 
ATOM     75  C   UNL     1      -9.744   6.720 -16.720  1.00  0.00     0.031 C 
ATOM     76  C   UNL     1     -11.436   5.213 -15.713  1.00  0.00     0.037 A 
BRANCH  63  77
ATOM     77  C   UNL     1     -12.066   0.121 -12.273  1.00  0.00     0.057 A 
ATOM     78  C   UNL     1     -12.769  -0.795 -13.066  1.00  0.00     0.134 A 
ATOM     79  C   UNL     1     -12.286   0.080 -10.890  1.00  0.00     0.134 A 
ATOM     80  F   UNL     1     -12.610  -0.805 -14.398  1.00  0.00    -0.206 F 
ATOM     81  C   UNL     1     -13.657  -1.716 -12.506  1.00  0.00     0.040 A 
ATOM     82  C   UNL     1     -13.155  -0.851 -10.316  1.00  0.00     0.040 A 
ATOM     83  F   UNL     1     -11.634   0.921 -10.073  1.00  0.00    -0.206 F 
ATOM     84  C   UNL     1     -13.847  -1.749 -11.127  1.00  0.00     0.006 A 
ENDBRANCH  63  77
BRANCH  64  85
ATOM     85  C   UNL     1      -5.561   6.439 -16.415  1.00  0.00     0.057 A 
ATOM     86  C   UNL     1      -4.739   6.113 -17.499  1.00  0.00     0.134 A 
ATOM     87  C   UNL     1      -5.452   7.730 -15.884  1.00  0.00     0.134 A 
ATOM     88  F   UNL     1      -4.795   4.890 -18.046  1.00  0.00    -0.206 F 
ATOM     89  C   UNL     1      -3.834   7.031 -18.030  1.00  0.00     0.040 A 
ATOM     90  C   UNL     1      -4.568   8.667 -16.421  1.00  0.00     0.040 A 
ATOM     91  F   UNL     1      -6.227   8.106 -14.856  1.00  0.00    -0.206 F 
ATOM     92  C   UNL     1      -3.752   8.315 -17.495  1.00  0.00     0.006 A 
ENDBRANCH  64  85
BRANCH  76  93
ATOM     93  C   UNL     1     -12.490   6.096 -16.308  1.00  0.00     0.057 A 
ATOM     94  C   UNL     1     -13.236   6.961 -15.499  1.00  0.00     0.134 A 
ATOM     95  C   UNL     1     -12.756   6.101 -17.683  1.00  0.00     0.134 A 
ATOM     96  F   UNL     1     -13.033   7.001 -14.174  1.00  0.00    -0.206 F 
ATOM     97  C   UNL     1     -14.205   7.808 -16.040  1.00  0.00     0.040 A 
ATOM     98  C   UNL     1     -13.705   6.960 -18.238  1.00  0.00     0.040 A 
ATOM     99  F   UNL     1     -12.061   5.307 -18.513  1.00  0.00    -0.206 F 
ATOM    100  C   UNL     1     -14.434   7.816 -17.414  1.00  0.00     0.006 A 
ENDBRANCH  76  93
ENDBRANCH  50  51
ENDBRANCH  42  45
ENDBRANCH  40  41
ENDBRANCH  39  40
ENDBRANCH  38  39
ENDBRANCH   1  38
TORSDOF 17
