REMARK SMILES C[C@@H](O)[C@@H](NC(=O)CSc1ccncc1)C(=O)NCCCCNC(=O)c1ccc(-c2c3nc(c(-c4c(F)cccc4F)c4ccc([nH]4)c(-c4c(F)cccc4F)c4nc(c(-c5c(F)cccc5F)c5ccc2[nH]5)C=C4)C=C3)cc1
REMARK SMILES IDX 19 1 18 2 16 3 17 4 4 6 2 7 1 8 3 9 5 11 6 12 7 14 8 15 9 16
REMARK SMILES IDX 10 17 11 18 15 19 12 20 14 21 13 22 20 23 21 24 22 25 23 26
REMARK SMILES IDX 24 27 25 29 26 30 27 31 79 32 28 33 78 34 29 35 30 36 31 37
REMARK SMILES IDX 72 38 32 39 77 40 71 41 73 42 33 43 76 44 70 45 69 46 34 48
REMARK SMILES IDX 60 49 43 50 59 51 44 52 47 53 58 54 74 55 45 56 46 57 57 59
REMARK SMILES IDX 75 60 48 61 35 62 36 63 41 64 37 65 38 66 40 67 42 68 39 69
REMARK SMILES IDX 61 70 62 71 67 72 63 73 64 74 66 75 68 76 65 77 49 78 50 79
REMARK SMILES IDX 55 80 51 81 52 82 54 83 56 84 53 85
REMARK H PARENT 18 5 3 10 5 13 23 28 73 47 47 58
REMARK Flexibility Score: inf
ROOT
ATOM      1  C   UNL     1       0.317   3.530  -1.865  1.00  0.00     0.116 C 
ENDROOT
BRANCH   1   2
ATOM      2  N   UNL     1      -0.444   2.663  -2.738  1.00  0.00    -0.354 N 
ATOM      3  C   UNL     1      -1.128   1.521  -2.434  1.00  0.00     0.245 C 
ATOM      4  O   UNL     1      -1.903   1.081  -3.288  1.00  0.00    -0.273 OA
ATOM      5  H   UNL     1      -0.472   2.933  -3.684  1.00  0.00     0.163 HD
BRANCH   3   6
ATOM      6  C   UNL     1      -0.933   0.787  -1.089  1.00  0.00     0.200 C 
BRANCH   6   7
ATOM      7  C   UNL     1       0.510   0.187  -1.078  1.00  0.00     0.143 C 
ATOM      8  C   UNL     1       0.838  -0.624   0.174  1.00  0.00     0.041 C 
BRANCH   7   9
ATOM      9  O   UNL     1       0.689  -0.688  -2.194  1.00  0.00    -0.391 OA
ATOM     10  H   UNL     1       0.079  -1.438  -2.118  1.00  0.00     0.211 HD
ENDBRANCH   7   9
ENDBRANCH   6   7
BRANCH   6  11
ATOM     11  N   UNL     1      -1.207   1.576   0.132  1.00  0.00    -0.341 N 
ATOM     12  C   UNL     1      -2.357   2.219   0.502  1.00  0.00     0.231 C 
ATOM     13  H   UNL     1      -0.458   1.648   0.767  1.00  0.00     0.164 HD
ATOM     14  O   UNL     1      -2.672   2.131   1.691  1.00  0.00    -0.274 OA
BRANCH  12  15
ATOM     15  C   UNL     1      -3.092   3.114  -0.472  1.00  0.00     0.174 C 
BRANCH  15  16
ATOM     16  S   UNL     1      -3.432   4.792   0.214  1.00  0.00    -0.116 SA
BRANCH  16  17
ATOM     17  C   UNL     1      -1.856   5.536   0.642  1.00  0.00     0.011 A 
ATOM     18  C   UNL     1      -0.782   4.867   1.226  1.00  0.00     0.035 A 
ATOM     19  C   UNL     1      -1.757   6.926   0.515  1.00  0.00     0.035 A 
ATOM     20  C   UNL     1       0.334   5.586   1.624  1.00  0.00     0.112 A 
ATOM     21  C   UNL     1      -0.608   7.564   0.960  1.00  0.00     0.112 A 
ATOM     22  N   UNL     1       0.446   6.917   1.494  1.00  0.00    -0.265 NA
ENDBRANCH  16  17
ENDBRANCH  15  16
ENDBRANCH  12  15
ENDBRANCH   6  11
ENDBRANCH   3   6
ENDBRANCH   1   2
BRANCH   1  23
ATOM     23  C   UNL     1       1.575   4.070  -2.531  1.00  0.00     0.023 C 
BRANCH  23  24
ATOM     24  C   UNL     1       1.327   5.170  -3.565  1.00  0.00     0.023 C 
BRANCH  24  25
ATOM     25  C   UNL     1       0.595   6.410  -3.052  1.00  0.00     0.116 C 
BRANCH  25  26
ATOM     26  N   UNL     1       1.253   7.060  -1.927  1.00  0.00    -0.352 N 
ATOM     27  C   UNL     1       1.417   8.403  -1.684  1.00  0.00     0.251 C 
ATOM     28  H   UNL     1       1.632   6.455  -1.249  1.00  0.00     0.163 HD
ATOM     29  O   UNL     1       2.112   8.800  -0.754  1.00  0.00    -0.269 OA
BRANCH  27  30
ATOM     30  C   UNL     1       0.791   9.387  -2.586  1.00  0.00     0.039 A 
ATOM     31  C   UNL     1       1.593  10.406  -3.103  1.00  0.00     0.014 A 
ATOM     32  C   UNL     1      -0.546   9.260  -2.977  1.00  0.00     0.014 A 
ATOM     33  C   UNL     1       1.099  11.213  -4.124  1.00  0.00     0.010 A 
ATOM     34  C   UNL     1      -1.021  10.029  -4.032  1.00  0.00     0.010 A 
ATOM     35  C   UNL     1      -0.184  10.974  -4.643  1.00  0.00    -0.014 A 
BRANCH  35  36
ATOM     36  C   UNL     1      -0.604  11.600  -5.916  1.00  0.00     0.031 A 
ATOM     37  C   UNL     1      -1.696  12.620  -5.949  1.00  0.00     0.074 A 
ATOM     38  C   UNL     1      -0.033  11.167  -7.057  1.00  0.00     0.049 A 
ATOM     39  N   UNL     1      -2.220  13.228  -6.981  1.00  0.00    -0.248 NA
ATOM     40  C   UNL     1      -2.291  12.993  -4.657  1.00  0.00     0.031 C 
ATOM     41  C   UNL     1       1.012  10.143  -7.142  1.00  0.00     0.029 A 
ATOM     42  N   UNL     1      -0.255  11.523  -8.362  1.00  0.00    -0.354 N 
ATOM     43  C   UNL     1      -3.200  14.063  -6.466  1.00  0.00     0.074 A 
ATOM     44  C   UNL     1      -3.232  13.847  -5.034  1.00  0.00     0.031 C 
ATOM     45  C   UNL     1       1.355   9.970  -8.428  1.00  0.00     0.029 A 
ATOM     46  C   UNL     1       0.530  10.839  -9.258  1.00  0.00     0.049 A 
ATOM     47  H   UNL     1      -0.914  12.203  -8.631  1.00  0.00     0.167 HD
ATOM     48  C   UNL     1      -3.988  14.941  -7.130  1.00  0.00     0.037 A 
ATOM     49  C   UNL     1       0.573  10.901 -10.601  1.00  0.00     0.037 A 
ATOM     50  C   UNL     1      -3.953  15.142  -8.556  1.00  0.00     0.049 A 
ATOM     51  C   UNL     1      -0.350  11.844 -11.316  1.00  0.00     0.074 A 
ATOM     52  C   UNL     1      -4.672  16.046  -9.318  1.00  0.00     0.029 A 
ATOM     53  N   UNL     1      -3.163  14.416  -9.435  1.00  0.00    -0.354 N 
ATOM     54  N   UNL     1      -1.223  12.682 -10.812  1.00  0.00    -0.248 NA
ATOM     55  C   UNL     1      -0.287  11.847 -12.784  1.00  0.00     0.031 C 
ATOM     56  C   UNL     1      -4.349  15.835 -10.664  1.00  0.00     0.029 A 
ATOM     57  C   UNL     1      -3.401  14.828 -10.736  1.00  0.00     0.049 A 
ATOM     58  H   UNL     1      -2.527  13.711  -9.173  1.00  0.00     0.167 HD
ATOM     59  C   UNL     1      -1.802  13.325 -11.897  1.00  0.00     0.074 A 
ATOM     60  C   UNL     1      -1.171  12.788 -13.086  1.00  0.00     0.031 C 
ATOM     61  C   UNL     1      -2.768  14.274 -11.907  1.00  0.00     0.037 A 
BRANCH  48  62
ATOM     62  C   UNL     1      -4.953  15.747  -6.314  1.00  0.00     0.057 A 
ATOM     63  C   UNL     1      -4.519  16.777  -5.469  1.00  0.00     0.134 A 
ATOM     64  C   UNL     1      -6.330  15.506  -6.386  1.00  0.00     0.134 A 
ATOM     65  F   UNL     1      -3.211  17.049  -5.346  1.00  0.00    -0.206 F 
ATOM     66  C   UNL     1      -5.418  17.521  -4.704  1.00  0.00     0.040 A 
ATOM     67  C   UNL     1      -7.242  16.259  -5.643  1.00  0.00     0.040 A 
ATOM     68  F   UNL     1      -6.812  14.537  -7.179  1.00  0.00    -0.206 F 
ATOM     69  C   UNL     1      -6.785  17.265  -4.794  1.00  0.00     0.006 A 
ENDBRANCH  48  62
BRANCH  49  70
ATOM     70  C   UNL     1       1.535  10.057 -11.350  1.00  0.00     0.057 A 
ATOM     71  C   UNL     1       2.655  10.622 -11.968  1.00  0.00     0.134 A 
ATOM     72  C   UNL     1       1.370   8.670 -11.452  1.00  0.00     0.134 A 
ATOM     73  F   UNL     1       2.857  11.947 -11.916  1.00  0.00    -0.206 F 
ATOM     74  C   UNL     1       3.574   9.841 -12.670  1.00  0.00     0.040 A 
ATOM     75  C   UNL     1       2.291   7.874 -12.134  1.00  0.00     0.040 A 
ATOM     76  F   UNL     1       0.321   8.068 -10.873  1.00  0.00    -0.206 F 
ATOM     77  C   UNL     1       3.395   8.461 -12.750  1.00  0.00     0.006 A 
ENDBRANCH  49  70
BRANCH  61  78
ATOM     78  C   UNL     1      -3.192  14.798 -13.245  1.00  0.00     0.057 A 
ATOM     79  C   UNL     1      -4.009  14.049 -14.100  1.00  0.00     0.134 A 
ATOM     80  C   UNL     1      -2.815  16.080 -13.664  1.00  0.00     0.134 A 
ATOM     81  F   UNL     1      -4.389  12.807 -13.762  1.00  0.00    -0.206 F 
ATOM     82  C   UNL     1      -4.427  14.552 -15.333  1.00  0.00     0.040 A 
ATOM     83  C   UNL     1      -3.244  16.602 -14.884  1.00  0.00     0.040 A 
ATOM     84  F   UNL     1      -2.036  16.849 -12.888  1.00  0.00    -0.206 F 
ATOM     85  C   UNL     1      -4.050  15.836 -15.724  1.00  0.00     0.006 A 
ENDBRANCH  61  78
ENDBRANCH  35  36
ENDBRANCH  27  30
ENDBRANCH  25  26
ENDBRANCH  24  25
ENDBRANCH  23  24
ENDBRANCH   1  23
TORSDOF 17
