REMARK SMILES C[NH+]1CCC2(CC1)OC[C@H](C(=O)NCCCCNC(=O)c1ccc(-c3c4nc(c(-c5c(F)cccc5F)c5ccc([nH]5)c(-c5c(F)cccc5F)c5nc(c(-c6c(F)cccc6F)c6ccc3[nH]6)C=C5)C=C4)cc1)N2C(=O)c1cc(C(F)(F)F)cc(C(F)(F)F)c1
REMARK SMILES IDX 15 1 14 2 13 3 11 4 12 5 10 7 1 8 2 9 3 10 7 11 4 13 6 14
REMARK SMILES IDX 5 15 8 16 75 17 9 18 76 19 77 20 78 21 79 22 91 23 80 24
REMARK SMILES IDX 86 25 85 26 81 27 82 28 83 29 84 30 87 31 88 32 89 33 90 34
REMARK SMILES IDX 16 35 17 36 18 37 19 38 20 40 21 41 22 42 74 43 23 44 73 45
REMARK SMILES IDX 24 46 25 47 26 48 67 49 27 50 72 51 66 52 68 53 28 54 71 55
REMARK SMILES IDX 65 56 64 57 29 59 55 60 38 61 54 62 39 63 42 64 53 65 69 66
REMARK SMILES IDX 40 67 41 68 52 70 70 71 43 72 30 73 31 74 36 75 32 76 33 77
REMARK SMILES IDX 35 78 37 79 34 80 56 81 57 82 62 83 58 84 59 85 61 86 63 87
REMARK SMILES IDX 60 88 44 89 45 90 50 91 46 92 47 93 49 94 51 95 48 96
REMARK H PARENT 13 6 2 12 18 39 68 58 42 69
REMARK Flexibility Score: inf
ROOT
ATOM      1  C   UNL     1      -2.524   5.873   1.629  1.00  0.00     0.023 C 
ENDROOT
BRANCH   1   2
ATOM      2  C   UNL     1      -1.518   7.021   1.595  1.00  0.00     0.116 C 
BRANCH   2   3
ATOM      3  N   UNL     1      -0.326   6.697   2.348  1.00  0.00    -0.354 N 
ATOM      4  C   UNL     1       0.903   6.309   1.900  1.00  0.00     0.245 C 
ATOM      5  O   UNL     1       1.747   6.063   2.766  1.00  0.00    -0.273 OA
ATOM      6  H   UNL     1      -0.415   6.765   3.326  1.00  0.00     0.163 HD
BRANCH   4   7
ATOM      7  C   UNL     1       1.177   6.142   0.387  1.00  0.00     0.203 C 
ATOM      8  C   UNL     1       1.868  -0.309   0.207  1.00  0.00     0.332 C 
ATOM      9  N   UNL     1       1.311   1.020   0.004  1.00  0.00    -0.337 N 
ATOM     10  C   UNL     1       1.197   1.790   1.233  1.00  0.00     0.267 C 
ATOM     11  C   UNL     1       1.775   1.659  -1.221  1.00  0.00     0.267 C 
ATOM     12  H   UNL     1       0.321   0.934  -0.224  1.00  0.00     0.347 HD
ATOM     13  C   UNL     1       1.992   3.068   1.307  1.00  0.00     0.120 C 
ATOM     14  C   UNL     1       2.383   3.053  -1.154  1.00  0.00     0.120 C 
ATOM     15  C   UNL     1       1.958   3.911   0.033  1.00  0.00     0.155 C 
ATOM     16  O   UNL     1       3.101   4.817   0.210  1.00  0.00    -0.352 OA
ATOM     17  N   UNL     1       0.806   4.827  -0.137  1.00  0.00    -0.295 N 
ATOM     18  C   UNL     1       2.660   6.173   0.120  1.00  0.00     0.198 C 
BRANCH  17  19
ATOM     19  C   UNL     1      -0.360   4.759  -0.892  1.00  0.00     0.256 C 
ATOM     20  O   UNL     1      -1.014   5.761  -1.190  1.00  0.00    -0.269 OA
BRANCH  19  21
ATOM     21  C   UNL     1      -0.919   3.510  -1.425  1.00  0.00     0.041 A 
ATOM     22  C   UNL     1      -1.062   3.364  -2.811  1.00  0.00     0.027 A 
ATOM     23  C   UNL     1      -1.452   2.546  -0.573  1.00  0.00     0.027 A 
ATOM     24  C   UNL     1      -1.615   2.189  -3.350  1.00  0.00     0.057 A 
ATOM     25  C   UNL     1      -1.912   1.322  -1.082  1.00  0.00     0.057 A 
ATOM     26  C   UNL     1      -2.004   1.160  -2.475  1.00  0.00     0.026 A 
BRANCH  24  27
ATOM     27  C   UNL     1      -1.786   2.045  -4.844  1.00  0.00     0.416 C 
ATOM     28  F   UNL     1      -2.803   2.810  -5.324  1.00  0.00    -0.166 F 
ATOM     29  F   UNL     1      -0.673   2.417  -5.533  1.00  0.00    -0.166 F 
ATOM     30  F   UNL     1      -2.058   0.769  -5.234  1.00  0.00    -0.166 F 
ENDBRANCH  24  27
BRANCH  25  31
ATOM     31  C   UNL     1      -2.234   0.169  -0.159  1.00  0.00     0.416 C 
ATOM     32  F   UNL     1      -3.537  -0.215  -0.244  1.00  0.00    -0.166 F 
ATOM     33  F   UNL     1      -1.500  -0.943  -0.443  1.00  0.00    -0.166 F 
ATOM     34  F   UNL     1      -2.010   0.441   1.157  1.00  0.00    -0.166 F 
ENDBRANCH  25  31
ENDBRANCH  19  21
ENDBRANCH  17  19
ENDBRANCH   4   7
ENDBRANCH   2   3
ENDBRANCH   1   2
BRANCH   1  35
ATOM     35  C   UNL     1      -3.183   5.648   2.991  1.00  0.00     0.023 C 
BRANCH  35  36
ATOM     36  C   UNL     1      -3.873   6.870   3.588  1.00  0.00     0.116 C 
BRANCH  36  37
ATOM     37  N   UNL     1      -4.878   7.444   2.706  1.00  0.00    -0.352 N 
ATOM     38  C   UNL     1      -6.137   7.900   3.012  1.00  0.00     0.251 C 
ATOM     39  H   UNL     1      -4.620   7.516   1.759  1.00  0.00     0.163 HD
ATOM     40  O   UNL     1      -6.908   8.241   2.120  1.00  0.00    -0.269 OA
BRANCH  38  41
ATOM     41  C   UNL     1      -6.574   7.936   4.422  1.00  0.00     0.039 A 
ATOM     42  C   UNL     1      -7.811   7.380   4.754  1.00  0.00     0.014 A 
ATOM     43  C   UNL     1      -5.752   8.477   5.414  1.00  0.00     0.014 A 
ATOM     44  C   UNL     1      -8.186   7.288   6.095  1.00  0.00     0.010 A 
ATOM     45  C   UNL     1      -6.095   8.321   6.754  1.00  0.00     0.010 A 
ATOM     46  C   UNL     1      -7.308   7.711   7.107  1.00  0.00    -0.014 A 
BRANCH  46  47
ATOM     47  C   UNL     1      -7.621   7.474   8.539  1.00  0.00     0.031 A 
ATOM     48  C   UNL     1      -7.820   8.627   9.479  1.00  0.00     0.074 A 
ATOM     49  C   UNL     1      -7.656   6.209   9.003  1.00  0.00     0.049 A 
ATOM     50  N   UNL     1      -8.040   8.611  10.770  1.00  0.00    -0.248 NA
ATOM     51  C   UNL     1      -7.738   9.977   8.900  1.00  0.00     0.031 C 
ATOM     52  C   UNL     1      -7.429   5.006   8.199  1.00  0.00     0.029 A 
ATOM     53  N   UNL     1      -7.883   5.724  10.267  1.00  0.00    -0.354 N 
ATOM     54  C   UNL     1      -8.117   9.942  11.157  1.00  0.00     0.074 A 
ATOM     55  C   UNL     1      -7.867  10.740   9.975  1.00  0.00     0.031 C 
ATOM     56  C   UNL     1      -7.552   3.924   8.982  1.00  0.00     0.029 A 
ATOM     57  C   UNL     1      -7.821   4.354  10.350  1.00  0.00     0.049 A 
ATOM     58  H   UNL     1      -8.072   6.303  11.040  1.00  0.00     0.167 HD
ATOM     59  C   UNL     1      -8.390  10.452  12.382  1.00  0.00     0.037 A 
ATOM     60  C   UNL     1      -7.954   3.536  11.411  1.00  0.00     0.037 A 
ATOM     61  C   UNL     1      -8.648   9.653  13.552  1.00  0.00     0.049 A 
ATOM     62  C   UNL     1      -8.230   4.129  12.764  1.00  0.00     0.074 A 
ATOM     63  C   UNL     1      -8.996  10.076  14.824  1.00  0.00     0.029 A 
ATOM     64  N   UNL     1      -8.575   8.269  13.598  1.00  0.00    -0.354 N 
ATOM     65  N   UNL     1      -8.376   5.388  13.101  1.00  0.00    -0.248 NA
ATOM     66  C   UNL     1      -8.360   3.188  13.885  1.00  0.00     0.031 C 
ATOM     67  C   UNL     1      -9.080   8.951  15.651  1.00  0.00     0.029 A 
ATOM     68  C   UNL     1      -8.839   7.824  14.884  1.00  0.00     0.049 A 
ATOM     69  H   UNL     1      -8.367   7.689  12.831  1.00  0.00     0.167 HD
ATOM     70  C   UNL     1      -8.636   5.389  14.465  1.00  0.00     0.074 A 
ATOM     71  C   UNL     1      -8.649   4.004  14.889  1.00  0.00     0.031 C 
ATOM     72  C   UNL     1      -8.844   6.442  15.293  1.00  0.00     0.037 A 
BRANCH  59  73
ATOM     73  C   UNL     1      -8.425  11.947  12.519  1.00  0.00     0.057 A 
ATOM     74  C   UNL     1      -9.446  12.718  11.948  1.00  0.00     0.134 A 
ATOM     75  C   UNL     1      -7.450  12.620  13.267  1.00  0.00     0.134 A 
ATOM     76  F   UNL     1     -10.405  12.138  11.211  1.00  0.00    -0.206 F 
ATOM     77  C   UNL     1      -9.482  14.106  12.094  1.00  0.00     0.040 A 
ATOM     78  C   UNL     1      -7.492  14.004  13.443  1.00  0.00     0.040 A 
ATOM     79  F   UNL     1      -6.448  11.942  13.847  1.00  0.00    -0.206 F 
ATOM     80  C   UNL     1      -8.507  14.752  12.851  1.00  0.00     0.006 A 
ENDBRANCH  59  73
BRANCH  60  81
ATOM     81  C   UNL     1      -7.837   2.066  11.236  1.00  0.00     0.057 A 
ATOM     82  C   UNL     1      -8.950   1.231  11.385  1.00  0.00     0.134 A 
ATOM     83  C   UNL     1      -6.614   1.461  10.925  1.00  0.00     0.134 A 
ATOM     84  F   UNL     1     -10.146   1.749  11.702  1.00  0.00    -0.206 F 
ATOM     85  C   UNL     1      -8.848  -0.155  11.251  1.00  0.00     0.040 A 
ATOM     86  C   UNL     1      -6.502   0.080  10.761  1.00  0.00     0.040 A 
ATOM     87  F   UNL     1      -5.511   2.207  10.762  1.00  0.00    -0.206 F 
ATOM     88  C   UNL     1      -7.621  -0.733  10.932  1.00  0.00     0.006 A 
ENDBRANCH  60  81
BRANCH  72  89
ATOM     89  C   UNL     1      -9.122   6.135  16.736  1.00  0.00     0.057 A 
ATOM     90  C   UNL     1      -8.124   5.659  17.596  1.00  0.00     0.134 A 
ATOM     91  C   UNL     1     -10.396   6.348  17.279  1.00  0.00     0.134 A 
ATOM     92  F   UNL     1      -6.887   5.420  17.135  1.00  0.00    -0.206 F 
ATOM     93  C   UNL     1      -8.388   5.383  18.939  1.00  0.00     0.040 A 
ATOM     94  C   UNL     1     -10.665   6.104  18.627  1.00  0.00     0.040 A 
ATOM     95  F   UNL     1     -11.395   6.810  16.513  1.00  0.00    -0.206 F 
ATOM     96  C   UNL     1      -9.661   5.613  19.459  1.00  0.00     0.006 A 
ENDBRANCH  72  89
ENDBRANCH  46  47
ENDBRANCH  38  41
ENDBRANCH  36  37
ENDBRANCH  35  36
ENDBRANCH   1  35
TORSDOF 15
