REMARK SMILES Cc1ccc(C(=O)N2CCC3(CCC(=O)N(CC(=O)NCCCCNC(=O)c4ccc(-c5c6nc(c(-c7c(F)cccc7F)c7ccc([nH]7)c(-c7c(F)cccc7F)c7nc(c(-c8c(F)cccc8F)c8ccc5[nH]8)C=C7)C=C6)cc4)C3)CC2)cc1O
REMARK SMILES IDX 22 1 21 2 20 3 18 4 19 5 17 7 16 8 6 9 7 10 8 11 9 12 84 13
REMARK SMILES IDX 10 14 83 15 11 16 12 17 82 18 13 19 14 20 15 21 5 22 1 23
REMARK SMILES IDX 2 24 3 25 86 26 4 27 85 28 87 29 23 31 24 32 25 33 26 34
REMARK SMILES IDX 27 36 28 37 29 38 81 39 30 40 80 41 31 42 32 43 33 44 74 45
REMARK SMILES IDX 34 46 79 47 73 48 75 49 35 50 78 51 72 52 71 53 36 55 62 56
REMARK SMILES IDX 45 57 61 58 46 59 49 60 60 61 76 62 47 63 48 64 59 66 77 67
REMARK SMILES IDX 50 68 37 69 38 70 43 71 39 72 40 73 42 74 44 75 41 76 63 77
REMARK SMILES IDX 64 78 69 79 65 80 66 81 68 82 70 83 67 84 51 85 52 86 57 87
REMARK SMILES IDX 53 88 54 89 56 90 58 91 55 92
REMARK H PARENT 20 6 87 30 25 35 75 54 49 65
REMARK Flexibility Score: inf
ROOT
ATOM      1  C   UNL     1       8.723  -5.184   1.418  1.00  0.00     0.023 C 
ENDROOT
BRANCH   1   2
ATOM      2  C   UNL     1       7.989  -5.087   2.751  1.00  0.00     0.116 C 
BRANCH   2   3
ATOM      3  N   UNL     1       8.839  -4.578   3.798  1.00  0.00    -0.355 N 
ATOM      4  C   UNL     1       8.858  -3.337   4.362  1.00  0.00     0.239 C 
ATOM      5  O   UNL     1       9.518  -3.201   5.396  1.00  0.00    -0.273 OA
ATOM      6  H   UNL     1       9.498  -5.216   4.156  1.00  0.00     0.163 HD
BRANCH   4   7
ATOM      7  C   UNL     1       7.930  -2.224   3.856  1.00  0.00     0.219 C 
BRANCH   7   8
ATOM      8  N   UNL     1       8.034  -1.800   2.454  1.00  0.00    -0.333 N 
ATOM      9  C   UNL     1       3.009   1.503   0.200  1.00  0.00     0.253 C 
ATOM     10  O   UNL     1       2.862   2.660   0.595  1.00  0.00    -0.269 OA
ATOM     11  N   UNL     1       4.271   0.922   0.111  1.00  0.00    -0.339 N 
ATOM     12  C   UNL     1       5.317   1.434   0.981  1.00  0.00     0.120 C 
ATOM     13  C   UNL     1       4.720  -0.000  -0.926  1.00  0.00     0.120 C 
ATOM     14  C   UNL     1       5.967   0.260   1.701  1.00  0.00     0.030 C 
ATOM     15  C   UNL     1       5.457  -1.198  -0.317  1.00  0.00     0.030 C 
ATOM     16  C   UNL     1       6.540  -0.801   0.726  1.00  0.00    -0.008 C 
ATOM     17  C   UNL     1       7.816  -0.332   0.000  1.00  0.00     0.019 C 
ATOM     18  C   UNL     1       6.937  -2.049   1.529  1.00  0.00     0.127 C 
ATOM     19  C   UNL     1       8.977  -0.074   0.949  1.00  0.00     0.101 C 
ATOM     20  C   UNL     1       9.144  -1.056   2.095  1.00  0.00     0.223 C 
ATOM     21  O   UNL     1      10.181  -1.063   2.755  1.00  0.00    -0.275 OA
BRANCH   9  22
ATOM     22  C   UNL     1       1.782   0.683  -0.033  1.00  0.00     0.043 A 
ATOM     23  C   UNL     1      -1.920  -1.562  -0.078  1.00  0.00     0.048 C 
ATOM     24  C   UNL     1      -0.650  -0.764  -0.098  1.00  0.00    -0.009 A 
ATOM     25  C   UNL     1       0.575  -1.427   0.047  1.00  0.00     0.008 A 
ATOM     26  C   UNL     1      -0.637   0.631  -0.205  1.00  0.00     0.119 A 
ATOM     27  C   UNL     1       1.773  -0.708   0.103  1.00  0.00     0.014 A 
ATOM     28  C   UNL     1       0.560   1.348  -0.188  1.00  0.00     0.060 A 
BRANCH  26  29
ATOM     29  O   UNL     1      -1.780   1.373  -0.295  1.00  0.00    -0.508 OA
ATOM     30  H   UNL     1      -2.615   0.947  -0.310  1.00  0.00     0.293 HD
ENDBRANCH  26  29
ENDBRANCH   9  22
ENDBRANCH   7   8
ENDBRANCH   4   7
ENDBRANCH   2   3
ENDBRANCH   1   2
BRANCH   1  31
ATOM     31  C   UNL     1       9.848  -6.222   1.386  1.00  0.00     0.023 C 
BRANCH  31  32
ATOM     32  C   UNL     1       9.444  -7.634   1.792  1.00  0.00     0.116 C 
BRANCH  32  33
ATOM     33  N   UNL     1       8.358  -8.174   0.988  1.00  0.00    -0.352 N 
ATOM     34  C   UNL     1       8.202  -9.446   0.492  1.00  0.00     0.251 C 
ATOM     35  H   UNL     1       7.637  -7.541   0.769  1.00  0.00     0.163 HD
ATOM     36  O   UNL     1       7.276  -9.700  -0.271  1.00  0.00    -0.269 OA
BRANCH  34  37
ATOM     37  C   UNL     1       9.178 -10.495   0.852  1.00  0.00     0.039 A 
ATOM     38  C   UNL     1       9.713 -11.291  -0.164  1.00  0.00     0.014 A 
ATOM     39  C   UNL     1       9.586 -10.674   2.176  1.00  0.00     0.014 A 
ATOM     40  C   UNL     1      10.711 -12.218   0.140  1.00  0.00     0.010 A 
ATOM     41  C   UNL     1      10.631 -11.546   2.466  1.00  0.00     0.010 A 
ATOM     42  C   UNL     1      11.206 -12.324   1.450  1.00  0.00    -0.014 A 
BRANCH  42  43
ATOM     43  C   UNL     1      12.342 -13.226   1.768  1.00  0.00     0.031 A 
ATOM     44  C   UNL     1      12.155 -14.386   2.704  1.00  0.00     0.074 A 
ATOM     45  C   UNL     1      13.563 -12.953   1.270  1.00  0.00     0.049 A 
ATOM     46  N   UNL     1      13.038 -15.252   3.133  1.00  0.00    -0.248 NA
ATOM     47  C   UNL     1      10.805 -14.582   3.253  1.00  0.00     0.031 C 
ATOM     48  C   UNL     1      13.889 -11.816   0.407  1.00  0.00     0.029 A 
ATOM     49  N   UNL     1      14.761 -13.602   1.431  1.00  0.00    -0.354 N 
ATOM     50  C   UNL     1      12.357 -16.082   4.014  1.00  0.00     0.074 A 
ATOM     51  C   UNL     1      11.000 -15.585   4.097  1.00  0.00     0.031 C 
ATOM     52  C   UNL     1      15.195 -11.859   0.099  1.00  0.00     0.029 A 
ATOM     53  C   UNL     1      15.805 -13.004   0.768  1.00  0.00     0.049 A 
ATOM     54  H   UNL     1      14.863 -14.420   1.970  1.00  0.00     0.167 HD
ATOM     55  C   UNL     1      12.815 -17.170   4.677  1.00  0.00     0.037 A 
ATOM     56  C   UNL     1      17.108 -13.335   0.711  1.00  0.00     0.037 A 
ATOM     57  C   UNL     1      14.159 -17.674   4.574  1.00  0.00     0.049 A 
ATOM     58  C   UNL     1      17.590 -14.557   1.439  1.00  0.00     0.074 A 
ATOM     59  C   UNL     1      14.696 -18.820   5.135  1.00  0.00     0.029 A 
ATOM     60  N   UNL     1      15.182 -17.057   3.870  1.00  0.00    -0.354 N 
ATOM     61  N   UNL     1      16.913 -15.390   2.192  1.00  0.00    -0.248 NA
ATOM     62  C   UNL     1      19.014 -14.891   1.303  1.00  0.00     0.031 C 
ATOM     63  C   UNL     1      16.056 -18.869   4.813  1.00  0.00     0.029 A 
ATOM     64  C   UNL     1      16.356 -17.782   4.008  1.00  0.00     0.049 A 
ATOM     65  H   UNL     1      15.089 -16.227   3.349  1.00  0.00     0.167 HD
ATOM     66  C   UNL     1      17.821 -16.355   2.605  1.00  0.00     0.074 A 
ATOM     67  C   UNL     1      19.094 -16.015   2.002  1.00  0.00     0.031 C 
ATOM     68  C   UNL     1      17.619 -17.427   3.409  1.00  0.00     0.037 A 
BRANCH  55  69
ATOM     69  C   UNL     1      11.850 -17.885   5.579  1.00  0.00     0.057 A 
ATOM     70  C   UNL     1      10.761 -18.611   5.076  1.00  0.00     0.134 A 
ATOM     71  C   UNL     1      12.022 -17.864   6.969  1.00  0.00     0.134 A 
ATOM     72  F   UNL     1      10.531 -18.663   3.755  1.00  0.00    -0.206 F 
ATOM     73  C   UNL     1       9.861 -19.260   5.923  1.00  0.00     0.040 A 
ATOM     74  C   UNL     1      11.146 -18.534   7.824  1.00  0.00     0.040 A 
ATOM     75  F   UNL     1      13.047 -17.195   7.519  1.00  0.00    -0.206 F 
ATOM     76  C   UNL     1      10.056 -19.227   7.302  1.00  0.00     0.006 A 
ENDBRANCH  55  69
BRANCH  56  77
ATOM     77  C   UNL     1      18.042 -12.504  -0.089  1.00  0.00     0.057 A 
ATOM     78  C   UNL     1      18.572 -12.970  -1.297  1.00  0.00     0.134 A 
ATOM     79  C   UNL     1      18.410 -11.217   0.324  1.00  0.00     0.134 A 
ATOM     80  F   UNL     1      18.270 -14.201  -1.736  1.00  0.00    -0.206 F 
ATOM     81  C   UNL     1      19.443 -12.193  -2.062  1.00  0.00     0.040 A 
ATOM     82  C   UNL     1      19.261 -10.420  -0.442  1.00  0.00     0.040 A 
ATOM     83  F   UNL     1      17.927 -10.710   1.468  1.00  0.00    -0.206 F 
ATOM     84  C   UNL     1      19.784 -10.910  -1.637  1.00  0.00     0.006 A 
ENDBRANCH  56  77
BRANCH  68  85
ATOM     85  C   UNL     1      18.796 -18.321   3.671  1.00  0.00     0.057 A 
ATOM     86  C   UNL     1      19.858 -17.922   4.494  1.00  0.00     0.134 A 
ATOM     87  C   UNL     1      18.851 -19.608   3.123  1.00  0.00     0.134 A 
ATOM     88  F   UNL     1      19.872 -16.696   5.039  1.00  0.00    -0.206 F 
ATOM     89  C   UNL     1      20.943 -18.764   4.743  1.00  0.00     0.040 A 
ATOM     90  C   UNL     1      19.918 -20.469   3.386  1.00  0.00     0.040 A 
ATOM     91  F   UNL     1      17.863 -20.056   2.333  1.00  0.00    -0.206 F 
ATOM     92  C   UNL     1      20.971 -20.045   4.194  1.00  0.00     0.006 A 
ENDBRANCH  68  85
ENDBRANCH  42  43
ENDBRANCH  34  37
ENDBRANCH  32  33
ENDBRANCH  31  32
ENDBRANCH   1  31
TORSDOF 14
