REMARK SMILES CC[C@@H](C)[C@H](C(=O)NCCCCNC(=O)c1ccc(-c2c3nc(c(-c4c(F)cccc4F)c4ccc([nH]4)c(-c4c(F)cccc4F)c4nc(c(-c5c(F)cccc5F)c5ccc2[nH]5)C=C4)C=C3)cc1)S(=O)(=O)c1cccc(OC)c1
REMARK SMILES IDX 10 1 9 2 8 3 6 4 7 5 5 7 3 8 4 9 2 10 1 11 70 12 71 13 72 14
REMARK SMILES IDX 73 15 74 16 80 17 75 18 77 19 76 20 78 21 79 22 11 23 12 24
REMARK SMILES IDX 13 25 14 26 15 28 16 29 17 30 69 31 18 32 68 33 19 34 20 35
REMARK SMILES IDX 21 36 62 37 22 38 67 39 61 40 63 41 23 42 66 43 60 44 59 45
REMARK SMILES IDX 24 47 50 48 33 49 49 50 34 51 37 52 48 53 64 54 35 55 36 56
REMARK SMILES IDX 47 58 65 59 38 60 25 61 26 62 31 63 27 64 28 65 30 66 32 67
REMARK SMILES IDX 29 68 51 69 52 70 57 71 53 72 54 73 56 74 58 75 55 76 39 77
REMARK SMILES IDX 40 78 45 79 41 80 42 81 44 82 46 83 43 84
REMARK H PARENT 8 6 13 27 63 46 37 57
REMARK Flexibility Score: inf
ROOT
ATOM      1  C   UNL     1       3.001   0.736   2.857  1.00  0.00     0.023 C 
ENDROOT
BRANCH   1   2
ATOM      2  C   UNL     1       3.055   1.761   1.725  1.00  0.00     0.116 C 
BRANCH   2   3
ATOM      3  N   UNL     1       1.902   1.678   0.860  1.00  0.00    -0.355 N 
ATOM      4  C   UNL     1       0.847   2.505   0.660  1.00  0.00     0.239 C 
ATOM      5  O   UNL     1       0.078   2.142  -0.240  1.00  0.00    -0.274 OA
ATOM      6  H   UNL     1       1.878   0.863   0.309  1.00  0.00     0.163 HD
BRANCH   4   7
ATOM      7  C   UNL     1       0.537   3.758   1.461  1.00  0.00     0.205 C 
BRANCH   7   8
ATOM      8  C   UNL     1       0.521   3.771   3.018  1.00  0.00     0.014 C 
ATOM      9  C   UNL     1       1.796   4.187   3.753  1.00  0.00     0.009 C 
BRANCH   8  10
ATOM     10  C   UNL     1      -0.133   2.479   3.576  1.00  0.00     0.002 C 
ATOM     11  C   UNL     1       0.106   2.190   5.051  1.00  0.00     0.004 C 
ENDBRANCH   8  10
ENDBRANCH   7   8
BRANCH   7  12
ATOM     12  S   UNL     1       1.043   5.238   0.615  1.00  0.00     0.190 S 
ATOM     13  O   UNL     1       0.668   5.154  -0.784  1.00  0.00    -0.223 OA
ATOM     14  O   UNL     1       0.553   6.357   1.405  1.00  0.00    -0.223 OA
BRANCH  12  15
ATOM     15  C   UNL     1       2.818   5.381   0.607  1.00  0.00     0.071 A 
ATOM     16  C   UNL     1       3.601   4.433  -0.053  1.00  0.00     0.020 A 
ATOM     17  C   UNL     1       3.414   6.518   1.169  1.00  0.00     0.066 A 
ATOM     18  C   UNL     1       4.992   4.547  -0.026  1.00  0.00     0.005 A 
ATOM     19  C   UNL     1       4.800   6.665   1.125  1.00  0.00     0.120 A 
ATOM     20  C   UNL     1       5.589   5.653   0.580  1.00  0.00     0.046 A 
BRANCH  19  21
ATOM     21  O   UNL     1       5.471   7.752   1.616  1.00  0.00    -0.497 OA
ATOM     22  C   UNL     1       4.839   9.000   1.333  1.00  0.00     0.278 C 
ENDBRANCH  19  21
ENDBRANCH  12  15
ENDBRANCH   7  12
ENDBRANCH   4   7
ENDBRANCH   2   3
ENDBRANCH   1   2
BRANCH   1  23
ATOM     23  C   UNL     1       3.861  -0.506   2.627  1.00  0.00     0.023 C 
BRANCH  23  24
ATOM     24  C   UNL     1       5.345  -0.236   2.412  1.00  0.00     0.116 C 
BRANCH  24  25
ATOM     25  N   UNL     1       5.971   0.546   3.467  1.00  0.00    -0.352 N 
ATOM     26  C   UNL     1       7.303   0.553   3.815  1.00  0.00     0.251 C 
ATOM     27  H   UNL     1       5.378   1.133   3.989  1.00  0.00     0.163 HD
ATOM     28  O   UNL     1       7.708   1.204   4.770  1.00  0.00    -0.269 OA
BRANCH  26  29
ATOM     29  C   UNL     1       8.226  -0.296   3.038  1.00  0.00     0.039 A 
ATOM     30  C   UNL     1       8.939  -1.296   3.701  1.00  0.00     0.014 A 
ATOM     31  C   UNL     1       8.281  -0.177   1.646  1.00  0.00     0.014 A 
ATOM     32  C   UNL     1       9.650  -2.235   2.955  1.00  0.00     0.010 A 
ATOM     33  C   UNL     1       8.930  -1.156   0.904  1.00  0.00     0.010 A 
ATOM     34  C   UNL     1       9.614  -2.197   1.551  1.00  0.00    -0.014 A 
BRANCH  34  35
ATOM     35  C   UNL     1      10.276  -3.247   0.740  1.00  0.00     0.031 A 
ATOM     36  C   UNL     1      11.429  -2.890  -0.153  1.00  0.00     0.074 A 
ATOM     37  C   UNL     1       9.795  -4.505   0.756  1.00  0.00     0.049 A 
ATOM     38  N   UNL     1      12.102  -3.651  -0.978  1.00  0.00    -0.248 NA
ATOM     39  C   UNL     1      11.860  -1.483  -0.143  1.00  0.00     0.031 C 
ATOM     40  C   UNL     1       8.639  -4.963   1.530  1.00  0.00     0.029 A 
ATOM     41  N   UNL     1      10.215  -5.630   0.092  1.00  0.00    -0.354 N 
ATOM     42  C   UNL     1      13.020  -2.813  -1.596  1.00  0.00     0.074 A 
ATOM     43  C   UNL     1      12.784  -1.478  -1.093  1.00  0.00     0.031 C 
ATOM     44  C   UNL     1       8.461  -6.278   1.320  1.00  0.00     0.029 A 
ATOM     45  C   UNL     1       9.472  -6.749   0.378  1.00  0.00     0.049 A 
ATOM     46  H   UNL     1      10.977  -5.634  -0.531  1.00  0.00     0.167 HD
ATOM     47  C   UNL     1      13.992  -3.132  -2.483  1.00  0.00     0.037 A 
ATOM     48  C   UNL     1       9.598  -8.014  -0.065  1.00  0.00     0.037 A 
ATOM     49  C   UNL     1      14.251  -4.466  -2.954  1.00  0.00     0.049 A 
ATOM     50  C   UNL     1      10.709  -8.350  -1.019  1.00  0.00     0.074 A 
ATOM     51  C   UNL     1      15.253  -4.903  -3.802  1.00  0.00     0.029 A 
ATOM     52  N   UNL     1      13.503  -5.581  -2.608  1.00  0.00    -0.354 N 
ATOM     53  N   UNL     1      11.615  -7.561  -1.543  1.00  0.00    -0.248 NA
ATOM     54  C   UNL     1      10.820  -9.755  -1.437  1.00  0.00     0.031 C 
ATOM     55  C   UNL     1      15.095  -6.281  -3.990  1.00  0.00     0.029 A 
ATOM     56  C   UNL     1      14.016  -6.706  -3.232  1.00  0.00     0.049 A 
ATOM     57  H   UNL     1      12.723  -5.575  -2.007  1.00  0.00     0.167 HD
ATOM     58  C   UNL     1      12.419  -8.375  -2.329  1.00  0.00     0.074 A 
ATOM     59  C   UNL     1      11.901  -9.722  -2.204  1.00  0.00     0.031 C 
ATOM     60  C   UNL     1      13.491  -8.039  -3.087  1.00  0.00     0.037 A 
BRANCH  47  61
ATOM     61  C   UNL     1      14.852  -2.012  -2.987  1.00  0.00     0.057 A 
ATOM     62  C   UNL     1      15.799  -1.386  -2.166  1.00  0.00     0.134 A 
ATOM     63  C   UNL     1      14.740  -1.560  -4.307  1.00  0.00     0.134 A 
ATOM     64  F   UNL     1      15.942  -1.762  -0.885  1.00  0.00    -0.206 F 
ATOM     65  C   UNL     1      16.584  -0.330  -2.631  1.00  0.00     0.040 A 
ATOM     66  C   UNL     1      15.538  -0.522  -4.791  1.00  0.00     0.040 A 
ATOM     67  F   UNL     1      13.855  -2.118  -5.146  1.00  0.00    -0.206 F 
ATOM     68  C   UNL     1      16.458   0.101  -3.950  1.00  0.00     0.006 A 
ENDBRANCH  47  61
BRANCH  48  69
ATOM     69  C   UNL     1       8.678  -9.069   0.426  1.00  0.00     0.057 A 
ATOM     70  C   UNL     1       9.120 -10.044   1.327  1.00  0.00     0.134 A 
ATOM     71  C   UNL     1       7.345  -9.134   0.005  1.00  0.00     0.134 A 
ATOM     72  F   UNL     1      10.392 -10.041   1.753  1.00  0.00    -0.206 F 
ATOM     73  C   UNL     1       8.275 -11.059   1.779  1.00  0.00     0.040 A 
ATOM     74  C   UNL     1       6.484 -10.132   0.464  1.00  0.00     0.040 A 
ATOM     75  F   UNL     1       6.860  -8.223  -0.852  1.00  0.00    -0.206 F 
ATOM     76  C   UNL     1       6.951 -11.102   1.349  1.00  0.00     0.006 A 
ENDBRANCH  48  69
BRANCH  60  77
ATOM     77  C   UNL     1      14.189  -9.149  -3.812  1.00  0.00     0.057 A 
ATOM     78  C   UNL     1      13.638  -9.745  -4.953  1.00  0.00     0.134 A 
ATOM     79  C   UNL     1      15.442  -9.603  -3.381  1.00  0.00     0.134 A 
ATOM     80  F   UNL     1      12.435  -9.362  -5.406  1.00  0.00    -0.206 F 
ATOM     81  C   UNL     1      14.301 -10.769  -5.630  1.00  0.00     0.040 A 
ATOM     82  C   UNL     1      16.124 -10.611  -4.063  1.00  0.00     0.040 A 
ATOM     83  F   UNL     1      16.025  -9.068  -2.299  1.00  0.00    -0.206 F 
ATOM     84  C   UNL     1      15.551 -11.201  -5.188  1.00  0.00     0.006 A 
ENDBRANCH  60  77
ENDBRANCH  34  35
ENDBRANCH  26  29
ENDBRANCH  24  25
ENDBRANCH  23  24
ENDBRANCH   1  23
TORSDOF 16
