REMARK SMILES Cc1cc(N2CC[NH+]([C@@H](C(=O)NCCCCNC(=O)c3ccc(-c4c5nc(c(-c6c(F)cccc6F)c6ccc([nH]6)c(-c6c(F)cccc6F)c6nc(c(-c7c(F)cccc7F)c7ccc4[nH]7)C=C6)C=C5)cc3)c3c[nH]c4ccccc34)CC2)nc2ccccc12
REMARK SMILES IDX 14 1 13 2 12 3 10 4 11 5 9 7 8 8 5 9 6 10 84 11 7 12 83 13
REMARK SMILES IDX 4 15 1 16 2 17 3 18 91 19 86 20 90 21 85 22 87 23 89 24
REMARK SMILES IDX 88 25 74 26 75 27 82 28 76 29 77 30 81 31 78 33 80 34 79 35
REMARK SMILES IDX 15 36 16 37 17 38 18 39 19 41 20 42 21 43 73 44 22 45 72 46
REMARK SMILES IDX 23 47 24 48 25 49 66 50 26 51 71 52 65 53 67 54 27 55 70 56
REMARK SMILES IDX 64 57 63 58 28 60 54 61 37 62 53 63 38 64 41 65 52 66 68 67
REMARK SMILES IDX 39 68 40 69 51 71 69 72 42 73 29 74 30 75 35 76 31 77 32 78
REMARK SMILES IDX 34 79 36 80 33 81 55 82 56 83 61 84 57 85 58 86 60 87 62 88
REMARK SMILES IDX 59 89 43 90 44 91 49 92 45 93 46 94 48 95 50 96 47 97
REMARK H PARENT 12 6 8 14 76 32 17 40 67 59 41 70
REMARK Flexibility Score: inf
ROOT
ATOM      1  C   UNL     1      -4.485  -2.464  -3.115  1.00  0.00     0.023 C 
ENDROOT
BRANCH   1   2
ATOM      2  C   UNL     1      -4.532  -3.995  -2.829  1.00  0.00     0.116 C 
BRANCH   2   3
ATOM      3  N   UNL     1      -3.462  -4.565  -1.991  1.00  0.00    -0.351 N 
ATOM      4  C   UNL     1      -3.307  -5.099  -0.724  1.00  0.00     0.283 C 
ATOM      5  O   UNL     1      -2.192  -5.610  -0.546  1.00  0.00    -0.268 OA
ATOM      6  H   UNL     1      -2.605  -4.565  -2.475  1.00  0.00     0.163 HD
BRANCH   4   7
ATOM      7  C   UNL     1      -4.420  -5.155   0.376  1.00  0.00     0.307 C 
BRANCH   7   8
ATOM      8  N   UNL     1      -4.880  -3.870   1.034  1.00  0.00    -0.318 N 
ATOM      9  N   UNL     1      -2.896  -1.711   1.152  1.00  0.00    -0.345 N 
ATOM     10  C   UNL     1      -2.774  -2.846   2.055  1.00  0.00     0.179 C 
ATOM     11  C   UNL     1      -3.611  -1.998  -0.091  1.00  0.00     0.179 C 
ATOM     12  C   UNL     1      -4.210  -3.355   2.250  1.00  0.00     0.284 C 
ATOM     13  C   UNL     1      -4.962  -2.714   0.149  1.00  0.00     0.284 C 
ATOM     14  H   UNL     1      -5.783  -4.249   1.320  1.00  0.00     0.349 HD
BRANCH   9  15
ATOM     15  C   UNL     1      -1.802  -0.885   0.939  1.00  0.00     0.129 A 
ATOM     16  C   UNL     1      -1.472   2.743   0.009  1.00  0.00     0.045 C 
ATOM     17  C   UNL     1      -1.082   1.327   0.311  1.00  0.00    -0.038 A 
ATOM     18  C   UNL     1      -2.085   0.452   0.700  1.00  0.00     0.051 A 
ATOM     19  C   UNL     1       0.231   0.832   0.221  1.00  0.00     0.003 A 
ATOM     20  C   UNL     1       0.436  -0.547   0.474  1.00  0.00     0.073 A 
ATOM     21  C   UNL     1       1.333   1.647  -0.113  1.00  0.00     0.010 A 
ATOM     22  N   UNL     1      -0.558  -1.382   0.832  1.00  0.00    -0.231 NA
ATOM     23  C   UNL     1       1.720  -1.059   0.325  1.00  0.00     0.029 A 
ATOM     24  C   UNL     1       2.613   1.111  -0.227  1.00  0.00     0.001 A 
ATOM     25  C   UNL     1       2.805  -0.248  -0.024  1.00  0.00     0.002 A 
ENDBRANCH   9  15
ENDBRANCH   7   8
BRANCH   7  26
ATOM     26  C   UNL     1      -4.235  -6.264   1.467  1.00  0.00     0.044 A 
ATOM     27  C   UNL     1      -5.324  -6.868   2.105  1.00  0.00     0.094 A 
ATOM     28  C   UNL     1      -3.214  -6.381   2.492  1.00  0.00     0.009 A 
ATOM     29  N   UNL     1      -5.253  -6.276   3.359  1.00  0.00    -0.361 N 
ATOM     30  C   UNL     1      -3.918  -6.150   3.686  1.00  0.00     0.046 A 
ATOM     31  C   UNL     1      -1.807  -6.424   2.571  1.00  0.00     0.011 A 
ATOM     32  H   UNL     1      -6.017  -5.996   3.914  1.00  0.00     0.166 HD
ATOM     33  C   UNL     1      -3.304  -5.703   4.863  1.00  0.00     0.026 A 
ATOM     34  C   UNL     1      -1.175  -6.138   3.795  1.00  0.00     0.001 A 
ATOM     35  C   UNL     1      -1.910  -5.699   4.894  1.00  0.00     0.002 A 
ENDBRANCH   7  26
ENDBRANCH   4   7
ENDBRANCH   2   3
ENDBRANCH   1   2
BRANCH   1  36
ATOM     36  C   UNL     1      -3.104  -1.803  -3.224  1.00  0.00     0.023 C 
BRANCH  36  37
ATOM     37  C   UNL     1      -2.691  -1.468  -4.640  1.00  0.00     0.116 C 
BRANCH  37  38
ATOM     38  N   UNL     1      -3.453  -0.353  -5.186  1.00  0.00    -0.352 N 
ATOM     39  C   UNL     1      -3.008   0.719  -5.929  1.00  0.00     0.251 C 
ATOM     40  H   UNL     1      -4.419  -0.366  -4.997  1.00  0.00     0.163 HD
ATOM     41  O   UNL     1      -3.751   1.661  -6.153  1.00  0.00    -0.269 OA
BRANCH  39  42
ATOM     42  C   UNL     1      -1.613   0.732  -6.433  1.00  0.00     0.039 A 
ATOM     43  C   UNL     1      -0.907   1.938  -6.451  1.00  0.00     0.014 A 
ATOM     44  C   UNL     1      -1.004  -0.440  -6.884  1.00  0.00     0.014 A 
ATOM     45  C   UNL     1       0.422   1.953  -6.879  1.00  0.00     0.010 A 
ATOM     46  C   UNL     1       0.346  -0.446  -7.197  1.00  0.00     0.010 A 
ATOM     47  C   UNL     1       1.066   0.755  -7.227  1.00  0.00    -0.014 A 
BRANCH  47  48
ATOM     48  C   UNL     1       2.478   0.732  -7.677  1.00  0.00     0.031 A 
ATOM     49  C   UNL     1       2.807   0.239  -9.061  1.00  0.00     0.074 A 
ATOM     50  C   UNL     1       3.455   1.088  -6.821  1.00  0.00     0.049 A 
ATOM     51  N   UNL     1       3.976   0.062  -9.620  1.00  0.00    -0.248 NA
ATOM     52  C   UNL     1       1.672  -0.143  -9.921  1.00  0.00     0.031 C 
ATOM     53  C   UNL     1       3.254   1.521  -5.436  1.00  0.00     0.029 A 
ATOM     54  N   UNL     1       4.815   1.132  -6.987  1.00  0.00    -0.354 N 
ATOM     55  C   UNL     1       3.716  -0.470 -10.877  1.00  0.00     0.074 A 
ATOM     56  C   UNL     1       2.287  -0.646 -10.981  1.00  0.00     0.031 C 
ATOM     57  C   UNL     1       4.444   1.814  -4.888  1.00  0.00     0.029 A 
ATOM     58  C   UNL     1       5.494   1.548  -5.866  1.00  0.00     0.049 A 
ATOM     59  H   UNL     1       5.264   0.889  -7.828  1.00  0.00     0.167 HD
ATOM     60  C   UNL     1       4.592  -0.758 -11.868  1.00  0.00     0.037 A 
ATOM     61  C   UNL     1       6.816   1.688  -5.654  1.00  0.00     0.037 A 
ATOM     62  C   UNL     1       6.009  -0.537 -11.768  1.00  0.00     0.049 A 
ATOM     63  C   UNL     1       7.764   1.373  -6.781  1.00  0.00     0.074 A 
ATOM     64  C   UNL     1       6.979  -0.722 -12.736  1.00  0.00     0.029 A 
ATOM     65  N   UNL     1       6.655  -0.079 -10.630  1.00  0.00    -0.354 N 
ATOM     66  N   UNL     1       7.498   0.951  -7.994  1.00  0.00    -0.248 NA
ATOM     67  C   UNL     1       9.196   1.561  -6.512  1.00  0.00     0.031 C 
ATOM     68  C   UNL     1       8.221  -0.426 -12.166  1.00  0.00     0.029 A 
ATOM     69  C   UNL     1       8.016   0.001 -10.863  1.00  0.00     0.049 A 
ATOM     70  H   UNL     1       6.212   0.153  -9.782  1.00  0.00     0.167 HD
ATOM     71  C   UNL     1       8.723   0.855  -8.641  1.00  0.00     0.074 A 
ATOM     72  C   UNL     1       9.730   1.282  -7.692  1.00  0.00     0.031 C 
ATOM     73  C   UNL     1       8.995   0.448  -9.905  1.00  0.00     0.037 A 
BRANCH  60  74
ATOM     74  C   UNL     1       4.048  -1.328 -13.146  1.00  0.00     0.057 A 
ATOM     75  C   UNL     1       3.277  -0.562 -14.031  1.00  0.00     0.134 A 
ATOM     76  C   UNL     1       4.348  -2.642 -13.525  1.00  0.00     0.134 A 
ATOM     77  F   UNL     1       2.940   0.700 -13.723  1.00  0.00    -0.206 F 
ATOM     78  C   UNL     1       2.813  -1.086 -15.239  1.00  0.00     0.040 A 
ATOM     79  C   UNL     1       3.914  -3.169 -14.743  1.00  0.00     0.040 A 
ATOM     80  F   UNL     1       5.083  -3.431 -12.727  1.00  0.00    -0.206 F 
ATOM     81  C   UNL     1       3.142  -2.391 -15.603  1.00  0.00     0.006 A 
ENDBRANCH  60  74
BRANCH  61  82
ATOM     82  C   UNL     1       7.325   2.155  -4.338  1.00  0.00     0.057 A 
ATOM     83  C   UNL     1       7.970   3.391  -4.207  1.00  0.00     0.134 A 
ATOM     84  C   UNL     1       7.213   1.366  -3.187  1.00  0.00     0.134 A 
ATOM     85  F   UNL     1       8.122   4.190  -5.274  1.00  0.00    -0.206 F 
ATOM     86  C   UNL     1       8.518   3.808  -2.993  1.00  0.00     0.040 A 
ATOM     87  C   UNL     1       7.727   1.784  -1.958  1.00  0.00     0.040 A 
ATOM     88  F   UNL     1       6.594   0.177  -3.237  1.00  0.00    -0.206 F 
ATOM     89  C   UNL     1       8.395   3.003  -1.862  1.00  0.00     0.006 A 
ENDBRANCH  61  82
BRANCH  73  90
ATOM     90  C   UNL     1      10.428   0.491 -10.347  1.00  0.00     0.057 A 
ATOM     91  C   UNL     1      11.383  -0.406  -9.854  1.00  0.00     0.134 A 
ATOM     92  C   UNL     1      10.844   1.416 -11.313  1.00  0.00     0.134 A 
ATOM     93  F   UNL     1      11.050  -1.310  -8.920  1.00  0.00    -0.206 F 
ATOM     94  C   UNL     1      12.709  -0.366 -10.286  1.00  0.00     0.040 A 
ATOM     95  C   UNL     1      12.159   1.444 -11.776  1.00  0.00     0.040 A 
ATOM     96  F   UNL     1       9.975   2.295 -11.835  1.00  0.00    -0.206 F 
ATOM     97  C   UNL     1      13.098   0.556 -11.256  1.00  0.00     0.006 A 
ENDBRANCH  73  90
ENDBRANCH  47  48
ENDBRANCH  39  42
ENDBRANCH  37  38
ENDBRANCH  36  37
ENDBRANCH   1  36
TORSDOF 14
