REMARK SMILES O=C(Cn1nc(C2CC2)c2c(C(F)F)cc(-c3ccc(Cl)cc3)nc21)NCCCCNC(=O)c1ccc(-c2c3nc(c(-c4c(F)cccc4F)c4ccc([nH]4)c(-c4c(F)cccc4F)c4nc(c(-c5c(F)cccc5F)c5ccc2[nH]5)C=C4)C=C3)cc1
REMARK SMILES IDX 28 1 27 2 26 3 1 4 2 5 3 7 4 8 5 9 25 10 6 11 10 12 24 13
REMARK SMILES IDX 11 14 16 15 15 16 7 17 8 18 9 19 12 20 13 21 14 22 17 23
REMARK SMILES IDX 18 24 23 25 19 26 22 27 20 28 21 29 29 30 30 31 31 32 32 33
REMARK SMILES IDX 33 35 34 36 35 37 87 38 36 39 86 40 37 41 38 42 39 43 80 44
REMARK SMILES IDX 40 45 85 46 79 47 81 48 41 49 84 50 78 51 77 52 42 54 68 55
REMARK SMILES IDX 51 56 67 57 52 58 55 59 66 60 82 61 53 62 54 63 65 65 83 66
REMARK SMILES IDX 56 67 43 68 44 69 49 70 45 71 46 72 48 73 50 74 47 75 69 76
REMARK SMILES IDX 70 77 75 78 71 79 72 80 74 81 76 82 73 83 57 84 58 85 63 86
REMARK SMILES IDX 59 87 60 88 62 89 64 90 61 91
REMARK H PARENT 26 6 31 34 81 53 55 64
REMARK Flexibility Score: inf
ROOT
ATOM      1  C   UNL     1       2.405  -1.114   3.364  1.00  0.00     0.023 C 
ENDROOT
BRANCH   1   2
ATOM      2  C   UNL     1       2.091   0.102   2.486  1.00  0.00     0.116 C 
BRANCH   2   3
ATOM      3  N   UNL     1       2.779   0.089   1.206  1.00  0.00    -0.354 N 
ATOM      4  O   UNL     1       0.878  -0.191  -0.047  1.00  0.00    -0.273 OA
ATOM      5  C   UNL     1       2.091   0.011   0.007  1.00  0.00     0.241 C 
ATOM      6  H   UNL     1       3.762   0.138   1.191  1.00  0.00     0.163 HD
BRANCH   5   7
ATOM      7  C   UNL     1       2.935   0.051  -1.247  1.00  0.00     0.246 C 
BRANCH   7   8
ATOM      8  N   UNL     1       3.780   1.226  -1.362  1.00  0.00    -0.237 N 
ATOM      9  N   UNL     1       5.074   1.062  -1.668  1.00  0.00    -0.175 NA
ATOM     10  C   UNL     1       3.407   2.538  -1.285  1.00  0.00     0.159 A 
ATOM     11  C   UNL     1       5.556   2.307  -1.796  1.00  0.00     0.076 A 
ATOM     12  C   UNL     1       4.553   3.307  -1.551  1.00  0.00     0.051 A 
ATOM     13  N   UNL     1       2.155   2.958  -1.006  1.00  0.00    -0.228 NA
ATOM     14  C   UNL     1       4.368   4.717  -1.523  1.00  0.00     0.033 A 
ATOM     15  C   UNL     1       2.004   4.290  -1.029  1.00  0.00     0.073 A 
ATOM     16  C   UNL     1       3.052   5.169  -1.273  1.00  0.00     0.039 A 
BRANCH  11  17
ATOM     17  C   UNL     1       7.039   2.365  -2.159  1.00  0.00     0.041 C 
ATOM     18  C   UNL     1       7.752   3.541  -2.760  1.00  0.00     0.011 C 
ATOM     19  C   UNL     1       7.977   3.200  -1.322  1.00  0.00     0.011 C 
ENDBRANCH  11  17
BRANCH  14  20
ATOM     20  C   UNL     1       5.373   5.809  -1.780  1.00  0.00     0.373 C 
ATOM     21  F   UNL     1       6.547   5.660  -1.120  1.00  0.00    -0.205 F 
ATOM     22  F   UNL     1       5.667   5.955  -3.100  1.00  0.00    -0.205 F 
ENDBRANCH  14  20
BRANCH  15  23
ATOM     23  C   UNL     1       0.669   4.832  -0.744  1.00  0.00     0.000 A 
ATOM     24  C   UNL     1       0.100   4.709   0.533  1.00  0.00     0.012 A 
ATOM     25  C   UNL     1      -0.007   5.607  -1.706  1.00  0.00     0.012 A 
ATOM     26  C   UNL     1      -1.074   5.395   0.860  1.00  0.00     0.021 A 
ATOM     27  C   UNL     1      -1.183   6.288  -1.383  1.00  0.00     0.021 A 
ATOM     28  C   UNL     1      -1.701   6.194  -0.094  1.00  0.00     0.041 A 
ATOM     29  Cl  UNL     1      -3.106   7.092   0.327  1.00  0.00    -0.084 Cl
ENDBRANCH  15  23
ENDBRANCH   7   8
ENDBRANCH   5   7
ENDBRANCH   2   3
ENDBRANCH   1   2
BRANCH   1  30
ATOM     30  C   UNL     1       3.882  -1.332   3.723  1.00  0.00     0.023 C 
BRANCH  30  31
ATOM     31  C   UNL     1       4.552  -0.153   4.416  1.00  0.00     0.116 C 
BRANCH  31  32
ATOM     32  N   UNL     1       4.046   0.087   5.763  1.00  0.00    -0.352 N 
ATOM     33  C   UNL     1       4.517   0.987   6.689  1.00  0.00     0.251 C 
ATOM     34  H   UNL     1       3.277  -0.460   6.042  1.00  0.00     0.163 HD
ATOM     35  O   UNL     1       4.267   0.827   7.891  1.00  0.00    -0.269 OA
BRANCH  33  36
ATOM     36  C   UNL     1       5.321   2.147   6.262  1.00  0.00     0.039 A 
ATOM     37  C   UNL     1       6.360   2.620   7.070  1.00  0.00     0.014 A 
ATOM     38  C   UNL     1       5.011   2.800   5.066  1.00  0.00     0.014 A 
ATOM     39  C   UNL     1       7.112   3.708   6.638  1.00  0.00     0.010 A 
ATOM     40  C   UNL     1       5.819   3.810   4.588  1.00  0.00     0.010 A 
ATOM     41  C   UNL     1       6.849   4.290   5.385  1.00  0.00    -0.014 A 
BRANCH  41  42
ATOM     42  C   UNL     1       7.752   5.306   4.858  1.00  0.00     0.031 A 
ATOM     43  C   UNL     1       9.173   4.877   4.817  1.00  0.00     0.074 A 
ATOM     44  C   UNL     1       7.371   6.478   4.306  1.00  0.00     0.049 A 
ATOM     45  N   UNL     1      10.121   5.284   5.592  1.00  0.00    -0.248 NA
ATOM     46  C   UNL     1       9.559   3.771   3.929  1.00  0.00     0.031 C 
ATOM     47  C   UNL     1       6.020   6.950   3.998  1.00  0.00     0.029 A 
ATOM     48  N   UNL     1       8.156   7.486   3.828  1.00  0.00    -0.354 N 
ATOM     49  C   UNL     1      11.277   4.654   5.148  1.00  0.00     0.074 A 
ATOM     50  C   UNL     1      10.845   3.608   4.256  1.00  0.00     0.031 C 
ATOM     51  C   UNL     1       6.093   8.038   3.196  1.00  0.00     0.029 A 
ATOM     52  C   UNL     1       7.485   8.431   3.059  1.00  0.00     0.049 A 
ATOM     53  H   UNL     1       9.121   7.540   4.013  1.00  0.00     0.167 HD
ATOM     54  C   UNL     1      12.493   5.232   5.350  1.00  0.00     0.037 A 
ATOM     55  C   UNL     1       8.038   9.451   2.353  1.00  0.00     0.037 A 
ATOM     56  C   UNL     1      12.417   6.256   6.369  1.00  0.00     0.049 A 
ATOM     57  C   UNL     1       9.382   9.713   2.926  1.00  0.00     0.074 A 
ATOM     58  C   UNL     1      11.983   6.296   7.682  1.00  0.00     0.029 A 
ATOM     59  N   UNL     1      12.463   7.569   5.964  1.00  0.00    -0.354 N 
ATOM     60  N   UNL     1       9.575  10.245   4.099  1.00  0.00    -0.248 NA
ATOM     61  C   UNL     1      10.506   8.960   2.391  1.00  0.00     0.031 C 
ATOM     62  C   UNL     1      11.305   7.548   7.807  1.00  0.00     0.029 A 
ATOM     63  C   UNL     1      11.439   8.225   6.596  1.00  0.00     0.049 A 
ATOM     64  H   UNL     1      13.111   7.964   5.337  1.00  0.00     0.167 HD
ATOM     65  C   UNL     1      10.614   9.509   4.645  1.00  0.00     0.074 A 
ATOM     66  C   UNL     1      11.212   8.800   3.513  1.00  0.00     0.031 C 
ATOM     67  C   UNL     1      10.708   9.313   5.993  1.00  0.00     0.037 A 
BRANCH  54  68
ATOM     68  C   UNL     1      13.619   5.203   4.341  1.00  0.00     0.057 A 
ATOM     69  C   UNL     1      13.447   4.949   2.966  1.00  0.00     0.134 A 
ATOM     70  C   UNL     1      14.848   5.795   4.690  1.00  0.00     0.134 A 
ATOM     71  F   UNL     1      12.326   4.423   2.460  1.00  0.00    -0.206 F 
ATOM     72  C   UNL     1      14.387   5.328   2.004  1.00  0.00     0.040 A 
ATOM     73  C   UNL     1      15.772   6.223   3.731  1.00  0.00     0.040 A 
ATOM     74  F   UNL     1      15.138   6.076   5.970  1.00  0.00    -0.206 F 
ATOM     75  C   UNL     1      15.534   6.007   2.380  1.00  0.00     0.006 A 
ENDBRANCH  54  68
BRANCH  55  76
ATOM     76  C   UNL     1       7.598  10.075   1.083  1.00  0.00     0.057 A 
ATOM     77  C   UNL     1       6.851   9.359   0.132  1.00  0.00     0.134 A 
ATOM     78  C   UNL     1       8.147  11.290   0.641  1.00  0.00     0.134 A 
ATOM     79  F   UNL     1       6.321   8.162   0.423  1.00  0.00    -0.206 F 
ATOM     80  C   UNL     1       6.691   9.803  -1.186  1.00  0.00     0.040 A 
ATOM     81  C   UNL     1       7.995  11.746  -0.676  1.00  0.00     0.040 A 
ATOM     82  F   UNL     1       8.905  12.035   1.459  1.00  0.00    -0.206 F 
ATOM     83  C   UNL     1       7.278  10.993  -1.599  1.00  0.00     0.006 A 
ENDBRANCH  55  76
BRANCH  67  84
ATOM     84  C   UNL     1       9.829  10.141   6.889  1.00  0.00     0.057 A 
ATOM     85  C   UNL     1      10.428  10.879   7.916  1.00  0.00     0.134 A 
ATOM     86  C   UNL     1       8.426  10.164   6.834  1.00  0.00     0.134 A 
ATOM     87  F   UNL     1      11.761  10.861   8.073  1.00  0.00    -0.206 F 
ATOM     88  C   UNL     1       9.678  11.630   8.824  1.00  0.00     0.040 A 
ATOM     89  C   UNL     1       7.665  10.942   7.712  1.00  0.00     0.040 A 
ATOM     90  F   UNL     1       7.749   9.404   5.962  1.00  0.00    -0.206 F 
ATOM     91  C   UNL     1       8.292  11.679   8.712  1.00  0.00     0.006 A 
ENDBRANCH  67  84
ENDBRANCH  41  42
ENDBRANCH  33  36
ENDBRANCH  31  32
ENDBRANCH  30  31
ENDBRANCH   1  30
TORSDOF 15
