REMARK SMILES CC(C)[NH2+][C@]1(C(=O)NCCCCNC(=O)c2ccc(-c3c4nc(c(-c5c(F)cccc5F)c5ccc([nH]5)c(-c5c(F)cccc5F)c5nc(c(-c6c(F)cccc6F)c6ccc3[nH]6)C=C5)C=C4)cc2)CCC[C@@H](Sc2nnnn2C)C1
REMARK SMILES IDX 10 1 9 2 8 3 6 4 7 5 5 7 70 8 81 9 71 10 73 11 72 12 4 13
REMARK SMILES IDX 2 16 1 17 3 18 74 19 75 20 76 21 79 22 77 23 78 24 80 25
REMARK SMILES IDX 11 26 12 27 13 28 14 29 15 31 16 32 17 33 69 34 18 35 68 36
REMARK SMILES IDX 19 37 20 38 21 39 62 40 22 41 67 42 61 43 63 44 23 45 66 46
REMARK SMILES IDX 60 47 59 48 24 50 50 51 33 52 49 53 34 54 37 55 48 56 64 57
REMARK SMILES IDX 35 58 36 59 47 61 65 62 38 63 25 64 26 65 31 66 27 67 28 68
REMARK SMILES IDX 30 69 32 70 29 71 51 72 52 73 57 74 53 75 54 76 56 77 58 78
REMARK SMILES IDX 55 79 39 80 40 81 45 82 41 83 42 84 44 85 46 86 43 87
REMARK H PARENT 8 6 4 14 4 15 13 30 63 49 37 60
REMARK Flexibility Score: inf
ROOT
ATOM      1  C   UNL     1      -3.248  -0.634  -1.438  1.00  0.00     0.023 C 
ENDROOT
BRANCH   1   2
ATOM      2  C   UNL     1      -2.880  -0.318   0.023  1.00  0.00     0.116 C 
BRANCH   2   3
ATOM      3  N   UNL     1      -1.526   0.185   0.121  1.00  0.00    -0.351 N 
ATOM      4  C   UNL     1      -0.956   1.413   0.118  1.00  0.00     0.281 C 
ATOM      5  O   UNL     1       0.286   1.352   0.051  1.00  0.00    -0.268 OA
ATOM      6  H   UNL     1      -0.862  -0.536   0.212  1.00  0.00     0.163 HD
BRANCH   4   7
ATOM      7  C   UNL     1      -1.634   2.832   0.288  1.00  0.00     0.176 C 
ATOM      8  C   UNL     1      -1.748   3.137   1.812  1.00  0.00     0.079 C 
ATOM      9  C   UNL     1      -0.610   3.862  -0.284  1.00  0.00     0.094 C 
ATOM     10  C   UNL     1      -2.048   4.615   2.138  1.00  0.00     0.008 C 
ATOM     11  C   UNL     1      -0.972   5.322  -0.038  1.00  0.00     0.061 C 
ATOM     12  C   UNL     1      -1.080   5.597   1.463  1.00  0.00     0.015 C 
BRANCH   7  13
ATOM     13  N   UNL     1      -2.993   3.036  -0.263  1.00  0.00    -0.332 N 
ATOM     14  H   UNL     1      -3.629   2.582   0.393  1.00  0.00     0.347 HD
ATOM     15  H   UNL     1      -3.006   4.048  -0.384  1.00  0.00     0.347 HD
BRANCH  13  16
ATOM     16  C   UNL     1      -3.405   2.592  -1.581  1.00  0.00     0.176 C 
ATOM     17  C   UNL     1      -4.729   3.232  -2.013  1.00  0.00     0.075 C 
ATOM     18  C   UNL     1      -2.391   2.638  -2.716  1.00  0.00     0.075 C 
ENDBRANCH  13  16
ENDBRANCH   7  13
BRANCH  11  19
ATOM     19  S   UNL     1       0.161   6.434  -0.952  1.00  0.00    -0.081 SA
BRANCH  19  20
ATOM     20  C   UNL     1       1.669   6.290  -0.129  1.00  0.00     0.209 A 
ATOM     21  N   UNL     1       2.120   7.130   0.774  1.00  0.00    -0.102 NA
ATOM     22  N   UNL     1       2.645   5.372  -0.394  1.00  0.00    -0.224 N 
ATOM     23  N   UNL     1       3.392   6.710   1.078  1.00  0.00    -0.023 NA
ATOM     24  N   UNL     1       3.720   5.634   0.375  1.00  0.00    -0.045 NA
ATOM     25  C   UNL     1       2.679   4.247  -1.285  1.00  0.00     0.179 C 
ENDBRANCH  19  20
ENDBRANCH  11  19
ENDBRANCH   4   7
ENDBRANCH   2   3
ENDBRANCH   1   2
BRANCH   1  26
ATOM     26  C   UNL     1      -2.816  -1.964  -2.025  1.00  0.00     0.023 C 
BRANCH  26  27
ATOM     27  C   UNL     1      -3.606  -3.156  -1.536  1.00  0.00     0.116 C 
BRANCH  27  28
ATOM     28  N   UNL     1      -5.042  -3.072  -1.776  1.00  0.00    -0.352 N 
ATOM     29  C   UNL     1      -5.917  -4.096  -2.086  1.00  0.00     0.251 C 
ATOM     30  H   UNL     1      -5.438  -2.173  -1.707  1.00  0.00     0.163 HD
ATOM     31  O   UNL     1      -7.090  -3.881  -2.310  1.00  0.00    -0.269 OA
BRANCH  29  32
ATOM     32  C   UNL     1      -5.362  -5.463  -2.195  1.00  0.00     0.039 A 
ATOM     33  C   UNL     1      -5.612  -6.205  -3.350  1.00  0.00     0.014 A 
ATOM     34  C   UNL     1      -4.494  -5.938  -1.211  1.00  0.00     0.014 A 
ATOM     35  C   UNL     1      -4.912  -7.393  -3.558  1.00  0.00     0.010 A 
ATOM     36  C   UNL     1      -3.710  -7.046  -1.478  1.00  0.00     0.010 A 
ATOM     37  C   UNL     1      -3.923  -7.795  -2.645  1.00  0.00    -0.014 A 
BRANCH  37  38
ATOM     38  C   UNL     1      -3.124  -9.024  -2.851  1.00  0.00     0.031 A 
ATOM     39  C   UNL     1      -3.211 -10.127  -1.834  1.00  0.00     0.074 A 
ATOM     40  C   UNL     1      -2.270  -9.107  -3.889  1.00  0.00     0.049 A 
ATOM     41  N   UNL     1      -2.525 -11.237  -1.755  1.00  0.00    -0.248 NA
ATOM     42  C   UNL     1      -4.163  -9.932  -0.726  1.00  0.00     0.031 C 
ATOM     43  C   UNL     1      -2.050  -8.067  -4.897  1.00  0.00     0.029 A 
ATOM     44  N   UNL     1      -1.419 -10.114  -4.262  1.00  0.00    -0.354 N 
ATOM     45  C   UNL     1      -2.939 -11.848  -0.579  1.00  0.00     0.074 A 
ATOM     46  C   UNL     1      -3.879 -10.957   0.060  1.00  0.00     0.031 C 
ATOM     47  C   UNL     1      -1.150  -8.506  -5.793  1.00  0.00     0.029 A 
ATOM     48  C   UNL     1      -0.707  -9.841  -5.405  1.00  0.00     0.049 A 
ATOM     49  H   UNL     1      -1.325 -10.955  -3.758  1.00  0.00     0.167 HD
ATOM     50  C   UNL     1      -2.597 -13.063  -0.094  1.00  0.00     0.037 A 
ATOM     51  C   UNL     1       0.196 -10.591  -6.064  1.00  0.00     0.037 A 
ATOM     52  C   UNL     1      -1.707 -13.966  -0.769  1.00  0.00     0.049 A 
ATOM     53  C   UNL     1       0.525 -11.959  -5.532  1.00  0.00     0.074 A 
ATOM     54  C   UNL     1      -1.347 -15.253  -0.412  1.00  0.00     0.029 A 
ATOM     55  N   UNL     1      -1.047 -13.675  -1.954  1.00  0.00    -0.354 N 
ATOM     56  N   UNL     1       0.072 -12.557  -4.455  1.00  0.00    -0.248 NA
ATOM     57  C   UNL     1       1.480 -12.760  -6.308  1.00  0.00     0.031 C 
ATOM     58  C   UNL     1      -0.445 -15.730  -1.368  1.00  0.00     0.029 A 
ATOM     59  C   UNL     1      -0.273 -14.755  -2.339  1.00  0.00     0.049 A 
ATOM     60  H   UNL     1      -1.118 -12.826  -2.447  1.00  0.00     0.167 HD
ATOM     61  C   UNL     1       0.666 -13.812  -4.439  1.00  0.00     0.074 A 
ATOM     62  C   UNL     1       1.500 -13.893  -5.621  1.00  0.00     0.031 C 
ATOM     63  C   UNL     1       0.537 -14.808  -3.529  1.00  0.00     0.037 A 
BRANCH  50  64
ATOM     64  C   UNL     1      -3.206 -13.479   1.213  1.00  0.00     0.057 A 
ATOM     65  C   UNL     1      -4.573 -13.771   1.331  1.00  0.00     0.134 A 
ATOM     66  C   UNL     1      -2.421 -13.587   2.367  1.00  0.00     0.134 A 
ATOM     67  F   UNL     1      -5.385 -13.666   0.268  1.00  0.00    -0.206 F 
ATOM     68  C   UNL     1      -5.142 -14.120   2.556  1.00  0.00     0.040 A 
ATOM     69  C   UNL     1      -2.974 -13.965   3.592  1.00  0.00     0.040 A 
ATOM     70  F   UNL     1      -1.107 -13.322   2.325  1.00  0.00    -0.206 F 
ATOM     71  C   UNL     1      -4.340 -14.224   3.691  1.00  0.00     0.006 A 
ENDBRANCH  50  64
BRANCH  51  72
ATOM     72  C   UNL     1       0.812 -10.090  -7.318  1.00  0.00     0.057 A 
ATOM     73  C   UNL     1       0.470 -10.643  -8.557  1.00  0.00     0.134 A 
ATOM     74  C   UNL     1       1.751  -9.052  -7.313  1.00  0.00     0.134 A 
ATOM     75  F   UNL     1      -0.412 -11.651  -8.626  1.00  0.00    -0.206 F 
ATOM     76  C   UNL     1       1.053 -10.197  -9.745  1.00  0.00     0.040 A 
ATOM     77  C   UNL     1       2.325  -8.580  -8.495  1.00  0.00     0.040 A 
ATOM     78  F   UNL     1       2.113  -8.471  -6.159  1.00  0.00    -0.206 F 
ATOM     79  C   UNL     1       1.981  -9.158  -9.716  1.00  0.00     0.006 A 
ENDBRANCH  51  72
BRANCH  63  80
ATOM     80  C   UNL     1       1.288 -16.077  -3.796  1.00  0.00     0.057 A 
ATOM     81  C   UNL     1       2.673 -16.162  -3.619  1.00  0.00     0.134 A 
ATOM     82  C   UNL     1       0.607 -17.237  -4.183  1.00  0.00     0.134 A 
ATOM     83  F   UNL     1       3.381 -15.081  -3.260  1.00  0.00    -0.206 F 
ATOM     84  C   UNL     1       3.360 -17.357  -3.839  1.00  0.00     0.040 A 
ATOM     85  C   UNL     1       1.279 -18.443  -4.381  1.00  0.00     0.040 A 
ATOM     86  F   UNL     1      -0.724 -17.221  -4.359  1.00  0.00    -0.206 F 
ATOM     87  C   UNL     1       2.661 -18.503  -4.213  1.00  0.00     0.006 A 
ENDBRANCH  63  80
ENDBRANCH  37  38
ENDBRANCH  29  32
ENDBRANCH  27  28
ENDBRANCH  26  27
ENDBRANCH   1  26
TORSDOF 15
