REMARK SMILES O=C(NCCCCNC(=O)c1ccc(-c2c3nc(c(-c4c(F)cccc4F)c4ccc([nH]4)c(-c4c(F)cccc4F)c4nc(c(-c5c(F)cccc5F)c5ccc2[nH]5)C=C4)C=C3)cc1)C1=Cc2cc(S(F)(F)(F)(F)F)cc(Br)c2O[C@H]1C(F)(F)F
REMARK SMILES IDX 6 1 5 2 4 3 3 4 1 5 2 6 65 8 66 9 81 10 67 11 80 12 68 13
REMARK SMILES IDX 79 14 69 15 77 16 76 17 78 18 82 19 83 20 84 21 85 22 70 23
REMARK SMILES IDX 71 24 72 25 73 26 74 27 75 28 7 29 8 30 9 31 10 33 11 34
REMARK SMILES IDX 12 35 64 36 13 37 63 38 14 39 15 40 16 41 57 42 17 43 62 44
REMARK SMILES IDX 56 45 58 46 18 47 61 48 55 49 54 50 19 52 45 53 28 54 44 55
REMARK SMILES IDX 29 56 32 57 43 58 59 59 30 60 31 61 42 63 60 64 33 65 20 66
REMARK SMILES IDX 21 67 26 68 22 69 23 70 25 71 27 72 24 73 46 74 47 75 52 76
REMARK SMILES IDX 48 77 49 78 51 79 53 80 50 81 34 82 35 83 40 84 36 85 37 86
REMARK SMILES IDX 39 87 41 88 38 89
REMARK H PARENT 3 7 8 32 58 51 32 62
REMARK Flexibility Score: inf
ROOT
ATOM      1  C   UNL     1       4.544   3.530   0.822  1.00  0.00     0.023 C 
ENDROOT
BRANCH   1   2
ATOM      2  C   UNL     1       5.051   2.345   0.017  1.00  0.00     0.023 C 
BRANCH   2   3
ATOM      3  C   UNL     1       4.544   1.055   0.642  1.00  0.00     0.116 C 
BRANCH   3   4
ATOM      4  N   UNL     1       3.074   1.055   0.642  1.00  0.00    -0.352 N 
ATOM      5  O   UNL     1       1.068   0.002  -0.073  1.00  0.00    -0.270 OA
ATOM      6  C   UNL     1       2.339   0.002  -0.073  1.00  0.00     0.251 C 
ATOM      7  H   UNL     1       2.582   1.760   1.121  1.00  0.00     0.163 HD
BRANCH   6   8
ATOM      8  C   UNL     1       3.099  -1.088  -0.812  1.00  0.00     0.067 C 
ATOM      9  C   UNL     1       4.459  -1.088  -0.812  1.00  0.00     0.025 C 
ATOM     10  C   UNL     1       2.339  -2.177  -1.552  1.00  0.00     0.314 C 
ATOM     11  C   UNL     1       5.219   0.002  -0.073  1.00  0.00     0.020 A 
ATOM     12  O   UNL     1       3.523  -0.185   1.581  1.00  0.00    -0.474 OA
ATOM     13  C   UNL     1       6.368   0.580  -0.588  1.00  0.00     0.036 A 
ATOM     14  C   UNL     1       4.785   0.299   1.146  1.00  0.00     0.142 A 
ATOM     15  C   UNL     1       7.156   1.248   0.379  1.00  0.00     0.109 A 
ATOM     16  C   UNL     1       5.546   1.071   1.990  1.00  0.00     0.062 A 
ATOM     17  C   UNL     1       6.722   1.626   1.568  1.00  0.00     0.044 A 
ATOM     18  Br  UNL     1       4.936   1.381   3.827  1.00  0.00    -0.047 Br
BRANCH  10  19
ATOM     19  C   UNL     1       0.845  -1.947  -1.396  1.00  0.00     0.429 C 
ATOM     20  F   UNL     1       0.570  -1.595  -0.143  1.00  0.00    -0.167 F 
ATOM     21  F   UNL     1       0.454  -0.981  -2.223  1.00  0.00    -0.167 F 
ATOM     22  F   UNL     1       0.200  -3.072  -1.692  1.00  0.00    -0.167 F 
ENDBRANCH  10  19
BRANCH  15  23
ATOM     23  S   UNL     1       8.878   1.611  -0.042  1.00  0.00     0.310 S 
ATOM     24  F   UNL     1       9.316   1.635   1.482  1.00  0.00    -0.094 F 
ATOM     25  F   UNL     1       8.556   3.147   0.097  1.00  0.00    -0.094 F 
ATOM     26  F   UNL     1      10.356   1.925  -0.408  1.00  0.00    -0.094 F 
ATOM     27  F   UNL     1       9.216   0.068  -0.039  1.00  0.00    -0.094 F 
ATOM     28  F   UNL     1       7.410   1.275   0.439  1.00  0.00    -0.094 F 
ENDBRANCH  15  23
ENDBRANCH   6   8
ENDBRANCH   3   4
ENDBRANCH   2   3
ENDBRANCH   1   2
BRANCH   1  29
ATOM     29  C   UNL     1       5.051   3.426   2.252  1.00  0.00     0.116 C 
BRANCH  29  30
ATOM     30  N   UNL     1       6.521   3.426   2.252  1.00  0.00    -0.352 N 
ATOM     31  C   UNL     1       7.256   4.479   2.967  1.00  0.00     0.251 C 
ATOM     32  H   UNL     1       7.013   2.721   1.773  1.00  0.00     0.163 HD
ATOM     33  O   UNL     1       8.527   4.479   2.967  1.00  0.00    -0.269 OA
BRANCH  31  34
ATOM     34  C   UNL     1       6.496   5.569   3.706  1.00  0.00     0.039 A 
ATOM     35  C   UNL     1       7.012   6.851   3.621  1.00  0.00     0.014 A 
ATOM     36  C   UNL     1       5.454   5.295   4.483  1.00  0.00     0.014 A 
ATOM     37  C   UNL     1       6.537   7.728   4.625  1.00  0.00     0.010 A 
ATOM     38  C   UNL     1       4.956   6.244   5.343  1.00  0.00     0.010 A 
ATOM     39  C   UNL     1       5.457   7.516   5.355  1.00  0.00    -0.014 A 
BRANCH  39  40
ATOM     40  C   UNL     1       4.807   8.625   6.165  1.00  0.00     0.031 A 
ATOM     41  C   UNL     1       4.671   8.541   7.552  1.00  0.00     0.074 A 
ATOM     42  C   UNL     1       4.496   9.752   5.424  1.00  0.00     0.049 A 
ATOM     43  N   UNL     1       4.266   9.498   8.389  1.00  0.00    -0.248 NA
ATOM     44  C   UNL     1       4.968   7.334   8.338  1.00  0.00     0.031 C 
ATOM     45  C   UNL     1       4.639   9.848   4.026  1.00  0.00     0.029 A 
ATOM     46  N   UNL     1       4.005  10.955   5.880  1.00  0.00    -0.354 N 
ATOM     47  C   UNL     1       4.283   9.048   9.646  1.00  0.00     0.074 A 
ATOM     48  C   UNL     1       4.729   7.648   9.630  1.00  0.00     0.031 C 
ATOM     49  C   UNL     1       4.229  11.085   3.644  1.00  0.00     0.029 A 
ATOM     50  C   UNL     1       3.824  11.785   4.796  1.00  0.00     0.049 A 
ATOM     51  H   UNL     1       3.815  11.182   6.819  1.00  0.00     0.167 HD
ATOM     52  C   UNL     1       3.946   9.751  10.804  1.00  0.00     0.037 A 
ATOM     53  C   UNL     1       3.332  13.081   4.792  1.00  0.00     0.037 A 
ATOM     54  C   UNL     1       3.496  11.062  10.804  1.00  0.00     0.049 A 
ATOM     55  C   UNL     1       2.940  13.765   5.945  1.00  0.00     0.074 A 
ATOM     56  C   UNL     1       3.159  11.787  11.963  1.00  0.00     0.029 A 
ATOM     57  N   UNL     1       3.292  11.883   9.717  1.00  0.00    -0.354 N 
ATOM     58  N   UNL     1       2.994  13.328   7.204  1.00  0.00    -0.248 NA
ATOM     59  C   UNL     1       2.387  15.126   5.949  1.00  0.00     0.031 C 
ATOM     60  C   UNL     1       2.749  13.026  11.580  1.00  0.00     0.029 A 
ATOM     61  C   UNL     1       2.822  13.094  10.175  1.00  0.00     0.049 A 
ATOM     62  H   UNL     1       3.454  11.646   8.775  1.00  0.00     0.167 HD
ATOM     63  C   UNL     1       2.550  14.272   8.037  1.00  0.00     0.074 A 
ATOM     64  C   UNL     1       2.146  15.439   7.241  1.00  0.00     0.031 C 
ATOM     65  C   UNL     1       2.469  14.207   9.429  1.00  0.00     0.037 A 
BRANCH  52  66
ATOM     66  C   UNL     1       4.081   9.039  12.140  1.00  0.00     0.057 A 
ATOM     67  C   UNL     1       5.286   8.479  12.532  1.00  0.00     0.134 A 
ATOM     68  C   UNL     1       2.986   8.903  12.879  1.00  0.00     0.134 A 
ATOM     69  F   UNL     1       6.449   8.794  11.968  1.00  0.00    -0.206 F 
ATOM     70  C   UNL     1       5.168   7.543  13.585  1.00  0.00     0.040 A 
ATOM     71  C   UNL     1       2.981   8.076  13.976  1.00  0.00     0.040 A 
ATOM     72  F   UNL     1       1.885   9.575  12.555  1.00  0.00    -0.206 F 
ATOM     73  C   UNL     1       4.122   7.444  14.386  1.00  0.00     0.006 A 
ENDBRANCH  52  66
BRANCH  53  74
ATOM     74  C   UNL     1       3.213  13.798   3.457  1.00  0.00     0.057 A 
ATOM     75  C   UNL     1       3.984  14.936   3.281  1.00  0.00     0.134 A 
ATOM     76  C   UNL     1       2.452  13.324   2.478  1.00  0.00     0.134 A 
ATOM     77  F   UNL     1       4.941  15.302   4.129  1.00  0.00    -0.206 F 
ATOM     78  C   UNL     1       3.659  15.674   2.118  1.00  0.00     0.040 A 
ATOM     79  C   UNL     1       2.288  14.034   1.313  1.00  0.00     0.040 A 
ATOM     80  F   UNL     1       1.843  12.150   2.626  1.00  0.00    -0.206 F 
ATOM     81  C   UNL     1       2.973  15.197   1.096  1.00  0.00     0.006 A 
ENDBRANCH  53  74
BRANCH  65  82
ATOM     82  C   UNL     1       1.962  15.433  10.172  1.00  0.00     0.057 A 
ATOM     83  C   UNL     1       0.750  15.967   9.768  1.00  0.00     0.134 A 
ATOM     84  C   UNL     1       2.721  16.050  11.071  1.00  0.00     0.134 A 
ATOM     85  F   UNL     1      -0.152  15.277   9.075  1.00  0.00    -0.206 F 
ATOM     86  C   UNL     1       0.556  17.313  10.161  1.00  0.00     0.040 A 
ATOM     87  C   UNL     1       2.399  17.310  11.512  1.00  0.00     0.040 A 
ATOM     88  F   UNL     1       3.803  15.441  11.548  1.00  0.00    -0.206 F 
ATOM     89  C   UNL     1       1.245  17.923  11.108  1.00  0.00     0.006 A 
ENDBRANCH  65  82
ENDBRANCH  39  40
ENDBRANCH  31  34
ENDBRANCH  29  30
ENDBRANCH   1  29
TORSDOF 13
