REMARK SMILES CCOc1cccc(-c2ccc([C@@H](C)C(=O)NCCCCNC(=O)c3ccc(-c4c5nc(c(-c6c(F)cccc6F)c6ccc([nH]6)c(-c6c(F)cccc6F)c6nc(c(-c7c(F)cccc7F)c7ccc4[nH]7)C=C6)C=C5)cc3)cc2F)c1
REMARK SMILES IDX 18 1 17 2 15 3 16 4 13 6 14 7 12 8 9 9 10 10 80 11 11 12
REMARK SMILES IDX 79 13 81 14 8 15 4 16 5 17 82 18 6 19 7 20 3 21 2 22 1 23
REMARK SMILES IDX 19 24 20 25 21 26 22 27 23 28 24 30 25 31 26 32 78 33 27 34
REMARK SMILES IDX 77 35 28 36 29 37 30 38 71 39 31 40 76 41 70 42 72 43 32 44
REMARK SMILES IDX 75 45 69 46 68 47 33 49 59 50 42 51 58 52 43 53 46 54 57 55
REMARK SMILES IDX 73 56 44 57 45 58 56 60 74 61 47 62 34 63 35 64 40 65 36 66
REMARK SMILES IDX 37 67 39 68 41 69 38 70 60 71 61 72 66 73 62 74 63 75 65 76
REMARK SMILES IDX 67 77 64 78 48 79 49 80 54 81 50 82 51 83 53 84 55 85 52 86
REMARK H PARENT 17 5 22 29 72 48 46 59
REMARK Flexibility Score: inf
ROOT
ATOM      1  C   UNL     1       9.161  -0.456  -2.363  1.00  0.00     0.116 C 
ENDROOT
BRANCH   1   2
ATOM      2  N   UNL     1       8.413  -0.046  -3.532  1.00  0.00    -0.356 N 
ATOM      3  C   UNL     1       7.796   1.129  -3.838  1.00  0.00     0.227 C 
ATOM      4  O   UNL     1       7.150   1.149  -4.893  1.00  0.00    -0.274 OA
ATOM      5  H   UNL     1       8.337  -0.737  -4.228  1.00  0.00     0.163 HD
BRANCH   3   6
ATOM      6  C   UNL     1       7.871   2.389  -2.960  1.00  0.00     0.105 C 
ATOM      7  C   UNL     1       9.283   2.939  -2.772  1.00  0.00     0.023 C 
BRANCH   6   8
ATOM      8  C   UNL     1       7.012   2.304  -1.709  1.00  0.00    -0.033 A 
ATOM      9  C   UNL     1       5.235   1.936   0.518  1.00  0.00     0.018 A 
ATOM     10  C   UNL     1       6.606   1.636   0.603  1.00  0.00     0.012 A 
ATOM     11  C   UNL     1       4.807   2.500  -0.696  1.00  0.00     0.131 A 
ATOM     12  C   UNL     1       7.482   1.849  -0.474  1.00  0.00     0.005 A 
ATOM     13  C   UNL     1       5.660   2.655  -1.791  1.00  0.00     0.044 A 
ATOM     14  F   UNL     1       3.539   2.908  -0.858  1.00  0.00    -0.206 F 
BRANCH   9  15
ATOM     15  C   UNL     1       4.301   1.615   1.631  1.00  0.00    -0.012 A 
ATOM     16  C   UNL     1       2.067   0.965   2.404  1.00  0.00     0.119 A 
ATOM     17  C   UNL     1       2.501   0.931   3.722  1.00  0.00     0.046 A 
ATOM     18  C   UNL     1       2.949   1.315   1.381  1.00  0.00     0.055 A 
ATOM     19  C   UNL     1       3.833   1.221   4.007  1.00  0.00     0.004 A 
ATOM     20  C   UNL     1       4.718   1.562   2.975  1.00  0.00     0.009 A 
BRANCH  16  21
ATOM     21  O   UNL     1       0.738   0.770   2.148  1.00  0.00    -0.494 OA
BRANCH  21  22
ATOM     22  C   UNL     1       0.468  -0.462   1.468  1.00  0.00     0.226 C 
ATOM     23  C   UNL     1       0.411  -0.280  -0.041  1.00  0.00     0.049 C 
ENDBRANCH  21  22
ENDBRANCH  16  21
ENDBRANCH   9  15
ENDBRANCH   6   8
ENDBRANCH   3   6
ENDBRANCH   1   2
BRANCH   1  24
ATOM     24  C   UNL     1       8.292  -1.222  -1.366  1.00  0.00     0.023 C 
BRANCH  24  25
ATOM     25  C   UNL     1       8.188  -2.724  -1.621  1.00  0.00     0.023 C 
BRANCH  25  26
ATOM     26  C   UNL     1       9.506  -3.490  -1.555  1.00  0.00     0.116 C 
BRANCH  26  27
ATOM     27  N   UNL     1      10.223  -3.332  -0.297  1.00  0.00    -0.352 N 
ATOM     28  C   UNL     1      11.034  -4.243   0.341  1.00  0.00     0.251 C 
ATOM     29  H   UNL     1      10.114  -2.464   0.153  1.00  0.00     0.163 HD
ATOM     30  O   UNL     1      11.516  -3.989   1.437  1.00  0.00    -0.269 OA
BRANCH  28  31
ATOM     31  C   UNL     1      11.274  -5.556  -0.293  1.00  0.00     0.039 A 
ATOM     32  C   UNL     1      11.042  -6.715   0.451  1.00  0.00     0.014 A 
ATOM     33  C   UNL     1      11.657  -5.638  -1.634  1.00  0.00     0.014 A 
ATOM     34  C   UNL     1      11.110  -7.960  -0.177  1.00  0.00     0.010 A 
ATOM     35  C   UNL     1      11.654  -6.872  -2.274  1.00  0.00     0.010 A 
ATOM     36  C   UNL     1      11.371  -8.043  -1.554  1.00  0.00    -0.014 A 
BRANCH  36  37
ATOM     37  C   UNL     1      11.337  -9.342  -2.270  1.00  0.00     0.031 A 
ATOM     38  C   UNL     1      12.584  -9.882  -2.909  1.00  0.00     0.074 A 
ATOM     39  C   UNL     1      10.165  -9.991  -2.417  1.00  0.00     0.049 A 
ATOM     40  N   UNL     1      12.736 -10.944  -3.657  1.00  0.00    -0.248 NA
ATOM     41  C   UNL     1      13.818  -9.105  -2.708  1.00  0.00     0.031 C 
ATOM     42  C   UNL     1       8.874  -9.540  -1.893  1.00  0.00     0.029 A 
ATOM     43  N   UNL     1       9.868 -11.163  -3.066  1.00  0.00    -0.354 N 
ATOM     44  C   UNL     1      14.073 -10.952  -4.032  1.00  0.00     0.074 A 
ATOM     45  C   UNL     1      14.678  -9.764  -3.470  1.00  0.00     0.031 C 
ATOM     46  C   UNL     1       7.929 -10.435  -2.223  1.00  0.00     0.029 A 
ATOM     47  C   UNL     1       8.539 -11.503  -3.009  1.00  0.00     0.049 A 
ATOM     48  H   UNL     1      10.545 -11.708  -3.529  1.00  0.00     0.167 HD
ATOM     49  C   UNL     1      14.742 -11.877  -4.760  1.00  0.00     0.037 A 
ATOM     50  C   UNL     1       7.885 -12.555  -3.536  1.00  0.00     0.037 A 
ATOM     51  C   UNL     1      14.147 -13.077  -5.287  1.00  0.00     0.049 A 
ATOM     52  C   UNL     1       8.654 -13.579  -4.323  1.00  0.00     0.074 A 
ATOM     53  C   UNL     1      14.756 -14.110  -5.976  1.00  0.00     0.029 A 
ATOM     54  N   UNL     1      12.804 -13.403  -5.178  1.00  0.00    -0.354 N 
ATOM     55  N   UNL     1       9.932 -13.608  -4.614  1.00  0.00    -0.248 NA
ATOM     56  C   UNL     1       7.891 -14.718  -4.851  1.00  0.00     0.031 C 
ATOM     57  C   UNL     1      13.774 -15.049  -6.313  1.00  0.00     0.029 A 
ATOM     58  C   UNL     1      12.561 -14.616  -5.801  1.00  0.00     0.049 A 
ATOM     59  H   UNL     1      12.123 -12.854  -4.725  1.00  0.00     0.167 HD
ATOM     60  C   UNL     1      10.130 -14.776  -5.337  1.00  0.00     0.074 A 
ATOM     61  C   UNL     1       8.844 -15.435  -5.429  1.00  0.00     0.031 C 
ATOM     62  C   UNL     1      11.275 -15.260  -5.877  1.00  0.00     0.037 A 
BRANCH  49  63
ATOM     63  C   UNL     1      16.198 -11.629  -5.017  1.00  0.00     0.057 A 
ATOM     64  C   UNL     1      17.155 -11.738  -3.999  1.00  0.00     0.134 A 
ATOM     65  C   UNL     1      16.652 -11.298  -6.299  1.00  0.00     0.134 A 
ATOM     66  F   UNL     1      16.782 -12.037  -2.746  1.00  0.00    -0.206 F 
ATOM     67  C   UNL     1      18.508 -11.501  -4.242  1.00  0.00     0.040 A 
ATOM     68  C   UNL     1      18.007 -11.083  -6.560  1.00  0.00     0.040 A 
ATOM     69  F   UNL     1      15.789 -11.181  -7.319  1.00  0.00    -0.206 F 
ATOM     70  C   UNL     1      18.938 -11.178  -5.527  1.00  0.00     0.006 A 
ENDBRANCH  49  63
BRANCH  50  71
ATOM     71  C   UNL     1       6.427 -12.712  -3.312  1.00  0.00     0.057 A 
ATOM     72  C   UNL     1       5.934 -13.701  -2.453  1.00  0.00     0.134 A 
ATOM     73  C   UNL     1       5.494 -11.887  -3.951  1.00  0.00     0.134 A 
ATOM     74  F   UNL     1       6.780 -14.532  -1.827  1.00  0.00    -0.206 F 
ATOM     75  C   UNL     1       4.565 -13.876  -2.249  1.00  0.00     0.040 A 
ATOM     76  C   UNL     1       4.122 -12.037  -3.740  1.00  0.00     0.040 A 
ATOM     77  F   UNL     1       5.904 -10.916  -4.781  1.00  0.00    -0.206 F 
ATOM     78  C   UNL     1       3.654 -13.039  -2.892  1.00  0.00     0.006 A 
ENDBRANCH  50  71
BRANCH  62  79
ATOM     79  C   UNL     1      11.193 -16.576  -6.588  1.00  0.00     0.057 A 
ATOM     80  C   UNL     1      10.612 -16.692  -7.857  1.00  0.00     0.134 A 
ATOM     81  C   UNL     1      11.736 -17.732  -6.014  1.00  0.00     0.134 A 
ATOM     82  F   UNL     1      10.063 -15.623  -8.453  1.00  0.00    -0.206 F 
ATOM     83  C   UNL     1      10.558 -17.917  -8.523  1.00  0.00     0.040 A 
ATOM     84  C   UNL     1      11.707 -18.958  -6.679  1.00  0.00     0.040 A 
ATOM     85  F   UNL     1      12.312 -17.685  -4.803  1.00  0.00    -0.206 F 
ATOM     86  C   UNL     1      11.113 -19.053  -7.936  1.00  0.00     0.006 A 
ENDBRANCH  62  79
ENDBRANCH  36  37
ENDBRANCH  28  31
ENDBRANCH  26  27
ENDBRANCH  25  26
ENDBRANCH  24  25
ENDBRANCH   1  24
TORSDOF 15
