REMARK SMILES CCCOCCO[C@H]1CC[C@@]([NH3+])(C(=O)NCCCCNC(=O)c2ccc(-c3c4nc(c(-c5c(F)cccc5F)c5ccc([nH]5)c(-c5c(F)cccc5F)c5nc(c(-c6c(F)cccc6F)c6ccc3[nH]6)C=C5)C=C4)cc2)C1
REMARK SMILES IDX 13 1 14 2 15 3 11 5 8 6 9 7 77 8 10 9 7 10 6 11 5 12 4 13
REMARK SMILES IDX 3 14 2 15 1 16 12 17 16 21 17 22 18 23 19 24 20 25 21 26
REMARK SMILES IDX 22 28 23 29 24 30 76 31 25 32 75 33 26 34 27 35 28 36 69 37
REMARK SMILES IDX 29 38 74 39 68 40 70 41 30 42 73 43 67 44 66 45 31 47 57 48
REMARK SMILES IDX 40 49 56 50 41 51 44 52 55 53 71 54 42 55 43 56 54 58 72 59
REMARK SMILES IDX 45 60 32 61 33 62 38 63 34 64 35 65 37 66 39 67 36 68 58 69
REMARK SMILES IDX 59 70 64 71 60 72 61 73 63 74 65 75 62 76 46 77 47 78 52 79
REMARK SMILES IDX 48 80 49 81 51 82 53 83 50 84
REMARK H PARENT 15 4 12 18 12 19 12 20 20 27 70 46 44 57
REMARK Flexibility Score: inf
ROOT
ATOM      1  C   UNL     1       2.566  -2.304   5.532  1.00  0.00     0.281 C 
ATOM      2  O   UNL     1       2.021  -3.374   5.233  1.00  0.00    -0.268 OA
ATOM      3  N   UNL     1       2.361  -1.832   6.789  1.00  0.00    -0.351 N 
ATOM      4  H   UNL     1       1.488  -2.052   7.188  1.00  0.00     0.163 HD
ENDROOT
BRANCH   1   5
ATOM      5  C   UNL     1       3.494  -1.550   4.447  1.00  0.00     0.176 C 
ATOM      6  C   UNL     1       2.443   0.103   1.791  1.00  0.00     0.125 C 
ATOM      7  C   UNL     1       2.959   1.442   3.217  1.00  0.00     0.039 C 
ATOM      8  C   UNL     1       2.650  -1.748   2.616  1.00  0.00     0.111 C 
ATOM      9  C   UNL     1       3.703   0.420   4.781  1.00  0.00     0.082 C 
BRANCH   6  10
ATOM     10  O   UNL     1       1.343   0.664   1.100  1.00  0.00    -0.376 OA
BRANCH  10  11
ATOM     11  C   UNL     1       0.448  -0.172   0.406  1.00  0.00     0.189 C 
BRANCH  11  12
ATOM     12  C   UNL     1      -0.070  -1.321   1.242  1.00  0.00     0.188 C 
BRANCH  12  13
ATOM     13  O   UNL     1      -0.292  -1.047   2.621  1.00  0.00    -0.379 OA
BRANCH  13  14
ATOM     14  C   UNL     1       0.406   0.030   3.248  1.00  0.00     0.160 C 
BRANCH  14  15
ATOM     15  C   UNL     1       1.992  -0.232   3.761  1.00  0.00     0.025 C 
ATOM     16  C   UNL     1       3.994  -0.273   2.921  1.00  0.00     0.006 C 
ENDBRANCH  14  15
ENDBRANCH  13  14
ENDBRANCH  12  13
ENDBRANCH  11  12
ENDBRANCH  10  11
ENDBRANCH   6  10
BRANCH   5  17
ATOM     17  N   UNL     1       4.762  -2.355   4.566  1.00  0.00    -0.345 N 
ATOM     18  H   UNL     1       5.157  -2.231   5.498  1.00  0.00     0.345 HD
ATOM     19  H   UNL     1       5.434  -2.038   3.867  1.00  0.00     0.345 HD
ATOM     20  H   UNL     1       4.554  -3.342   4.414  1.00  0.00     0.345 HD
ENDBRANCH   5  17
ENDBRANCH   1   5
BRANCH   3  21
ATOM     21  C   UNL     1       3.247  -1.052   7.622  1.00  0.00     0.116 C 
BRANCH  21  22
ATOM     22  C   UNL     1       2.612   0.207   8.225  1.00  0.00     0.023 C 
BRANCH  22  23
ATOM     23  C   UNL     1       1.255   0.048   8.905  1.00  0.00     0.023 C 
BRANCH  23  24
ATOM     24  C   UNL     1       1.128  -1.109   9.880  1.00  0.00     0.116 C 
BRANCH  24  25
ATOM     25  N   UNL     1       2.185  -1.145  10.875  1.00  0.00    -0.352 N 
ATOM     26  C   UNL     1       2.102  -1.380  12.223  1.00  0.00     0.251 C 
ATOM     27  H   UNL     1       3.093  -0.976  10.532  1.00  0.00     0.163 HD
ATOM     28  O   UNL     1       3.104  -1.300  12.926  1.00  0.00    -0.269 OA
BRANCH  26  29
ATOM     29  C   UNL     1       0.791  -1.680  12.833  1.00  0.00     0.039 A 
ATOM     30  C   UNL     1       0.428  -0.995  13.995  1.00  0.00     0.014 A 
ATOM     31  C   UNL     1      -0.086  -2.599  12.251  1.00  0.00     0.014 A 
ATOM     32  C   UNL     1      -0.843  -1.182  14.535  1.00  0.00     0.010 A 
ATOM     33  C   UNL     1      -1.381  -2.720  12.741  1.00  0.00     0.010 A 
ATOM     34  C   UNL     1      -1.771  -2.016  13.890  1.00  0.00    -0.014 A 
BRANCH  34  35
ATOM     35  C   UNL     1      -3.152  -2.167  14.410  1.00  0.00     0.031 A 
ATOM     36  C   UNL     1      -3.628  -3.504  14.903  1.00  0.00     0.074 A 
ATOM     37  C   UNL     1      -3.991  -1.114  14.387  1.00  0.00     0.049 A 
ATOM     38  N   UNL     1      -4.809  -3.849  15.349  1.00  0.00    -0.248 NA
ATOM     39  C   UNL     1      -2.655  -4.608  14.864  1.00  0.00     0.031 C 
ATOM     40  C   UNL     1      -3.660   0.223  13.890  1.00  0.00     0.029 A 
ATOM     41  N   UNL     1      -5.299  -1.004  14.788  1.00  0.00    -0.354 N 
ATOM     42  C   UNL     1      -4.724  -5.206  15.631  1.00  0.00     0.074 A 
ATOM     43  C   UNL     1      -3.396  -5.636  15.249  1.00  0.00     0.031 C 
ATOM     44  C   UNL     1      -4.726   1.026  14.045  1.00  0.00     0.029 A 
ATOM     45  C   UNL     1      -5.825   0.252  14.612  1.00  0.00     0.049 A 
ATOM     46  H   UNL     1      -5.811  -1.756  15.165  1.00  0.00     0.167 HD
ATOM     47  C   UNL     1      -5.658  -6.016  16.182  1.00  0.00     0.037 A 
ATOM     48  C   UNL     1      -7.058   0.725  14.877  1.00  0.00     0.037 A 
ATOM     49  C   UNL     1      -6.971  -5.579  16.577  1.00  0.00     0.049 A 
ATOM     50  C   UNL     1      -8.084  -0.200  15.470  1.00  0.00     0.074 A 
ATOM     51  C   UNL     1      -7.972  -6.307  17.196  1.00  0.00     0.029 A 
ATOM     52  N   UNL     1      -7.467  -4.298  16.387  1.00  0.00    -0.354 N 
ATOM     53  N   UNL     1      -7.968  -1.464  15.799  1.00  0.00    -0.248 NA
ATOM     54  C   UNL     1      -9.413   0.370  15.734  1.00  0.00     0.031 C 
ATOM     55  C   UNL     1      -9.091  -5.479  17.336  1.00  0.00     0.029 A 
ATOM     56  C   UNL     1      -8.769  -4.220  16.854  1.00  0.00     0.049 A 
ATOM     57  H   UNL     1      -6.967  -3.553  15.980  1.00  0.00     0.167 HD
ATOM     58  C   UNL     1      -9.195  -1.832  16.337  1.00  0.00     0.074 A 
ATOM     59  C   UNL     1     -10.036  -0.653  16.301  1.00  0.00     0.031 C 
ATOM     60  C   UNL     1      -9.589  -3.036  16.818  1.00  0.00     0.037 A 
BRANCH  47  61
ATOM     61  C   UNL     1      -5.287  -7.457  16.386  1.00  0.00     0.057 A 
ATOM     62  C   UNL     1      -4.333  -7.848  17.336  1.00  0.00     0.134 A 
ATOM     63  C   UNL     1      -5.903  -8.467  15.638  1.00  0.00     0.134 A 
ATOM     64  F   UNL     1      -3.696  -6.929  18.078  1.00  0.00    -0.206 F 
ATOM     65  C   UNL     1      -3.981  -9.187  17.510  1.00  0.00     0.040 A 
ATOM     66  C   UNL     1      -5.581  -9.813  15.824  1.00  0.00     0.040 A 
ATOM     67  F   UNL     1      -6.829  -8.165  14.716  1.00  0.00    -0.206 F 
ATOM     68  C   UNL     1      -4.611 -10.175  16.756  1.00  0.00     0.006 A 
ENDBRANCH  47  61
BRANCH  48  69
ATOM     69  C   UNL     1      -7.384   2.149  14.610  1.00  0.00     0.057 A 
ATOM     70  C   UNL     1      -7.606   3.045  15.662  1.00  0.00     0.134 A 
ATOM     71  C   UNL     1      -7.492   2.646  13.306  1.00  0.00     0.134 A 
ATOM     72  F   UNL     1      -7.534   2.624  16.934  1.00  0.00    -0.206 F 
ATOM     73  C   UNL     1      -7.944   4.379  15.428  1.00  0.00     0.040 A 
ATOM     74  C   UNL     1      -7.804   3.983  13.057  1.00  0.00     0.040 A 
ATOM     75  F   UNL     1      -7.284   1.840  12.254  1.00  0.00    -0.206 F 
ATOM     76  C   UNL     1      -8.040   4.852  14.121  1.00  0.00     0.006 A 
ENDBRANCH  48  69
BRANCH  60  77
ATOM     77  C   UNL     1     -10.977  -3.128  17.382  1.00  0.00     0.057 A 
ATOM     78  C   UNL     1     -12.113  -3.099  16.564  1.00  0.00     0.134 A 
ATOM     79  C   UNL     1     -11.175  -3.286  18.760  1.00  0.00     0.134 A 
ATOM     80  F   UNL     1     -11.993  -2.936  15.237  1.00  0.00    -0.206 F 
ATOM     81  C   UNL     1     -13.399  -3.198  17.099  1.00  0.00     0.040 A 
ATOM     82  C   UNL     1     -12.454  -3.415  19.303  1.00  0.00     0.040 A 
ATOM     83  F   UNL     1     -10.129  -3.331  19.598  1.00  0.00    -0.206 F 
ATOM     84  C   UNL     1     -13.571  -3.365  18.472  1.00  0.00     0.006 A 
ENDBRANCH  60  77
ENDBRANCH  34  35
ENDBRANCH  26  29
ENDBRANCH  24  25
ENDBRANCH  23  24
ENDBRANCH  22  23
ENDBRANCH  21  22
ENDBRANCH   3  21
TORSDOF 18
