REMARK SMILES CC(C)N(CCCC(=O)NCCCCNC(=O)c1ccc(-c2c3nc(c(-c4c(F)cccc4F)c4ccc([nH]4)c(-c4c(F)cccc4F)c4nc(c(-c5c(F)cccc5F)c5ccc2[nH]5)C=C4)C=C3)cc1)c1cc(Cl)c(Cl)cc1[N+](=O)[O-]
REMARK SMILES IDX 11 1 10 2 8 3 9 4 7 6 6 7 5 8 4 9 2 10 1 11 3 12 72 13 73 14
REMARK SMILES IDX 79 15 74 16 78 17 75 18 76 19 77 20 80 21 81 22 82 23 12 24
REMARK SMILES IDX 13 25 14 26 15 27 16 28 17 30 18 31 19 32 71 33 20 34 70 35
REMARK SMILES IDX 21 36 22 37 23 38 64 39 24 40 69 41 63 42 65 43 25 44 68 45
REMARK SMILES IDX 62 46 61 47 26 49 52 50 35 51 51 52 36 53 39 54 50 55 66 56
REMARK SMILES IDX 37 57 38 58 49 60 67 61 40 62 27 63 28 64 33 65 29 66 30 67
REMARK SMILES IDX 32 68 34 69 31 70 53 71 54 72 59 73 55 74 56 75 58 76 60 77
REMARK SMILES IDX 57 78 41 79 42 80 47 81 43 82 44 83 46 84 48 85 45 86
REMARK H PARENT 10 5 15 29 65 48 39 59
REMARK Flexibility Score: inf
ROOT
ATOM      1  C   UNL     1      -3.498   1.452  -0.028  1.00  0.00     0.116 C 
ENDROOT
BRANCH   1   2
ATOM      2  N   UNL     1      -4.612   1.562  -0.944  1.00  0.00    -0.356 N 
ATOM      3  C   UNL     1      -4.817   0.890  -2.111  1.00  0.00     0.220 C 
ATOM      4  O   UNL     1      -5.685   1.296  -2.882  1.00  0.00    -0.275 OA
ATOM      5  H   UNL     1      -5.312   2.206  -0.692  1.00  0.00     0.163 HD
BRANCH   3   6
ATOM      6  C   UNL     1      -4.033  -0.376  -2.397  1.00  0.00     0.102 C 
BRANCH   6   7
ATOM      7  C   UNL     1      -2.733  -0.216  -3.192  1.00  0.00     0.031 C 
BRANCH   7   8
ATOM      8  C   UNL     1      -1.435   0.151  -2.458  1.00  0.00     0.117 C 
BRANCH   8   9
ATOM      9  N   UNL     1      -0.694  -0.892  -1.685  1.00  0.00    -0.364 N 
BRANCH   9  10
ATOM     10  C   UNL     1       0.784  -0.901  -1.894  1.00  0.00     0.076 C 
ATOM     11  C   UNL     1       1.577  -0.134  -0.841  1.00  0.00     0.030 C 
ATOM     12  C   UNL     1       1.327  -2.310  -2.098  1.00  0.00     0.030 C 
ENDBRANCH   9  10
BRANCH   9  13
ATOM     13  C   UNL     1      -1.335  -1.724  -0.778  1.00  0.00     0.117 A 
ATOM     14  C   UNL     1      -2.175  -2.729  -1.301  1.00  0.00     0.055 A 
ATOM     15  C   UNL     1      -1.290  -1.679   0.632  1.00  0.00     0.294 A 
ATOM     16  C   UNL     1      -3.025  -3.513  -0.500  1.00  0.00     0.062 A 
ATOM     17  C   UNL     1      -2.107  -2.481   1.457  1.00  0.00     0.110 A 
ATOM     18  Cl  UNL     1      -4.126  -4.575  -1.300  1.00  0.00    -0.083 Cl
ATOM     19  C   UNL     1      -3.002  -3.373   0.885  1.00  0.00     0.066 A 
ATOM     20  Cl  UNL     1      -4.059  -4.240   1.936  1.00  0.00    -0.082 Cl
BRANCH  15  21
ATOM     21  N   UNL     1      -0.459  -0.755   1.369  1.00  0.00     0.065 N 
ATOM     22  O   UNL     1       0.400  -1.251   2.111  1.00  0.00    -0.258 OA
ATOM     23  O   UNL     1      -0.740   0.446   1.295  1.00  0.00    -0.258 OA
ENDBRANCH  15  21
ENDBRANCH   9  13
ENDBRANCH   8   9
ENDBRANCH   7   8
ENDBRANCH   6   7
ENDBRANCH   3   6
ENDBRANCH   1   2
BRANCH   1  24
ATOM     24  C   UNL     1      -2.536   2.623  -0.247  1.00  0.00     0.023 C 
BRANCH  24  25
ATOM     25  C   UNL     1      -2.749   3.776   0.719  1.00  0.00     0.023 C 
BRANCH  25  26
ATOM     26  C   UNL     1      -2.399   3.437   2.161  1.00  0.00     0.116 C 
BRANCH  26  27
ATOM     27  N   UNL     1      -1.002   3.076   2.365  1.00  0.00    -0.352 N 
ATOM     28  C   UNL     1      -0.193   3.372   3.436  1.00  0.00     0.251 C 
ATOM     29  H   UNL     1      -0.584   2.553   1.643  1.00  0.00     0.163 HD
ATOM     30  O   UNL     1       0.999   3.084   3.444  1.00  0.00    -0.269 OA
BRANCH  28  31
ATOM     31  C   UNL     1      -0.792   4.082   4.580  1.00  0.00     0.039 A 
ATOM     32  C   UNL     1      -0.192   5.253   5.041  1.00  0.00     0.014 A 
ATOM     33  C   UNL     1      -2.004   3.637   5.118  1.00  0.00     0.014 A 
ATOM     34  C   UNL     1      -0.862   6.031   5.982  1.00  0.00     0.010 A 
ATOM     35  C   UNL     1      -2.713   4.463   5.978  1.00  0.00     0.010 A 
ATOM     36  C   UNL     1      -2.150   5.669   6.415  1.00  0.00    -0.014 A 
BRANCH  36  37
ATOM     37  C   UNL     1      -2.926   6.563   7.305  1.00  0.00     0.031 A 
ATOM     38  C   UNL     1      -3.323   6.109   8.680  1.00  0.00     0.074 A 
ATOM     39  C   UNL     1      -3.314   7.769   6.847  1.00  0.00     0.049 A 
ATOM     40  N   UNL     1      -3.976   6.762   9.607  1.00  0.00    -0.248 NA
ATOM     41  C   UNL     1      -2.974   4.729   9.053  1.00  0.00     0.031 C 
ATOM     42  C   UNL     1      -3.068   8.283   5.496  1.00  0.00     0.029 A 
ATOM     43  N   UNL     1      -3.991   8.786   7.469  1.00  0.00    -0.354 N 
ATOM     44  C   UNL     1      -4.118   5.873  10.664  1.00  0.00     0.074 A 
ATOM     45  C   UNL     1      -3.548   4.614  10.240  1.00  0.00     0.031 C 
ATOM     46  C   UNL     1      -3.545   9.535   5.408  1.00  0.00     0.029 A 
ATOM     47  C   UNL     1      -4.148   9.903   6.684  1.00  0.00     0.049 A 
ATOM     48  H   UNL     1      -4.333   8.722   8.390  1.00  0.00     0.167 HD
ATOM     49  C   UNL     1      -4.646   6.097  11.890  1.00  0.00     0.037 A 
ATOM     50  C   UNL     1      -4.700  11.096   6.971  1.00  0.00     0.037 A 
ATOM     51  C   UNL     1      -5.188   7.360  12.315  1.00  0.00     0.049 A 
ATOM     52  C   UNL     1      -5.236  11.334   8.355  1.00  0.00     0.074 A 
ATOM     53  C   UNL     1      -5.687   7.713  13.555  1.00  0.00     0.029 A 
ATOM     54  N   UNL     1      -5.300   8.480  11.504  1.00  0.00    -0.354 N 
ATOM     55  N   UNL     1      -5.280  10.515   9.377  1.00  0.00    -0.248 NA
ATOM     56  C   UNL     1      -5.783  12.670   8.628  1.00  0.00     0.031 C 
ATOM     57  C   UNL     1      -6.134   9.037  13.485  1.00  0.00     0.029 A 
ATOM     58  C   UNL     1      -5.874   9.522  12.213  1.00  0.00     0.049 A 
ATOM     59  H   UNL     1      -5.013   8.527  10.563  1.00  0.00     0.167 HD
ATOM     60  C   UNL     1      -5.840  11.239  10.421  1.00  0.00     0.074 A 
ATOM     61  C   UNL     1      -6.095  12.572   9.912  1.00  0.00     0.031 C 
ATOM     62  C   UNL     1      -6.124  10.838  11.684  1.00  0.00     0.037 A 
BRANCH  49  63
ATOM     63  C   UNL     1      -4.642   4.950  12.858  1.00  0.00     0.057 A 
ATOM     64  C   UNL     1      -3.453   4.466  13.422  1.00  0.00     0.134 A 
ATOM     65  C   UNL     1      -5.837   4.331  13.243  1.00  0.00     0.134 A 
ATOM     66  F   UNL     1      -2.271   5.004  13.083  1.00  0.00    -0.206 F 
ATOM     67  C   UNL     1      -3.450   3.390  14.311  1.00  0.00     0.040 A 
ATOM     68  C   UNL     1      -5.850   3.272  14.153  1.00  0.00     0.040 A 
ATOM     69  F   UNL     1      -7.011   4.745  12.743  1.00  0.00    -0.206 F 
ATOM     70  C   UNL     1      -4.653   2.794  14.683  1.00  0.00     0.006 A 
ENDBRANCH  49  63
BRANCH  50  71
ATOM     71  C   UNL     1      -4.723  12.171   5.949  1.00  0.00     0.057 A 
ATOM     72  C   UNL     1      -3.905  13.300   6.072  1.00  0.00     0.134 A 
ATOM     73  C   UNL     1      -5.561  12.101   4.831  1.00  0.00     0.134 A 
ATOM     74  F   UNL     1      -3.091  13.432   7.130  1.00  0.00    -0.206 F 
ATOM     75  C   UNL     1      -3.936  14.332   5.133  1.00  0.00     0.040 A 
ATOM     76  C   UNL     1      -5.585  13.114   3.871  1.00  0.00     0.040 A 
ATOM     77  F   UNL     1      -6.361  11.039   4.649  1.00  0.00    -0.206 F 
ATOM     78  C   UNL     1      -4.776  14.238   4.026  1.00  0.00     0.006 A 
ENDBRANCH  50  71
BRANCH  62  79
ATOM     79  C   UNL     1      -6.723  11.864  12.599  1.00  0.00     0.057 A 
ATOM     80  C   UNL     1      -8.041  12.314  12.441  1.00  0.00     0.134 A 
ATOM     81  C   UNL     1      -5.977  12.404  13.654  1.00  0.00     0.134 A 
ATOM     82  F   UNL     1      -8.803  11.845  11.441  1.00  0.00    -0.206 F 
ATOM     83  C   UNL     1      -8.583  13.290  13.277  1.00  0.00     0.040 A 
ATOM     84  C   UNL     1      -6.517  13.360  14.514  1.00  0.00     0.040 A 
ATOM     85  F   UNL     1      -4.713  12.009  13.866  1.00  0.00    -0.206 F 
ATOM     86  C   UNL     1      -7.821  13.813  14.320  1.00  0.00     0.006 A 
ENDBRANCH  62  79
ENDBRANCH  36  37
ENDBRANCH  28  31
ENDBRANCH  26  27
ENDBRANCH  25  26
ENDBRANCH  24  25
ENDBRANCH   1  24
TORSDOF 17
