REMARK SMILES O=C(CCC[NH2+][C@H]1CCOC2(CCOCC2)C1)NCCCCNC(=O)c1ccc(-c2c3nc(c(-c4c(F)cccc4F)c4ccc([nH]4)c(-c4c(F)cccc4F)c4nc(c(-c5c(F)cccc5F)c5ccc2[nH]5)C=C4)C=C3)cc1
REMARK SMILES IDX 19 1 18 2 1 3 2 4 3 6 4 7 5 8 6 9 7 12 8 13 17 14 9 15 11 16
REMARK SMILES IDX 10 17 12 18 16 19 13 20 15 21 14 22 20 23 21 24 22 25 23 26
REMARK SMILES IDX 24 27 25 29 26 30 27 31 79 32 28 33 78 34 29 35 30 36 31 37
REMARK SMILES IDX 72 38 32 39 77 40 71 41 73 42 33 43 76 44 70 45 69 46 34 48
REMARK SMILES IDX 60 49 43 50 59 51 44 52 47 53 58 54 74 55 45 56 46 57 57 59
REMARK SMILES IDX 75 60 48 61 35 62 36 63 41 64 37 65 38 66 40 67 42 68 39 69
REMARK SMILES IDX 61 70 62 71 67 72 63 73 64 74 66 75 68 76 65 77 49 78 50 79
REMARK SMILES IDX 55 80 51 81 52 82 54 83 56 84 53 85
REMARK H PARENT 18 5 6 10 6 11 23 28 73 47 47 58
REMARK Flexibility Score: inf
ROOT
ATOM      1  C   UNL     1      10.492  -2.747   0.519  1.00  0.00     0.116 C 
ENDROOT
BRANCH   1   2
ATOM      2  N   UNL     1      10.280  -1.435  -0.063  1.00  0.00    -0.356 N 
ATOM      3  O   UNL     1      11.201  -1.974  -2.098  1.00  0.00    -0.275 OA
ATOM      4  C   UNL     1      10.639  -1.165  -1.367  1.00  0.00     0.220 C 
ATOM      5  H   UNL     1       9.873  -0.724   0.483  1.00  0.00     0.163 HD
BRANCH   4   6
ATOM      6  C   UNL     1      10.239   0.213  -1.858  1.00  0.00     0.106 C 
BRANCH   6   7
ATOM      7  C   UNL     1       8.875   0.187  -2.552  1.00  0.00     0.071 C 
BRANCH   7   8
ATOM      8  C   UNL     1       7.676   0.015  -1.612  1.00  0.00     0.261 C 
BRANCH   8   9
ATOM      9  N   UNL     1       7.465   1.189  -0.765  1.00  0.00    -0.344 N 
ATOM     10  H   UNL     1       7.138   1.957  -1.350  1.00  0.00     0.346 HD
ATOM     11  H   UNL     1       8.355   1.403  -0.315  1.00  0.00     0.346 HD
BRANCH   9  12
ATOM     12  C   UNL     1       6.480   0.961   0.301  1.00  0.00     0.187 C 
ATOM     13  C   UNL     1       7.121   0.263   1.502  1.00  0.00     0.093 C 
ATOM     14  C   UNL     1       5.891   2.302   0.760  1.00  0.00     0.100 C 
ATOM     15  C   UNL     1       6.153   0.171   2.670  1.00  0.00     0.167 C 
ATOM     16  C   UNL     1       4.917   2.115   1.944  1.00  0.00     0.078 C 
ATOM     17  O   UNL     1       5.608   1.436   3.007  1.00  0.00    -0.374 OA
ATOM     18  C   UNL     1       3.631   1.365   1.531  1.00  0.00     0.064 C 
ATOM     19  C   UNL     1       4.520   3.491   2.510  1.00  0.00     0.064 C 
ATOM     20  C   UNL     1       2.619   1.347   2.670  1.00  0.00     0.163 C 
ATOM     21  C   UNL     1       3.449   3.352   3.588  1.00  0.00     0.163 C 
ATOM     22  O   UNL     1       2.305   2.680   3.061  1.00  0.00    -0.381 OA
ENDBRANCH   9  12
ENDBRANCH   8   9
ENDBRANCH   7   8
ENDBRANCH   6   7
ENDBRANCH   4   6
ENDBRANCH   1   2
BRANCH   1  23
ATOM     23  C   UNL     1      10.759  -2.711   2.025  1.00  0.00     0.023 C 
BRANCH  23  24
ATOM     24  C   UNL     1       9.625  -2.162   2.894  1.00  0.00     0.023 C 
BRANCH  24  25
ATOM     25  C   UNL     1       8.291  -2.900   2.797  1.00  0.00     0.116 C 
BRANCH  25  26
ATOM     26  N   UNL     1       8.303  -4.203   3.430  1.00  0.00    -0.352 N 
ATOM     27  C   UNL     1       7.412  -4.739   4.331  1.00  0.00     0.251 C 
ATOM     28  H   UNL     1       9.054  -4.787   3.180  1.00  0.00     0.163 HD
ATOM     29  O   UNL     1       7.664  -5.821   4.860  1.00  0.00    -0.269 OA
BRANCH  27  30
ATOM     30  C   UNL     1       6.166  -4.023   4.703  1.00  0.00     0.039 A 
ATOM     31  C   UNL     1       5.808  -3.967   6.054  1.00  0.00     0.014 A 
ATOM     32  C   UNL     1       5.325  -3.449   3.744  1.00  0.00     0.014 A 
ATOM     33  C   UNL     1       4.646  -3.293   6.449  1.00  0.00     0.010 A 
ATOM     34  C   UNL     1       4.190  -2.734   4.144  1.00  0.00     0.010 A 
ATOM     35  C   UNL     1       3.839  -2.643   5.501  1.00  0.00    -0.014 A 
BRANCH  35  36
ATOM     36  C   UNL     1       2.639  -1.868   5.921  1.00  0.00     0.031 A 
ATOM     37  C   UNL     1       1.256  -2.313   5.528  1.00  0.00     0.074 A 
ATOM     38  C   UNL     1       2.788  -0.732   6.630  1.00  0.00     0.049 A 
ATOM     39  N   UNL     1       0.102  -1.743   5.772  1.00  0.00    -0.248 NA
ATOM     40  C   UNL     1       1.156  -3.550   4.740  1.00  0.00     0.031 C 
ATOM     41  C   UNL     1       4.068  -0.160   7.053  1.00  0.00     0.029 A 
ATOM     42  N   UNL     1       1.854   0.150   7.119  1.00  0.00    -0.354 N 
ATOM     43  C   UNL     1      -0.856  -2.539   5.158  1.00  0.00     0.074 A 
ATOM     44  C   UNL     1      -0.145  -3.613   4.496  1.00  0.00     0.031 C 
ATOM     45  C   UNL     1       3.837   0.960   7.757  1.00  0.00     0.029 A 
ATOM     46  C   UNL     1       2.399   1.207   7.807  1.00  0.00     0.049 A 
ATOM     47  H   UNL     1       0.885   0.035   6.987  1.00  0.00     0.167 HD
ATOM     48  C   UNL     1      -2.205  -2.403   5.160  1.00  0.00     0.037 A 
ATOM     49  C   UNL     1       1.811   2.259   8.408  1.00  0.00     0.037 A 
ATOM     50  C   UNL     1      -2.924  -1.360   5.845  1.00  0.00     0.049 A 
ATOM     51  C   UNL     1       0.313   2.389   8.390  1.00  0.00     0.074 A 
ATOM     52  C   UNL     1      -4.294  -1.189   5.957  1.00  0.00     0.029 A 
ATOM     53  N   UNL     1      -2.334  -0.310   6.531  1.00  0.00    -0.354 N 
ATOM     54  N   UNL     1      -0.581   1.588   7.866  1.00  0.00    -0.248 NA
ATOM     55  C   UNL     1      -0.258   3.572   9.054  1.00  0.00     0.031 C 
ATOM     56  C   UNL     1      -4.533  -0.015   6.679  1.00  0.00     0.029 A 
ATOM     57  C   UNL     1      -3.313   0.523   7.051  1.00  0.00     0.049 A 
ATOM     58  H   UNL     1      -1.365  -0.176   6.633  1.00  0.00     0.167 HD
ATOM     59  C   UNL     1      -1.816   2.154   8.155  1.00  0.00     0.074 A 
ATOM     60  C   UNL     1      -1.559   3.358   8.916  1.00  0.00     0.031 C 
ATOM     61  C   UNL     1      -3.052   1.714   7.818  1.00  0.00     0.037 A 
BRANCH  48  62
ATOM     62  C   UNL     1      -3.004  -3.417   4.394  1.00  0.00     0.057 A 
ATOM     63  C   UNL     1      -3.163  -4.730   4.852  1.00  0.00     0.134 A 
ATOM     64  C   UNL     1      -3.663  -3.060   3.210  1.00  0.00     0.134 A 
ATOM     65  F   UNL     1      -2.551  -5.138   5.974  1.00  0.00    -0.206 F 
ATOM     66  C   UNL     1      -3.932  -5.660   4.149  1.00  0.00     0.040 A 
ATOM     67  C   UNL     1      -4.454  -3.974   2.512  1.00  0.00     0.040 A 
ATOM     68  F   UNL     1      -3.559  -1.815   2.721  1.00  0.00    -0.206 F 
ATOM     69  C   UNL     1      -4.585  -5.280   2.979  1.00  0.00     0.006 A 
ENDBRANCH  48  62
BRANCH  49  70
ATOM     70  C   UNL     1       2.640   3.273   9.107  1.00  0.00     0.057 A 
ATOM     71  C   UNL     1       2.632   3.370  10.503  1.00  0.00     0.134 A 
ATOM     72  C   UNL     1       3.441   4.178   8.400  1.00  0.00     0.134 A 
ATOM     73  F   UNL     1       1.866   2.545  11.232  1.00  0.00    -0.206 F 
ATOM     74  C   UNL     1       3.377   4.341  11.173  1.00  0.00     0.040 A 
ATOM     75  C   UNL     1       4.210   5.139   9.059  1.00  0.00     0.040 A 
ATOM     76  F   UNL     1       3.495   4.134   7.061  1.00  0.00    -0.206 F 
ATOM     77  C   UNL     1       4.173   5.227  10.450  1.00  0.00     0.006 A 
ENDBRANCH  49  70
BRANCH  61  78
ATOM     78  C   UNL     1      -4.226   2.515   8.300  1.00  0.00     0.057 A 
ATOM     79  C   UNL     1      -4.559   3.752   7.734  1.00  0.00     0.134 A 
ATOM     80  C   UNL     1      -5.053   2.026   9.319  1.00  0.00     0.134 A 
ATOM     81  F   UNL     1      -3.799   4.283   6.764  1.00  0.00    -0.206 F 
ATOM     82  C   UNL     1      -5.662   4.484   8.178  1.00  0.00     0.040 A 
ATOM     83  C   UNL     1      -6.172   2.738   9.755  1.00  0.00     0.040 A 
ATOM     84  F   UNL     1      -4.795   0.845   9.899  1.00  0.00    -0.206 F 
ATOM     85  C   UNL     1      -6.476   3.974   9.188  1.00  0.00     0.006 A 
ENDBRANCH  61  78
ENDBRANCH  35  36
ENDBRANCH  27  30
ENDBRANCH  25  26
ENDBRANCH  24  25
ENDBRANCH  23  24
ENDBRANCH   1  23
TORSDOF 15
