REMARK SMILES O=C(NCCCCNC(=O)[C@@H]1CC=CC[C@@H]1C(=O)N1CCN(C(=O)c2sc3cc([N+](=O)[O-])ccc3c2Cl)CC1)c1ccc(-c2c3nc(c(-c4c(F)cccc4F)c4ccc([nH]4)c(-c4c(F)cccc4F)c4nc(c(-c5c(F)cccc5F)c5ccc2[nH]5)C=C4)C=C3)cc1
REMARK SMILES IDX 6 1 5 2 4 3 3 4 1 5 2 6 40 8 41 9 93 10 42 11 92 12 43 13
REMARK SMILES IDX 44 14 45 15 86 16 46 17 91 18 85 19 87 20 47 21 90 22 84 23
REMARK SMILES IDX 83 24 48 26 74 27 57 28 73 29 58 30 61 31 72 32 88 33 59 34
REMARK SMILES IDX 60 35 71 37 89 38 62 39 49 40 50 41 55 42 51 43 52 44 54 45
REMARK SMILES IDX 56 46 53 47 75 48 76 49 81 50 77 51 78 52 80 53 82 54 79 55
REMARK SMILES IDX 63 56 64 57 69 58 65 59 66 60 68 61 70 62 67 63 7 64 8 65
REMARK SMILES IDX 9 66 10 68 11 69 12 70 16 71 13 72 15 73 14 74 17 75 18 76
REMARK SMILES IDX 19 77 20 78 39 79 21 80 38 81 22 82 23 83 24 84 25 85 26 86
REMARK SMILES IDX 36 87 27 88 35 89 37 90 28 91 34 92 29 93 33 94 30 95 31 96
REMARK SMILES IDX 32 97
REMARK H PARENT 3 7 87 25 61 36 8 67
REMARK Flexibility Score: inf
ROOT
ATOM      1  C   UNL     1       4.371   8.929  -2.831  1.00  0.00     0.023 C 
ENDROOT
BRANCH   1   2
ATOM      2  C   UNL     1       2.851   9.135  -2.798  1.00  0.00     0.023 C 
BRANCH   2   3
ATOM      3  C   UNL     1       2.259   9.866  -1.596  1.00  0.00     0.116 C 
BRANCH   3   4
ATOM      4  N   UNL     1       2.783  11.219  -1.366  1.00  0.00    -0.352 N 
ATOM      5  O   UNL     1       2.832  13.158  -0.139  1.00  0.00    -0.269 OA
ATOM      6  C   UNL     1       2.772  11.931  -0.172  1.00  0.00     0.251 C 
ATOM      7  H   UNL     1       3.185  11.671  -2.143  1.00  0.00     0.163 HD
BRANCH   6   8
ATOM      8  C   UNL     1       2.759  11.153   1.076  1.00  0.00     0.039 A 
ATOM      9  C   UNL     1       1.883  11.362   2.138  1.00  0.00     0.014 A 
ATOM     10  C   UNL     1       3.608  10.062   1.060  1.00  0.00     0.014 A 
ATOM     11  C   UNL     1       1.802  10.374   3.122  1.00  0.00     0.010 A 
ATOM     12  C   UNL     1       3.304   8.986   1.839  1.00  0.00     0.010 A 
ATOM     13  C   UNL     1       2.489   9.158   2.941  1.00  0.00    -0.014 A 
BRANCH  13  14
ATOM     14  C   UNL     1       2.312   8.005   3.818  1.00  0.00     0.031 A 
ATOM     15  C   UNL     1       0.901   7.748   4.195  1.00  0.00     0.074 A 
ATOM     16  C   UNL     1       3.307   7.144   4.144  1.00  0.00     0.049 A 
ATOM     17  N   UNL     1       0.349   8.054   5.319  1.00  0.00    -0.248 NA
ATOM     18  C   UNL     1      -0.051   7.295   3.170  1.00  0.00     0.031 C 
ATOM     19  C   UNL     1       4.696   7.098   3.661  1.00  0.00     0.029 A 
ATOM     20  N   UNL     1       3.257   6.052   4.957  1.00  0.00    -0.354 N 
ATOM     21  C   UNL     1      -0.956   7.589   5.242  1.00  0.00     0.074 A 
ATOM     22  C   UNL     1      -1.204   7.342   3.845  1.00  0.00     0.031 C 
ATOM     23  C   UNL     1       5.270   5.923   3.997  1.00  0.00     0.029 A 
ATOM     24  C   UNL     1       4.373   5.220   4.890  1.00  0.00     0.049 A 
ATOM     25  H   UNL     1       2.491   5.865   5.546  1.00  0.00     0.167 HD
ATOM     26  C   UNL     1      -1.595   7.175   6.372  1.00  0.00     0.037 A 
ATOM     27  C   UNL     1       4.567   4.052   5.552  1.00  0.00     0.037 A 
ATOM     28  C   UNL     1      -0.889   7.633   7.551  1.00  0.00     0.049 A 
ATOM     29  C   UNL     1       3.659   4.065   6.723  1.00  0.00     0.074 A 
ATOM     30  C   UNL     1      -0.505   8.866   8.043  1.00  0.00     0.029 A 
ATOM     31  N   UNL     1      -0.112   6.713   8.214  1.00  0.00    -0.354 N 
ATOM     32  N   UNL     1       3.817   4.868   7.738  1.00  0.00    -0.248 NA
ATOM     33  C   UNL     1       2.313   3.549   6.537  1.00  0.00     0.031 C 
ATOM     34  C   UNL     1       0.797   8.656   8.592  1.00  0.00     0.029 A 
ATOM     35  C   UNL     1       1.097   7.298   8.489  1.00  0.00     0.049 A 
ATOM     36  H   UNL     1      -0.377   5.795   8.450  1.00  0.00     0.167 HD
ATOM     37  C   UNL     1       2.538   5.322   8.025  1.00  0.00     0.074 A 
ATOM     38  C   UNL     1       1.643   4.407   7.314  1.00  0.00     0.031 C 
ATOM     39  C   UNL     1       2.339   6.564   8.557  1.00  0.00     0.037 A 
BRANCH  26  40
ATOM     40  C   UNL     1      -2.543   5.999   6.433  1.00  0.00     0.057 A 
ATOM     41  C   UNL     1      -2.609   4.971   5.470  1.00  0.00     0.134 A 
ATOM     42  C   UNL     1      -3.159   5.703   7.665  1.00  0.00     0.134 A 
ATOM     43  F   UNL     1      -2.058   5.077   4.256  1.00  0.00    -0.206 F 
ATOM     44  C   UNL     1      -3.162   3.719   5.743  1.00  0.00     0.040 A 
ATOM     45  C   UNL     1      -3.672   4.436   7.962  1.00  0.00     0.040 A 
ATOM     46  F   UNL     1      -3.182   6.607   8.656  1.00  0.00    -0.206 F 
ATOM     47  C   UNL     1      -3.656   3.432   7.005  1.00  0.00     0.006 A 
ENDBRANCH  26  40
BRANCH  27  48
ATOM     48  C   UNL     1       5.302   2.838   5.130  1.00  0.00     0.057 A 
ATOM     49  C   UNL     1       5.428   2.498   3.772  1.00  0.00     0.134 A 
ATOM     50  C   UNL     1       5.637   1.832   6.049  1.00  0.00     0.134 A 
ATOM     51  F   UNL     1       5.074   3.362   2.809  1.00  0.00    -0.206 F 
ATOM     52  C   UNL     1       5.831   1.225   3.352  1.00  0.00     0.040 A 
ATOM     53  C   UNL     1       6.039   0.552   5.642  1.00  0.00     0.040 A 
ATOM     54  F   UNL     1       5.517   2.045   7.367  1.00  0.00    -0.206 F 
ATOM     55  C   UNL     1       6.122   0.241   4.288  1.00  0.00     0.006 A 
ENDBRANCH  27  48
BRANCH  39  56
ATOM     56  C   UNL     1       3.548   7.302   9.068  1.00  0.00     0.057 A 
ATOM     57  C   UNL     1       3.571   7.701  10.408  1.00  0.00     0.134 A 
ATOM     58  C   UNL     1       4.625   7.717   8.269  1.00  0.00     0.134 A 
ATOM     59  F   UNL     1       2.548   7.393  11.220  1.00  0.00    -0.206 F 
ATOM     60  C   UNL     1       4.623   8.451  10.938  1.00  0.00     0.040 A 
ATOM     61  C   UNL     1       5.702   8.441   8.794  1.00  0.00     0.040 A 
ATOM     62  F   UNL     1       4.648   7.475   6.953  1.00  0.00    -0.206 F 
ATOM     63  C   UNL     1       5.701   8.811  10.134  1.00  0.00     0.006 A 
ENDBRANCH  39  56
ENDBRANCH  13  14
ENDBRANCH   6   8
ENDBRANCH   3   4
ENDBRANCH   2   3
ENDBRANCH   1   2
BRANCH   1  64
ATOM     64  C   UNL     1       5.008   8.143  -1.679  1.00  0.00     0.116 C 
BRANCH  64  65
ATOM     65  N   UNL     1       4.945   6.699  -1.760  1.00  0.00    -0.356 N 
ATOM     66  C   UNL     1       5.662   5.766  -2.435  1.00  0.00     0.224 C 
ATOM     67  H   UNL     1       4.230   6.311  -1.206  1.00  0.00     0.163 HD
ATOM     68  O   UNL     1       5.346   4.588  -2.218  1.00  0.00    -0.275 OA
BRANCH  66  69
ATOM     69  C   UNL     1       6.700   6.070  -3.499  1.00  0.00     0.095 C 
ATOM     70  C   UNL     1       7.439   7.399  -3.416  1.00  0.00     0.041 C 
ATOM     71  C   UNL     1       6.274   5.670  -4.932  1.00  0.00     0.095 C 
ATOM     72  C   UNL     1       8.504   7.541  -4.452  1.00  0.00    -0.030 C 
ATOM     73  C   UNL     1       7.531   5.700  -5.854  1.00  0.00     0.041 C 
ATOM     74  C   UNL     1       8.544   6.775  -5.548  1.00  0.00    -0.030 C 
BRANCH  71  75
ATOM     75  C   UNL     1       5.132   6.449  -5.630  1.00  0.00     0.226 C 
ATOM     76  O   UNL     1       5.339   7.448  -6.318  1.00  0.00    -0.275 OA
ATOM     77  N   UNL     1       3.878   5.844  -5.606  1.00  0.00    -0.339 N 
ATOM     78  C   UNL     1       3.019   5.816  -6.797  1.00  0.00     0.141 C 
ATOM     79  C   UNL     1       3.111   5.733  -4.381  1.00  0.00     0.141 C 
ATOM     80  C   UNL     1       2.054   4.594  -6.763  1.00  0.00     0.141 C 
ATOM     81  C   UNL     1       2.358   4.417  -4.322  1.00  0.00     0.141 C 
ATOM     82  N   UNL     1       1.416   4.402  -5.441  1.00  0.00    -0.334 N 
ATOM     83  C   UNL     1       0.031   4.265  -5.323  1.00  0.00     0.265 C 
ATOM     84  O   UNL     1      -0.690   4.276  -6.320  1.00  0.00    -0.268 OA
BRANCH  83  85
ATOM     85  C   UNL     1      -0.526   4.084  -3.992  1.00  0.00     0.112 A 
ATOM     86  S   UNL     1      -1.178   2.558  -3.592  1.00  0.00    -0.128 S 
ATOM     87  C   UNL     1      -0.675   4.981  -2.954  1.00  0.00     0.072 A 
ATOM     88  C   UNL     1      -1.602   3.056  -1.999  1.00  0.00     0.043 A 
ATOM     89  C   UNL     1      -1.246   4.388  -1.767  1.00  0.00     0.012 A 
ATOM     90  Cl  UNL     1      -0.231   6.639  -3.010  1.00  0.00    -0.082 Cl
ATOM     91  C   UNL     1      -2.232   2.267  -1.014  1.00  0.00     0.105 A 
ATOM     92  C   UNL     1      -1.506   4.927  -0.476  1.00  0.00     0.018 A 
ATOM     93  C   UNL     1      -2.487   2.841   0.241  1.00  0.00     0.270 A 
ATOM     94  C   UNL     1      -2.116   4.154   0.520  1.00  0.00     0.086 A 
BRANCH  93  95
ATOM     95  N   UNL     1      -3.162   2.040   1.273  1.00  0.00     0.062 N 
ATOM     96  O   UNL     1      -3.463   0.872   0.992  1.00  0.00    -0.258 OA
ATOM     97  O   UNL     1      -3.389   2.579   2.365  1.00  0.00    -0.258 OA
ENDBRANCH  93  95
ENDBRANCH  83  85
ENDBRANCH  71  75
ENDBRANCH  66  69
ENDBRANCH  64  65
ENDBRANCH   1  64
TORSDOF 14
