REMARK SMILES COC(=O)/C=C(/CC(C)C)C(=O)NCCCCNC(=O)c1ccc(-c2c3nc(c(-c4c(F)cccc4F)c4ccc([nH]4)c(-c4c(F)cccc4F)c4nc(c(-c5c(F)cccc5F)c5ccc2[nH]5)C=C4)C=C3)cc1
REMARK SMILES IDX 15 1 14 2 13 3 11 4 12 5 6 7 5 8 3 9 4 10 2 11 1 12 7 13
REMARK SMILES IDX 8 14 9 15 10 16 16 17 17 18 18 19 19 20 20 22 21 23 22 24
REMARK SMILES IDX 74 25 23 26 73 27 24 28 25 29 26 30 67 31 27 32 72 33 66 34
REMARK SMILES IDX 68 35 28 36 71 37 65 38 64 39 29 41 55 42 38 43 54 44 39 45
REMARK SMILES IDX 42 46 53 47 69 48 40 49 41 50 52 52 70 53 43 54 30 55 31 56
REMARK SMILES IDX 36 57 32 58 33 59 35 60 37 61 34 62 56 63 57 64 62 65 58 66
REMARK SMILES IDX 59 67 61 68 63 69 60 70 44 71 45 72 50 73 46 74 47 75 49 76
REMARK SMILES IDX 51 77 48 78
REMARK H PARENT 13 6 18 21 68 40 42 51
REMARK Flexibility Score: inf
ROOT
ATOM      1  C   UNL     1      -1.936   1.971   6.106  1.00  0.00     0.023 C 
ENDROOT
BRANCH   1   2
ATOM      2  C   UNL     1      -2.458   0.870   5.182  1.00  0.00     0.116 C 
BRANCH   2   3
ATOM      3  N   UNL     1      -1.724   0.875   3.932  1.00  0.00    -0.352 N 
ATOM      4  C   UNL     1      -0.608   0.221   3.517  1.00  0.00     0.247 C 
ATOM      5  O   UNL     1       0.166   0.885   2.823  1.00  0.00    -0.270 OA
ATOM      6  H   UNL     1      -2.110   1.470   3.249  1.00  0.00     0.163 HD
BRANCH   4   7
ATOM      7  C   UNL     1      -0.300  -1.208   3.847  1.00  0.00     0.024 C 
ATOM      8  C   UNL     1       0.429  -1.941   2.975  1.00  0.00     0.102 C 
BRANCH   8   9
ATOM      9  C   UNL     1       1.024  -1.614   1.664  1.00  0.00     0.330 C 
ATOM     10  O   UNL     1       2.086  -2.115   1.318  1.00  0.00    -0.247 OA
BRANCH   9  11
ATOM     11  O   UNL     1       0.222  -0.846   0.897  1.00  0.00    -0.466 OA
ATOM     12  C   UNL     1       0.848  -0.349  -0.288  1.00  0.00     0.282 C 
ENDBRANCH   9  11
ENDBRANCH   8   9
BRANCH   7  13
ATOM     13  C   UNL     1      -0.734  -1.897   5.118  1.00  0.00     0.044 C 
BRANCH  13  14
ATOM     14  C   UNL     1       0.152  -1.674   6.368  1.00  0.00    -0.013 C 
ATOM     15  C   UNL     1       0.598  -0.242   6.652  1.00  0.00     0.008 C 
ATOM     16  C   UNL     1      -0.567  -2.219   7.608  1.00  0.00     0.008 C 
ENDBRANCH  13  14
ENDBRANCH   7  13
ENDBRANCH   4   7
ENDBRANCH   2   3
ENDBRANCH   1   2
BRANCH   1  17
ATOM     17  C   UNL     1      -2.517   3.351   5.850  1.00  0.00     0.023 C 
BRANCH  17  18
ATOM     18  C   UNL     1      -4.029   3.434   5.976  1.00  0.00     0.116 C 
BRANCH  18  19
ATOM     19  N   UNL     1      -4.546   2.906   7.236  1.00  0.00    -0.352 N 
ATOM     20  C   UNL     1      -5.378   3.505   8.152  1.00  0.00     0.251 C 
ATOM     21  H   UNL     1      -4.258   1.992   7.460  1.00  0.00     0.163 HD
ATOM     22  O   UNL     1      -5.644   2.955   9.216  1.00  0.00    -0.269 OA
BRANCH  20  23
ATOM     23  C   UNL     1      -5.905   4.849   7.852  1.00  0.00     0.039 A 
ATOM     24  C   UNL     1      -5.724   5.874   8.782  1.00  0.00     0.014 A 
ATOM     25  C   UNL     1      -6.451   5.112   6.595  1.00  0.00     0.014 A 
ATOM     26  C   UNL     1      -5.981   7.191   8.401  1.00  0.00     0.010 A 
ATOM     27  C   UNL     1      -6.593   6.428   6.183  1.00  0.00     0.010 A 
ATOM     28  C   UNL     1      -6.348   7.482   7.077  1.00  0.00    -0.014 A 
BRANCH  28  29
ATOM     29  C   UNL     1      -6.463   8.878   6.587  1.00  0.00     0.031 A 
ATOM     30  C   UNL     1      -7.764   9.360   6.009  1.00  0.00     0.074 A 
ATOM     31  C   UNL     1      -5.374   9.672   6.561  1.00  0.00     0.049 A 
ATOM     32  N   UNL     1      -8.035  10.489   5.407  1.00  0.00    -0.248 NA
ATOM     33  C   UNL     1      -8.903   8.428   6.076  1.00  0.00     0.031 C 
ATOM     34  C   UNL     1      -4.036   9.298   7.027  1.00  0.00     0.029 A 
ATOM     35  N   UNL     1      -5.216  10.958   6.109  1.00  0.00    -0.354 N 
ATOM     36  C   UNL     1      -9.359  10.389   5.001  1.00  0.00     0.074 A 
ATOM     37  C   UNL     1      -9.819   9.068   5.367  1.00  0.00     0.031 C 
ATOM     38  C   UNL     1      -3.204  10.340   6.865  1.00  0.00     0.029 A 
ATOM     39  C   UNL     1      -3.935  11.439   6.245  1.00  0.00     0.049 A 
ATOM     40  H   UNL     1      -5.951  11.488   5.724  1.00  0.00     0.167 HD
ATOM     41  C   UNL     1     -10.133  11.325   4.404  1.00  0.00     0.037 A 
ATOM     42  C   UNL     1      -3.409  12.629   5.900  1.00  0.00     0.037 A 
ATOM     43  C   UNL     1      -9.686  12.653   4.085  1.00  0.00     0.049 A 
ATOM     44  C   UNL     1      -4.294  13.658   5.253  1.00  0.00     0.074 A 
ATOM     45  C   UNL     1     -10.415  13.706   3.561  1.00  0.00     0.029 A 
ATOM     46  N   UNL     1      -8.390  13.113   4.268  1.00  0.00    -0.354 N 
ATOM     47  N   UNL     1      -5.566  13.578   4.944  1.00  0.00    -0.248 NA
ATOM     48  C   UNL     1      -3.671  14.943   4.906  1.00  0.00     0.031 C 
ATOM     49  C   UNL     1      -9.549  14.791   3.389  1.00  0.00     0.029 A 
ATOM     50  C   UNL     1      -8.292  14.427   3.844  1.00  0.00     0.049 A 
ATOM     51  H   UNL     1      -7.650  12.583   4.643  1.00  0.00     0.167 HD
ATOM     52  C   UNL     1      -5.899  14.803   4.384  1.00  0.00     0.074 A 
ATOM     53  C   UNL     1      -4.701  15.617   4.414  1.00  0.00     0.031 C 
ATOM     54  C   UNL     1      -7.089  15.218   3.884  1.00  0.00     0.037 A 
BRANCH  41  55
ATOM     55  C   UNL     1     -11.546  10.943   4.074  1.00  0.00     0.057 A 
ATOM     56  C   UNL     1     -12.509  10.741   5.072  1.00  0.00     0.134 A 
ATOM     57  C   UNL     1     -11.954  10.791   2.743  1.00  0.00     0.134 A 
ATOM     58  F   UNL     1     -12.178  10.854   6.367  1.00  0.00    -0.206 F 
ATOM     59  C   UNL     1     -13.818  10.372   4.760  1.00  0.00     0.040 A 
ATOM     60  C   UNL     1     -13.268  10.450   2.418  1.00  0.00     0.040 A 
ATOM     61  F   UNL     1     -11.084  10.972   1.738  1.00  0.00    -0.206 F 
ATOM     62  C   UNL     1     -14.202  10.232   3.429  1.00  0.00     0.006 A 
ENDBRANCH  41  55
BRANCH  42  63
ATOM     63  C   UNL     1      -1.980  12.923   6.175  1.00  0.00     0.057 A 
ATOM     64  C   UNL     1      -1.613  13.846   7.161  1.00  0.00     0.134 A 
ATOM     65  C   UNL     1      -0.950  12.300   5.459  1.00  0.00     0.134 A 
ATOM     66  F   UNL     1      -2.554  14.489   7.867  1.00  0.00    -0.206 F 
ATOM     67  C   UNL     1      -0.275  14.154   7.414  1.00  0.00     0.040 A 
ATOM     68  C   UNL     1       0.393  12.581   5.718  1.00  0.00     0.040 A 
ATOM     69  F   UNL     1      -1.235  11.401   4.506  1.00  0.00    -0.206 F 
ATOM     70  C   UNL     1       0.733  13.517   6.693  1.00  0.00     0.006 A 
ENDBRANCH  42  63
BRANCH  54  71
ATOM     71  C   UNL     1      -7.154  16.616   3.346  1.00  0.00     0.057 A 
ATOM     72  C   UNL     1      -6.562  16.961   2.125  1.00  0.00     0.134 A 
ATOM     73  C   UNL     1      -7.855  17.614   4.034  1.00  0.00     0.134 A 
ATOM     74  F   UNL     1      -5.865  16.053   1.426  1.00  0.00    -0.206 F 
ATOM     75  C   UNL     1      -6.648  18.257   1.616  1.00  0.00     0.040 A 
ATOM     76  C   UNL     1      -7.971  18.906   3.522  1.00  0.00     0.040 A 
ATOM     77  F   UNL     1      -8.453  17.344   5.204  1.00  0.00    -0.206 F 
ATOM     78  C   UNL     1      -7.362  19.232   2.312  1.00  0.00     0.006 A 
ENDBRANCH  54  71
ENDBRANCH  28  29
ENDBRANCH  20  23
ENDBRANCH  18  19
ENDBRANCH  17  18
ENDBRANCH   1  17
TORSDOF 15
