REMARK SMILES O=C(NCCCCNC(=O)c1ccc(-c2c3nc(c(-c4c(F)cccc4F)c4ccc([nH]4)c(-c4c(F)cccc4F)c4nc(c(-c5c(F)cccc5F)c5ccc2[nH]5)C=C4)C=C3)cc1)C1=Cc2cc(Cl)c(Cl)c(Cl)c2O[C@@H]1C(F)(F)F
REMARK SMILES IDX 6 1 5 2 4 3 3 4 1 5 2 6 65 8 66 9 77 10 67 11 76 12 68 13
REMARK SMILES IDX 75 14 69 15 73 16 70 17 71 18 74 19 72 20 78 21 79 22 80 23
REMARK SMILES IDX 81 24 7 25 8 26 9 27 10 29 11 30 12 31 64 32 13 33 63 34
REMARK SMILES IDX 14 35 15 36 16 37 57 38 17 39 62 40 56 41 58 42 18 43 61 44
REMARK SMILES IDX 55 45 54 46 19 48 45 49 28 50 44 51 29 52 32 53 43 54 59 55
REMARK SMILES IDX 30 56 31 57 42 59 60 60 33 61 20 62 21 63 26 64 22 65 23 66
REMARK SMILES IDX 25 67 27 68 24 69 46 70 47 71 52 72 48 73 49 74 51 75 53 76
REMARK SMILES IDX 50 77 34 78 35 79 40 80 36 81 37 82 39 83 41 84 38 85
REMARK H PARENT 3 7 8 28 58 47 32 58
REMARK Flexibility Score: inf
ROOT
ATOM      1  C   UNL     1       4.028  -2.139   3.854  1.00  0.00     0.023 C 
ENDROOT
BRANCH   1   2
ATOM      2  C   UNL     1       4.261  -0.831   3.100  1.00  0.00     0.023 C 
BRANCH   2   3
ATOM      3  C   UNL     1       3.706  -0.812   1.675  1.00  0.00     0.116 C 
BRANCH   3   4
ATOM      4  N   UNL     1       2.546   0.063   1.501  1.00  0.00    -0.352 N 
ATOM      5  O   UNL     1       1.095   1.380   0.358  1.00  0.00    -0.270 OA
ATOM      6  C   UNL     1       2.216   0.900   0.458  1.00  0.00     0.251 C 
ATOM      7  H   UNL     1       1.902   0.053   2.245  1.00  0.00     0.163 HD
BRANCH   6   8
ATOM      8  C   UNL     1       3.221   1.108  -0.604  1.00  0.00     0.067 C 
ATOM      9  C   UNL     1       4.406   1.644  -0.283  1.00  0.00     0.025 C 
ATOM     10  C   UNL     1       3.008   0.391  -1.899  1.00  0.00     0.314 C 
ATOM     11  C   UNL     1       5.535   0.841  -0.789  1.00  0.00     0.020 A 
ATOM     12  O   UNL     1       4.063  -0.569  -2.139  1.00  0.00    -0.474 OA
ATOM     13  C   UNL     1       6.754   0.972  -0.117  1.00  0.00     0.034 A 
ATOM     14  C   UNL     1       5.289  -0.315  -1.561  1.00  0.00     0.148 A 
ATOM     15  C   UNL     1       7.678  -0.077  -0.130  1.00  0.00     0.062 A 
ATOM     16  C   UNL     1       6.238  -1.353  -1.603  1.00  0.00     0.103 A 
ATOM     17  Cl  UNL     1       9.058   0.098   0.900  1.00  0.00    -0.083 Cl
ATOM     18  C   UNL     1       7.424  -1.250  -0.859  1.00  0.00     0.082 A 
ATOM     19  Cl  UNL     1       5.837  -2.816  -2.457  1.00  0.00    -0.079 Cl
ATOM     20  Cl  UNL     1       8.524  -2.590  -0.763  1.00  0.00    -0.081 Cl
BRANCH  10  21
ATOM     21  C   UNL     1       2.873   1.369  -3.081  1.00  0.00     0.429 C 
ATOM     22  F   UNL     1       2.552   0.714  -4.223  1.00  0.00    -0.167 F 
ATOM     23  F   UNL     1       1.906   2.289  -2.868  1.00  0.00    -0.167 F 
ATOM     24  F   UNL     1       4.024   2.043  -3.319  1.00  0.00    -0.167 F 
ENDBRANCH  10  21
ENDBRANCH   6   8
ENDBRANCH   3   4
ENDBRANCH   2   3
ENDBRANCH   1   2
BRANCH   1  25
ATOM     25  C   UNL     1       4.606  -3.401   3.215  1.00  0.00     0.116 C 
BRANCH  25  26
ATOM     26  N   UNL     1       6.051  -3.392   3.044  1.00  0.00    -0.352 N 
ATOM     27  C   UNL     1       6.939  -4.431   3.233  1.00  0.00     0.251 C 
ATOM     28  H   UNL     1       6.445  -2.537   2.757  1.00  0.00     0.163 HD
ATOM     29  O   UNL     1       8.145  -4.250   3.102  1.00  0.00    -0.269 OA
BRANCH  27  30
ATOM     30  C   UNL     1       6.430  -5.753   3.660  1.00  0.00     0.039 A 
ATOM     31  C   UNL     1       7.000  -6.364   4.780  1.00  0.00     0.014 A 
ATOM     32  C   UNL     1       5.349  -6.349   3.006  1.00  0.00     0.014 A 
ATOM     33  C   UNL     1       6.425  -7.525   5.301  1.00  0.00     0.010 A 
ATOM     34  C   UNL     1       4.729  -7.458   3.574  1.00  0.00     0.010 A 
ATOM     35  C   UNL     1       5.255  -8.054   4.731  1.00  0.00    -0.014 A 
BRANCH  35  36
ATOM     36  C   UNL     1       4.572  -9.232   5.325  1.00  0.00     0.031 A 
ATOM     37  C   UNL     1       4.461 -10.508   4.536  1.00  0.00     0.074 A 
ATOM     38  C   UNL     1       4.000  -9.138   6.542  1.00  0.00     0.049 A 
ATOM     39  N   UNL     1       3.834 -11.617   4.839  1.00  0.00    -0.248 NA
ATOM     40  C   UNL     1       5.115 -10.530   3.218  1.00  0.00     0.031 C 
ATOM     41  C   UNL     1       3.989  -7.940   7.385  1.00  0.00     0.029 A 
ATOM     42  N   UNL     1       3.305 -10.066   7.278  1.00  0.00    -0.354 N 
ATOM     43  C   UNL     1       4.008 -12.458   3.747  1.00  0.00     0.074 A 
ATOM     44  C   UNL     1       4.746 -11.713   2.751  1.00  0.00     0.031 C 
ATOM     45  C   UNL     1       3.341  -8.213   8.530  1.00  0.00     0.029 A 
ATOM     46  C   UNL     1       2.866  -9.592   8.492  1.00  0.00     0.049 A 
ATOM     47  H   UNL     1       3.138 -10.984   6.966  1.00  0.00     0.167 HD
ATOM     48  C   UNL     1       3.617 -13.745   3.598  1.00  0.00     0.037 A 
ATOM     49  C   UNL     1       2.160 -10.204   9.462  1.00  0.00     0.037 A 
ATOM     50  C   UNL     1       2.910 -14.497   4.600  1.00  0.00     0.049 A 
ATOM     51  C   UNL     1       1.763 -11.645   9.282  1.00  0.00     0.074 A 
ATOM     52  C   UNL     1       2.484 -15.813   4.553  1.00  0.00     0.029 A 
ATOM     53  N   UNL     1       2.539 -13.999   5.839  1.00  0.00    -0.354 N 
ATOM     54  N   UNL     1       1.974 -12.439   8.261  1.00  0.00    -0.248 NA
ATOM     55  C   UNL     1       1.043 -12.279  10.397  1.00  0.00     0.031 C 
ATOM     56  C   UNL     1       1.840 -16.107   5.759  1.00  0.00     0.029 A 
ATOM     57  C   UNL     1       1.897 -14.984   6.569  1.00  0.00     0.049 A 
ATOM     58  H   UNL     1       2.708 -13.081   6.154  1.00  0.00     0.167 HD
ATOM     59  C   UNL     1       1.449 -13.673   8.624  1.00  0.00     0.074 A 
ATOM     60  C   UNL     1       0.919 -13.525   9.964  1.00  0.00     0.031 C 
ATOM     61  C   UNL     1       1.408 -14.825   7.913  1.00  0.00     0.037 A 
BRANCH  48  62
ATOM     62  C   UNL     1       3.970 -14.427   2.309  1.00  0.00     0.057 A 
ATOM     63  C   UNL     1       5.292 -14.788   2.012  1.00  0.00     0.134 A 
ATOM     64  C   UNL     1       2.984 -14.753   1.371  1.00  0.00     0.134 A 
ATOM     65  F   UNL     1       6.285 -14.489   2.863  1.00  0.00    -0.206 F 
ATOM     66  C   UNL     1       5.622 -15.428   0.817  1.00  0.00     0.040 A 
ATOM     67  C   UNL     1       3.299 -15.417   0.184  1.00  0.00     0.040 A 
ATOM     68  F   UNL     1       1.699 -14.440   1.596  1.00  0.00    -0.206 F 
ATOM     69  C   UNL     1       4.622 -15.751  -0.098  1.00  0.00     0.006 A 
ENDBRANCH  48  62
BRANCH  49  70
ATOM     70  C   UNL     1       1.806  -9.478  10.709  1.00  0.00     0.057 A 
ATOM     71  C   UNL     1       2.398  -9.813  11.933  1.00  0.00     0.134 A 
ATOM     72  C   UNL     1       0.843  -8.463  10.716  1.00  0.00     0.134 A 
ATOM     73  F   UNL     1       3.314 -10.790  11.994  1.00  0.00    -0.206 F 
ATOM     74  C   UNL     1       2.023  -9.188  13.124  1.00  0.00     0.040 A 
ATOM     75  C   UNL     1       0.476  -7.812  11.896  1.00  0.00     0.040 A 
ATOM     76  F   UNL     1       0.244  -8.088   9.576  1.00  0.00    -0.206 F 
ATOM     77  C   UNL     1       1.059  -8.182  13.106  1.00  0.00     0.006 A 
ENDBRANCH  49  70
BRANCH  61  78
ATOM     78  C   UNL     1       0.828 -16.029   8.592  1.00  0.00     0.057 A 
ATOM     79  C   UNL     1      -0.548 -16.168   8.810  1.00  0.00     0.134 A 
ATOM     80  C   UNL     1       1.660 -17.080   9.000  1.00  0.00     0.134 A 
ATOM     81  F   UNL     1      -1.395 -15.191   8.453  1.00  0.00    -0.206 F 
ATOM     82  C   UNL     1      -1.075 -17.300   9.434  1.00  0.00     0.040 A 
ATOM     83  C   UNL     1       1.142 -18.227   9.602  1.00  0.00     0.040 A 
ATOM     84  F   UNL     1       2.986 -17.012   8.811  1.00  0.00    -0.206 F 
ATOM     85  C   UNL     1      -0.229 -18.336   9.826  1.00  0.00     0.006 A 
ENDBRANCH  61  78
ENDBRANCH  35  36
ENDBRANCH  27  30
ENDBRANCH  25  26
ENDBRANCH   1  25
TORSDOF 12
