REMARK SMILES C[C@H](Nc1nc(CC(=O)NCCCCNC(=O)c2ccc(-c3c4nc(c(-c5c(F)cccc5F)c5ccc([nH]5)c(-c5c(F)cccc5F)c5nc(c(-c6c(F)cccc6F)c6ccc3[nH]6)C=C5)C=C4)cc2)cs1)c1ccccc1
REMARK SMILES IDX 11 1 10 2 8 3 9 4 7 6 6 7 4 8 5 9 73 10 72 11 3 12 2 14 1 15
REMARK SMILES IDX 74 16 75 17 79 18 76 19 78 20 77 21 12 22 13 23 14 24 15 25
REMARK SMILES IDX 16 26 17 28 18 29 19 30 71 31 20 32 70 33 21 34 22 35 23 36
REMARK SMILES IDX 64 37 24 38 69 39 63 40 65 41 25 42 68 43 62 44 61 45 26 47
REMARK SMILES IDX 52 48 35 49 51 50 36 51 39 52 50 53 66 54 37 55 38 56 49 58
REMARK SMILES IDX 67 59 40 60 27 61 28 62 33 63 29 64 30 65 32 66 34 67 31 68
REMARK SMILES IDX 53 69 54 70 59 71 55 72 56 73 58 74 60 75 57 76 41 77 42 78
REMARK SMILES IDX 47 79 43 80 44 81 46 82 48 83 45 84
REMARK H PARENT 10 5 3 13 15 27 65 46 39 57
REMARK Flexibility Score: inf
ROOT
ATOM      1  C   UNL     1       4.197   0.252  -3.730  1.00  0.00     0.116 C 
ENDROOT
BRANCH   1   2
ATOM      2  N   UNL     1       5.561  -0.229  -3.589  1.00  0.00    -0.356 N 
ATOM      3  C   UNL     1       6.034  -1.225  -2.781  1.00  0.00     0.226 C 
ATOM      4  O   UNL     1       7.250  -1.428  -2.756  1.00  0.00    -0.275 OA
ATOM      5  H   UNL     1       6.233   0.221  -4.150  1.00  0.00     0.163 HD
BRANCH   3   6
ATOM      6  C   UNL     1       5.077  -2.085  -1.980  1.00  0.00     0.157 C 
BRANCH   6   7
ATOM      7  C   UNL     1       4.353  -1.315  -0.930  1.00  0.00     0.063 A 
ATOM      8  C   UNL     1       2.463  -0.550  -0.038  1.00  0.00     0.183 A 
ATOM      9  N   UNL     1       2.971  -1.302  -0.986  1.00  0.00    -0.225 NA
ATOM     10  S   UNL     1       3.630   0.230   0.957  1.00  0.00    -0.105 S 
ATOM     11  C   UNL     1       4.887  -0.583   0.114  1.00  0.00     0.093 A 
BRANCH   8  12
ATOM     12  N   UNL     1       1.140  -0.478   0.235  1.00  0.00    -0.355 N 
ATOM     13  H   UNL     1       0.718   0.358   0.538  1.00  0.00     0.163 HD
BRANCH  12  14
ATOM     14  C   UNL     1       0.373  -1.710   0.056  1.00  0.00     0.108 C 
ATOM     15  C   UNL     1       0.773  -2.663   1.201  1.00  0.00     0.036 C 
BRANCH  14  16
ATOM     16  C   UNL     1      -1.139  -1.503   0.040  1.00  0.00    -0.026 A 
ATOM     17  C   UNL     1      -1.760  -0.247   0.075  1.00  0.00     0.006 A 
ATOM     18  C   UNL     1      -1.968  -2.641  -0.046  1.00  0.00     0.006 A 
ATOM     19  C   UNL     1      -3.157  -0.141   0.095  1.00  0.00     0.000 A 
ATOM     20  C   UNL     1      -3.359  -2.537  -0.019  1.00  0.00     0.000 A 
ATOM     21  C   UNL     1      -3.954  -1.285   0.063  1.00  0.00     0.000 A 
ENDBRANCH  14  16
ENDBRANCH  12  14
ENDBRANCH   8  12
ENDBRANCH   6   7
ENDBRANCH   3   6
ENDBRANCH   1   2
BRANCH   1  22
ATOM     22  C   UNL     1       3.955   1.519  -2.907  1.00  0.00     0.023 C 
BRANCH  22  23
ATOM     23  C   UNL     1       4.754   2.743  -3.356  1.00  0.00     0.023 C 
BRANCH  23  24
ATOM     24  C   UNL     1       4.524   3.163  -4.800  1.00  0.00     0.116 C 
BRANCH  24  25
ATOM     25  N   UNL     1       3.140   3.508  -5.077  1.00  0.00    -0.352 N 
ATOM     26  C   UNL     1       2.645   4.539  -5.837  1.00  0.00     0.251 C 
ATOM     27  H   UNL     1       2.465   2.923  -4.665  1.00  0.00     0.163 HD
ATOM     28  O   UNL     1       1.438   4.767  -5.858  1.00  0.00    -0.269 OA
BRANCH  26  29
ATOM     29  C   UNL     1       3.572   5.401  -6.601  1.00  0.00     0.039 A 
ATOM     30  C   UNL     1       3.382   6.784  -6.570  1.00  0.00     0.014 A 
ATOM     31  C   UNL     1       4.630   4.855  -7.334  1.00  0.00     0.014 A 
ATOM     32  C   UNL     1       4.287   7.622  -7.225  1.00  0.00     0.010 A 
ATOM     33  C   UNL     1       5.577   5.694  -7.915  1.00  0.00     0.010 A 
ATOM     34  C   UNL     1       5.413   7.086  -7.873  1.00  0.00    -0.014 A 
BRANCH  34  35
ATOM     35  C   UNL     1       6.421   7.972  -8.511  1.00  0.00     0.031 A 
ATOM     36  C   UNL     1       6.663   7.904  -9.995  1.00  0.00     0.074 A 
ATOM     37  C   UNL     1       7.154   8.805  -7.745  1.00  0.00     0.049 A 
ATOM     38  N   UNL     1       7.520   8.575 -10.723  1.00  0.00    -0.248 NA
ATOM     39  C   UNL     1       5.856   6.939 -10.759  1.00  0.00     0.031 C 
ATOM     40  C   UNL     1       7.058   8.922  -6.288  1.00  0.00     0.029 A 
ATOM     41  N   UNL     1       8.131   9.707  -8.085  1.00  0.00    -0.354 N 
ATOM     42  C   UNL     1       7.364   8.105 -12.021  1.00  0.00     0.074 A 
ATOM     43  C   UNL     1       6.370   7.055 -11.975  1.00  0.00     0.031 C 
ATOM     44  C   UNL     1       7.919   9.861  -5.864  1.00  0.00     0.029 A 
ATOM     45  C   UNL     1       8.655  10.385  -7.010  1.00  0.00     0.049 A 
ATOM     46  H   UNL     1       8.428   9.855  -9.012  1.00  0.00     0.167 HD
ATOM     47  C   UNL     1       7.975   8.526 -13.154  1.00  0.00     0.037 A 
ATOM     48  C   UNL     1       9.623  11.319  -6.954  1.00  0.00     0.037 A 
ATOM     49  C   UNL     1       8.943   9.591 -13.203  1.00  0.00     0.049 A 
ATOM     50  C   UNL     1      10.277  11.775  -8.230  1.00  0.00     0.074 A 
ATOM     51  C   UNL     1       9.570  10.133 -14.311  1.00  0.00     0.029 A 
ATOM     52  N   UNL     1       9.427  10.272 -12.096  1.00  0.00    -0.354 N 
ATOM     53  N   UNL     1      10.059  11.378  -9.460  1.00  0.00    -0.248 NA
ATOM     54  C   UNL     1      11.303  12.820  -8.111  1.00  0.00     0.031 C 
ATOM     55  C   UNL     1      10.470  11.108 -13.871  1.00  0.00     0.029 A 
ATOM     56  C   UNL     1      10.360  11.215 -12.495  1.00  0.00     0.049 A 
ATOM     57  H   UNL     1       9.148  10.109 -11.166  1.00  0.00     0.167 HD
ATOM     58  C   UNL     1      10.892  12.148 -10.262  1.00  0.00     0.074 A 
ATOM     59  C   UNL     1      11.606  13.047  -9.380  1.00  0.00     0.031 C 
ATOM     60  C   UNL     1      11.052  12.114 -11.607  1.00  0.00     0.037 A 
BRANCH  47  61
ATOM     61  C   UNL     1       7.612   7.843 -14.441  1.00  0.00     0.057 A 
ATOM     62  C   UNL     1       6.360   8.019 -15.044  1.00  0.00     0.134 A 
ATOM     63  C   UNL     1       8.549   7.052 -15.118  1.00  0.00     0.134 A 
ATOM     64  F   UNL     1       5.412   8.755 -14.444  1.00  0.00    -0.206 F 
ATOM     65  C   UNL     1       6.046   7.419 -16.265  1.00  0.00     0.040 A 
ATOM     66  C   UNL     1       8.257   6.470 -16.353  1.00  0.00     0.040 A 
ATOM     67  F   UNL     1       9.769   6.847 -14.600  1.00  0.00    -0.206 F 
ATOM     68  C   UNL     1       7.001   6.651 -16.928  1.00  0.00     0.006 A 
ENDBRANCH  47  61
BRANCH  48  69
ATOM     69  C   UNL     1      10.028  11.904  -5.649  1.00  0.00     0.057 A 
ATOM     70  C   UNL     1       9.776  13.247  -5.345  1.00  0.00     0.134 A 
ATOM     71  C   UNL     1      10.709  11.145  -4.689  1.00  0.00     0.134 A 
ATOM     72  F   UNL     1       9.144  14.032  -6.230  1.00  0.00    -0.206 F 
ATOM     73  C   UNL     1      10.217  13.824  -4.153  1.00  0.00     0.040 A 
ATOM     74  C   UNL     1      11.128  11.700  -3.479  1.00  0.00     0.040 A 
ATOM     75  F   UNL     1      10.973   9.849  -4.913  1.00  0.00    -0.206 F 
ATOM     76  C   UNL     1      10.893  13.048  -3.214  1.00  0.00     0.006 A 
ENDBRANCH  48  69
BRANCH  60  77
ATOM     77  C   UNL     1      11.996  13.113 -12.212  1.00  0.00     0.057 A 
ATOM     78  C   UNL     1      13.383  13.033 -12.032  1.00  0.00     0.134 A 
ATOM     79  C   UNL     1      11.508  14.159 -13.006  1.00  0.00     0.134 A 
ATOM     80  F   UNL     1      13.916  12.062 -11.274  1.00  0.00    -0.206 F 
ATOM     81  C   UNL     1      14.247  13.977 -12.589  1.00  0.00     0.040 A 
ATOM     82  C   UNL     1      12.364  15.090 -13.596  1.00  0.00     0.040 A 
ATOM     83  F   UNL     1      10.192  14.289 -13.230  1.00  0.00    -0.206 F 
ATOM     84  C   UNL     1      13.738  15.006 -13.379  1.00  0.00     0.006 A 
ENDBRANCH  60  77
ENDBRANCH  34  35
ENDBRANCH  26  29
ENDBRANCH  24  25
ENDBRANCH  23  24
ENDBRANCH  22  23
ENDBRANCH   1  22
TORSDOF 15
