REMARK SMILES COCc1c(C(=O)NCCCCNC(=O)c2ccc(-c3c4nc(c(-c5c(F)cccc5F)c5ccc([nH]5)c(-c5c(F)cccc5F)c5nc(c(-c6c(F)cccc6F)c6ccc3[nH]6)C=C5)C=C4)cc2)nnn1-c1ccc(S(C)(=O)=O)cc1
REMARK SMILES IDX 10 1 9 2 8 3 6 4 7 5 5 7 4 8 72 9 70 10 71 11 3 12 2 13 1 14
REMARK SMILES IDX 73 15 74 16 82 17 75 18 81 19 76 20 77 21 78 22 79 23 80 24
REMARK SMILES IDX 11 25 12 26 13 27 14 28 15 30 16 31 17 32 69 33 18 34 68 35
REMARK SMILES IDX 19 36 20 37 21 38 62 39 22 40 67 41 61 42 63 43 23 44 66 45
REMARK SMILES IDX 60 46 59 47 24 49 50 50 33 51 49 52 34 53 37 54 48 55 64 56
REMARK SMILES IDX 35 57 36 58 47 60 65 61 38 62 25 63 26 64 31 65 27 66 28 67
REMARK SMILES IDX 30 68 32 69 29 70 51 71 52 72 57 73 53 74 54 75 56 76 58 77
REMARK SMILES IDX 55 78 39 79 40 80 45 81 41 82 42 83 44 84 46 85 43 86
REMARK H PARENT 8 6 13 29 63 48 37 59
REMARK Flexibility Score: inf
ROOT
ATOM      1  C   UNL     1       4.753   0.634   0.841  1.00  0.00     0.023 C 
ENDROOT
BRANCH   1   2
ATOM      2  C   UNL     1       3.305   0.222   1.084  1.00  0.00     0.116 C 
BRANCH   2   3
ATOM      3  N   UNL     1       2.984  -1.173   0.905  1.00  0.00    -0.351 N 
ATOM      4  C   UNL     1       1.967  -1.916   1.471  1.00  0.00     0.273 C 
ATOM      5  O   UNL     1       1.857  -3.081   1.085  1.00  0.00    -0.267 OA
ATOM      6  H   UNL     1       3.575  -1.666   0.291  1.00  0.00     0.163 HD
BRANCH   4   7
ATOM      7  C   UNL     1       1.099  -1.378   2.523  1.00  0.00     0.176 A 
ATOM      8  C   UNL     1       0.349  -0.205   2.639  1.00  0.00     0.103 A 
ATOM      9  N   UNL     1      -0.254  -0.317   3.891  1.00  0.00    -0.214 N 
ATOM     10  N   UNL     1       0.893  -2.141   3.647  1.00  0.00    -0.124 NA
ATOM     11  N   UNL     1       0.149  -1.457   4.494  1.00  0.00    -0.061 NA
BRANCH   8  12
ATOM     12  C   UNL     1       0.207   0.997   1.787  1.00  0.00     0.218 C 
BRANCH  12  13
ATOM     13  O   UNL     1      -0.810   0.791   0.816  1.00  0.00    -0.378 OA
ATOM     14  C   UNL     1      -0.461  -0.130  -0.210  1.00  0.00     0.195 C 
ENDBRANCH  12  13
ENDBRANCH   8  12
BRANCH   9  15
ATOM     15  C   UNL     1      -1.063   0.606   4.607  1.00  0.00     0.067 A 
ATOM     16  C   UNL     1      -0.890   0.705   5.998  1.00  0.00     0.030 A 
ATOM     17  C   UNL     1      -1.974   1.451   3.959  1.00  0.00     0.030 A 
ATOM     18  C   UNL     1      -1.546   1.707   6.715  1.00  0.00     0.022 A 
ATOM     19  C   UNL     1      -2.644   2.443   4.678  1.00  0.00     0.022 A 
ATOM     20  C   UNL     1      -2.414   2.575   6.048  1.00  0.00     0.067 A 
BRANCH  20  21
ATOM     21  S   UNL     1      -3.191   3.889   6.957  1.00  0.00     0.175 S 
ATOM     22  C   UNL     1      -4.222   3.046   8.127  1.00  0.00     0.163 C 
ATOM     23  O   UNL     1      -2.138   4.575   7.680  1.00  0.00    -0.224 OA
ATOM     24  O   UNL     1      -4.059   4.604   6.041  1.00  0.00    -0.224 OA
ENDBRANCH  20  21
ENDBRANCH   9  15
ENDBRANCH   4   7
ENDBRANCH   2   3
ENDBRANCH   1   2
BRANCH   1  25
ATOM     25  C   UNL     1       5.324   0.383  -0.558  1.00  0.00     0.023 C 
BRANCH  25  26
ATOM     26  C   UNL     1       4.455   0.820  -1.730  1.00  0.00     0.116 C 
BRANCH  26  27
ATOM     27  N   UNL     1       4.301   2.261  -1.881  1.00  0.00    -0.352 N 
ATOM     28  C   UNL     1       3.875   2.938  -3.018  1.00  0.00     0.251 C 
ATOM     29  H   UNL     1       4.521   2.813  -1.096  1.00  0.00     0.163 HD
ATOM     30  O   UNL     1       4.022   4.139  -3.131  1.00  0.00    -0.269 OA
BRANCH  28  31
ATOM     31  C   UNL     1       3.252   2.150  -4.108  1.00  0.00     0.039 A 
ATOM     32  C   UNL     1       3.641   2.338  -5.435  1.00  0.00     0.014 A 
ATOM     33  C   UNL     1       2.324   1.164  -3.775  1.00  0.00     0.014 A 
ATOM     34  C   UNL     1       3.172   1.450  -6.405  1.00  0.00     0.010 A 
ATOM     35  C   UNL     1       1.960   0.217  -4.710  1.00  0.00     0.010 A 
ATOM     36  C   UNL     1       2.365   0.358  -6.033  1.00  0.00    -0.014 A 
BRANCH  36  37
ATOM     37  C   UNL     1       2.074  -0.703  -7.005  1.00  0.00     0.031 A 
ATOM     38  C   UNL     1       3.264  -1.200  -7.753  1.00  0.00     0.074 A 
ATOM     39  C   UNL     1       0.883  -1.329  -7.145  1.00  0.00     0.049 A 
ATOM     40  N   UNL     1       3.529  -1.011  -9.002  1.00  0.00    -0.248 NA
ATOM     41  C   UNL     1       4.343  -1.877  -7.016  1.00  0.00     0.031 C 
ATOM     42  C   UNL     1      -0.324  -1.176  -6.324  1.00  0.00     0.029 A 
ATOM     43  N   UNL     1       0.520  -2.307  -8.030  1.00  0.00    -0.354 N 
ATOM     44  C   UNL     1       4.705  -1.710  -9.265  1.00  0.00     0.074 A 
ATOM     45  C   UNL     1       5.238  -2.096  -7.985  1.00  0.00     0.031 C 
ATOM     46  C   UNL     1      -1.199  -2.168  -6.604  1.00  0.00     0.029 A 
ATOM     47  C   UNL     1      -0.705  -2.905  -7.753  1.00  0.00     0.049 A 
ATOM     48  H   UNL     1       1.078  -2.566  -8.799  1.00  0.00     0.167 HD
ATOM     49  C   UNL     1       5.001  -2.113 -10.533  1.00  0.00     0.037 A 
ATOM     50  C   UNL     1      -1.311  -3.903  -8.438  1.00  0.00     0.037 A 
ATOM     51  C   UNL     1       4.118  -1.491 -11.485  1.00  0.00     0.049 A 
ATOM     52  C   UNL     1      -0.784  -3.878  -9.816  1.00  0.00     0.074 A 
ATOM     53  C   UNL     1       3.990  -0.262 -12.092  1.00  0.00     0.029 A 
ATOM     54  N   UNL     1       2.931  -2.153 -11.643  1.00  0.00    -0.354 N 
ATOM     55  N   UNL     1      -1.037  -2.920 -10.661  1.00  0.00    -0.248 NA
ATOM     56  C   UNL     1       0.297  -4.779 -10.194  1.00  0.00     0.031 C 
ATOM     57  C   UNL     1       2.612  -0.138 -12.444  1.00  0.00     0.029 A 
ATOM     58  C   UNL     1       1.949  -1.305 -12.073  1.00  0.00     0.049 A 
ATOM     59  H   UNL     1       2.802  -3.114 -11.469  1.00  0.00     0.167 HD
ATOM     60  C   UNL     1       0.110  -2.832 -11.420  1.00  0.00     0.074 A 
ATOM     61  C   UNL     1       0.797  -4.102 -11.230  1.00  0.00     0.031 C 
ATOM     62  C   UNL     1       0.556  -1.623 -11.862  1.00  0.00     0.037 A 
BRANCH  49  63
ATOM     63  C   UNL     1       5.728  -3.387 -10.906  1.00  0.00     0.057 A 
ATOM     64  C   UNL     1       6.060  -3.614 -12.257  1.00  0.00     0.134 A 
ATOM     65  C   UNL     1       5.806  -4.520 -10.074  1.00  0.00     0.134 A 
ATOM     66  F   UNL     1       6.014  -2.618 -13.155  1.00  0.00    -0.206 F 
ATOM     67  C   UNL     1       6.372  -4.887 -12.753  1.00  0.00     0.040 A 
ATOM     68  C   UNL     1       6.162  -5.787 -10.551  1.00  0.00     0.040 A 
ATOM     69  F   UNL     1       5.441  -4.487  -8.787  1.00  0.00    -0.206 F 
ATOM     70  C   UNL     1       6.415  -5.982 -11.900  1.00  0.00     0.006 A 
ENDBRANCH  49  63
BRANCH  50  71
ATOM     71  C   UNL     1      -2.249  -4.951  -7.993  1.00  0.00     0.057 A 
ATOM     72  C   UNL     1      -3.101  -5.602  -8.898  1.00  0.00     0.134 A 
ATOM     73  C   UNL     1      -2.101  -5.552  -6.734  1.00  0.00     0.134 A 
ATOM     74  F   UNL     1      -3.287  -5.113 -10.132  1.00  0.00    -0.206 F 
ATOM     75  C   UNL     1      -3.729  -6.813  -8.587  1.00  0.00     0.040 A 
ATOM     76  C   UNL     1      -2.724  -6.762  -6.410  1.00  0.00     0.040 A 
ATOM     77  F   UNL     1      -1.270  -5.030  -5.819  1.00  0.00    -0.206 F 
ATOM     78  C   UNL     1      -3.525  -7.408  -7.346  1.00  0.00     0.006 A 
ENDBRANCH  50  71
BRANCH  62  79
ATOM     79  C   UNL     1      -0.451  -0.520 -11.955  1.00  0.00     0.057 A 
ATOM     80  C   UNL     1      -1.064   0.094 -10.855  1.00  0.00     0.134 A 
ATOM     81  C   UNL     1      -0.773  -0.027 -13.223  1.00  0.00     0.134 A 
ATOM     82  F   UNL     1      -0.763  -0.266  -9.601  1.00  0.00    -0.206 F 
ATOM     83  C   UNL     1      -1.991   1.129 -11.017  1.00  0.00     0.040 A 
ATOM     84  C   UNL     1      -1.672   1.025 -13.397  1.00  0.00     0.040 A 
ATOM     85  F   UNL     1      -0.193  -0.547 -14.317  1.00  0.00    -0.206 F 
ATOM     86  C   UNL     1      -2.294   1.599 -12.292  1.00  0.00     0.006 A 
ENDBRANCH  62  79
ENDBRANCH  36  37
ENDBRANCH  28  31
ENDBRANCH  26  27
ENDBRANCH  25  26
ENDBRANCH   1  25
TORSDOF 15
