REMARK SMILES O=C(NCCCCNC(=O)c1ccccc1NC(=O)c1ccc(N2C(=O)[C@H]3CC=CC[C@H]3C2=O)cc1)c1ccc(-c2c3nc(c(-c4c(F)cccc4F)c4ccc([nH]4)c(-c4c(F)cccc4F)c4nc(c(-c5c(F)cccc5F)c5ccc2[nH]5)C=C4)C=C3)cc1
REMARK SMILES IDX 6 1 5 2 4 3 3 4 1 5 2 6 37 8 38 9 90 10 39 11 89 12 40 13
REMARK SMILES IDX 41 14 42 15 83 16 43 17 88 18 82 19 84 20 44 21 87 22 81 23
REMARK SMILES IDX 80 24 45 26 71 27 54 28 70 29 55 30 58 31 69 32 85 33 56 34
REMARK SMILES IDX 57 35 68 37 86 38 59 39 46 40 47 41 52 42 48 43 49 44 51 45
REMARK SMILES IDX 53 46 50 47 72 48 73 49 78 50 74 51 75 52 77 53 79 54 76 55
REMARK SMILES IDX 60 56 61 57 66 58 62 59 63 60 65 61 67 62 64 63 7 64 8 65
REMARK SMILES IDX 9 66 10 68 11 69 12 70 16 71 13 72 15 73 14 74 17 75 18 76
REMARK SMILES IDX 19 78 20 79 21 80 36 81 22 82 35 83 23 84 24 85 25 86 33 87
REMARK SMILES IDX 26 88 27 89 32 90 34 91 28 92 31 93 29 94 30 95
REMARK H PARENT 3 7 84 25 58 36 8 67 17 77
REMARK Flexibility Score: inf
ROOT
ATOM      1  C   UNL     1       4.455   3.976  -0.307  1.00  0.00     0.023 C 
ENDROOT
BRANCH   1   2
ATOM      2  C   UNL     1       4.944   2.616  -0.807  1.00  0.00     0.023 C 
BRANCH   2   3
ATOM      3  C   UNL     1       4.620   1.431   0.093  1.00  0.00     0.116 C 
BRANCH   3   4
ATOM      4  N   UNL     1       3.193   1.179   0.203  1.00  0.00    -0.352 N 
ATOM      5  O   UNL     1       1.252   0.074  -0.120  1.00  0.00    -0.269 OA
ATOM      6  C   UNL     1       2.480   0.054  -0.132  1.00  0.00     0.251 C 
ATOM      7  H   UNL     1       2.661   1.922   0.570  1.00  0.00     0.163 HD
BRANCH   6   8
ATOM      8  C   UNL     1       3.192  -1.180  -0.533  1.00  0.00     0.039 A 
ATOM      9  C   UNL     1       4.293  -1.636   0.194  1.00  0.00     0.014 A 
ATOM     10  C   UNL     1       2.739  -1.898  -1.644  1.00  0.00     0.014 A 
ATOM     11  C   UNL     1       5.023  -2.725  -0.268  1.00  0.00     0.010 A 
ATOM     12  C   UNL     1       3.424  -3.046  -2.057  1.00  0.00     0.010 A 
ATOM     13  C   UNL     1       4.585  -3.455  -1.385  1.00  0.00    -0.014 A 
BRANCH  13  14
ATOM     14  C   UNL     1       5.307  -4.694  -1.768  1.00  0.00     0.031 A 
ATOM     15  C   UNL     1       6.034  -4.808  -3.079  1.00  0.00     0.074 A 
ATOM     16  C   UNL     1       5.314  -5.723  -0.898  1.00  0.00     0.049 A 
ATOM     17  N   UNL     1       6.718  -5.819  -3.553  1.00  0.00    -0.248 NA
ATOM     18  C   UNL     1       5.983  -3.646  -3.979  1.00  0.00     0.031 C 
ATOM     19  C   UNL     1       4.626  -5.735   0.396  1.00  0.00     0.029 A 
ATOM     20  N   UNL     1       5.926  -6.949  -0.958  1.00  0.00    -0.354 N 
ATOM     21  C   UNL     1       7.164  -5.425  -4.808  1.00  0.00     0.074 A 
ATOM     22  C   UNL     1       6.659  -4.088  -5.033  1.00  0.00     0.031 C 
ATOM     23  C   UNL     1       4.886  -6.890   1.024  1.00  0.00     0.029 A 
ATOM     24  C   UNL     1       5.705  -7.725   0.154  1.00  0.00     0.049 A 
ATOM     25  H   UNL     1       6.471  -7.244  -1.723  1.00  0.00     0.167 HD
ATOM     26  C   UNL     1       7.929  -6.118  -5.686  1.00  0.00     0.037 A 
ATOM     27  C   UNL     1       6.098  -8.980   0.436  1.00  0.00     0.037 A 
ATOM     28  C   UNL     1       8.448  -7.441  -5.445  1.00  0.00     0.049 A 
ATOM     29  C   UNL     1       6.930  -9.725  -0.565  1.00  0.00     0.074 A 
ATOM     30  C   UNL     1       9.280  -8.199  -6.253  1.00  0.00     0.029 A 
ATOM     31  N   UNL     1       8.183  -8.204  -4.318  1.00  0.00    -0.354 N 
ATOM     32  N   UNL     1       7.383  -9.319  -1.726  1.00  0.00    -0.248 NA
ATOM     33  C   UNL     1       7.301 -11.103  -0.221  1.00  0.00     0.031 C 
ATOM     34  C   UNL     1       9.480  -9.438  -5.635  1.00  0.00     0.029 A 
ATOM     35  C   UNL     1       8.810  -9.435  -4.423  1.00  0.00     0.049 A 
ATOM     36  H   UNL     1       7.631  -7.914  -3.557  1.00  0.00     0.167 HD
ATOM     37  C   UNL     1       8.101 -10.386  -2.246  1.00  0.00     0.074 A 
ATOM     38  C   UNL     1       8.046 -11.447  -1.262  1.00  0.00     0.031 C 
ATOM     39  C   UNL     1       8.742 -10.481  -3.436  1.00  0.00     0.037 A 
BRANCH  26  40
ATOM     40  C   UNL     1       8.253  -5.474  -7.002  1.00  0.00     0.057 A 
ATOM     41  C   UNL     1       9.198  -4.447  -7.110  1.00  0.00     0.134 A 
ATOM     42  C   UNL     1       7.678  -5.951  -8.187  1.00  0.00     0.134 A 
ATOM     43  F   UNL     1       9.780  -3.940  -6.012  1.00  0.00    -0.206 F 
ATOM     44  C   UNL     1       9.557  -3.913  -8.350  1.00  0.00     0.040 A 
ATOM     45  C   UNL     1       8.043  -5.440  -9.434  1.00  0.00     0.040 A 
ATOM     46  F   UNL     1       6.772  -6.940  -8.155  1.00  0.00    -0.206 F 
ATOM     47  C   UNL     1       8.986  -4.417  -9.517  1.00  0.00     0.006 A 
ENDBRANCH  26  40
BRANCH  27  48
ATOM     48  C   UNL     1       5.686  -9.617   1.711  1.00  0.00     0.057 A 
ATOM     49  C   UNL     1       6.619  -9.906   2.713  1.00  0.00     0.134 A 
ATOM     50  C   UNL     1       4.350  -9.955   1.955  1.00  0.00     0.134 A 
ATOM     51  F   UNL     1       7.917  -9.622   2.530  1.00  0.00    -0.206 F 
ATOM     52  C   UNL     1       6.241 -10.527   3.904  1.00  0.00     0.040 A 
ATOM     53  C   UNL     1       3.953 -10.550   3.152  1.00  0.00     0.040 A 
ATOM     54  F   UNL     1       3.407  -9.697   1.037  1.00  0.00    -0.206 F 
ATOM     55  C   UNL     1       4.902 -10.846   4.128  1.00  0.00     0.006 A 
ENDBRANCH  27  48
BRANCH  39  56
ATOM     56  C   UNL     1       9.445 -11.773  -3.724  1.00  0.00     0.057 A 
ATOM     57  C   UNL     1       8.738 -12.940  -4.038  1.00  0.00     0.134 A 
ATOM     58  C   UNL     1      10.843 -11.847  -3.701  1.00  0.00     0.134 A 
ATOM     59  F   UNL     1       7.396 -12.937  -4.059  1.00  0.00    -0.206 F 
ATOM     60  C   UNL     1       9.396 -14.143  -4.296  1.00  0.00     0.040 A 
ATOM     61  C   UNL     1      11.514 -13.038  -3.982  1.00  0.00     0.040 A 
ATOM     62  F   UNL     1      11.579 -10.763  -3.413  1.00  0.00    -0.206 F 
ATOM     63  C   UNL     1      10.789 -14.192  -4.274  1.00  0.00     0.006 A 
ENDBRANCH  39  56
ENDBRANCH  13  14
ENDBRANCH   6   8
ENDBRANCH   3   4
ENDBRANCH   2   3
ENDBRANCH   1   2
BRANCH   1  64
ATOM     64  C   UNL     1       4.823   4.314   1.135  1.00  0.00     0.116 C 
BRANCH  64  65
ATOM     65  N   UNL     1       6.252   4.208   1.385  1.00  0.00    -0.352 N 
ATOM     66  C   UNL     1       7.109   5.109   1.960  1.00  0.00     0.253 C 
ATOM     67  H   UNL     1       6.665   3.362   1.099  1.00  0.00     0.163 HD
ATOM     68  O   UNL     1       8.316   4.883   1.956  1.00  0.00    -0.269 OA
BRANCH  66  69
ATOM     69  C   UNL     1       6.605   6.349   2.584  1.00  0.00     0.063 A 
ATOM     70  C   UNL     1       7.164   7.543   2.101  1.00  0.00     0.016 A 
ATOM     71  C   UNL     1       5.673   6.357   3.644  1.00  0.00     0.054 A 
ATOM     72  C   UNL     1       6.798   8.762   2.662  1.00  0.00     0.001 A 
ATOM     73  C   UNL     1       5.372   7.590   4.231  1.00  0.00     0.027 A 
ATOM     74  C   UNL     1       5.913   8.783   3.733  1.00  0.00     0.002 A 
BRANCH  71  75
ATOM     75  N   UNL     1       5.117   5.132   4.085  1.00  0.00    -0.321 N 
ATOM     76  C   UNL     1       4.007   4.803   4.827  1.00  0.00     0.255 C 
ATOM     77  H   UNL     1       5.636   4.347   3.798  1.00  0.00     0.170 HD
ATOM     78  O   UNL     1       3.793   3.626   5.114  1.00  0.00    -0.269 OA
BRANCH  76  79
ATOM     79  C   UNL     1       3.028   5.812   5.261  1.00  0.00     0.040 A 
ATOM     80  C   UNL     1       2.803   5.956   6.628  1.00  0.00     0.016 A 
ATOM     81  C   UNL     1       2.352   6.622   4.349  1.00  0.00     0.016 A 
ATOM     82  C   UNL     1       1.996   6.999   7.090  1.00  0.00     0.027 A 
ATOM     83  C   UNL     1       1.536   7.657   4.820  1.00  0.00     0.027 A 
ATOM     84  C   UNL     1       1.383   7.895   6.199  1.00  0.00     0.052 A 
BRANCH  84  85
ATOM     85  N   UNL     1       0.699   9.053   6.669  1.00  0.00    -0.250 N 
ATOM     86  C   UNL     1       0.961   9.668   7.872  1.00  0.00     0.238 C 
ATOM     87  C   UNL     1      -0.261   9.726   5.955  1.00  0.00     0.238 C 
ATOM     88  O   UNL     1       1.735   9.316   8.755  1.00  0.00    -0.274 OA
ATOM     89  C   UNL     1       0.151  10.939   7.977  1.00  0.00     0.096 C 
ATOM     90  C   UNL     1      -0.596  11.023   6.648  1.00  0.00     0.096 C 
ATOM     91  O   UNL     1      -0.825   9.375   4.924  1.00  0.00    -0.274 OA
ATOM     92  C   UNL     1       1.074  12.119   8.296  1.00  0.00     0.041 C 
ATOM     93  C   UNL     1      -0.225  12.189   5.723  1.00  0.00     0.041 C 
ATOM     94  C   UNL     1       1.790  12.633   7.083  1.00  0.00    -0.030 C 
ATOM     95  C   UNL     1       1.188  12.658   5.888  1.00  0.00    -0.030 C 
ENDBRANCH  84  85
ENDBRANCH  76  79
ENDBRANCH  71  75
ENDBRANCH  66  69
ENDBRANCH  64  65
ENDBRANCH   1  64
TORSDOF 14
