REMARK SMILES COc1cccc(CC2(CO)CCN(c3nc(C)ccc3C(=O)NCCCCNC(=O)c3ccc(-c4c5nc(c(-c6c(F)cccc6F)c6ccc([nH]6)c(-c6c(F)cccc6F)c6nc(c(-c7c(F)cccc7F)c7ccc4[nH]7)C=C6)C=C5)cc3)CC2)c1
REMARK SMILES IDX 25 1 24 2 22 3 23 4 21 6 15 7 16 8 17 9 20 10 18 11 19 12
REMARK SMILES IDX 14 13 9 14 12 15 87 16 13 17 86 18 8 19 7 20 3 21 4 22 88 23
REMARK SMILES IDX 5 24 6 25 2 26 1 27 10 28 11 29 26 31 27 32 28 33 29 34
REMARK SMILES IDX 30 35 31 37 32 38 33 39 85 40 34 41 84 42 35 43 36 44 37 45
REMARK SMILES IDX 78 46 38 47 83 48 77 49 79 50 39 51 82 52 76 53 75 54 40 56
REMARK SMILES IDX 66 57 49 58 65 59 50 60 53 61 64 62 80 63 51 64 52 65 63 67
REMARK SMILES IDX 81 68 54 69 41 70 42 71 47 72 43 73 44 74 46 75 48 76 45 77
REMARK SMILES IDX 67 78 68 79 73 80 69 81 70 82 72 83 74 84 71 85 55 86 56 87
REMARK SMILES IDX 61 88 57 89 58 90 60 91 62 92 59 93
REMARK H PARENT 24 5 11 30 29 36 79 55 53 66
REMARK Flexibility Score: inf
ROOT
ATOM      1  C   UNL     1      -1.862  -1.094   7.048  1.00  0.00     0.116 C 
ENDROOT
BRANCH   1   2
ATOM      2  N   UNL     1      -0.973  -1.342   5.935  1.00  0.00    -0.352 N 
ATOM      3  C   UNL     1       0.202  -2.025   5.734  1.00  0.00     0.255 C 
ATOM      4  O   UNL     1       0.578  -1.937   4.569  1.00  0.00    -0.269 OA
ATOM      5  H   UNL     1      -1.291  -0.910   5.110  1.00  0.00     0.163 HD
BRANCH   3   6
ATOM      6  C   UNL     1       0.939  -2.841   6.762  1.00  0.00     0.082 A 
ATOM      7  C   UNL     1       1.915  -3.807   6.421  1.00  0.00     0.141 A 
ATOM      8  N   UNL     1       2.332  -4.727   7.343  1.00  0.00    -0.235 NA
ATOM      9  C   UNL     1       1.897  -4.674   8.617  1.00  0.00     0.040 A 
ATOM     10  C   UNL     1       0.612  -2.739   8.122  1.00  0.00     0.019 A 
ATOM     11  C   UNL     1       2.387  -5.743   9.544  1.00  0.00     0.067 C 
ATOM     12  C   UNL     1       1.077  -3.660   9.057  1.00  0.00     0.024 A 
BRANCH   7  13
ATOM     13  N   UNL     1       2.596  -3.932   5.229  1.00  0.00    -0.356 N 
ATOM     14  C   UNL     1       4.428  -4.436   2.987  1.00  0.00     0.001 C 
ATOM     15  C   UNL     1       3.725  -5.572   3.776  1.00  0.00     0.031 C 
ATOM     16  C   UNL     1       4.461  -3.150   3.851  1.00  0.00     0.031 C 
ATOM     17  C   UNL     1       2.445  -5.192   4.524  1.00  0.00     0.119 C 
ATOM     18  C   UNL     1       3.132  -2.793   4.506  1.00  0.00     0.119 C 
BRANCH  14  19
ATOM     19  C   UNL     1       3.834  -4.222   1.547  1.00  0.00     0.045 C 
BRANCH  19  20
ATOM     20  C   UNL     1       2.409  -3.758   1.363  1.00  0.00    -0.044 A 
ATOM     21  C   UNL     1       0.786  -1.970   1.072  1.00  0.00     0.119 A 
ATOM     22  C   UNL     1      -0.255  -2.886   1.190  1.00  0.00     0.046 A 
ATOM     23  C   UNL     1       2.113  -2.398   1.167  1.00  0.00     0.050 A 
ATOM     24  C   UNL     1       0.027  -4.243   1.320  1.00  0.00     0.004 A 
ATOM     25  C   UNL     1       1.352  -4.678   1.378  1.00  0.00     0.004 A 
BRANCH  21  26
ATOM     26  O   UNL     1       0.434  -0.652   0.954  1.00  0.00    -0.497 OA
ATOM     27  C   UNL     1       1.043  -0.026  -0.172  1.00  0.00     0.278 C 
ENDBRANCH  21  26
ENDBRANCH  19  20
ENDBRANCH  14  19
BRANCH  14  28
ATOM     28  C   UNL     1       5.920  -4.844   2.775  1.00  0.00     0.163 C 
BRANCH  28  29
ATOM     29  O   UNL     1       6.050  -6.041   2.016  1.00  0.00    -0.396 OA
ATOM     30  H   UNL     1       5.621  -6.771   2.489  1.00  0.00     0.210 HD
ENDBRANCH  28  29
ENDBRANCH  14  28
ENDBRANCH   7  13
ENDBRANCH   3   6
ENDBRANCH   1   2
BRANCH   1  31
ATOM     31  C   UNL     1      -1.503   0.224   7.734  1.00  0.00     0.023 C 
BRANCH  31  32
ATOM     32  C   UNL     1      -1.892   1.476   6.936  1.00  0.00     0.023 C 
BRANCH  32  33
ATOM     33  C   UNL     1      -3.379   1.615   6.618  1.00  0.00     0.116 C 
BRANCH  33  34
ATOM     34  N   UNL     1      -4.229   1.523   7.797  1.00  0.00    -0.352 N 
ATOM     35  C   UNL     1      -5.380   2.215   8.087  1.00  0.00     0.251 C 
ATOM     36  H   UNL     1      -3.939   0.876   8.480  1.00  0.00     0.163 HD
ATOM     37  O   UNL     1      -5.929   2.089   9.172  1.00  0.00    -0.269 OA
BRANCH  35  38
ATOM     38  C   UNL     1      -5.924   3.149   7.082  1.00  0.00     0.039 A 
ATOM     39  C   UNL     1      -6.155   4.475   7.454  1.00  0.00     0.014 A 
ATOM     40  C   UNL     1      -6.146   2.725   5.769  1.00  0.00     0.014 A 
ATOM     41  C   UNL     1      -6.526   5.405   6.482  1.00  0.00     0.010 A 
ATOM     42  C   UNL     1      -6.466   3.663   4.793  1.00  0.00     0.010 A 
ATOM     43  C   UNL     1      -6.635   5.014   5.138  1.00  0.00    -0.014 A 
BRANCH  43  44
ATOM     44  C   UNL     1      -6.864   6.006   4.062  1.00  0.00     0.031 A 
ATOM     45  C   UNL     1      -8.134   5.980   3.265  1.00  0.00     0.074 A 
ATOM     46  C   UNL     1      -5.877   6.864   3.739  1.00  0.00     0.049 A 
ATOM     47  N   UNL     1      -8.459   6.676   2.207  1.00  0.00    -0.248 NA
ATOM     48  C   UNL     1      -9.167   5.027   3.703  1.00  0.00     0.031 C 
ATOM     49  C   UNL     1      -4.580   6.955   4.413  1.00  0.00     0.029 A 
ATOM     50  N   UNL     1      -5.800   7.805   2.744  1.00  0.00    -0.354 N 
ATOM     51  C   UNL     1      -9.724   6.236   1.841  1.00  0.00     0.074 A 
ATOM     52  C   UNL     1     -10.093   5.189   2.769  1.00  0.00     0.031 C 
ATOM     53  C   UNL     1      -3.840   7.903   3.817  1.00  0.00     0.029 A 
ATOM     54  C   UNL     1      -4.591   8.456   2.695  1.00  0.00     0.049 A 
ATOM     55  H   UNL     1      -6.541   7.996   2.124  1.00  0.00     0.167 HD
ATOM     56  C   UNL     1     -10.510   6.679   0.831  1.00  0.00     0.037 A 
ATOM     57  C   UNL     1      -4.132   9.379   1.830  1.00  0.00     0.037 A 
ATOM     58  C   UNL     1     -10.147   7.736  -0.075  1.00  0.00     0.049 A 
ATOM     59  C   UNL     1      -5.015   9.835   0.704  1.00  0.00     0.074 A 
ATOM     60  C   UNL     1     -10.906   8.307  -1.082  1.00  0.00     0.029 A 
ATOM     61  N   UNL     1      -8.916   8.375  -0.089  1.00  0.00    -0.354 N 
ATOM     62  N   UNL     1      -6.235   9.458   0.408  1.00  0.00    -0.248 NA
ATOM     63  C   UNL     1      -4.456  10.838  -0.213  1.00  0.00     0.031 C 
ATOM     64  C   UNL     1     -10.120   9.266  -1.731  1.00  0.00     0.029 A 
ATOM     65  C   UNL     1      -8.885   9.316  -1.105  1.00  0.00     0.049 A 
ATOM     66  H   UNL     1      -8.175   8.188   0.531  1.00  0.00     0.167 HD
ATOM     67  C   UNL     1      -6.596  10.187  -0.716  1.00  0.00     0.074 A 
ATOM     68  C   UNL     1      -5.471  11.040  -1.042  1.00  0.00     0.031 C 
ATOM     69  C   UNL     1      -7.755  10.152  -1.418  1.00  0.00     0.037 A 
BRANCH  56  70
ATOM     70  C   UNL     1     -11.844   6.019   0.656  1.00  0.00     0.057 A 
ATOM     71  C   UNL     1     -12.900   6.244   1.548  1.00  0.00     0.134 A 
ATOM     72  C   UNL     1     -12.088   5.176  -0.436  1.00  0.00     0.134 A 
ATOM     73  F   UNL     1     -12.726   7.032   2.621  1.00  0.00    -0.206 F 
ATOM     74  C   UNL     1     -14.145   5.638   1.374  1.00  0.00     0.040 A 
ATOM     75  C   UNL     1     -13.335   4.582  -0.633  1.00  0.00     0.040 A 
ATOM     76  F   UNL     1     -11.120   4.922  -1.330  1.00  0.00    -0.206 F 
ATOM     77  C   UNL     1     -14.366   4.808   0.276  1.00  0.00     0.006 A 
ENDBRANCH  56  70
BRANCH  57  78
ATOM     78  C   UNL     1      -2.767   9.935   1.995  1.00  0.00     0.057 A 
ATOM     79  C   UNL     1      -2.573  11.249   2.434  1.00  0.00     0.134 A 
ATOM     80  C   UNL     1      -1.627   9.171   1.718  1.00  0.00     0.134 A 
ATOM     81  F   UNL     1      -3.628  12.034   2.696  1.00  0.00    -0.206 F 
ATOM     82  C   UNL     1      -1.295  11.789   2.581  1.00  0.00     0.040 A 
ATOM     83  C   UNL     1      -0.342   9.691   1.880  1.00  0.00     0.040 A 
ATOM     84  F   UNL     1      -1.747   7.902   1.298  1.00  0.00    -0.206 F 
ATOM     85  C   UNL     1      -0.174  11.007   2.308  1.00  0.00     0.006 A 
ENDBRANCH  57  78
BRANCH  69  86
ATOM     86  C   UNL     1      -7.867  11.069  -2.598  1.00  0.00     0.057 A 
ATOM     87  C   UNL     1      -7.207  10.796  -3.802  1.00  0.00     0.134 A 
ATOM     88  C   UNL     1      -8.678  12.209  -2.544  1.00  0.00     0.134 A 
ATOM     89  F   UNL     1      -6.404   9.727  -3.911  1.00  0.00    -0.206 F 
ATOM     90  C   UNL     1      -7.340  11.635  -4.910  1.00  0.00     0.040 A 
ATOM     91  C   UNL     1      -8.835  13.043  -3.651  1.00  0.00     0.040 A 
ATOM     92  F   UNL     1      -9.340  12.521  -1.420  1.00  0.00    -0.206 F 
ATOM     93  C   UNL     1      -8.163  12.758  -4.838  1.00  0.00     0.006 A 
ENDBRANCH  69  86
ENDBRANCH  43  44
ENDBRANCH  35  38
ENDBRANCH  33  34
ENDBRANCH  32  33
ENDBRANCH  31  32
ENDBRANCH   1  31
TORSDOF 17
