REMARK SMILES O=C(Cn1nc(C(=O)NCCCCNC(=O)c2ccc(-c3c4nc(c(-c5c(F)cccc5F)c5ccc([nH]5)c(-c5c(F)cccc5F)c5nc(c(-c6c(F)cccc6F)c6ccc3[nH]6)C=C5)C=C4)cc2)c2ccccc2c1=O)Nc1ccc2c(c1)C(=O)c1ccccc1C2=O
REMARK SMILES IDX 11 1 10 2 9 3 7 4 8 5 6 7 4 8 5 9 77 10 76 11 78 12 71 13
REMARK SMILES IDX 75 14 72 15 74 16 73 17 3 18 2 19 1 20 79 21 80 23 81 24
REMARK SMILES IDX 85 25 82 26 84 27 83 28 86 29 94 30 87 31 88 32 93 33 95 34
REMARK SMILES IDX 89 35 92 36 90 37 91 38 12 39 13 40 14 41 15 42 16 44 17 45
REMARK SMILES IDX 18 46 70 47 19 48 69 49 20 50 21 51 22 52 63 53 23 54 68 55
REMARK SMILES IDX 62 56 64 57 24 58 67 59 61 60 60 61 25 63 51 64 34 65 50 66
REMARK SMILES IDX 35 67 38 68 49 69 65 70 36 71 37 72 48 74 66 75 39 76 26 77
REMARK SMILES IDX 27 78 32 79 28 80 29 81 31 82 33 83 30 84 52 85 53 86 58 87
REMARK SMILES IDX 54 88 55 89 57 90 59 91 56 92 40 93 41 94 46 95 42 96 43 97
REMARK SMILES IDX 45 98 47 99 44 100
REMARK H PARENT 9 6 79 22 14 43 64 62 38 73
REMARK Flexibility Score: inf
ROOT
ATOM      1  C   UNL     1       0.889  -2.664   2.093  1.00  0.00     0.023 C 
ENDROOT
BRANCH   1   2
ATOM      2  C   UNL     1       1.723  -2.276   3.323  1.00  0.00     0.116 C 
BRANCH   2   3
ATOM      3  N   UNL     1       2.943  -3.063   3.426  1.00  0.00    -0.351 N 
ATOM      4  C   UNL     1       4.205  -2.756   3.002  1.00  0.00     0.272 C 
ATOM      5  O   UNL     1       5.104  -3.585   2.982  1.00  0.00    -0.267 OA
ATOM      6  H   UNL     1       2.845  -3.941   3.861  1.00  0.00     0.163 HD
BRANCH   4   7
ATOM      7  C   UNL     1       4.502  -1.325   2.606  1.00  0.00     0.156 A 
ATOM      8  N   UNL     1       4.137   0.454   1.172  1.00  0.00    -0.219 N 
ATOM      9  N   UNL     1       3.893  -0.853   1.554  1.00  0.00    -0.163 NA
ATOM     10  C   UNL     1       4.941   1.328   1.915  1.00  0.00     0.275 A 
ATOM     11  C   UNL     1       5.637   0.770   3.091  1.00  0.00     0.051 A 
ATOM     12  O   UNL     1       5.083   2.519   1.650  1.00  0.00    -0.267 OA
ATOM     13  C   UNL     1       5.440  -0.558   3.438  1.00  0.00     0.020 A 
ATOM     14  C   UNL     1       6.486   1.575   3.863  1.00  0.00     0.014 A 
ATOM     15  C   UNL     1       6.105  -1.099   4.550  1.00  0.00     0.011 A 
ATOM     16  C   UNL     1       7.144   1.040   4.972  1.00  0.00     0.001 A 
ATOM     17  C   UNL     1       6.958  -0.298   5.311  1.00  0.00     0.001 A 
BRANCH   8  18
ATOM     18  C   UNL     1       3.378   1.027   0.039  1.00  0.00     0.248 C 
BRANCH  18  19
ATOM     19  C   UNL     1       2.995   0.159  -1.177  1.00  0.00     0.246 C 
ATOM     20  O   UNL     1       2.570   0.663  -2.214  1.00  0.00    -0.273 OA
ATOM     21  N   UNL     1       3.031  -1.186  -0.922  1.00  0.00    -0.324 N 
ATOM     22  H   UNL     1       3.219  -1.427   0.014  1.00  0.00     0.169 HD
BRANCH  21  23
ATOM     23  C   UNL     1       2.842  -2.270  -1.785  1.00  0.00     0.042 A 
ATOM     24  C   UNL     1       2.891  -2.213  -3.180  1.00  0.00     0.027 A 
ATOM     25  C   UNL     1       2.720  -3.505  -1.158  1.00  0.00     0.039 A 
ATOM     26  C   UNL     1       3.031  -3.403  -3.921  1.00  0.00     0.015 A 
ATOM     27  C   UNL     1       2.746  -4.672  -1.900  1.00  0.00     0.036 A 
ATOM     28  C   UNL     1       3.054  -4.630  -3.250  1.00  0.00     0.034 A 
ATOM     29  C   UNL     1       2.716  -5.958  -1.198  1.00  0.00     0.194 C 
ATOM     30  C   UNL     1       3.697  -5.838  -3.833  1.00  0.00     0.194 C 
ATOM     31  O   UNL     1       1.935  -6.203  -0.294  1.00  0.00    -0.289 OA
ATOM     32  C   UNL     1       3.783  -6.878  -1.570  1.00  0.00     0.034 A 
ATOM     33  C   UNL     1       4.316  -6.785  -2.856  1.00  0.00     0.034 A 
ATOM     34  O   UNL     1       3.834  -5.984  -5.038  1.00  0.00    -0.289 OA
ATOM     35  C   UNL     1       4.370  -7.654  -0.572  1.00  0.00     0.013 A 
ATOM     36  C   UNL     1       5.499  -7.461  -3.140  1.00  0.00     0.013 A 
ATOM     37  C   UNL     1       5.566  -8.302  -0.851  1.00  0.00     0.001 A 
ATOM     38  C   UNL     1       6.133  -8.196  -2.127  1.00  0.00     0.001 A 
ENDBRANCH  21  23
ENDBRANCH  18  19
ENDBRANCH   8  18
ENDBRANCH   4   7
ENDBRANCH   2   3
ENDBRANCH   1   2
BRANCH   1  39
ATOM     39  C   UNL     1       0.798  -4.181   1.963  1.00  0.00     0.023 C 
BRANCH  39  40
ATOM     40  C   UNL     1      -0.466  -4.764   1.361  1.00  0.00     0.116 C 
BRANCH  40  41
ATOM     41  N   UNL     1      -0.834  -4.356   0.022  1.00  0.00    -0.352 N 
ATOM     42  C   UNL     1      -1.288  -5.090  -1.059  1.00  0.00     0.251 C 
ATOM     43  H   UNL     1      -0.747  -3.390  -0.149  1.00  0.00     0.163 HD
ATOM     44  O   UNL     1      -1.656  -4.469  -2.058  1.00  0.00    -0.269 OA
BRANCH  42  45
ATOM     45  C   UNL     1      -1.303  -6.586  -1.104  1.00  0.00     0.039 A 
ATOM     46  C   UNL     1      -1.414  -7.396   0.020  1.00  0.00     0.014 A 
ATOM     47  C   UNL     1      -1.210  -7.219  -2.356  1.00  0.00     0.014 A 
ATOM     48  C   UNL     1      -1.191  -8.769  -0.067  1.00  0.00     0.010 A 
ATOM     49  C   UNL     1      -1.137  -8.620  -2.461  1.00  0.00     0.010 A 
ATOM     50  C   UNL     1      -1.074  -9.411  -1.309  1.00  0.00    -0.014 A 
BRANCH  50  51
ATOM     51  C   UNL     1      -0.972 -10.900  -1.326  1.00  0.00     0.031 A 
ATOM     52  C   UNL     1       0.229 -11.618  -1.882  1.00  0.00     0.074 A 
ATOM     53  C   UNL     1      -1.948 -11.615  -0.727  1.00  0.00     0.049 A 
ATOM     54  N   UNL     1       0.532 -12.893  -1.798  1.00  0.00    -0.248 NA
ATOM     55  C   UNL     1       1.206 -10.823  -2.638  1.00  0.00     0.031 C 
ATOM     56  C   UNL     1      -3.187 -11.052  -0.181  1.00  0.00     0.029 A 
ATOM     57  N   UNL     1      -2.030 -12.950  -0.418  1.00  0.00    -0.354 N 
ATOM     58  C   UNL     1       1.720 -13.053  -2.501  1.00  0.00     0.074 A 
ATOM     59  C   UNL     1       2.072 -11.751  -3.027  1.00  0.00     0.031 C 
ATOM     60  C   UNL     1      -3.847 -12.006   0.489  1.00  0.00     0.029 A 
ATOM     61  C   UNL     1      -3.115 -13.262   0.366  1.00  0.00     0.049 A 
ATOM     62  H   UNL     1      -1.376 -13.618  -0.727  1.00  0.00     0.167 HD
ATOM     63  C   UNL     1       2.454 -14.179  -2.682  1.00  0.00     0.037 A 
ATOM     64  C   UNL     1      -3.483 -14.422   0.940  1.00  0.00     0.037 A 
ATOM     65  C   UNL     1       2.127 -15.473  -2.136  1.00  0.00     0.049 A 
ATOM     66  C   UNL     1      -2.644 -15.645   0.737  1.00  0.00     0.074 A 
ATOM     67  C   UNL     1       2.851 -16.652  -2.218  1.00  0.00     0.029 A 
ATOM     68  N   UNL     1       0.981 -15.762  -1.412  1.00  0.00    -0.354 N 
ATOM     69  N   UNL     1      -1.501 -15.765   0.110  1.00  0.00    -0.248 NA
ATOM     70  C   UNL     1      -3.156 -16.898   1.310  1.00  0.00     0.031 C 
ATOM     71  C   UNL     1       2.126 -17.662  -1.574  1.00  0.00     0.029 A 
ATOM     72  C   UNL     1       0.967 -17.104  -1.063  1.00  0.00     0.049 A 
ATOM     73  H   UNL     1       0.281 -15.111  -1.180  1.00  0.00     0.167 HD
ATOM     74  C   UNL     1      -1.159 -17.106   0.205  1.00  0.00     0.074 A 
ATOM     75  C   UNL     1      -2.198 -17.752   0.980  1.00  0.00     0.031 C 
ATOM     76  C   UNL     1      -0.082 -17.744  -0.314  1.00  0.00     0.037 A 
BRANCH  63  77
ATOM     77  C   UNL     1       3.699 -14.072  -3.513  1.00  0.00     0.057 A 
ATOM     78  C   UNL     1       3.748 -14.628  -4.798  1.00  0.00     0.134 A 
ATOM     79  C   UNL     1       4.871 -13.490  -3.014  1.00  0.00     0.134 A 
ATOM     80  F   UNL     1       2.663 -15.211  -5.330  1.00  0.00    -0.206 F 
ATOM     81  C   UNL     1       4.921 -14.615  -5.554  1.00  0.00     0.040 A 
ATOM     82  C   UNL     1       6.045 -13.455  -3.769  1.00  0.00     0.040 A 
ATOM     83  F   UNL     1       4.889 -12.936  -1.792  1.00  0.00    -0.206 F 
ATOM     84  C   UNL     1       6.074 -14.026  -5.040  1.00  0.00     0.006 A 
ENDBRANCH  63  77
BRANCH  64  85
ATOM     85  C   UNL     1      -4.705 -14.472   1.779  1.00  0.00     0.057 A 
ATOM     86  C   UNL     1      -5.980 -14.370   1.213  1.00  0.00     0.134 A 
ATOM     87  C   UNL     1      -4.619 -14.604   3.169  1.00  0.00     0.134 A 
ATOM     88  F   UNL     1      -6.123 -14.237  -0.114  1.00  0.00    -0.206 F 
ATOM     89  C   UNL     1      -7.130 -14.379   2.002  1.00  0.00     0.040 A 
ATOM     90  C   UNL     1      -5.762 -14.637   3.969  1.00  0.00     0.040 A 
ATOM     91  F   UNL     1      -3.424 -14.724   3.764  1.00  0.00    -0.206 F 
ATOM     92  C   UNL     1      -7.022 -14.517   3.385  1.00  0.00     0.006 A 
ENDBRANCH  64  85
BRANCH  76  93
ATOM     93  C   UNL     1       0.008 -19.218  -0.064  1.00  0.00     0.057 A 
ATOM     94  C   UNL     1       0.906 -19.736   0.877  1.00  0.00     0.134 A 
ATOM     95  C   UNL     1      -0.808 -20.126  -0.752  1.00  0.00     0.134 A 
ATOM     96  F   UNL     1       1.715 -18.919   1.568  1.00  0.00    -0.206 F 
ATOM     97  C   UNL     1       0.984 -21.106   1.131  1.00  0.00     0.040 A 
ATOM     98  C   UNL     1      -0.752 -21.496  -0.493  1.00  0.00     0.040 A 
ATOM     99  F   UNL     1      -1.701 -19.689  -1.652  1.00  0.00    -0.206 F 
ATOM    100  C   UNL     1       0.148 -21.989   0.450  1.00  0.00     0.006 A 
ENDBRANCH  76  93
ENDBRANCH  50  51
ENDBRANCH  42  45
ENDBRANCH  40  41
ENDBRANCH  39  40
ENDBRANCH   1  39
TORSDOF 14
