REMARK SMILES O=C1OC(c2ccc(Cl)cc2)=N/C1=C/Nc1ccc(O)c(C(=O)NCCCCNC(=O)c2ccc(-c3c4nc(c(-c5c(F)cccc5F)c5ccc([nH]5)c(-c5c(F)cccc5F)c5nc(c(-c6c(F)cccc6F)c6ccc3[nH]6)C=C5)C=C4)cc2)c1
REMARK SMILES IDX 26 1 25 2 24 3 22 4 23 5 21 7 16 8 17 9 86 10 18 11 19 12
REMARK SMILES IDX 15 13 14 15 1 16 2 17 3 18 13 19 4 20 12 21 5 22 6 23 11 24
REMARK SMILES IDX 7 25 10 26 8 27 9 28 20 29 27 31 28 32 29 33 30 34 31 36
REMARK SMILES IDX 32 37 33 38 85 39 34 40 84 41 35 42 36 43 37 44 78 45 38 46
REMARK SMILES IDX 83 47 77 48 79 49 39 50 82 51 76 52 75 53 40 55 66 56 49 57
REMARK SMILES IDX 65 58 50 59 53 60 64 61 80 62 51 63 52 64 63 66 81 67 54 68
REMARK SMILES IDX 41 69 42 70 47 71 43 72 44 73 46 74 48 75 45 76 67 77 68 78
REMARK SMILES IDX 73 79 69 80 70 81 72 82 74 83 71 84 55 85 56 86 61 87 57 88
REMARK SMILES IDX 58 89 60 90 62 91 59 92
REMARK H PARENT 24 6 15 14 20 30 29 35 79 54 53 65
REMARK Flexibility Score: inf
ROOT
ATOM      1  C   UNL     1      -2.789 -10.130  -0.031  1.00  0.00     0.023 C 
ENDROOT
BRANCH   1   2
ATOM      2  C   UNL     1      -2.070  -9.435  -1.192  1.00  0.00     0.116 C 
BRANCH   2   3
ATOM      3  N   UNL     1      -2.852  -8.308  -1.640  1.00  0.00    -0.352 N 
ATOM      4  C   UNL     1      -2.880  -6.998  -1.244  1.00  0.00     0.255 C 
ATOM      5  O   UNL     1      -3.776  -6.312  -1.747  1.00  0.00    -0.269 OA
ATOM      6  H   UNL     1      -3.483  -8.521  -2.366  1.00  0.00     0.163 HD
BRANCH   4   7
ATOM      7  C   UNL     1      -1.876  -6.328  -0.355  1.00  0.00     0.083 A 
ATOM      8  C   UNL     1      -0.843  -4.138   0.101  1.00  0.00     0.039 A 
ATOM      9  C   UNL     1       0.011  -4.743   1.021  1.00  0.00     0.030 A 
ATOM     10  C   UNL     1      -1.754  -4.942  -0.591  1.00  0.00     0.043 A 
ATOM     11  C   UNL     1      -0.120  -6.094   1.318  1.00  0.00     0.049 A 
ATOM     12  C   UNL     1      -1.080  -6.873   0.661  1.00  0.00     0.128 A 
BRANCH   8  13
ATOM     13  N   UNL     1      -0.774  -2.772  -0.192  1.00  0.00    -0.360 N 
ATOM     14  H   UNL     1      -1.614  -2.331  -0.455  1.00  0.00     0.166 HD
BRANCH  13  15
ATOM     15  C   UNL     1       0.347  -1.990  -0.148  1.00  0.00     0.119 C 
ATOM     16  O   UNL     1      -1.891   0.033  -0.006  1.00  0.00    -0.244 OA
ATOM     17  C   UNL     1      -0.702   0.273  -0.013  1.00  0.00     0.365 C 
ATOM     18  O   UNL     1      -0.094   1.491   0.084  1.00  0.00    -0.402 OA
ATOM     19  C   UNL     1       0.452  -0.660  -0.117  1.00  0.00     0.168 C 
ATOM     20  C   UNL     1       1.234   1.251  -0.011  1.00  0.00     0.231 C 
ATOM     21  N   UNL     1       1.633   0.029  -0.136  1.00  0.00    -0.204 NA
BRANCH  20  22
ATOM     22  C   UNL     1       2.080   2.435  -0.026  1.00  0.00     0.037 A 
ATOM     23  C   UNL     1       1.984   3.390   0.988  1.00  0.00     0.015 A 
ATOM     24  C   UNL     1       3.020   2.566  -1.054  1.00  0.00     0.015 A 
ATOM     25  C   UNL     1       2.846   4.490   0.970  1.00  0.00     0.021 A 
ATOM     26  C   UNL     1       3.863   3.676  -1.077  1.00  0.00     0.021 A 
ATOM     27  C   UNL     1       3.776   4.630  -0.062  1.00  0.00     0.041 A 
ATOM     28  Cl  UNL     1       4.832   5.987  -0.080  1.00  0.00    -0.084 Cl
ENDBRANCH  20  22
ENDBRANCH  13  15
ENDBRANCH   8  13
BRANCH  12  29
ATOM     29  O   UNL     1      -1.224  -8.148   1.117  1.00  0.00    -0.507 OA
ATOM     30  H   UNL     1      -0.667  -8.468   1.799  1.00  0.00     0.293 HD
ENDBRANCH  12  29
ENDBRANCH   4   7
ENDBRANCH   2   3
ENDBRANCH   1   2
BRANCH   1  31
ATOM     31  C   UNL     1      -3.840 -11.148  -0.467  1.00  0.00     0.023 C 
BRANCH  31  32
ATOM     32  C   UNL     1      -3.277 -12.336  -1.233  1.00  0.00     0.116 C 
BRANCH  32  33
ATOM     33  N   UNL     1      -2.237 -13.047  -0.504  1.00  0.00    -0.352 N 
ATOM     34  C   UNL     1      -1.947 -14.388  -0.518  1.00  0.00     0.251 C 
ATOM     35  H   UNL     1      -1.667 -12.493   0.075  1.00  0.00     0.163 HD
ATOM     36  O   UNL     1      -1.111 -14.851   0.250  1.00  0.00    -0.269 OA
BRANCH  34  37
ATOM     37  C   UNL     1      -2.689 -15.273  -1.436  1.00  0.00     0.039 A 
ATOM     38  C   UNL     1      -3.228 -16.456  -0.930  1.00  0.00     0.014 A 
ATOM     39  C   UNL     1      -2.890 -14.915  -2.772  1.00  0.00     0.014 A 
ATOM     40  C   UNL     1      -4.023 -17.250  -1.754  1.00  0.00     0.010 A 
ATOM     41  C   UNL     1      -3.756 -15.660  -3.563  1.00  0.00     0.010 A 
ATOM     42  C   UNL     1      -4.327 -16.838  -3.064  1.00  0.00    -0.014 A 
BRANCH  42  43
ATOM     43  C   UNL     1      -5.261 -17.632  -3.900  1.00  0.00     0.031 A 
ATOM     44  C   UNL     1      -4.792 -18.277  -5.173  1.00  0.00     0.074 A 
ATOM     45  C   UNL     1      -6.546 -17.750  -3.514  1.00  0.00     0.049 A 
ATOM     46  N   UNL     1      -5.454 -19.048  -5.998  1.00  0.00    -0.248 NA
ATOM     47  C   UNL     1      -3.407 -18.005  -5.589  1.00  0.00     0.031 C 
ATOM     48  C   UNL     1      -7.137 -17.110  -2.336  1.00  0.00     0.029 A 
ATOM     49  N   UNL     1      -7.585 -18.457  -4.063  1.00  0.00    -0.354 N 
ATOM     50  C   UNL     1      -4.569 -19.352  -7.024  1.00  0.00     0.074 A 
ATOM     51  C   UNL     1      -3.346 -18.628  -6.756  1.00  0.00     0.031 C 
ATOM     52  C   UNL     1      -8.418 -17.494  -2.224  1.00  0.00     0.029 A 
ATOM     53  C   UNL     1      -8.750 -18.373  -3.340  1.00  0.00     0.049 A 
ATOM     54  H   UNL     1      -7.504 -18.975  -4.897  1.00  0.00     0.167 HD
ATOM     55  C   UNL     1      -4.749 -20.182  -8.079  1.00  0.00     0.037 A 
ATOM     56  C   UNL     1      -9.949 -18.946  -3.549  1.00  0.00     0.037 A 
ATOM     57  C   UNL     1      -5.968 -20.904  -8.338  1.00  0.00     0.049 A 
ATOM     58  C   UNL     1     -10.124 -19.859  -4.731  1.00  0.00     0.074 A 
ATOM     59  C   UNL     1      -6.234 -21.813  -9.348  1.00  0.00     0.029 A 
ATOM     60  N   UNL     1      -7.129 -20.790  -7.588  1.00  0.00    -0.354 N 
ATOM     61  N   UNL     1      -9.250 -20.211  -5.643  1.00  0.00    -0.248 NA
ATOM     62  C   UNL     1     -11.450 -20.465  -4.904  1.00  0.00     0.031 C 
ATOM     63  C   UNL     1      -7.574 -22.202  -9.244  1.00  0.00     0.029 A 
ATOM     64  C   UNL     1      -8.125 -21.587  -8.131  1.00  0.00     0.049 A 
ATOM     65  H   UNL     1      -7.232 -20.225  -6.789  1.00  0.00     0.167 HD
ATOM     66  C   UNL     1      -9.913 -21.094  -6.485  1.00  0.00     0.074 A 
ATOM     67  C   UNL     1     -11.252 -21.248  -5.954  1.00  0.00     0.031 C 
ATOM     68  C   UNL     1      -9.458 -21.720  -7.599  1.00  0.00     0.037 A 
BRANCH  55  69
ATOM     69  C   UNL     1      -3.598 -20.352  -9.031  1.00  0.00     0.057 A 
ATOM     70  C   UNL     1      -2.415 -21.005  -8.655  1.00  0.00     0.134 A 
ATOM     71  C   UNL     1      -3.684 -19.886 -10.349  1.00  0.00     0.134 A 
ATOM     72  F   UNL     1      -2.260 -21.466  -7.405  1.00  0.00    -0.206 F 
ATOM     73  C   UNL     1      -1.351 -21.162  -9.546  1.00  0.00     0.040 A 
ATOM     74  C   UNL     1      -2.639 -20.065 -11.258  1.00  0.00     0.040 A 
ATOM     75  F   UNL     1      -4.787 -19.256 -10.779  1.00  0.00    -0.206 F 
ATOM     76  C   UNL     1      -1.465 -20.698 -10.854  1.00  0.00     0.006 A 
ENDBRANCH  55  69
BRANCH  56  77
ATOM     77  C   UNL     1     -11.070 -18.697  -2.606  1.00  0.00     0.057 A 
ATOM     78  C   UNL     1     -11.572 -19.718  -1.789  1.00  0.00     0.134 A 
ATOM     79  C   UNL     1     -11.674 -17.438  -2.508  1.00  0.00     0.134 A 
ATOM     80  F   UNL     1     -11.047 -20.950  -1.849  1.00  0.00    -0.206 F 
ATOM     81  C   UNL     1     -12.649 -19.503  -0.929  1.00  0.00     0.040 A 
ATOM     82  C   UNL     1     -12.732 -17.201  -1.629  1.00  0.00     0.040 A 
ATOM     83  F   UNL     1     -11.235 -16.415  -3.255  1.00  0.00    -0.206 F 
ATOM     84  C   UNL     1     -13.229 -18.239  -0.844  1.00  0.00     0.006 A 
ENDBRANCH  56  77
BRANCH  68  85
ATOM     85  C   UNL     1     -10.416 -22.641  -8.300  1.00  0.00     0.057 A 
ATOM     86  C   UNL     1     -11.552 -22.163  -8.968  1.00  0.00     0.134 A 
ATOM     87  C   UNL     1     -10.201 -24.026  -8.306  1.00  0.00     0.134 A 
ATOM     88  F   UNL     1     -11.825 -20.849  -8.992  1.00  0.00    -0.206 F 
ATOM     89  C   UNL     1     -12.461 -23.030  -9.577  1.00  0.00     0.040 A 
ATOM     90  C   UNL     1     -11.084 -24.900  -8.942  1.00  0.00     0.040 A 
ATOM     91  F   UNL     1      -9.128 -24.552  -7.698  1.00  0.00    -0.206 F 
ATOM     92  C   UNL     1     -12.225 -24.403  -9.568  1.00  0.00     0.006 A 
ENDBRANCH  68  85
ENDBRANCH  42  43
ENDBRANCH  34  37
ENDBRANCH  32  33
ENDBRANCH  31  32
ENDBRANCH   1  31
TORSDOF 15
