REMARK SMILES Cc1cc(C)cc(CSc2cc(C(=O)NCCCCNC(=O)c3ccc(-c4c5nc(c(-c6c(F)cccc6F)c6ccc([nH]6)c(-c6c(F)cccc6F)c6nc(c(-c7c(F)cccc7F)c7ccc4[nH]7)C=C6)C=C5)cc3)cc(Cl)n2)c1
REMARK SMILES IDX 17 1 16 2 15 3 13 4 14 5 12 7 10 8 11 9 80 10 78 11 77 12
REMARK SMILES IDX 79 13 9 14 8 15 7 16 1 17 2 18 3 19 81 20 4 21 5 22 6 23
REMARK SMILES IDX 18 24 19 25 20 26 21 27 22 29 23 30 24 31 76 32 25 33 75 34
REMARK SMILES IDX 26 35 27 36 28 37 69 38 29 39 74 40 68 41 70 42 30 43 73 44
REMARK SMILES IDX 67 45 66 46 31 48 57 49 40 50 56 51 41 52 44 53 55 54 71 55
REMARK SMILES IDX 42 56 43 57 54 59 72 60 45 61 32 62 33 63 38 64 34 65 35 66
REMARK SMILES IDX 37 67 39 68 36 69 58 70 59 71 64 72 60 73 61 74 63 75 65 76
REMARK SMILES IDX 62 77 46 78 47 79 52 80 48 81 49 82 51 83 53 84 50 85
REMARK H PARENT 15 6 20 28 70 47 44 58
REMARK Flexibility Score: inf
ROOT
ATOM      1  C   UNL     1       1.775  -2.455   8.577  1.00  0.00     0.023 C 
ENDROOT
BRANCH   1   2
ATOM      2  C   UNL     1       2.712  -2.733   7.401  1.00  0.00     0.116 C 
BRANCH   2   3
ATOM      3  N   UNL     1       2.424  -4.025   6.813  1.00  0.00    -0.352 N 
ATOM      4  C   UNL     1       1.679  -4.441   5.743  1.00  0.00     0.251 C 
ATOM      5  O   UNL     1       1.659  -5.655   5.532  1.00  0.00    -0.269 OA
ATOM      6  H   UNL     1       2.860  -4.769   7.288  1.00  0.00     0.163 HD
BRANCH   4   7
ATOM      7  C   UNL     1       0.928  -3.548   4.813  1.00  0.00     0.045 A 
ATOM      8  C   UNL     1      -0.232  -3.369   2.707  1.00  0.00     0.099 A 
ATOM      9  C   UNL     1       0.476  -4.135   3.619  1.00  0.00     0.049 A 
ATOM     10  N   UNL     1      -0.508  -2.073   2.918  1.00  0.00    -0.230 NA
ATOM     11  C   UNL     1      -0.066  -1.529   4.059  1.00  0.00     0.131 A 
ATOM     12  C   UNL     1       0.614  -2.215   5.046  1.00  0.00     0.055 A 
ATOM     13  Cl  UNL     1      -0.409   0.143   4.229  1.00  0.00    -0.062 Cl
BRANCH   8  14
ATOM     14  S   UNL     1      -0.937  -4.115   1.255  1.00  0.00    -0.102 SA
BRANCH  14  15
ATOM     15  C   UNL     1       0.027  -3.301  -0.059  1.00  0.00     0.112 C 
BRANCH  15  16
ATOM     16  C   UNL     1      -0.001  -1.792  -0.076  1.00  0.00    -0.037 A 
ATOM     17  C   UNL     1       2.499   1.092   0.001  1.00  0.00     0.044 C 
ATOM     18  C   UNL     1       1.210   0.326  -0.041  1.00  0.00    -0.051 A 
ATOM     19  C   UNL     1      -0.009   1.013  -0.050  1.00  0.00     0.006 A 
ATOM     20  C   UNL     1       1.205  -1.073  -0.054  1.00  0.00     0.008 A 
ATOM     21  C   UNL     1      -1.224   0.318  -0.081  1.00  0.00    -0.051 A 
ATOM     22  C   UNL     1      -2.518   1.077  -0.055  1.00  0.00     0.044 C 
ATOM     23  C   UNL     1      -1.211  -1.081  -0.114  1.00  0.00     0.008 A 
ENDBRANCH  15  16
ENDBRANCH  14  15
ENDBRANCH   8  14
ENDBRANCH   4   7
ENDBRANCH   2   3
ENDBRANCH   1   2
BRANCH   1  24
ATOM     24  C   UNL     1       2.198  -3.139   9.884  1.00  0.00     0.023 C 
BRANCH  24  25
ATOM     25  C   UNL     1       3.585  -2.756  10.398  1.00  0.00     0.116 C 
BRANCH  25  26
ATOM     26  N   UNL     1       3.768  -1.320  10.536  1.00  0.00    -0.352 N 
ATOM     27  C   UNL     1       4.506  -0.623  11.460  1.00  0.00     0.251 C 
ATOM     28  H   UNL     1       3.295  -0.769   9.871  1.00  0.00     0.163 HD
ATOM     29  O   UNL     1       4.446   0.599  11.496  1.00  0.00    -0.269 OA
BRANCH  27  30
ATOM     30  C   UNL     1       5.341  -1.354  12.437  1.00  0.00     0.039 A 
ATOM     31  C   UNL     1       5.297  -0.956  13.775  1.00  0.00     0.014 A 
ATOM     32  C   UNL     1       6.154  -2.420  12.046  1.00  0.00     0.014 A 
ATOM     33  C   UNL     1       6.025  -1.667  14.729  1.00  0.00     0.010 A 
ATOM     34  C   UNL     1       6.818  -3.176  13.009  1.00  0.00     0.010 A 
ATOM     35  C   UNL     1       6.762  -2.806  14.360  1.00  0.00    -0.014 A 
BRANCH  35  36
ATOM     36  C   UNL     1       7.453  -3.618  15.393  1.00  0.00     0.031 A 
ATOM     37  C   UNL     1       8.951  -3.743  15.401  1.00  0.00     0.074 A 
ATOM     38  C   UNL     1       6.716  -4.267  16.316  1.00  0.00     0.049 A 
ATOM     39  N   UNL     1       9.721  -4.373  16.252  1.00  0.00    -0.248 NA
ATOM     40  C   UNL     1       9.680  -3.097  14.298  1.00  0.00     0.031 C 
ATOM     41  C   UNL     1       5.252  -4.280  16.372  1.00  0.00     0.029 A 
ATOM     42  N   UNL     1       7.095  -5.033  17.389  1.00  0.00    -0.354 N 
ATOM     43  C   UNL     1      11.019  -4.200  15.789  1.00  0.00     0.074 A 
ATOM     44  C   UNL     1      10.929  -3.462  14.548  1.00  0.00     0.031 C 
ATOM     45  C   UNL     1       4.859  -4.979  17.448  1.00  0.00     0.029 A 
ATOM     46  C   UNL     1       6.038  -5.491  18.138  1.00  0.00     0.049 A 
ATOM     47  H   UNL     1       8.035  -5.235  17.602  1.00  0.00     0.167 HD
ATOM     48  C   UNL     1      12.182  -4.596  16.360  1.00  0.00     0.037 A 
ATOM     49  C   UNL     1       6.022  -6.235  19.259  1.00  0.00     0.037 A 
ATOM     50  C   UNL     1      12.267  -5.322  17.601  1.00  0.00     0.049 A 
ATOM     51  C   UNL     1       7.327  -6.657  19.875  1.00  0.00     0.074 A 
ATOM     52  C   UNL     1      13.398  -5.721  18.291  1.00  0.00     0.029 A 
ATOM     53  N   UNL     1      11.175  -5.767  18.333  1.00  0.00    -0.354 N 
ATOM     54  N   UNL     1       8.550  -6.411  19.472  1.00  0.00    -0.248 NA
ATOM     55  C   UNL     1       7.247  -7.450  21.108  1.00  0.00     0.031 C 
ATOM     56  C   UNL     1      12.992  -6.453  19.413  1.00  0.00     0.029 A 
ATOM     57  C   UNL     1      11.607  -6.459  19.454  1.00  0.00     0.049 A 
ATOM     58  H   UNL     1      10.233  -5.614  18.091  1.00  0.00     0.167 HD
ATOM     59  C   UNL     1       9.386  -6.997  20.415  1.00  0.00     0.074 A 
ATOM     60  C   UNL     1       8.527  -7.585  21.423  1.00  0.00     0.031 C 
ATOM     61  C   UNL     1      10.741  -7.046  20.444  1.00  0.00     0.037 A 
BRANCH  48  62
ATOM     62  C   UNL     1      13.458  -4.247  15.647  1.00  0.00     0.057 A 
ATOM     63  C   UNL     1      13.914  -2.925  15.549  1.00  0.00     0.134 A 
ATOM     64  C   UNL     1      14.262  -5.248  15.086  1.00  0.00     0.134 A 
ATOM     65  F   UNL     1      13.188  -1.916  16.053  1.00  0.00    -0.206 F 
ATOM     66  C   UNL     1      15.107  -2.609  14.896  1.00  0.00     0.040 A 
ATOM     67  C   UNL     1      15.472  -4.947  14.457  1.00  0.00     0.040 A 
ATOM     68  F   UNL     1      13.890  -6.536  15.148  1.00  0.00    -0.206 F 
ATOM     69  C   UNL     1      15.894  -3.624  14.355  1.00  0.00     0.006 A 
ENDBRANCH  48  62
BRANCH  49  70
ATOM     70  C   UNL     1       4.729  -6.603  19.891  1.00  0.00     0.057 A 
ATOM     71  C   UNL     1       4.351  -6.075  21.132  1.00  0.00     0.134 A 
ATOM     72  C   UNL     1       3.846  -7.501  19.279  1.00  0.00     0.134 A 
ATOM     73  F   UNL     1       5.161  -5.222  21.777  1.00  0.00    -0.206 F 
ATOM     74  C   UNL     1       3.158  -6.445  21.753  1.00  0.00     0.040 A 
ATOM     75  C   UNL     1       2.635  -7.857  19.874  1.00  0.00     0.040 A 
ATOM     76  F   UNL     1       4.143  -8.035  18.085  1.00  0.00    -0.206 F 
ATOM     77  C   UNL     1       2.293  -7.336  21.120  1.00  0.00     0.006 A 
ENDBRANCH  49  70
BRANCH  61  78
ATOM     78  C   UNL     1      11.370  -7.739  21.619  1.00  0.00     0.057 A 
ATOM     79  C   UNL     1      11.274  -9.126  21.803  1.00  0.00     0.134 A 
ATOM     80  C   UNL     1      12.082  -7.010  22.580  1.00  0.00     0.134 A 
ATOM     81  F   UNL     1      10.597  -9.883  20.926  1.00  0.00    -0.206 F 
ATOM     82  C   UNL     1      11.827  -9.754  22.920  1.00  0.00     0.040 A 
ATOM     83  C   UNL     1      12.668  -7.632  23.683  1.00  0.00     0.040 A 
ATOM     84  F   UNL     1      12.224  -5.681  22.461  1.00  0.00    -0.206 F 
ATOM     85  C   UNL     1      12.530  -9.007  23.862  1.00  0.00     0.006 A 
ENDBRANCH  61  78
ENDBRANCH  35  36
ENDBRANCH  27  30
ENDBRANCH  25  26
ENDBRANCH  24  25
ENDBRANCH   1  24
TORSDOF 14
