REMARK SMILES CCc1cccc(-c2ccc([C@@H](C)C(=O)NCCCCNC(=O)c3ccc(-c4c5nc(c(-c6c(F)cccc6F)c6ccc([nH]6)c(-c6c(F)cccc6F)c6nc(c(-c7c(F)cccc7F)c7ccc4[nH]7)C=C6)C=C5)cc3)cc2)c1
REMARK SMILES IDX 18 1 17 2 16 3 14 4 15 5 12 7 13 8 11 9 8 10 9 11 79 12
REMARK SMILES IDX 10 13 78 14 7 15 3 16 4 17 80 18 5 19 6 20 2 21 1 22 19 23
REMARK SMILES IDX 20 24 21 25 22 26 23 28 24 29 25 30 77 31 26 32 76 33 27 34
REMARK SMILES IDX 28 35 29 36 70 37 30 38 75 39 69 40 71 41 31 42 74 43 68 44
REMARK SMILES IDX 67 45 32 47 58 48 41 49 57 50 42 51 45 52 56 53 72 54 43 55
REMARK SMILES IDX 44 56 55 58 73 59 46 60 33 61 34 62 39 63 35 64 36 65 38 66
REMARK SMILES IDX 40 67 37 68 59 69 60 70 65 71 61 72 62 73 64 74 66 75 63 76
REMARK SMILES IDX 47 77 48 78 53 79 49 80 50 81 52 82 54 83 51 84
REMARK H PARENT 16 6 21 27 71 46 45 57
REMARK Flexibility Score: inf
ROOT
ATOM      1  C   UNL     1      -0.698   6.629  -7.093  1.00  0.00     0.023 C 
ENDROOT
BRANCH   1   2
ATOM      2  C   UNL     1      -0.000   7.930  -7.491  1.00  0.00     0.116 C 
BRANCH   2   3
ATOM      3  N   UNL     1       0.031   8.889  -6.408  1.00  0.00    -0.356 N 
ATOM      4  C   UNL     1       0.987   9.165  -5.478  1.00  0.00     0.227 C 
ATOM      5  O   UNL     1       0.691  10.007  -4.621  1.00  0.00    -0.274 OA
ATOM      6  H   UNL     1      -0.782   9.439  -6.330  1.00  0.00     0.163 HD
BRANCH   4   7
ATOM      7  C   UNL     1       2.377   8.508  -5.459  1.00  0.00     0.105 C 
ATOM      8  C   UNL     1       3.219   8.809  -6.700  1.00  0.00     0.023 C 
BRANCH   7   9
ATOM      9  C   UNL     1       2.355   7.060  -4.996  1.00  0.00    -0.036 A 
ATOM     10  C   UNL     1       2.129   4.373  -4.025  1.00  0.00    -0.018 A 
ATOM     11  C   UNL     1       2.139   4.669  -5.399  1.00  0.00     0.009 A 
ATOM     12  C   UNL     1       2.277   5.461  -3.150  1.00  0.00     0.009 A 
ATOM     13  C   UNL     1       2.286   5.978  -5.875  1.00  0.00     0.005 A 
ATOM     14  C   UNL     1       2.366   6.778  -3.623  1.00  0.00     0.005 A 
BRANCH  10  15
ATOM     15  C   UNL     1       1.960   2.979  -3.537  1.00  0.00    -0.018 A 
ATOM     16  C   UNL     1       1.168   1.375  -1.831  1.00  0.00    -0.048 A 
ATOM     17  C   UNL     1       1.582   0.317  -2.643  1.00  0.00     0.004 A 
ATOM     18  C   UNL     1       1.338   2.692  -2.304  1.00  0.00     0.012 A 
ATOM     19  C   UNL     1       2.200   0.567  -3.865  1.00  0.00     0.001 A 
ATOM     20  C   UNL     1       2.399   1.880  -4.295  1.00  0.00     0.009 A 
BRANCH  16  21
ATOM     21  C   UNL     1       0.495   1.155  -0.494  1.00  0.00     0.032 C 
ATOM     22  C   UNL     1       0.936  -0.093   0.262  1.00  0.00     0.009 C 
ENDBRANCH  16  21
ENDBRANCH  10  15
ENDBRANCH   7   9
ENDBRANCH   4   7
ENDBRANCH   2   3
ENDBRANCH   1   2
BRANCH   1  23
ATOM     23  C   UNL     1      -2.217   6.632  -7.258  1.00  0.00     0.023 C 
BRANCH  23  24
ATOM     24  C   UNL     1      -2.719   6.840  -8.683  1.00  0.00     0.116 C 
BRANCH  24  25
ATOM     25  N   UNL     1      -2.214   5.868  -9.642  1.00  0.00    -0.352 N 
ATOM     26  C   UNL     1      -2.834   5.386 -10.773  1.00  0.00     0.251 C 
ATOM     27  H   UNL     1      -1.316   5.509  -9.458  1.00  0.00     0.163 HD
ATOM     28  O   UNL     1      -2.308   4.513 -11.451  1.00  0.00    -0.269 OA
BRANCH  26  29
ATOM     29  C   UNL     1      -4.173   5.902 -11.131  1.00  0.00     0.039 A 
ATOM     30  C   UNL     1      -5.204   4.990 -11.368  1.00  0.00     0.014 A 
ATOM     31  C   UNL     1      -4.420   7.276 -11.166  1.00  0.00     0.014 A 
ATOM     32  C   UNL     1      -6.506   5.457 -11.557  1.00  0.00     0.010 A 
ATOM     33  C   UNL     1      -5.728   7.736 -11.283  1.00  0.00     0.010 A 
ATOM     34  C   UNL     1      -6.784   6.831 -11.471  1.00  0.00    -0.014 A 
BRANCH  34  35
ATOM     35  C   UNL     1      -8.174   7.346 -11.560  1.00  0.00     0.031 A 
ATOM     36  C   UNL     1      -8.567   8.255 -12.691  1.00  0.00     0.074 A 
ATOM     37  C   UNL     1      -9.053   7.069 -10.577  1.00  0.00     0.049 A 
ATOM     38  N   UNL     1      -9.695   8.888 -12.888  1.00  0.00    -0.248 NA
ATOM     39  C   UNL     1      -7.546   8.514 -13.720  1.00  0.00     0.031 C 
ATOM     40  C   UNL     1      -8.775   6.251  -9.394  1.00  0.00     0.029 A 
ATOM     41  N   UNL     1     -10.357   7.461 -10.408  1.00  0.00    -0.354 N 
ATOM     42  C   UNL     1      -9.510   9.639 -14.042  1.00  0.00     0.074 A 
ATOM     43  C   UNL     1      -8.151   9.414 -14.481  1.00  0.00     0.031 C 
ATOM     44  C   UNL     1      -9.879   6.190  -8.631  1.00  0.00     0.029 A 
ATOM     45  C   UNL     1     -10.931   6.989  -9.252  1.00  0.00     0.049 A 
ATOM     46  H   UNL     1     -10.838   8.027 -11.054  1.00  0.00     0.167 HD
ATOM     47  C   UNL     1     -10.401  10.427 -14.688  1.00  0.00     0.037 A 
ATOM     48  C   UNL     1     -12.164   7.184  -8.747  1.00  0.00     0.037 A 
ATOM     49  C   UNL     1     -11.768  10.607 -14.281  1.00  0.00     0.049 A 
ATOM     50  C   UNL     1     -13.143   8.034  -9.508  1.00  0.00     0.074 A 
ATOM     51  C   UNL     1     -12.771  11.315 -14.920  1.00  0.00     0.029 A 
ATOM     52  N   UNL     1     -12.326  10.067 -13.133  1.00  0.00    -0.354 N 
ATOM     53  N   UNL     1     -12.978   8.672 -10.641  1.00  0.00    -0.248 NA
ATOM     54  C   UNL     1     -14.484   8.185  -8.924  1.00  0.00     0.031 C 
ATOM     55  C   UNL     1     -13.930  11.229 -14.142  1.00  0.00     0.029 A 
ATOM     56  C   UNL     1     -13.657  10.438 -13.038  1.00  0.00     0.049 A 
ATOM     57  H   UNL     1     -11.848   9.504 -12.482  1.00  0.00     0.167 HD
ATOM     58  C   UNL     1     -14.198   9.273 -10.919  1.00  0.00     0.074 A 
ATOM     59  C   UNL     1     -15.099   8.914  -9.844  1.00  0.00     0.031 C 
ATOM     60  C   UNL     1     -14.543  10.054 -11.971  1.00  0.00     0.037 A 
BRANCH  47  61
ATOM     61  C   UNL     1      -9.932  11.146 -15.917  1.00  0.00     0.057 A 
ATOM     62  C   UNL     1      -9.708  10.471 -17.123  1.00  0.00     0.134 A 
ATOM     63  C   UNL     1      -9.758  12.535 -15.909  1.00  0.00     0.134 A 
ATOM     64  F   UNL     1      -9.845   9.138 -17.192  1.00  0.00    -0.206 F 
ATOM     65  C   UNL     1      -9.313  11.151 -18.276  1.00  0.00     0.040 A 
ATOM     66  C   UNL     1      -9.386  13.229 -17.061  1.00  0.00     0.040 A 
ATOM     67  F   UNL     1      -9.960  13.241 -14.786  1.00  0.00    -0.206 F 
ATOM     68  C   UNL     1      -9.160  12.536 -18.249  1.00  0.00     0.006 A 
ENDBRANCH  47  61
BRANCH  48  69
ATOM     69  C   UNL     1     -12.558   6.553  -7.463  1.00  0.00     0.057 A 
ATOM     70  C   UNL     1     -13.488   5.506  -7.431  1.00  0.00     0.134 A 
ATOM     71  C   UNL     1     -12.047   6.999  -6.239  1.00  0.00     0.134 A 
ATOM     72  F   UNL     1     -14.028   5.049  -8.570  1.00  0.00    -0.206 F 
ATOM     73  C   UNL     1     -13.917   4.945  -6.227  1.00  0.00     0.040 A 
ATOM     74  C   UNL     1     -12.449   6.431  -5.029  1.00  0.00     0.040 A 
ATOM     75  F   UNL     1     -11.148   7.994  -6.203  1.00  0.00    -0.206 F 
ATOM     76  C   UNL     1     -13.395   5.408  -5.020  1.00  0.00     0.006 A 
ENDBRANCH  48  69
BRANCH  60  77
ATOM     77  C   UNL     1     -15.960  10.537 -12.032  1.00  0.00     0.057 A 
ATOM     78  C   UNL     1     -16.427  11.558 -11.195  1.00  0.00     0.134 A 
ATOM     79  C   UNL     1     -16.854  10.003 -12.968  1.00  0.00     0.134 A 
ATOM     80  F   UNL     1     -15.622  12.100 -10.269  1.00  0.00    -0.206 F 
ATOM     81  C   UNL     1     -17.742  12.018 -11.276  1.00  0.00     0.040 A 
ATOM     82  C   UNL     1     -18.163  10.471 -13.074  1.00  0.00     0.040 A 
ATOM     83  F   UNL     1     -16.463   9.029 -13.804  1.00  0.00    -0.206 F 
ATOM     84  C   UNL     1     -18.612  11.479 -12.222  1.00  0.00     0.006 A 
ENDBRANCH  60  77
ENDBRANCH  34  35
ENDBRANCH  26  29
ENDBRANCH  24  25
ENDBRANCH  23  24
ENDBRANCH   1  23
TORSDOF 14
