REMARK SMILES Cc1[nH]c2ccccc2c1[C@H](C(=O)NCCCCNC(=O)c1ccc(-c2c3nc(c(-c4c(F)cccc4F)c4ccc([nH]4)c(-c4c(F)cccc4F)c4nc(c(-c5c(F)cccc5F)c5ccc2[nH]5)C=C4)C=C3)cc1)[NH+]1CCN(C(=O)c2ccco2)CC1
REMARK SMILES IDX 16 1 15 2 14 3 12 4 13 5 11 7 10 8 1 9 2 10 3 11 4 12 9 14
REMARK SMILES IDX 5 15 8 16 6 17 7 18 76 19 77 20 88 21 78 23 87 24 79 25
REMARK SMILES IDX 80 26 81 27 82 28 83 29 86 30 84 31 85 32 17 33 18 34 19 35
REMARK SMILES IDX 20 36 21 38 22 39 23 40 75 41 24 42 74 43 25 44 26 45 27 46
REMARK SMILES IDX 68 47 28 48 73 49 67 50 69 51 29 52 72 53 66 54 65 55 30 57
REMARK SMILES IDX 56 58 39 59 55 60 40 61 43 62 54 63 70 64 41 65 42 66 53 68
REMARK SMILES IDX 71 69 44 70 31 71 32 72 37 73 33 74 34 75 36 76 38 77 35 78
REMARK SMILES IDX 57 79 58 80 63 81 59 82 60 83 62 84 64 85 61 86 45 87 46 88
REMARK SMILES IDX 51 89 47 90 48 91 50 92 52 93 49 94
REMARK H PARENT 14 6 3 13 76 22 19 37 69 56 43 67
REMARK Flexibility Score: inf
ROOT
ATOM      1  C   UNL     1       1.138  -2.777  -2.932  1.00  0.00     0.023 C 
ENDROOT
BRANCH   1   2
ATOM      2  C   UNL     1       0.912  -2.768  -1.426  1.00  0.00     0.116 C 
BRANCH   2   3
ATOM      3  N   UNL     1       0.403  -1.497  -0.953  1.00  0.00    -0.351 N 
ATOM      4  C   UNL     1      -0.786  -1.210  -0.334  1.00  0.00     0.283 C 
ATOM      5  O   UNL     1      -0.970  -0.031  -0.008  1.00  0.00    -0.268 OA
ATOM      6  H   UNL     1       0.998  -0.726  -1.097  1.00  0.00     0.163 HD
BRANCH   4   7
ATOM      7  C   UNL     1      -1.854  -2.298  -0.024  1.00  0.00     0.308 C 
BRANCH   7   8
ATOM      8  C   UNL     1      -2.131  -3.193  -1.235  1.00  0.00     0.047 A 
ATOM      9  C   UNL     1      -2.448  -1.322  -3.062  1.00  0.00     0.065 C 
ATOM     10  C   UNL     1      -2.333  -2.712  -2.534  1.00  0.00     0.022 A 
ATOM     11  N   UNL     1      -2.316  -3.781  -3.390  1.00  0.00    -0.358 N 
ATOM     12  C   UNL     1      -2.189  -4.955  -2.695  1.00  0.00     0.046 A 
ATOM     13  H   UNL     1      -2.386  -3.715  -4.370  1.00  0.00     0.166 HD
ATOM     14  C   UNL     1      -2.181  -4.633  -1.336  1.00  0.00     0.009 A 
ATOM     15  C   UNL     1      -2.081  -6.265  -3.176  1.00  0.00     0.027 A 
ATOM     16  C   UNL     1      -2.146  -5.703  -0.416  1.00  0.00     0.011 A 
ATOM     17  C   UNL     1      -2.015  -7.297  -2.239  1.00  0.00     0.002 A 
ATOM     18  C   UNL     1      -2.071  -7.024  -0.877  1.00  0.00     0.001 A 
ENDBRANCH   7   8
BRANCH   7  19
ATOM     19  N   UNL     1      -1.639  -3.027   1.260  1.00  0.00    -0.318 N 
ATOM     20  C   UNL     1      -0.276  -3.446   1.627  1.00  0.00     0.285 C 
ATOM     21  C   UNL     1      -2.232  -2.342   2.423  1.00  0.00     0.285 C 
ATOM     22  H   UNL     1      -2.130  -3.892   1.030  1.00  0.00     0.349 HD
ATOM     23  C   UNL     1       0.647  -2.369   2.231  1.00  0.00     0.181 C 
ATOM     24  C   UNL     1      -1.402  -1.190   3.020  1.00  0.00     0.181 C 
ATOM     25  N   UNL     1       0.011  -1.526   3.238  1.00  0.00    -0.325 N 
ATOM     26  C   UNL     1       0.873  -0.698   3.982  1.00  0.00     0.289 C 
ATOM     27  O   UNL     1       2.080  -0.671   3.731  1.00  0.00    -0.265 OA
BRANCH  26  28
ATOM     28  C   UNL     1       0.304   0.082   5.064  1.00  0.00     0.191 A 
ATOM     29  C   UNL     1      -0.570  -0.244   6.087  1.00  0.00     0.056 A 
ATOM     30  O   UNL     1       0.711   1.381   5.219  1.00  0.00    -0.459 OA
ATOM     31  C   UNL     1      -0.725   0.917   6.881  1.00  0.00     0.043 A 
ATOM     32  C   UNL     1       0.074   1.878   6.310  1.00  0.00     0.196 A 
ENDBRANCH  26  28
ENDBRANCH   7  19
ENDBRANCH   4   7
ENDBRANCH   2   3
ENDBRANCH   1   2
BRANCH   1  33
ATOM     33  C   UNL     1       2.484  -2.204  -3.341  1.00  0.00     0.023 C 
BRANCH  33  34
ATOM     34  C   UNL     1       3.672  -2.899  -2.694  1.00  0.00     0.116 C 
BRANCH  34  35
ATOM     35  N   UNL     1       3.678  -4.347  -2.892  1.00  0.00    -0.352 N 
ATOM     36  C   UNL     1       4.747  -5.132  -3.264  1.00  0.00     0.251 C 
ATOM     37  H   UNL     1       2.824  -4.813  -2.742  1.00  0.00     0.163 HD
ATOM     38  O   UNL     1       4.638  -6.324  -3.494  1.00  0.00    -0.269 OA
BRANCH  36  39
ATOM     39  C   UNL     1       6.038  -4.440  -3.404  1.00  0.00     0.039 A 
ATOM     40  C   UNL     1       6.570  -4.260  -4.681  1.00  0.00     0.014 A 
ATOM     41  C   UNL     1       6.534  -3.751  -2.295  1.00  0.00     0.014 A 
ATOM     42  C   UNL     1       7.566  -3.303  -4.863  1.00  0.00     0.010 A 
ATOM     43  C   UNL     1       7.452  -2.735  -2.501  1.00  0.00     0.010 A 
ATOM     44  C   UNL     1       7.972  -2.498  -3.786  1.00  0.00    -0.014 A 
BRANCH  44  45
ATOM     45  C   UNL     1       8.948  -1.396  -3.960  1.00  0.00     0.031 A 
ATOM     46  C   UNL     1      10.231  -1.435  -3.180  1.00  0.00     0.074 A 
ATOM     47  C   UNL     1       8.638  -0.325  -4.717  1.00  0.00     0.049 A 
ATOM     48  N   UNL     1      11.147  -0.513  -3.047  1.00  0.00    -0.248 NA
ATOM     49  C   UNL     1      10.489  -2.658  -2.401  1.00  0.00     0.031 C 
ATOM     50  C   UNL     1       7.393  -0.138  -5.465  1.00  0.00     0.029 A 
ATOM     51  N   UNL     1       9.347   0.824  -4.966  1.00  0.00    -0.354 N 
ATOM     52  C   UNL     1      12.060  -1.026  -2.135  1.00  0.00     0.074 A 
ATOM     53  C   UNL     1      11.560  -2.313  -1.706  1.00  0.00     0.031 C 
ATOM     54  C   UNL     1       7.437   1.041  -6.108  1.00  0.00     0.029 A 
ATOM     55  C   UNL     1       8.694   1.710  -5.789  1.00  0.00     0.049 A 
ATOM     56  H   UNL     1      10.240   0.998  -4.589  1.00  0.00     0.167 HD
ATOM     57  C   UNL     1      13.227  -0.487  -1.716  1.00  0.00     0.037 A 
ATOM     58  C   UNL     1       9.069   2.926  -6.228  1.00  0.00     0.037 A 
ATOM     59  C   UNL     1      13.753   0.756  -2.205  1.00  0.00     0.049 A 
ATOM     60  C   UNL     1      10.397   3.481  -5.791  1.00  0.00     0.074 A 
ATOM     61  C   UNL     1      14.976   1.341  -1.933  1.00  0.00     0.029 A 
ATOM     62  N   UNL     1      13.086   1.600  -3.080  1.00  0.00    -0.354 N 
ATOM     63  N   UNL     1      11.288   2.952  -4.989  1.00  0.00    -0.248 NA
ATOM     64  C   UNL     1      10.770   4.802  -6.317  1.00  0.00     0.031 C 
ATOM     65  C   UNL     1      15.039   2.554  -2.626  1.00  0.00     0.029 A 
ATOM     66  C   UNL     1      13.867   2.709  -3.350  1.00  0.00     0.049 A 
ATOM     67  H   UNL     1      12.191   1.434  -3.454  1.00  0.00     0.167 HD
ATOM     68  C   UNL     1      12.333   3.864  -4.925  1.00  0.00     0.074 A 
ATOM     69  C   UNL     1      11.972   4.973  -5.785  1.00  0.00     0.031 C 
ATOM     70  C   UNL     1      13.485   3.795  -4.216  1.00  0.00     0.037 A 
BRANCH  57  71
ATOM     71  C   UNL     1      14.012  -1.256  -0.698  1.00  0.00     0.057 A 
ATOM     72  C   UNL     1      14.661  -2.457  -1.019  1.00  0.00     0.134 A 
ATOM     73  C   UNL     1      14.124  -0.792   0.618  1.00  0.00     0.134 A 
ATOM     74  F   UNL     1      14.576  -2.965  -2.258  1.00  0.00    -0.206 F 
ATOM     75  C   UNL     1      15.364  -3.185  -0.059  1.00  0.00     0.040 A 
ATOM     76  C   UNL     1      14.848  -1.498   1.580  1.00  0.00     0.040 A 
ATOM     77  F   UNL     1      13.529   0.351   0.990  1.00  0.00    -0.206 F 
ATOM     78  C   UNL     1      15.464  -2.702   1.244  1.00  0.00     0.006 A 
ENDBRANCH  57  71
BRANCH  58  79
ATOM     79  C   UNL     1       8.194   3.692  -7.151  1.00  0.00     0.057 A 
ATOM     80  C   UNL     1       8.537   3.849  -8.499  1.00  0.00     0.134 A 
ATOM     81  C   UNL     1       7.007   4.290  -6.714  1.00  0.00     0.134 A 
ATOM     82  F   UNL     1       9.672   3.315  -8.973  1.00  0.00    -0.206 F 
ATOM     83  C   UNL     1       7.741   4.588  -9.376  1.00  0.00     0.040 A 
ATOM     84  C   UNL     1       6.190   5.015  -7.584  1.00  0.00     0.040 A 
ATOM     85  F   UNL     1       6.619   4.170  -5.436  1.00  0.00    -0.206 F 
ATOM     86  C   UNL     1       6.560   5.170  -8.919  1.00  0.00     0.006 A 
ENDBRANCH  58  79
BRANCH  70  87
ATOM     87  C   UNL     1      14.443   4.938  -4.351  1.00  0.00     0.057 A 
ATOM     88  C   UNL     1      14.217   6.159  -3.707  1.00  0.00     0.134 A 
ATOM     89  C   UNL     1      15.630   4.792  -5.078  1.00  0.00     0.134 A 
ATOM     90  F   UNL     1      13.091   6.361  -3.006  1.00  0.00    -0.206 F 
ATOM     91  C   UNL     1      15.139   7.204  -3.788  1.00  0.00     0.040 A 
ATOM     92  C   UNL     1      16.568   5.822  -5.150  1.00  0.00     0.040 A 
ATOM     93  F   UNL     1      15.905   3.642  -5.711  1.00  0.00    -0.206 F 
ATOM     94  C   UNL     1      16.322   7.032  -4.505  1.00  0.00     0.006 A 
ENDBRANCH  70  87
ENDBRANCH  44  45
ENDBRANCH  36  39
ENDBRANCH  34  35
ENDBRANCH  33  34
ENDBRANCH   1  33
TORSDOF 14
