REMARK SMILES O=C(CS[C@H](C(=O)Nc1ccc(C(F)(F)F)cc1)c1ccccc1)NCCCCNC(=O)c1ccc(-c2c3nc(c(-c4c(F)cccc4F)c4ccc([nH]4)c(-c4c(F)cccc4F)c4nc(c(-c5c(F)cccc5F)c5ccc2[nH]5)C=C4)C=C3)cc1
REMARK SMILES IDX 26 1 25 2 1 3 2 4 3 6 4 7 5 8 19 9 20 10 24 11 21 12 23 13
REMARK SMILES IDX 22 14 6 15 7 16 8 17 9 19 10 20 18 21 11 22 17 23 12 24
REMARK SMILES IDX 13 25 14 26 15 27 16 28 27 29 28 30 29 31 30 32 31 33 32 35
REMARK SMILES IDX 33 36 34 37 86 38 35 39 85 40 36 41 37 42 38 43 79 44 39 45
REMARK SMILES IDX 84 46 78 47 80 48 40 49 83 50 77 51 76 52 41 54 67 55 50 56
REMARK SMILES IDX 66 57 51 58 54 59 65 60 81 61 52 62 53 63 64 65 82 66 55 67
REMARK SMILES IDX 42 68 43 69 48 70 44 71 45 72 47 73 49 74 46 75 68 76 69 77
REMARK SMILES IDX 74 78 70 79 71 80 73 81 75 82 72 83 56 84 57 85 62 86 58 87
REMARK SMILES IDX 59 88 61 89 63 90 60 91
REMARK H PARENT 25 5 8 18 30 34 80 53 54 64
REMARK Flexibility Score: inf
ROOT
ATOM      1  C   UNL     1      -0.545   0.679   0.666  1.00  0.00     0.116 C 
ENDROOT
BRANCH   1   2
ATOM      2  N   UNL     1       0.204   0.060  -0.415  1.00  0.00    -0.355 N 
ATOM      3  O   UNL     1      -1.048   1.099  -2.038  1.00  0.00    -0.274 OA
ATOM      4  C   UNL     1      -0.094   0.384  -1.738  1.00  0.00     0.230 C 
ATOM      5  H   UNL     1       0.919  -0.585  -0.214  1.00  0.00     0.163 HD
BRANCH   4   6
ATOM      6  C   UNL     1       0.835  -0.218  -2.780  1.00  0.00     0.170 C 
BRANCH   6   7
ATOM      7  S   UNL     1       1.691   1.007  -3.841  1.00  0.00    -0.134 SA
BRANCH   7   8
ATOM      8  C   UNL     1       2.836   1.938  -2.714  1.00  0.00     0.166 C 
BRANCH   8   9
ATOM      9  C   UNL     1       2.115   3.063  -1.992  1.00  0.00    -0.026 A 
ATOM     10  C   UNL     1       2.049   4.355  -2.540  1.00  0.00     0.005 A 
ATOM     11  C   UNL     1       1.552   2.880  -0.732  1.00  0.00     0.005 A 
ATOM     12  C   UNL     1       1.470   5.413  -1.826  1.00  0.00     0.000 A 
ATOM     13  C   UNL     1       0.945   3.923  -0.028  1.00  0.00     0.000 A 
ATOM     14  C   UNL     1       0.915   5.196  -0.569  1.00  0.00     0.000 A 
ENDBRANCH   8   9
BRANCH   8  15
ATOM     15  C   UNL     1       3.782   1.005  -1.890  1.00  0.00     0.242 C 
ATOM     16  O   UNL     1       3.477  -0.138  -1.535  1.00  0.00    -0.273 OA
ATOM     17  N   UNL     1       5.089   1.413  -1.662  1.00  0.00    -0.325 N 
ATOM     18  H   UNL     1       5.782   0.717  -1.721  1.00  0.00     0.169 HD
BRANCH  17  19
ATOM     19  C   UNL     1       5.529   2.709  -1.358  1.00  0.00     0.041 A 
ATOM     20  C   UNL     1       6.787   3.158  -1.742  1.00  0.00     0.027 A 
ATOM     21  C   UNL     1       4.737   3.549  -0.592  1.00  0.00     0.027 A 
ATOM     22  C   UNL     1       7.141   4.501  -1.525  1.00  0.00     0.015 A 
ATOM     23  C   UNL     1       5.044   4.891  -0.425  1.00  0.00     0.015 A 
ATOM     24  C   UNL     1       6.242   5.396  -0.919  1.00  0.00     0.056 A 
BRANCH  24  25
ATOM     25  C   UNL     1       6.549   6.862  -0.755  1.00  0.00     0.416 C 
ATOM     26  F   UNL     1       7.435   7.098   0.246  1.00  0.00    -0.166 F 
ATOM     27  F   UNL     1       7.074   7.423  -1.876  1.00  0.00    -0.166 F 
ATOM     28  F   UNL     1       5.445   7.604  -0.450  1.00  0.00    -0.166 F 
ENDBRANCH  24  25
ENDBRANCH  17  19
ENDBRANCH   8  15
ENDBRANCH   7   8
ENDBRANCH   6   7
ENDBRANCH   4   6
ENDBRANCH   1   2
BRANCH   1  29
ATOM     29  C   UNL     1       0.022   0.546   2.091  1.00  0.00     0.023 C 
BRANCH  29  30
ATOM     30  C   UNL     1       1.535   0.614   2.371  1.00  0.00     0.023 C 
BRANCH  30  31
ATOM     31  C   UNL     1       2.255   1.946   2.652  1.00  0.00     0.116 C 
BRANCH  31  32
ATOM     32  N   UNL     1       1.599   2.885   3.542  1.00  0.00    -0.352 N 
ATOM     33  C   UNL     1       2.163   3.908   4.279  1.00  0.00     0.251 C 
ATOM     34  H   UNL     1       0.624   2.779   3.633  1.00  0.00     0.163 HD
ATOM     35  O   UNL     1       1.451   4.614   4.993  1.00  0.00    -0.269 OA
BRANCH  33  36
ATOM     36  C   UNL     1       3.628   4.155   4.255  1.00  0.00     0.039 A 
ATOM     37  C   UNL     1       4.332   4.222   5.461  1.00  0.00     0.014 A 
ATOM     38  C   UNL     1       4.311   4.359   3.056  1.00  0.00     0.014 A 
ATOM     39  C   UNL     1       5.725   4.400   5.458  1.00  0.00     0.010 A 
ATOM     40  C   UNL     1       5.707   4.497   3.052  1.00  0.00     0.010 A 
ATOM     41  C   UNL     1       6.435   4.497   4.250  1.00  0.00    -0.014 A 
BRANCH  41  42
ATOM     42  C   UNL     1       7.929   4.490   4.221  1.00  0.00     0.031 A 
ATOM     43  C   UNL     1       8.726   5.673   3.736  1.00  0.00     0.074 A 
ATOM     44  C   UNL     1       8.583   3.361   4.566  1.00  0.00     0.049 A 
ATOM     45  N   UNL     1      10.027   5.804   3.623  1.00  0.00    -0.248 NA
ATOM     46  C   UNL     1       7.967   6.852   3.302  1.00  0.00     0.031 C 
ATOM     47  C   UNL     1       7.943   2.116   4.994  1.00  0.00     0.029 A 
ATOM     48  N   UNL     1       9.926   3.074   4.605  1.00  0.00    -0.354 N 
ATOM     49  C   UNL     1      10.242   7.072   3.095  1.00  0.00     0.074 A 
ATOM     50  C   UNL     1       8.934   7.653   2.873  1.00  0.00     0.031 C 
ATOM     51  C   UNL     1       8.892   1.211   5.281  1.00  0.00     0.029 A 
ATOM     52  C   UNL     1      10.205   1.795   5.024  1.00  0.00     0.049 A 
ATOM     53  H   UNL     1      10.623   3.723   4.355  1.00  0.00     0.167 HD
ATOM     54  C   UNL     1      11.415   7.702   2.831  1.00  0.00     0.037 A 
ATOM     55  C   UNL     1      11.380   1.157   5.186  1.00  0.00     0.037 A 
ATOM     56  C   UNL     1      12.722   7.136   3.069  1.00  0.00     0.049 A 
ATOM     57  C   UNL     1      12.668   1.879   4.898  1.00  0.00     0.074 A 
ATOM     58  C   UNL     1      13.962   7.733   2.907  1.00  0.00     0.029 A 
ATOM     59  N   UNL     1      12.960   5.844   3.511  1.00  0.00    -0.354 N 
ATOM     60  N   UNL     1      12.852   3.108   4.483  1.00  0.00    -0.248 NA
ATOM     61  C   UNL     1      13.912   1.125   5.109  1.00  0.00     0.031 C 
ATOM     62  C   UNL     1      14.950   6.786   3.201  1.00  0.00     0.029 A 
ATOM     63  C   UNL     1      14.325   5.617   3.600  1.00  0.00     0.049 A 
ATOM     64  H   UNL     1      12.262   5.184   3.729  1.00  0.00     0.167 HD
ATOM     65  C   UNL     1      14.229   3.284   4.416  1.00  0.00     0.074 A 
ATOM     66  C   UNL     1      14.833   2.041   4.845  1.00  0.00     0.031 C 
ATOM     67  C   UNL     1      14.927   4.381   4.033  1.00  0.00     0.037 A 
BRANCH  54  68
ATOM     68  C   UNL     1      11.352   9.090   2.255  1.00  0.00     0.057 A 
ATOM     69  C   UNL     1      10.912  10.185   3.010  1.00  0.00     0.134 A 
ATOM     70  C   UNL     1      11.802   9.349   0.952  1.00  0.00     0.134 A 
ATOM     71  F   UNL     1      10.470  10.011   4.265  1.00  0.00    -0.206 F 
ATOM     72  C   UNL     1      10.892  11.479   2.483  1.00  0.00     0.040 A 
ATOM     73  C   UNL     1      11.816  10.642   0.425  1.00  0.00     0.040 A 
ATOM     74  F   UNL     1      12.257   8.352   0.177  1.00  0.00    -0.206 F 
ATOM     75  C   UNL     1      11.352  11.711   1.189  1.00  0.00     0.006 A 
ENDBRANCH  54  68
BRANCH  55  76
ATOM     76  C   UNL     1      11.402  -0.245   5.678  1.00  0.00     0.057 A 
ATOM     77  C   UNL     1      11.888  -0.552   6.955  1.00  0.00     0.134 A 
ATOM     78  C   UNL     1      10.953  -1.308   4.886  1.00  0.00     0.134 A 
ATOM     79  F   UNL     1      12.351   0.421   7.753  1.00  0.00    -0.206 F 
ATOM     80  C   UNL     1      11.950  -1.867   7.417  1.00  0.00     0.040 A 
ATOM     81  C   UNL     1      10.982  -2.625   5.346  1.00  0.00     0.040 A 
ATOM     82  F   UNL     1      10.467  -1.079   3.656  1.00  0.00    -0.206 F 
ATOM     83  C   UNL     1      11.491  -2.908   6.612  1.00  0.00     0.006 A 
ENDBRANCH  55  76
BRANCH  67  84
ATOM     84  C   UNL     1      16.426   4.305   4.097  1.00  0.00     0.057 A 
ATOM     85  C   UNL     1      17.170   3.523   3.203  1.00  0.00     0.134 A 
ATOM     86  C   UNL     1      17.138   5.048   5.047  1.00  0.00     0.134 A 
ATOM     87  F   UNL     1      16.551   2.775   2.276  1.00  0.00    -0.206 F 
ATOM     88  C   UNL     1      18.564   3.465   3.267  1.00  0.00     0.040 A 
ATOM     89  C   UNL     1      18.533   5.021   5.103  1.00  0.00     0.040 A 
ATOM     90  F   UNL     1      16.491   5.824   5.930  1.00  0.00    -0.206 F 
ATOM     91  C   UNL     1      19.249   4.221   4.216  1.00  0.00     0.006 A 
ENDBRANCH  67  84
ENDBRANCH  41  42
ENDBRANCH  33  36
ENDBRANCH  31  32
ENDBRANCH  30  31
ENDBRANCH  29  30
ENDBRANCH   1  29
TORSDOF 17
