REMARK SMILES CC(C)Cc1ccc([C@H](CC(=O)NCCCCNC(=O)c2ccc(-c3c4nc(c(-c5c(F)cccc5F)c5ccc([nH]5)c(-c5c(F)cccc5F)c5nc(c(-c6c(F)cccc6F)c6ccc3[nH]6)C=C5)C=C4)cc2)C(F)(F)F)cc1
REMARK SMILES IDX 14 1 13 2 11 3 12 4 10 6 9 7 8 8 5 9 6 10 80 11 7 12 79 13
REMARK SMILES IDX 4 14 2 15 1 16 3 17 75 18 76 19 77 20 78 21 15 22 16 23
REMARK SMILES IDX 17 24 18 25 19 26 20 28 21 29 22 30 74 31 23 32 73 33 24 34
REMARK SMILES IDX 25 35 26 36 67 37 27 38 72 39 66 40 68 41 28 42 71 43 65 44
REMARK SMILES IDX 64 45 29 47 55 48 38 49 54 50 39 51 42 52 53 53 69 54 40 55
REMARK SMILES IDX 41 56 52 58 70 59 43 60 30 61 31 62 36 63 32 64 33 65 35 66
REMARK SMILES IDX 37 67 34 68 56 69 57 70 62 71 58 72 59 73 61 74 63 75 60 76
REMARK SMILES IDX 44 77 45 78 50 79 46 80 47 81 49 82 51 83 48 84
REMARK H PARENT 13 5 18 27 68 46 42 57
REMARK Flexibility Score: inf
ROOT
ATOM      1  C   UNL     1      -3.854   3.058   0.983  1.00  0.00     0.116 C 
ENDROOT
BRANCH   1   2
ATOM      2  N   UNL     1      -3.756   2.037  -0.038  1.00  0.00    -0.356 N 
ATOM      3  C   UNL     1      -3.005   1.976  -1.169  1.00  0.00     0.220 C 
ATOM      4  O   UNL     1      -3.149   0.985  -1.888  1.00  0.00    -0.275 OA
ATOM      5  H   UNL     1      -4.331   1.252   0.112  1.00  0.00     0.163 HD
BRANCH   3   6
ATOM      6  C   UNL     1      -1.957   3.022  -1.511  1.00  0.00     0.117 C 
BRANCH   6   7
ATOM      7  C   UNL     1      -2.488   4.441  -1.822  1.00  0.00     0.134 C 
BRANCH   7   8
ATOM      8  C   UNL     1      -2.238   5.508  -0.746  1.00  0.00    -0.035 A 
ATOM      9  C   UNL     1      -2.205   7.317   1.452  1.00  0.00    -0.048 A 
ATOM     10  C   UNL     1      -3.046   7.533   0.360  1.00  0.00     0.004 A 
ATOM     11  C   UNL     1      -1.304   6.247   1.378  1.00  0.00     0.004 A 
ATOM     12  C   UNL     1      -3.079   6.632  -0.710  1.00  0.00     0.004 A 
ATOM     13  C   UNL     1      -1.292   5.377   0.281  1.00  0.00     0.004 A 
BRANCH   9  14
ATOM     14  C   UNL     1      -2.218   8.143   2.722  1.00  0.00     0.038 C 
BRANCH  14  15
ATOM     15  C   UNL     1      -3.132   9.384   2.799  1.00  0.00    -0.013 C 
ATOM     16  C   UNL     1      -4.615   9.024   2.946  1.00  0.00     0.008 C 
ATOM     17  C   UNL     1      -2.723  10.247   4.000  1.00  0.00     0.008 C 
ENDBRANCH  14  15
ENDBRANCH   9  14
ENDBRANCH   7   8
BRANCH   7  18
ATOM     18  C   UNL     1      -1.976   4.902  -3.189  1.00  0.00     0.396 C 
ATOM     19  F   UNL     1      -2.354   4.035  -4.157  1.00  0.00    -0.170 F 
ATOM     20  F   UNL     1      -2.476   6.109  -3.538  1.00  0.00    -0.170 F 
ATOM     21  F   UNL     1      -0.628   4.985  -3.219  1.00  0.00    -0.170 F 
ENDBRANCH   7  18
ENDBRANCH   6   7
ENDBRANCH   3   6
ENDBRANCH   1   2
BRANCH   1  22
ATOM     22  C   UNL     1      -5.304   3.408   1.302  1.00  0.00     0.023 C 
BRANCH  22  23
ATOM     23  C   UNL     1      -6.027   2.371   2.157  1.00  0.00     0.023 C 
BRANCH  23  24
ATOM     24  C   UNL     1      -5.399   2.114   3.523  1.00  0.00     0.116 C 
BRANCH  24  25
ATOM     25  N   UNL     1      -5.327   3.305   4.357  1.00  0.00    -0.352 N 
ATOM     26  C   UNL     1      -5.700   3.464   5.671  1.00  0.00     0.251 C 
ATOM     27  H   UNL     1      -4.962   4.107   3.920  1.00  0.00     0.163 HD
ATOM     28  O   UNL     1      -5.684   4.577   6.190  1.00  0.00    -0.269 OA
BRANCH  26  29
ATOM     29  C   UNL     1      -6.156   2.292   6.446  1.00  0.00     0.039 A 
ATOM     30  C   UNL     1      -7.338   2.387   7.184  1.00  0.00     0.014 A 
ATOM     31  C   UNL     1      -5.439   1.094   6.415  1.00  0.00     0.014 A 
ATOM     32  C   UNL     1      -7.844   1.255   7.825  1.00  0.00     0.010 A 
ATOM     33  C   UNL     1      -5.984  -0.051   6.987  1.00  0.00     0.010 A 
ATOM     34  C   UNL     1      -7.194   0.017   7.695  1.00  0.00    -0.014 A 
BRANCH  34  35
ATOM     35  C   UNL     1      -7.765  -1.221   8.283  1.00  0.00     0.031 A 
ATOM     36  C   UNL     1      -7.016  -1.966   9.353  1.00  0.00     0.074 A 
ATOM     37  C   UNL     1      -8.920  -1.718   7.800  1.00  0.00     0.049 A 
ATOM     38  N   UNL     1      -7.311  -3.102   9.931  1.00  0.00    -0.248 NA
ATOM     39  C   UNL     1      -5.751  -1.369   9.811  1.00  0.00     0.031 C 
ATOM     40  C   UNL     1      -9.717  -1.121   6.726  1.00  0.00     0.029 A 
ATOM     41  N   UNL     1      -9.620  -2.848   8.142  1.00  0.00    -0.354 N 
ATOM     42  C   UNL     1      -6.264  -3.363  10.806  1.00  0.00     0.074 A 
ATOM     43  C   UNL     1      -5.301  -2.296  10.642  1.00  0.00     0.031 C 
ATOM     44  C   UNL     1     -10.805  -1.878   6.513  1.00  0.00     0.029 A 
ATOM     45  C   UNL     1     -10.766  -3.031   7.407  1.00  0.00     0.049 A 
ATOM     46  H   UNL     1      -9.328  -3.470   8.848  1.00  0.00     0.167 HD
ATOM     47  C   UNL     1      -6.128  -4.385  11.683  1.00  0.00     0.037 A 
ATOM     48  C   UNL     1     -11.680  -4.019   7.445  1.00  0.00     0.037 A 
ATOM     49  C   UNL     1      -7.099  -5.432  11.863  1.00  0.00     0.049 A 
ATOM     50  C   UNL     1     -11.508  -5.143   8.428  1.00  0.00     0.074 A 
ATOM     51  C   UNL     1      -7.085  -6.475  12.773  1.00  0.00     0.029 A 
ATOM     52  N   UNL     1      -8.259  -5.570  11.115  1.00  0.00    -0.354 N 
ATOM     53  N   UNL     1     -10.549  -5.339   9.300  1.00  0.00    -0.248 NA
ATOM     54  C   UNL     1     -12.548  -6.181   8.436  1.00  0.00     0.031 C 
ATOM     55  C   UNL     1      -8.214  -7.268  12.547  1.00  0.00     0.029 A 
ATOM     56  C   UNL     1      -8.957  -6.693  11.528  1.00  0.00     0.049 A 
ATOM     57  H   UNL     1      -8.544  -4.959  10.397  1.00  0.00     0.167 HD
ATOM     58  C   UNL     1     -10.883  -6.505   9.978  1.00  0.00     0.074 A 
ATOM     59  C   UNL     1     -12.140  -6.965   9.424  1.00  0.00     0.031 C 
ATOM     60  C   UNL     1     -10.209  -7.136  10.970  1.00  0.00     0.037 A 
BRANCH  47  61
ATOM     61  C   UNL     1      -4.880  -4.415  12.518  1.00  0.00     0.057 A 
ATOM     62  C   UNL     1      -4.648  -3.478  13.534  1.00  0.00     0.134 A 
ATOM     63  C   UNL     1      -3.909  -5.404  12.319  1.00  0.00     0.134 A 
ATOM     64  F   UNL     1      -5.532  -2.497  13.769  1.00  0.00    -0.206 F 
ATOM     65  C   UNL     1      -3.482  -3.505  14.300  1.00  0.00     0.040 A 
ATOM     66  C   UNL     1      -2.752  -5.459  13.097  1.00  0.00     0.040 A 
ATOM     67  F   UNL     1      -4.071  -6.336  11.367  1.00  0.00    -0.206 F 
ATOM     68  C   UNL     1      -2.532  -4.502  14.086  1.00  0.00     0.006 A 
ENDBRANCH  47  61
BRANCH  48  69
ATOM     69  C   UNL     1     -12.856  -3.976   6.540  1.00  0.00     0.057 A 
ATOM     70  C   UNL     1     -14.138  -3.719   7.038  1.00  0.00     0.134 A 
ATOM     71  C   UNL     1     -12.729  -4.189   5.163  1.00  0.00     0.134 A 
ATOM     72  F   UNL     1     -14.325  -3.525   8.352  1.00  0.00    -0.206 F 
ATOM     73  C   UNL     1     -15.256  -3.692   6.202  1.00  0.00     0.040 A 
ATOM     74  C   UNL     1     -13.834  -4.141   4.311  1.00  0.00     0.040 A 
ATOM     75  F   UNL     1     -11.526  -4.433   4.623  1.00  0.00    -0.206 F 
ATOM     76  C   UNL     1     -15.104  -3.898   4.833  1.00  0.00     0.006 A 
ENDBRANCH  48  69
BRANCH  60  77
ATOM     77  C   UNL     1     -10.834  -8.374  11.544  1.00  0.00     0.057 A 
ATOM     78  C   UNL     1     -10.866  -9.582  10.837  1.00  0.00     0.134 A 
ATOM     79  C   UNL     1     -11.373  -8.366  12.837  1.00  0.00     0.134 A 
ATOM     80  F   UNL     1     -10.378  -9.653   9.589  1.00  0.00    -0.206 F 
ATOM     81  C   UNL     1     -11.432 -10.733  11.387  1.00  0.00     0.040 A 
ATOM     82  C   UNL     1     -11.918  -9.516  13.408  1.00  0.00     0.040 A 
ATOM     83  F   UNL     1     -11.366  -7.243  13.571  1.00  0.00    -0.206 F 
ATOM     84  C   UNL     1     -11.954 -10.704  12.680  1.00  0.00     0.006 A 
ENDBRANCH  60  77
ENDBRANCH  34  35
ENDBRANCH  26  29
ENDBRANCH  24  25
ENDBRANCH  23  24
ENDBRANCH  22  23
ENDBRANCH   1  22
TORSDOF 16
