REMARK SMILES O=C(NCCCCNC(=O)c1ccc(S(=O)(=O)Nc2ccccc2I)cc1)c1ccc(-c2c3nc(c(-c4c(F)cccc4F)c4ccc([nH]4)c(-c4c(F)cccc4F)c4nc(c(-c5c(F)cccc5F)c5ccc2[nH]5)C=C4)C=C3)cc1
REMARK SMILES IDX 6 1 5 2 4 3 3 4 1 5 2 6 28 8 29 9 81 10 30 11 80 12 31 13
REMARK SMILES IDX 32 14 33 15 74 16 34 17 79 18 73 19 75 20 35 21 78 22 72 23
REMARK SMILES IDX 71 24 36 26 62 27 45 28 61 29 46 30 49 31 60 32 76 33 47 34
REMARK SMILES IDX 48 35 59 37 77 38 50 39 37 40 38 41 43 42 39 43 40 44 42 45
REMARK SMILES IDX 44 46 41 47 63 48 64 49 69 50 65 51 66 52 68 53 70 54 67 55
REMARK SMILES IDX 51 56 52 57 57 58 53 59 54 60 56 61 58 62 55 63 7 64 8 65
REMARK SMILES IDX 9 66 10 68 11 69 12 70 27 71 13 72 26 73 14 74 15 75 16 76
REMARK SMILES IDX 17 77 18 78 19 80 20 81 24 82 21 83 23 84 25 85 22 86
REMARK H PARENT 3 7 75 25 49 36 8 67 18 79
REMARK Flexibility Score: inf
ROOT
ATOM      1  C   UNL     1       4.456  -3.631  -0.871  1.00  0.00     0.023 C 
ENDROOT
BRANCH   1   2
ATOM      2  C   UNL     1       4.894  -2.451  -0.019  1.00  0.00     0.023 C 
BRANCH   2   3
ATOM      3  C   UNL     1       4.543  -1.082  -0.583  1.00  0.00     0.116 C 
BRANCH   3   4
ATOM      4  N   UNL     1       3.108  -0.849  -0.707  1.00  0.00    -0.352 N 
ATOM      5  O   UNL     1       1.095   0.063  -0.230  1.00  0.00    -0.269 OA
ATOM      6  C   UNL     1       2.312   0.086  -0.084  1.00  0.00     0.251 C 
ATOM      7  H   UNL     1       2.638  -1.451  -1.330  1.00  0.00     0.163 HD
BRANCH   6   8
ATOM      8  C   UNL     1       2.934   1.092   0.802  1.00  0.00     0.039 A 
ATOM      9  C   UNL     1       4.084   1.768   0.396  1.00  0.00     0.014 A 
ATOM     10  C   UNL     1       2.403   1.310   2.076  1.00  0.00     0.014 A 
ATOM     11  C   UNL     1       4.826   2.472   1.333  1.00  0.00     0.010 A 
ATOM     12  C   UNL     1       3.092   2.123   2.982  1.00  0.00     0.010 A 
ATOM     13  C   UNL     1       4.343   2.659   2.639  1.00  0.00    -0.014 A 
BRANCH  13  14
ATOM     14  C   UNL     1       5.167   3.429   3.608  1.00  0.00     0.031 A 
ATOM     15  C   UNL     1       5.692   2.795   4.869  1.00  0.00     0.074 A 
ATOM     16  C   UNL     1       5.495   4.702   3.309  1.00  0.00     0.049 A 
ATOM     17  N   UNL     1       6.467   3.312   5.790  1.00  0.00    -0.248 NA
ATOM     18  C   UNL     1       5.292   1.405   5.140  1.00  0.00     0.031 C 
ATOM     19  C   UNL     1       5.043   5.431   2.121  1.00  0.00     0.029 A 
ATOM     20  N   UNL     1       6.305   5.597   3.958  1.00  0.00    -0.354 N 
ATOM     21  C   UNL     1       6.622   2.328   6.759  1.00  0.00     0.074 A 
ATOM     22  C   UNL     1       5.841   1.189   6.327  1.00  0.00     0.031 C 
ATOM     23  C   UNL     1       5.634   6.633   2.091  1.00  0.00     0.029 A 
ATOM     24  C   UNL     1       6.448   6.789   3.290  1.00  0.00     0.049 A 
ATOM     25  H   UNL     1       6.743   5.404   4.818  1.00  0.00     0.167 HD
ATOM     26  C   UNL     1       7.354   2.368   7.900  1.00  0.00     0.037 A 
ATOM     27  C   UNL     1       7.147   7.892   3.609  1.00  0.00     0.037 A 
ATOM     28  C   UNL     1       8.153   3.494   8.313  1.00  0.00     0.049 A 
ATOM     29  C   UNL     1       7.941   7.910   4.882  1.00  0.00     0.074 A 
ATOM     30  C   UNL     1       8.961   3.615   9.431  1.00  0.00     0.029 A 
ATOM     31  N   UNL     1       8.245   4.695   7.625  1.00  0.00    -0.354 N 
ATOM     32  N   UNL     1       8.100   6.960   5.770  1.00  0.00    -0.248 NA
ATOM     33  C   UNL     1       8.650   9.157   5.196  1.00  0.00     0.031 C 
ATOM     34  C   UNL     1       9.504   4.904   9.444  1.00  0.00     0.029 A 
ATOM     35  C   UNL     1       9.079   5.568   8.305  1.00  0.00     0.049 A 
ATOM     36  H   UNL     1       7.786   4.897   6.777  1.00  0.00     0.167 HD
ATOM     37  C   UNL     1       8.949   7.483   6.736  1.00  0.00     0.074 A 
ATOM     38  C   UNL     1       9.283   8.828   6.313  1.00  0.00     0.031 C 
ATOM     39  C   UNL     1       9.410   6.902   7.870  1.00  0.00     0.037 A 
BRANCH  26  40
ATOM     40  C   UNL     1       7.309   1.166   8.801  1.00  0.00     0.057 A 
ATOM     41  C   UNL     1       7.931  -0.043   8.464  1.00  0.00     0.134 A 
ATOM     42  C   UNL     1       6.671   1.235  10.047  1.00  0.00     0.134 A 
ATOM     43  F   UNL     1       8.551  -0.183   7.283  1.00  0.00    -0.206 F 
ATOM     44  C   UNL     1       7.900  -1.146   9.322  1.00  0.00     0.040 A 
ATOM     45  C   UNL     1       6.655   0.149  10.924  1.00  0.00     0.040 A 
ATOM     46  F   UNL     1       6.062   2.365  10.438  1.00  0.00    -0.206 F 
ATOM     47  C   UNL     1       7.266  -1.048  10.560  1.00  0.00     0.006 A 
ENDBRANCH  26  40
BRANCH  27  48
ATOM     48  C   UNL     1       7.130   9.066   2.702  1.00  0.00     0.057 A 
ATOM     49  C   UNL     1       8.273   9.449   1.993  1.00  0.00     0.134 A 
ATOM     50  C   UNL     1       5.969   9.828   2.517  1.00  0.00     0.134 A 
ATOM     51  F   UNL     1       9.419   8.768   2.139  1.00  0.00    -0.206 F 
ATOM     52  C   UNL     1       8.269  10.559   1.146  1.00  0.00     0.040 A 
ATOM     53  C   UNL     1       5.943  10.921   1.652  1.00  0.00     0.040 A 
ATOM     54  F   UNL     1       4.837   9.504   3.160  1.00  0.00    -0.206 F 
ATOM     55  C   UNL     1       7.098  11.294   0.970  1.00  0.00     0.006 A 
ENDBRANCH  27  48
BRANCH  39  56
ATOM     56  C   UNL     1      10.363   7.704   8.706  1.00  0.00     0.057 A 
ATOM     57  C   UNL     1       9.945   8.816   9.449  1.00  0.00     0.134 A 
ATOM     58  C   UNL     1      11.716   7.351   8.775  1.00  0.00     0.134 A 
ATOM     59  F   UNL     1       8.664   9.215   9.413  1.00  0.00    -0.206 F 
ATOM     60  C   UNL     1      10.846   9.567  10.206  1.00  0.00     0.040 A 
ATOM     61  C   UNL     1      12.621   8.077   9.551  1.00  0.00     0.040 A 
ATOM     62  F   UNL     1      12.181   6.293   8.094  1.00  0.00    -0.206 F 
ATOM     63  C   UNL     1      12.188   9.194  10.262  1.00  0.00     0.006 A 
ENDBRANCH  39  56
ENDBRANCH  13  14
ENDBRANCH   6   8
ENDBRANCH   3   4
ENDBRANCH   2   3
ENDBRANCH   1   2
BRANCH   1  64
ATOM     64  C   UNL     1       4.893  -3.574  -2.325  1.00  0.00     0.116 C 
BRANCH  64  65
ATOM     65  N   UNL     1       6.337  -3.602  -2.527  1.00  0.00    -0.352 N 
ATOM     66  C   UNL     1       7.061  -4.313  -3.466  1.00  0.00     0.251 C 
ATOM     67  H   UNL     1       6.866  -3.041  -1.914  1.00  0.00     0.163 HD
ATOM     68  O   UNL     1       8.287  -4.304  -3.450  1.00  0.00    -0.269 OA
BRANCH  66  69
ATOM     69  C   UNL     1       6.335  -5.114  -4.479  1.00  0.00     0.039 A 
ATOM     70  C   UNL     1       6.703  -6.436  -4.745  1.00  0.00     0.015 A 
ATOM     71  C   UNL     1       5.202  -4.576  -5.080  1.00  0.00     0.015 A 
ATOM     72  C   UNL     1       5.885  -7.235  -5.561  1.00  0.00     0.023 A 
ATOM     73  C   UNL     1       4.318  -5.415  -5.734  1.00  0.00     0.023 A 
ATOM     74  C   UNL     1       4.671  -6.724  -6.041  1.00  0.00     0.087 A 
BRANCH  74  75
ATOM     75  S   UNL     1       3.536  -7.783  -6.911  1.00  0.00     0.261 S 
ATOM     76  O   UNL     1       4.300  -8.896  -7.442  1.00  0.00    -0.201 OA
ATOM     77  O   UNL     1       2.430  -8.023  -6.010  1.00  0.00    -0.201 OA
BRANCH  75  78
ATOM     78  N   UNL     1       2.869  -6.998  -8.278  1.00  0.00    -0.279 N 
ATOM     79  H   UNL     1       2.685  -7.512  -9.098  1.00  0.00     0.180 HD
BRANCH  78  80
ATOM     80  C   UNL     1       2.575  -5.590  -8.235  1.00  0.00     0.062 A 
ATOM     81  C   UNL     1       1.401  -5.143  -7.606  1.00  0.00     0.028 A 
ATOM     82  C   UNL     1       3.509  -4.645  -8.698  1.00  0.00     0.037 A 
ATOM     83  C   UNL     1       1.186  -3.773  -7.408  1.00  0.00     0.002 A 
ATOM     84  C   UNL     1       3.292  -3.278  -8.487  1.00  0.00     0.017 A 
ATOM     85  I   UNL     1       5.278  -5.207  -9.676  1.00  0.00    -0.042 I 
ATOM     86  C   UNL     1       2.137  -2.845  -7.834  1.00  0.00     0.001 A 
ENDBRANCH  78  80
ENDBRANCH  75  78
ENDBRANCH  74  75
ENDBRANCH  66  69
ENDBRANCH  64  65
ENDBRANCH   1  64
TORSDOF 14
