REMARK SMILES C[C@@H](C(=O)NCCCCNC(=O)c1ccc(-c2c3nc(c(-c4c(F)cccc4F)c4ccc([nH]4)c(-c4c(F)cccc4F)c4nc(c(-c5c(F)cccc5F)c5ccc2[nH]5)C=C4)C=C3)cc1)N(C)c1ccc(C(N)=O)nn1
REMARK SMILES IDX 7 1 6 2 5 3 3 4 4 5 2 7 1 8 67 9 68 10 69 11 70 12 77 13
REMARK SMILES IDX 71 14 76 15 72 16 73 17 74 18 75 19 8 22 9 23 10 24 11 25
REMARK SMILES IDX 12 27 13 28 14 29 66 30 15 31 65 32 16 33 17 34 18 35 59 36
REMARK SMILES IDX 19 37 64 38 58 39 60 40 20 41 63 42 57 43 56 44 21 46 47 47
REMARK SMILES IDX 30 48 46 49 31 50 34 51 45 52 61 53 32 54 33 55 44 57 62 58
REMARK SMILES IDX 35 59 22 60 23 61 28 62 24 63 25 64 27 65 29 66 26 67 48 68
REMARK SMILES IDX 49 69 54 70 50 71 51 72 53 73 55 74 52 75 36 76 37 77 42 78
REMARK SMILES IDX 38 79 39 80 41 81 43 82 40 83
REMARK H PARENT 5 6 74 20 74 21 10 26 60 45 34 56
REMARK Flexibility Score: inf
ROOT
ATOM      1  C   UNL     1       4.265  -0.718  -0.963  1.00  0.00     0.023 C 
ENDROOT
BRANCH   1   2
ATOM      2  C   UNL     1       3.440   0.133  -1.929  1.00  0.00     0.116 C 
BRANCH   2   3
ATOM      3  N   UNL     1       2.334  -0.621  -2.480  1.00  0.00    -0.354 N 
ATOM      4  C   UNL     1       1.006  -0.617  -2.151  1.00  0.00     0.242 C 
ATOM      5  O   UNL     1       0.294  -1.392  -2.795  1.00  0.00    -0.273 OA
ATOM      6  H   UNL     1       2.577  -1.236  -3.209  1.00  0.00     0.163 HD
BRANCH   4   7
ATOM      7  C   UNL     1       0.460   0.371  -1.075  1.00  0.00     0.169 C 
ATOM      8  C   UNL     1       1.093   0.201   0.306  1.00  0.00     0.042 C 
BRANCH   7   9
ATOM      9  N   UNL     1      -1.029   0.380  -0.985  1.00  0.00    -0.346 N 
ATOM     10  C   UNL     1      -1.726   1.361  -1.813  1.00  0.00     0.146 C 
BRANCH   9  11
ATOM     11  C   UNL     1      -1.749  -0.801  -0.773  1.00  0.00     0.151 A 
ATOM     12  C   UNL     1      -1.448  -1.665   0.276  1.00  0.00     0.051 A 
ATOM     13  N   UNL     1      -2.802  -1.115  -1.569  1.00  0.00    -0.132 NA
ATOM     14  C   UNL     1      -2.158  -2.851   0.458  1.00  0.00     0.040 A 
ATOM     15  N   UNL     1      -3.516  -2.294  -1.415  1.00  0.00    -0.143 NA
ATOM     16  C   UNL     1      -3.176  -3.141  -0.423  1.00  0.00     0.150 A 
BRANCH  16  17
ATOM     17  C   UNL     1      -3.952  -4.403  -0.294  1.00  0.00     0.269 C 
ATOM     18  N   UNL     1      -4.924  -4.621  -1.232  1.00  0.00    -0.364 N 
ATOM     19  O   UNL     1      -3.736  -5.213   0.602  1.00  0.00    -0.268 OA
ATOM     20  H   UNL     1      -5.081  -3.958  -1.942  1.00  0.00     0.160 HD
ATOM     21  H   UNL     1      -5.467  -5.442  -1.196  1.00  0.00     0.160 HD
ENDBRANCH  16  17
ENDBRANCH   9  11
ENDBRANCH   7   9
ENDBRANCH   4   7
ENDBRANCH   2   3
ENDBRANCH   1   2
BRANCH   1  22
ATOM     22  C   UNL     1       5.066  -1.839  -1.631  1.00  0.00     0.023 C 
BRANCH  22  23
ATOM     23  C   UNL     1       6.065  -1.384  -2.691  1.00  0.00     0.116 C 
BRANCH  23  24
ATOM     24  N   UNL     1       7.059  -0.455  -2.174  1.00  0.00    -0.352 N 
ATOM     25  C   UNL     1       8.423  -0.461  -2.341  1.00  0.00     0.251 C 
ATOM     26  H   UNL     1       6.703   0.283  -1.626  1.00  0.00     0.163 HD
ATOM     27  O   UNL     1       9.126   0.330  -1.722  1.00  0.00    -0.269 OA
BRANCH  25  28
ATOM     28  C   UNL     1       9.042  -1.458  -3.240  1.00  0.00     0.039 A 
ATOM     29  C   UNL     1      10.105  -2.226  -2.760  1.00  0.00     0.014 A 
ATOM     30  C   UNL     1       8.541  -1.668  -4.527  1.00  0.00     0.014 A 
ATOM     31  C   UNL     1      10.601  -3.276  -3.536  1.00  0.00     0.010 A 
ATOM     32  C   UNL     1       8.992  -2.754  -5.272  1.00  0.00     0.010 A 
ATOM     33  C   UNL     1      10.008  -3.585  -4.771  1.00  0.00    -0.014 A 
BRANCH  33  34
ATOM     34  C   UNL     1      10.376  -4.818  -5.515  1.00  0.00     0.031 A 
ATOM     35  C   UNL     1      10.997  -4.732  -6.880  1.00  0.00     0.074 A 
ATOM     36  C   UNL     1      10.056  -6.019  -4.991  1.00  0.00     0.049 A 
ATOM     37  N   UNL     1      11.281  -5.696  -7.717  1.00  0.00    -0.248 NA
ATOM     38  C   UNL     1      11.323  -3.387  -7.379  1.00  0.00     0.031 C 
ATOM     39  C   UNL     1       9.407  -6.232  -3.695  1.00  0.00     0.029 A 
ATOM     40  N   UNL     1      10.210  -7.288  -5.494  1.00  0.00    -0.354 N 
ATOM     41  C   UNL     1      11.804  -5.078  -8.845  1.00  0.00     0.074 A 
ATOM     42  C   UNL     1      11.769  -3.652  -8.600  1.00  0.00     0.031 C 
ATOM     43  C   UNL     1       9.223  -7.548  -3.504  1.00  0.00     0.029 A 
ATOM     44  C   UNL     1       9.693  -8.270  -4.681  1.00  0.00     0.049 A 
ATOM     45  H   UNL     1      10.649  -7.477  -6.354  1.00  0.00     0.167 HD
ATOM     46  C   UNL     1      12.281  -5.651  -9.975  1.00  0.00     0.037 A 
ATOM     47  C   UNL     1       9.581  -9.598  -4.873  1.00  0.00     0.037 A 
ATOM     48  C   UNL     1      12.336  -7.072 -10.204  1.00  0.00     0.049 A 
ATOM     49  C   UNL     1      10.095 -10.200  -6.154  1.00  0.00     0.074 A 
ATOM     50  C   UNL     1      12.886  -7.747 -11.280  1.00  0.00     0.029 A 
ATOM     51  N   UNL     1      11.815  -8.033  -9.353  1.00  0.00    -0.354 N 
ATOM     52  N   UNL     1      10.677  -9.610  -7.169  1.00  0.00    -0.248 NA
ATOM     53  C   UNL     1       9.933 -11.652  -6.318  1.00  0.00     0.031 C 
ATOM     54  C   UNL     1      12.640  -9.112 -11.113  1.00  0.00     0.029 A 
ATOM     55  C   UNL     1      11.989  -9.293  -9.904  1.00  0.00     0.049 A 
ATOM     56  H   UNL     1      11.386  -7.849  -8.486  1.00  0.00     0.167 HD
ATOM     57  C   UNL     1      10.968 -10.618  -8.079  1.00  0.00     0.074 A 
ATOM     58  C   UNL     1      10.523 -11.860  -7.486  1.00  0.00     0.031 C 
ATOM     59  C   UNL     1      11.544 -10.522  -9.301  1.00  0.00     0.037 A 
BRANCH  46  60
ATOM     60  C   UNL     1      12.785  -4.753 -11.066  1.00  0.00     0.057 A 
ATOM     61  C   UNL     1      13.998  -4.064 -10.955  1.00  0.00     0.134 A 
ATOM     62  C   UNL     1      12.096  -4.660 -12.283  1.00  0.00     0.134 A 
ATOM     63  F   UNL     1      14.703  -4.107  -9.815  1.00  0.00    -0.206 F 
ATOM     64  C   UNL     1      14.506  -3.308 -12.014  1.00  0.00     0.040 A 
ATOM     65  C   UNL     1      12.605  -3.927 -13.356  1.00  0.00     0.040 A 
ATOM     66  F   UNL     1      10.931  -5.302 -12.457  1.00  0.00    -0.206 F 
ATOM     67  C   UNL     1      13.815  -3.249 -13.222  1.00  0.00     0.006 A 
ENDBRANCH  46  60
BRANCH  47  68
ATOM     68  C   UNL     1       8.929 -10.457  -3.850  1.00  0.00     0.057 A 
ATOM     69  C   UNL     1       9.652 -11.430  -3.150  1.00  0.00     0.134 A 
ATOM     70  C   UNL     1       7.558 -10.359  -3.583  1.00  0.00     0.134 A 
ATOM     71  F   UNL     1      10.965 -11.588  -3.375  1.00  0.00    -0.206 F 
ATOM     72  C   UNL     1       9.030 -12.298  -2.250  1.00  0.00     0.040 A 
ATOM     73  C   UNL     1       6.929 -11.199  -2.662  1.00  0.00     0.040 A 
ATOM     74  F   UNL     1       6.807  -9.444  -4.213  1.00  0.00    -0.206 F 
ATOM     75  C   UNL     1       7.664 -12.181  -2.002  1.00  0.00     0.006 A 
ENDBRANCH  47  68
BRANCH  59  76
ATOM     76  C   UNL     1      11.743 -11.795 -10.071  1.00  0.00     0.057 A 
ATOM     77  C   UNL     1      10.667 -12.485 -10.643  1.00  0.00     0.134 A 
ATOM     78  C   UNL     1      13.028 -12.309 -10.284  1.00  0.00     0.134 A 
ATOM     79  F   UNL     1       9.409 -12.053 -10.464  1.00  0.00    -0.206 F 
ATOM     80  C   UNL     1      10.860 -13.653 -11.382  1.00  0.00     0.040 A 
ATOM     81  C   UNL     1      13.237 -13.459 -11.046  1.00  0.00     0.040 A 
ATOM     82  F   UNL     1      14.104 -11.692  -9.772  1.00  0.00    -0.206 F 
ATOM     83  C   UNL     1      12.149 -14.138 -11.593  1.00  0.00     0.006 A 
ENDBRANCH  59  76
ENDBRANCH  33  34
ENDBRANCH  25  28
ENDBRANCH  23  24
ENDBRANCH  22  23
ENDBRANCH   1  22
TORSDOF 14
