REMARK SMILES CC1(C)[C@@]2(CC[C@@H]2C(=O)NCc2ccco2)[C@]1(C)C(=O)NCCCCNC(=O)c1ccc(-c2c3nc(c(-c4c(F)cccc4F)c4ccc([nH]4)c(-c4c(F)cccc4F)c4nc(c(-c5c(F)cccc5F)c5ccc2[nH]5)C=C4)C=C3)cc1
REMARK SMILES IDX 23 1 22 2 21 3 19 4 20 5 17 7 1 8 2 9 3 10 4 11 18 12 5 13
REMARK SMILES IDX 7 14 6 15 8 16 9 17 10 18 11 20 12 21 13 22 16 23 14 24
REMARK SMILES IDX 15 25 24 26 25 27 26 28 27 29 28 31 29 32 30 33 82 34 31 35
REMARK SMILES IDX 81 36 32 37 33 38 34 39 75 40 35 41 80 42 74 43 76 44 36 45
REMARK SMILES IDX 79 46 73 47 72 48 37 50 63 51 46 52 62 53 47 54 50 55 61 56
REMARK SMILES IDX 77 57 48 58 49 59 60 61 78 62 51 63 38 64 39 65 44 66 40 67
REMARK SMILES IDX 41 68 43 69 45 70 42 71 64 72 65 73 70 74 66 75 67 76 69 77
REMARK SMILES IDX 71 78 68 79 52 80 53 81 58 82 54 83 55 84 57 85 59 86 56 87
REMARK H PARENT 21 6 10 19 26 30 76 49 50 60
REMARK Flexibility Score: inf
ROOT
ATOM      1  C   UNL     1      -1.062   2.667  -1.710  1.00  0.00     0.023 C 
ENDROOT
BRANCH   1   2
ATOM      2  C   UNL     1      -0.552   1.681  -0.664  1.00  0.00     0.116 C 
BRANCH   2   3
ATOM      3  N   UNL     1      -1.605   0.889  -0.082  1.00  0.00    -0.356 N 
ATOM      4  C   UNL     1      -1.795  -0.428   0.212  1.00  0.00     0.227 C 
ATOM      5  O   UNL     1      -2.909  -0.648   0.702  1.00  0.00    -0.274 OA
ATOM      6  H   UNL     1      -2.384   1.438   0.166  1.00  0.00     0.163 HD
BRANCH   4   7
ATOM      7  C   UNL     1      -0.866  -1.631   0.015  1.00  0.00     0.059 C 
ATOM      8  C   UNL     1       1.481  -0.458   0.227  1.00  0.00     0.013 C 
ATOM      9  C   UNL     1       0.677  -1.688  -0.130  1.00  0.00    -0.013 C 
ATOM     10  C   UNL     1       1.461  -2.926   0.298  1.00  0.00     0.013 C 
ATOM     11  C   UNL     1      -0.211  -1.858  -1.362  1.00  0.00     0.003 C 
ATOM     12  C   UNL     1      -1.451  -2.856   0.758  1.00  0.00     0.023 C 
ATOM     13  C   UNL     1      -0.553  -3.111  -2.117  1.00  0.00     0.010 C 
ATOM     14  C   UNL     1      -0.292  -1.015  -2.604  1.00  0.00     0.086 C 
ATOM     15  C   UNL     1      -0.837  -2.242  -3.333  1.00  0.00     0.015 C 
BRANCH  14  16
ATOM     16  C   UNL     1       0.944  -0.283  -3.185  1.00  0.00     0.224 C 
ATOM     17  O   UNL     1       0.897   0.922  -3.491  1.00  0.00    -0.275 OA
ATOM     18  N   UNL     1       2.160  -0.867  -3.419  1.00  0.00    -0.349 N 
ATOM     19  H   UNL     1       2.857  -0.236  -3.712  1.00  0.00     0.163 HD
BRANCH  18  20
ATOM     20  C   UNL     1       2.610  -2.233  -3.316  1.00  0.00     0.191 C 
BRANCH  20  21
ATOM     21  C   UNL     1       2.601  -2.868  -4.657  1.00  0.00     0.122 A 
ATOM     22  C   UNL     1       2.776  -2.402  -5.946  1.00  0.00     0.047 A 
ATOM     23  O   UNL     1       2.413  -4.221  -4.679  1.00  0.00    -0.467 OA
ATOM     24  C   UNL     1       2.693  -3.530  -6.798  1.00  0.00     0.042 A 
ATOM     25  C   UNL     1       2.470  -4.611  -5.979  1.00  0.00     0.195 A 
ENDBRANCH  20  21
ENDBRANCH  18  20
ENDBRANCH  14  16
ENDBRANCH   4   7
ENDBRANCH   2   3
ENDBRANCH   1   2
BRANCH   1  26
ATOM     26  C   UNL     1      -1.947   3.784  -1.170  1.00  0.00     0.023 C 
BRANCH  26  27
ATOM     27  C   UNL     1      -1.375   4.538   0.021  1.00  0.00     0.116 C 
BRANCH  27  28
ATOM     28  N   UNL     1      -0.058   5.104  -0.234  1.00  0.00    -0.352 N 
ATOM     29  C   UNL     1       0.387   6.395  -0.068  1.00  0.00     0.251 C 
ATOM     30  H   UNL     1       0.612   4.469  -0.576  1.00  0.00     0.163 HD
ATOM     31  O   UNL     1       1.502   6.722  -0.438  1.00  0.00    -0.269 OA
BRANCH  29  32
ATOM     32  C   UNL     1      -0.516   7.395   0.539  1.00  0.00     0.039 A 
ATOM     33  C   UNL     1      -0.645   8.645  -0.070  1.00  0.00     0.014 A 
ATOM     34  C   UNL     1      -1.251   7.089   1.687  1.00  0.00     0.014 A 
ATOM     35  C   UNL     1      -1.559   9.568   0.442  1.00  0.00     0.010 A 
ATOM     36  C   UNL     1      -2.229   7.967   2.132  1.00  0.00     0.010 A 
ATOM     37  C   UNL     1      -2.379   9.225   1.529  1.00  0.00    -0.014 A 
BRANCH  37  38
ATOM     38  C   UNL     1      -3.362  10.185   2.089  1.00  0.00     0.031 A 
ATOM     39  C   UNL     1      -3.208  10.662   3.508  1.00  0.00     0.074 A 
ATOM     40  C   UNL     1      -4.417  10.580   1.351  1.00  0.00     0.049 A 
ATOM     41  N   UNL     1      -3.985  11.449   4.207  1.00  0.00    -0.248 NA
ATOM     42  C   UNL     1      -2.043  10.156   4.253  1.00  0.00     0.031 C 
ATOM     43  C   UNL     1      -4.708  10.148  -0.017  1.00  0.00     0.029 A 
ATOM     44  N   UNL     1      -5.446  11.435   1.655  1.00  0.00    -0.354 N 
ATOM     45  C   UNL     1      -3.421  11.505   5.475  1.00  0.00     0.074 A 
ATOM     46  C   UNL     1      -2.273  10.626   5.469  1.00  0.00     0.031 C 
ATOM     47  C   UNL     1      -5.820  10.768  -0.447  1.00  0.00     0.029 A 
ATOM     48  C   UNL     1      -6.337  11.614   0.625  1.00  0.00     0.049 A 
ATOM     49  H   UNL     1      -5.538  11.879   2.529  1.00  0.00     0.167 HD
ATOM     50  C   UNL     1      -3.805  12.244   6.542  1.00  0.00     0.037 A 
ATOM     51  C   UNL     1      -7.442  12.380   0.554  1.00  0.00     0.037 A 
ATOM     52  C   UNL     1      -4.918  13.154   6.530  1.00  0.00     0.049 A 
ATOM     53  C   UNL     1      -7.833  13.214   1.743  1.00  0.00     0.074 A 
ATOM     54  C   UNL     1      -5.348  14.005   7.532  1.00  0.00     0.029 A 
ATOM     55  N   UNL     1      -5.776  13.333   5.455  1.00  0.00    -0.354 N 
ATOM     56  N   UNL     1      -7.248  13.316   2.912  1.00  0.00    -0.248 NA
ATOM     57  C   UNL     1      -9.032  14.051   1.597  1.00  0.00     0.031 C 
ATOM     58  C   UNL     1      -6.491  14.672   7.077  1.00  0.00     0.029 A 
ATOM     59  C   UNL     1      -6.742  14.272   5.774  1.00  0.00     0.049 A 
ATOM     60  H   UNL     1      -5.707  12.863   4.593  1.00  0.00     0.167 HD
ATOM     61  C   UNL     1      -7.981  14.256   3.625  1.00  0.00     0.074 A 
ATOM     62  C   UNL     1      -9.050  14.698   2.753  1.00  0.00     0.031 C 
ATOM     63  C   UNL     1      -7.785  14.716   4.885  1.00  0.00     0.037 A 
BRANCH  50  64
ATOM     64  C   UNL     1      -3.007  12.098   7.806  1.00  0.00     0.057 A 
ATOM     65  C   UNL     1      -1.688  12.563   7.909  1.00  0.00     0.134 A 
ATOM     66  C   UNL     1      -3.567  11.492   8.937  1.00  0.00     0.134 A 
ATOM     67  F   UNL     1      -1.086  13.140   6.858  1.00  0.00    -0.206 F 
ATOM     68  C   UNL     1      -0.945  12.399   9.079  1.00  0.00     0.040 A 
ATOM     69  C   UNL     1      -2.844  11.350  10.123  1.00  0.00     0.040 A 
ATOM     70  F   UNL     1      -4.825  11.028   8.910  1.00  0.00    -0.206 F 
ATOM     71  C   UNL     1      -1.525  11.796  10.193  1.00  0.00     0.006 A 
ENDBRANCH  50  64
BRANCH  51  72
ATOM     72  C   UNL     1      -8.229  12.440  -0.703  1.00  0.00     0.057 A 
ATOM     73  C   UNL     1      -8.231  13.596  -1.494  1.00  0.00     0.134 A 
ATOM     74  C   UNL     1      -9.006  11.361  -1.138  1.00  0.00     0.134 A 
ATOM     75  F   UNL     1      -7.519  14.669  -1.121  1.00  0.00    -0.206 F 
ATOM     76  C   UNL     1      -8.993  13.685  -2.659  1.00  0.00     0.040 A 
ATOM     77  C   UNL     1      -9.755  11.427  -2.314  1.00  0.00     0.040 A 
ATOM     78  F   UNL     1      -9.042  10.223  -0.430  1.00  0.00    -0.206 F 
ATOM     79  C   UNL     1      -9.757  12.596  -3.074  1.00  0.00     0.006 A 
ENDBRANCH  51  72
BRANCH  63  80
ATOM     80  C   UNL     1      -8.706  15.795   5.373  1.00  0.00     0.057 A 
ATOM     81  C   UNL     1     -10.044  15.541   5.697  1.00  0.00     0.134 A 
ATOM     82  C   UNL     1      -8.232  17.101   5.555  1.00  0.00     0.134 A 
ATOM     83  F   UNL     1     -10.563  14.315   5.535  1.00  0.00    -0.206 F 
ATOM     84  C   UNL     1     -10.886  16.555   6.158  1.00  0.00     0.040 A 
ATOM     85  C   UNL     1      -9.056  18.115   6.042  1.00  0.00     0.040 A 
ATOM     86  F   UNL     1      -6.956  17.408   5.274  1.00  0.00    -0.206 F 
ATOM     87  C   UNL     1     -10.390  17.845   6.338  1.00  0.00     0.006 A 
ENDBRANCH  63  80
ENDBRANCH  37  38
ENDBRANCH  29  32
ENDBRANCH  27  28
ENDBRANCH  26  27
ENDBRANCH   1  26
TORSDOF 14
