REMARK SMILES Nc1nc(CC(=O)N(CC(=O)NCCCCNC(=O)c2ccc(-c3c4nc(c(-c5c(F)cccc5F)c5ccc([nH]5)c(-c5c(F)cccc5F)c5nc(c(-c6c(F)cccc6F)c6ccc3[nH]6)C=C5)C=C4)cc2)CC(F)(F)F)cs1
REMARK SMILES IDX 13 1 12 2 10 3 11 4 9 6 8 7 6 8 7 9 5 10 4 11 2 12 3 13
REMARK SMILES IDX 80 14 79 15 1 16 74 19 75 20 76 21 77 22 78 23 14 24 15 25
REMARK SMILES IDX 16 26 17 27 18 28 19 30 20 31 21 32 73 33 22 34 72 35 23 36
REMARK SMILES IDX 24 37 25 38 66 39 26 40 71 41 65 42 67 43 27 44 70 45 64 46
REMARK SMILES IDX 63 47 28 49 54 50 37 51 53 52 38 53 41 54 52 55 68 56 39 57
REMARK SMILES IDX 40 58 51 60 69 61 42 62 29 63 30 64 35 65 31 66 32 67 34 68
REMARK SMILES IDX 36 69 33 70 55 71 56 72 61 73 57 74 58 75 60 76 62 77 59 78
REMARK SMILES IDX 43 79 44 80 49 81 45 82 46 83 48 84 50 85 47 86
REMARK H PARENT 12 5 1 17 1 18 17 29 67 48 41 59
REMARK Flexibility Score: inf
ROOT
ATOM      1  C   UNL     1      -1.399   0.355   2.232  1.00  0.00     0.116 C 
ENDROOT
BRANCH   1   2
ATOM      2  N   UNL     1      -0.872  -0.130   3.483  1.00  0.00    -0.355 N 
ATOM      3  C   UNL     1      -0.508  -1.411   3.792  1.00  0.00     0.239 C 
ATOM      4  O   UNL     1       0.184  -1.593   4.798  1.00  0.00    -0.273 OA
ATOM      5  H   UNL     1      -0.762   0.538   4.198  1.00  0.00     0.163 HD
BRANCH   3   6
ATOM      6  C   UNL     1      -0.848  -2.587   2.853  1.00  0.00     0.219 C 
BRANCH   6   7
ATOM      7  N   UNL     1      -2.264  -2.720   2.465  1.00  0.00    -0.324 N 
BRANCH   7   8
ATOM      8  C   UNL     1      -2.749  -2.705   1.160  1.00  0.00     0.229 C 
ATOM      9  O   UNL     1      -3.964  -2.621   0.952  1.00  0.00    -0.274 OA
BRANCH   8  10
ATOM     10  C   UNL     1      -1.804  -2.907  -0.024  1.00  0.00     0.157 C 
BRANCH  10  11
ATOM     11  C   UNL     1      -1.082  -1.681  -0.482  1.00  0.00     0.063 A 
ATOM     12  C   UNL     1       0.757  -0.430  -0.596  1.00  0.00     0.180 A 
ATOM     13  N   UNL     1       0.265  -1.560  -0.156  1.00  0.00    -0.225 NA
ATOM     14  S   UNL     1      -0.346   0.551  -1.468  1.00  0.00    -0.106 S 
ATOM     15  C   UNL     1      -1.581  -0.616  -1.210  1.00  0.00     0.093 A 
BRANCH  12  16
ATOM     16  N   UNL     1       2.015  -0.050  -0.355  1.00  0.00    -0.375 N 
ATOM     17  H   UNL     1       2.620  -0.640   0.149  1.00  0.00     0.159 HD
ATOM     18  H   UNL     1       2.336   0.821  -0.682  1.00  0.00     0.159 HD
ENDBRANCH  12  16
ENDBRANCH  10  11
ENDBRANCH   8  10
ENDBRANCH   7   8
BRANCH   7  19
ATOM     19  C   UNL     1      -3.236  -2.960   3.561  1.00  0.00     0.235 C 
BRANCH  19  20
ATOM     20  C   UNL     1      -4.090  -1.793   4.071  1.00  0.00     0.406 C 
ATOM     21  F   UNL     1      -4.763  -1.151   3.098  1.00  0.00    -0.169 F 
ATOM     22  F   UNL     1      -5.009  -2.248   4.960  1.00  0.00    -0.169 F 
ATOM     23  F   UNL     1      -3.338  -0.884   4.733  1.00  0.00    -0.169 F 
ENDBRANCH  19  20
ENDBRANCH   7  19
ENDBRANCH   6   7
ENDBRANCH   3   6
ENDBRANCH   1   2
BRANCH   1  24
ATOM     24  C   UNL     1      -2.694   1.144   2.346  1.00  0.00     0.023 C 
BRANCH  24  25
ATOM     25  C   UNL     1      -2.516   2.583   2.795  1.00  0.00     0.023 C 
BRANCH  25  26
ATOM     26  C   UNL     1      -1.661   3.424   1.863  1.00  0.00     0.116 C 
BRANCH  26  27
ATOM     27  N   UNL     1      -2.198   3.519   0.513  1.00  0.00    -0.352 N 
ATOM     28  C   UNL     1      -2.354   4.640  -0.270  1.00  0.00     0.251 C 
ATOM     29  H   UNL     1      -2.488   2.670   0.107  1.00  0.00     0.163 HD
ATOM     30  O   UNL     1      -2.940   4.584  -1.339  1.00  0.00    -0.269 OA
BRANCH  28  31
ATOM     31  C   UNL     1      -1.817   5.925   0.223  1.00  0.00     0.039 A 
ATOM     32  C   UNL     1      -2.620   7.065   0.169  1.00  0.00     0.014 A 
ATOM     33  C   UNL     1      -0.537   5.984   0.781  1.00  0.00     0.014 A 
ATOM     34  C   UNL     1      -2.152   8.259   0.720  1.00  0.00     0.010 A 
ATOM     35  C   UNL     1      -0.122   7.139   1.427  1.00  0.00     0.010 A 
ATOM     36  C   UNL     1      -0.909   8.298   1.375  1.00  0.00    -0.014 A 
BRANCH  36  37
ATOM     37  C   UNL     1      -0.378   9.557   1.949  1.00  0.00     0.031 A 
ATOM     38  C   UNL     1       0.899  10.137   1.402  1.00  0.00     0.074 A 
ATOM     39  C   UNL     1      -1.007  10.149   2.982  1.00  0.00     0.049 A 
ATOM     40  N   UNL     1       1.563  11.195   1.791  1.00  0.00    -0.248 NA
ATOM     41  C   UNL     1       1.536   9.408   0.291  1.00  0.00     0.031 C 
ATOM     42  C   UNL     1      -2.220   9.653   3.636  1.00  0.00     0.029 A 
ATOM     43  N   UNL     1      -0.706  11.298   3.668  1.00  0.00    -0.354 N 
ATOM     44  C   UNL     1       2.696  11.244   0.989  1.00  0.00     0.074 A 
ATOM     45  C   UNL     1       2.671  10.072   0.144  1.00  0.00     0.031 C 
ATOM     46  C   UNL     1      -2.579  10.513   4.604  1.00  0.00     0.029 A 
ATOM     47  C   UNL     1      -1.605  11.598   4.662  1.00  0.00     0.049 A 
ATOM     48  H   UNL     1       0.079  11.856   3.465  1.00  0.00     0.167 HD
ATOM     49  C   UNL     1       3.654  12.198   0.932  1.00  0.00     0.037 A 
ATOM     50  C   UNL     1      -1.637  12.635   5.521  1.00  0.00     0.037 A 
ATOM     51  C   UNL     1       3.655  13.381   1.749  1.00  0.00     0.049 A 
ATOM     52  C   UNL     1      -0.567  13.689   5.432  1.00  0.00     0.074 A 
ATOM     53  C   UNL     1       4.546  14.438   1.735  1.00  0.00     0.029 A 
ATOM     54  N   UNL     1       2.710  13.664   2.724  1.00  0.00    -0.354 N 
ATOM     55  N   UNL     1       0.463  13.759   4.622  1.00  0.00    -0.248 NA
ATOM     56  C   UNL     1      -0.671  14.817   6.367  1.00  0.00     0.031 C 
ATOM     57  C   UNL     1       4.166  15.341   2.734  1.00  0.00     0.029 A 
ATOM     58  C   UNL     1       3.005  14.873   3.330  1.00  0.00     0.049 A 
ATOM     59  H   UNL     1       1.943  13.089   2.952  1.00  0.00     0.167 HD
ATOM     60  C   UNL     1       1.104  14.954   4.923  1.00  0.00     0.074 A 
ATOM     61  C   UNL     1       0.342  15.581   5.983  1.00  0.00     0.031 C 
ATOM     62  C   UNL     1       2.222  15.488   4.371  1.00  0.00     0.037 A 
BRANCH  49  63
ATOM     63  C   UNL     1       4.770  11.999  -0.053  1.00  0.00     0.057 A 
ATOM     64  C   UNL     1       4.556  12.061  -1.437  1.00  0.00     0.134 A 
ATOM     65  C   UNL     1       6.077  11.756   0.386  1.00  0.00     0.134 A 
ATOM     66  F   UNL     1       3.325  12.273  -1.927  1.00  0.00    -0.206 F 
ATOM     67  C   UNL     1       5.594  11.856  -2.348  1.00  0.00     0.040 A 
ATOM     68  C   UNL     1       7.130  11.582  -0.514  1.00  0.00     0.040 A 
ATOM     69  F   UNL     1       6.355  11.687   1.697  1.00  0.00    -0.206 F 
ATOM     70  C   UNL     1       6.888  11.623  -1.886  1.00  0.00     0.006 A 
ENDBRANCH  49  63
BRANCH  50  71
ATOM     71  C   UNL     1      -2.738  12.752   6.511  1.00  0.00     0.057 A 
ATOM     72  C   UNL     1      -3.705  13.759   6.400  1.00  0.00     0.134 A 
ATOM     73  C   UNL     1      -2.844  11.875   7.596  1.00  0.00     0.134 A 
ATOM     74  F   UNL     1      -3.648  14.641   5.391  1.00  0.00    -0.206 F 
ATOM     75  C   UNL     1      -4.720  13.907   7.347  1.00  0.00     0.040 A 
ATOM     76  C   UNL     1      -3.870  11.995   8.536  1.00  0.00     0.040 A 
ATOM     77  F   UNL     1      -1.956  10.883   7.755  1.00  0.00    -0.206 F 
ATOM     78  C   UNL     1      -4.806  13.020   8.417  1.00  0.00     0.006 A 
ENDBRANCH  50  71
BRANCH  62  79
ATOM     79  C   UNL     1       2.654  16.839   4.862  1.00  0.00     0.057 A 
ATOM     80  C   UNL     1       3.200  17.029   6.137  1.00  0.00     0.134 A 
ATOM     81  C   UNL     1       2.555  17.959   4.026  1.00  0.00     0.134 A 
ATOM     82  F   UNL     1       3.313  15.999   6.990  1.00  0.00    -0.206 F 
ATOM     83  C   UNL     1       3.604  18.291   6.575  1.00  0.00     0.040 A 
ATOM     84  C   UNL     1       2.984  19.220   4.441  1.00  0.00     0.040 A 
ATOM     85  F   UNL     1       2.053  17.844   2.788  1.00  0.00    -0.206 F 
ATOM     86  C   UNL     1       3.503  19.390   5.723  1.00  0.00     0.006 A 
ENDBRANCH  62  79
ENDBRANCH  36  37
ENDBRANCH  28  31
ENDBRANCH  26  27
ENDBRANCH  25  26
ENDBRANCH  24  25
ENDBRANCH   1  24
TORSDOF 18
