REMARK SMILES CC[C@](C)(Nc1cccc(Cl)c1C(N)=O)C(=O)NCCCCNC(=O)c1ccc(-c2c3nc(c(-c4c(F)cccc4F)c4ccc([nH]4)c(-c4c(F)cccc4F)c4nc(c(-c5c(F)cccc5F)c5ccc2[nH]5)C=C4)C=C3)cc1
REMARK SMILES IDX 20 1 19 2 18 3 16 4 17 5 3 7 4 8 2 9 1 10 5 11 6 13 7 14
REMARK SMILES IDX 12 15 8 16 10 17 9 18 11 19 13 20 14 21 15 22 21 25 22 26
REMARK SMILES IDX 23 27 24 28 25 30 26 31 27 32 79 33 28 34 78 35 29 36 30 37
REMARK SMILES IDX 31 38 72 39 32 40 77 41 71 42 73 43 33 44 76 45 70 46 69 47
REMARK SMILES IDX 34 49 60 50 43 51 59 52 44 53 47 54 58 55 74 56 45 57 46 58
REMARK SMILES IDX 57 60 75 61 48 62 35 63 36 64 41 65 37 66 38 67 40 68 42 69
REMARK SMILES IDX 39 70 61 71 62 72 67 73 63 74 64 75 66 76 68 77 65 78 49 79
REMARK SMILES IDX 50 80 55 81 51 82 52 83 54 84 56 85 53 86
REMARK H PARENT 18 6 5 12 14 23 14 24 23 29 73 48 47 59
REMARK Flexibility Score: inf
ROOT
ATOM      1  C   UNL     1       2.601  -1.979  -5.855  1.00  0.00     0.023 C 
ENDROOT
BRANCH   1   2
ATOM      2  C   UNL     1       2.276  -2.531  -4.470  1.00  0.00     0.116 C 
BRANCH   2   3
ATOM      3  N   UNL     1       2.986  -1.880  -3.384  1.00  0.00    -0.354 N 
ATOM      4  C   UNL     1       2.597  -0.921  -2.491  1.00  0.00     0.245 C 
ATOM      5  O   UNL     1       3.446  -0.588  -1.656  1.00  0.00    -0.272 OA
ATOM      6  H   UNL     1       3.915  -2.185  -3.269  1.00  0.00     0.163 HD
BRANCH   4   7
ATOM      7  C   UNL     1       1.175  -0.279  -2.516  1.00  0.00     0.113 C 
ATOM      8  C   UNL     1       1.086   0.770  -1.387  1.00  0.00     0.045 C 
BRANCH   7   9
ATOM      9  C   UNL     1       0.144  -1.443  -2.304  1.00  0.00     0.035 C 
ATOM     10  C   UNL     1      -0.925  -1.283  -1.232  1.00  0.00     0.007 C 
ENDBRANCH   7   9
BRANCH   7  11
ATOM     11  N   UNL     1       0.847   0.442  -3.781  1.00  0.00    -0.371 N 
ATOM     12  H   UNL     1      -0.078   0.305  -4.089  1.00  0.00     0.161 HD
BRANCH  11  13
ATOM     13  C   UNL     1       1.602   1.274  -4.610  1.00  0.00     0.049 A 
ATOM     14  C   UNL     1       3.003   1.212  -4.657  1.00  0.00     0.026 A 
ATOM     15  C   UNL     1       0.975   2.190  -5.513  1.00  0.00     0.081 A 
ATOM     16  C   UNL     1       3.739   1.789  -5.694  1.00  0.00     0.004 A 
ATOM     17  C   UNL     1       1.726   2.774  -6.561  1.00  0.00     0.055 A 
ATOM     18  C   UNL     1       3.095   2.527  -6.671  1.00  0.00     0.021 A 
ATOM     19  Cl  UNL     1       1.081   3.832  -7.771  1.00  0.00    -0.083 Cl
BRANCH  15  20
ATOM     20  C   UNL     1      -0.460   2.600  -5.318  1.00  0.00     0.252 C 
ATOM     21  N   UNL     1      -0.957   2.506  -4.042  1.00  0.00    -0.365 N 
ATOM     22  O   UNL     1      -1.185   3.032  -6.196  1.00  0.00    -0.269 OA
ATOM     23  H   UNL     1      -0.389   2.159  -3.317  1.00  0.00     0.159 HD
ATOM     24  H   UNL     1      -1.882   2.785  -3.852  1.00  0.00     0.159 HD
ENDBRANCH  15  20
ENDBRANCH  11  13
ENDBRANCH   7  11
ENDBRANCH   4   7
ENDBRANCH   2   3
ENDBRANCH   1   2
BRANCH   1  25
ATOM     25  C   UNL     1       4.089  -1.897  -6.182  1.00  0.00     0.023 C 
BRANCH  25  26
ATOM     26  C   UNL     1       4.809  -3.235  -6.130  1.00  0.00     0.116 C 
BRANCH  26  27
ATOM     27  N   UNL     1       4.258  -4.190  -7.079  1.00  0.00    -0.352 N 
ATOM     28  C   UNL     1       4.897  -4.906  -8.059  1.00  0.00     0.251 C 
ATOM     29  H   UNL     1       3.289  -4.344  -7.008  1.00  0.00     0.163 HD
ATOM     30  O   UNL     1       4.246  -5.505  -8.908  1.00  0.00    -0.269 OA
BRANCH  28  31
ATOM     31  C   UNL     1       6.373  -4.939  -8.095  1.00  0.00     0.039 A 
ATOM     32  C   UNL     1       7.024  -4.834  -9.325  1.00  0.00     0.014 A 
ATOM     33  C   UNL     1       7.110  -5.075  -6.915  1.00  0.00     0.014 A 
ATOM     34  C   UNL     1       8.419  -4.816  -9.366  1.00  0.00     0.010 A 
ATOM     35  C   UNL     1       8.493  -4.956  -6.948  1.00  0.00     0.010 A 
ATOM     36  C   UNL     1       9.163  -4.845  -8.175  1.00  0.00    -0.014 A 
BRANCH  36  37
ATOM     37  C   UNL     1      10.644  -4.788  -8.189  1.00  0.00     0.031 A 
ATOM     38  C   UNL     1      11.443  -5.941  -7.644  1.00  0.00     0.074 A 
ATOM     39  C   UNL     1      11.265  -3.678  -8.631  1.00  0.00     0.049 A 
ATOM     40  N   UNL     1      12.739  -6.058  -7.506  1.00  0.00    -0.248 NA
ATOM     41  C   UNL     1      10.683  -7.106  -7.160  1.00  0.00     0.031 C 
ATOM     42  C   UNL     1      10.596  -2.477  -9.136  1.00  0.00     0.029 A 
ATOM     43  N   UNL     1      12.600  -3.376  -8.720  1.00  0.00    -0.354 N 
ATOM     44  C   UNL     1      12.944  -7.293  -6.905  1.00  0.00     0.074 A 
ATOM     45  C   UNL     1      11.641  -7.862  -6.648  1.00  0.00     0.031 C 
ATOM     46  C   UNL     1      11.523  -1.583  -9.513  1.00  0.00     0.029 A 
ATOM     47  C   UNL     1      12.848  -2.127  -9.236  1.00  0.00     0.049 A 
ATOM     48  H   UNL     1      13.312  -3.995  -8.442  1.00  0.00     0.167 HD
ATOM     49  C   UNL     1      14.115  -7.910  -6.619  1.00  0.00     0.037 A 
ATOM     50  C   UNL     1      14.015  -1.492  -9.454  1.00  0.00     0.037 A 
ATOM     51  C   UNL     1      15.408  -7.349  -6.905  1.00  0.00     0.049 A 
ATOM     52  C   UNL     1      15.301  -2.195  -9.118  1.00  0.00     0.074 A 
ATOM     53  C   UNL     1      16.655  -7.917  -6.716  1.00  0.00     0.029 A 
ATOM     54  N   UNL     1      15.619  -6.085  -7.438  1.00  0.00    -0.354 N 
ATOM     55  N   UNL     1      15.483  -3.394  -8.619  1.00  0.00    -0.248 NA
ATOM     56  C   UNL     1      16.545  -1.459  -9.381  1.00  0.00     0.031 C 
ATOM     57  C   UNL     1      17.622  -6.976  -7.083  1.00  0.00     0.029 A 
ATOM     58  C   UNL     1      16.978  -5.845  -7.558  1.00  0.00     0.049 A 
ATOM     59  H   UNL     1      14.909  -5.453  -7.692  1.00  0.00     0.167 HD
ATOM     60  C   UNL     1      16.859  -3.569  -8.539  1.00  0.00     0.074 A 
ATOM     61  C   UNL     1      17.463  -2.357  -9.054  1.00  0.00     0.031 C 
ATOM     62  C   UNL     1      17.560  -4.635  -8.081  1.00  0.00     0.037 A 
BRANCH  49  63
ATOM     63  C   UNL     1      14.047  -9.260  -5.963  1.00  0.00     0.057 A 
ATOM     64  C   UNL     1      13.570 -10.392  -6.638  1.00  0.00     0.134 A 
ATOM     65  C   UNL     1      14.493  -9.437  -4.647  1.00  0.00     0.134 A 
ATOM     66  F   UNL     1      13.115 -10.291  -7.896  1.00  0.00    -0.206 F 
ATOM     67  C   UNL     1      13.510 -11.642  -6.020  1.00  0.00     0.040 A 
ATOM     68  C   UNL     1      14.469 -10.689  -4.029  1.00  0.00     0.040 A 
ATOM     69  F   UNL     1      14.968  -8.399  -3.942  1.00  0.00    -0.206 F 
ATOM     70  C   UNL     1      13.968 -11.794  -4.713  1.00  0.00     0.006 A 
ENDBRANCH  49  63
BRANCH  50  71
ATOM     71  C   UNL     1      14.024  -0.128 -10.042  1.00  0.00     0.057 A 
ATOM     72  C   UNL     1      14.515   0.097 -11.334  1.00  0.00     0.134 A 
ATOM     73  C   UNL     1      13.555   0.982  -9.330  1.00  0.00     0.134 A 
ATOM     74  F   UNL     1      14.993  -0.923 -12.061  1.00  0.00    -0.206 F 
ATOM     75  C   UNL     1      14.561   1.378 -11.887  1.00  0.00     0.040 A 
ATOM     76  C   UNL     1      13.569   2.265  -9.881  1.00  0.00     0.040 A 
ATOM     77  F   UNL     1      13.063   0.834  -8.091  1.00  0.00    -0.206 F 
ATOM     78  C   UNL     1      14.082   2.466 -11.161  1.00  0.00     0.006 A 
ENDBRANCH  50  71
BRANCH  62  79
ATOM     79  C   UNL     1      19.057  -4.556  -8.155  1.00  0.00     0.057 A 
ATOM     80  C   UNL     1      19.799  -3.712  -7.319  1.00  0.00     0.134 A 
ATOM     81  C   UNL     1      19.767  -5.368  -9.049  1.00  0.00     0.134 A 
ATOM     82  F   UNL     1      19.179  -2.899  -6.449  1.00  0.00    -0.206 F 
ATOM     83  C   UNL     1      21.192  -3.659  -7.388  1.00  0.00     0.040 A 
ATOM     84  C   UNL     1      21.161  -5.347  -9.105  1.00  0.00     0.040 A 
ATOM     85  F   UNL     1      19.119  -6.208  -9.870  1.00  0.00    -0.206 F 
ATOM     86  C   UNL     1      21.877  -4.485  -8.278  1.00  0.00     0.006 A 
ENDBRANCH  62  79
ENDBRANCH  36  37
ENDBRANCH  28  31
ENDBRANCH  26  27
ENDBRANCH  25  26
ENDBRANCH   1  25
TORSDOF 15
