REMARK SMILES CC1=Nc2c(c(C)nn2-c2ccc(F)cc2)[C@H](c2ccc(C(=O)NCCCCNC(=O)c3ccc(-c4c5nc(c(-c6c(F)cccc6F)c6ccc([nH]6)c(-c6c(F)cccc6F)c6nc(c(-c7c(F)cccc7F)c7ccc4[nH]7)C=C6)C=C5)cc3)cc2)S1
REMARK SMILES IDX 26 1 25 2 24 3 22 4 23 5 21 7 18 8 19 9 87 10 20 11 86 12
REMARK SMILES IDX 17 13 1 14 2 15 3 16 88 17 4 18 5 19 9 20 6 21 8 22 7 23
REMARK SMILES IDX 10 24 11 25 16 26 12 27 15 28 13 29 14 30 27 31 28 32 29 33
REMARK SMILES IDX 30 34 31 36 32 37 33 38 85 39 34 40 84 41 35 42 36 43 37 44
REMARK SMILES IDX 78 45 38 46 83 47 77 48 79 49 39 50 82 51 76 52 75 53 40 55
REMARK SMILES IDX 66 56 49 57 65 58 50 59 53 60 64 61 80 62 51 63 52 64 63 66
REMARK SMILES IDX 81 67 54 68 41 69 42 70 47 71 43 72 44 73 46 74 48 75 45 76
REMARK SMILES IDX 67 77 68 78 73 79 69 80 70 81 72 82 74 83 71 84 55 85 56 86
REMARK SMILES IDX 61 87 57 88 58 89 60 90 62 91 59 92
REMARK H PARENT 24 6 29 35 79 54 53 65
REMARK Flexibility Score: inf
ROOT
ATOM      1  C   UNL     1       7.420  -2.717   2.522  1.00  0.00     0.023 C 
ENDROOT
BRANCH   1   2
ATOM      2  C   UNL     1       6.861  -4.101   2.169  1.00  0.00     0.116 C 
BRANCH   2   3
ATOM      3  N   UNL     1       6.556  -4.872   3.359  1.00  0.00    -0.352 N 
ATOM      4  C   UNL     1       5.378  -5.137   4.011  1.00  0.00     0.251 C 
ATOM      5  O   UNL     1       5.421  -5.893   4.982  1.00  0.00    -0.269 OA
ATOM      6  H   UNL     1       7.345  -5.285   3.779  1.00  0.00     0.163 HD
BRANCH   4   7
ATOM      7  C   UNL     1       4.059  -4.605   3.571  1.00  0.00     0.039 A 
ATOM      8  C   UNL     1       1.465  -3.742   2.797  1.00  0.00    -0.030 A 
ATOM      9  C   UNL     1       1.654  -4.971   3.450  1.00  0.00     0.006 A 
ATOM     10  C   UNL     1       2.597  -2.941   2.575  1.00  0.00     0.006 A 
ATOM     11  C   UNL     1       2.930  -5.390   3.841  1.00  0.00     0.014 A 
ATOM     12  C   UNL     1       3.873  -3.363   2.965  1.00  0.00     0.014 A 
BRANCH   8  13
ATOM     13  C   UNL     1       0.056  -3.305   2.420  1.00  0.00     0.119 C 
ATOM     14  C   UNL     1       0.688  -0.092  -0.092  1.00  0.00     0.075 C 
ATOM     15  C   UNL     1       0.131  -0.888   1.059  1.00  0.00     0.074 C 
ATOM     16  N   UNL     1      -0.109  -0.263   2.168  1.00  0.00    -0.227 NA
ATOM     17  S   UNL     1      -0.072  -2.607   0.741  1.00  0.00    -0.098 SA
ATOM     18  C   UNL     1      -0.466  -0.991   3.254  1.00  0.00     0.161 A 
ATOM     19  C   UNL     1      -0.371  -2.348   3.465  1.00  0.00     0.038 A 
ATOM     20  N   UNL     1      -0.881  -0.439   4.456  1.00  0.00    -0.215 N 
ATOM     21  C   UNL     1      -0.718  -2.533   4.828  1.00  0.00     0.067 A 
ATOM     22  N   UNL     1      -0.926  -1.364   5.449  1.00  0.00    -0.171 NA
ATOM     23  C   UNL     1      -0.815  -3.798   5.598  1.00  0.00     0.069 C 
BRANCH  20  24
ATOM     24  C   UNL     1      -1.239   0.907   4.699  1.00  0.00     0.067 A 
ATOM     25  C   UNL     1      -1.979   1.612   3.738  1.00  0.00     0.031 A 
ATOM     26  C   UNL     1      -0.847   1.524   5.893  1.00  0.00     0.031 A 
ATOM     27  C   UNL     1      -2.322   2.942   3.973  1.00  0.00     0.041 A 
ATOM     28  C   UNL     1      -1.148   2.872   6.094  1.00  0.00     0.041 A 
ATOM     29  C   UNL     1      -1.887   3.565   5.138  1.00  0.00     0.123 A 
ATOM     30  F   UNL     1      -2.185   4.854   5.342  1.00  0.00    -0.207 F 
ENDBRANCH  20  24
ENDBRANCH   8  13
ENDBRANCH   4   7
ENDBRANCH   2   3
ENDBRANCH   1   2
BRANCH   1  31
ATOM     31  C   UNL     1       8.851  -2.704   3.082  1.00  0.00     0.023 C 
BRANCH  31  32
ATOM     32  C   UNL     1       9.942  -3.052   2.076  1.00  0.00     0.116 C 
BRANCH  32  33
ATOM     33  N   UNL     1      10.011  -2.115   0.952  1.00  0.00    -0.352 N 
ATOM     34  C   UNL     1      10.632  -2.294  -0.276  1.00  0.00     0.251 C 
ATOM     35  H   UNL     1       9.561  -1.250   1.084  1.00  0.00     0.163 HD
ATOM     36  O   UNL     1      10.947  -1.356  -0.981  1.00  0.00    -0.269 OA
BRANCH  34  37
ATOM     37  C   UNL     1      10.871  -3.678  -0.718  1.00  0.00     0.039 A 
ATOM     38  C   UNL     1      12.099  -4.097  -1.237  1.00  0.00     0.014 A 
ATOM     39  C   UNL     1       9.832  -4.576  -0.512  1.00  0.00     0.014 A 
ATOM     40  C   UNL     1      12.298  -5.459  -1.461  1.00  0.00     0.010 A 
ATOM     41  C   UNL     1      10.094  -5.917  -0.549  1.00  0.00     0.010 A 
ATOM     42  C   UNL     1      11.292  -6.365  -1.094  1.00  0.00    -0.014 A 
BRANCH  42  43
ATOM     43  C   UNL     1      11.476  -7.808  -1.209  1.00  0.00     0.031 A 
ATOM     44  C   UNL     1      12.614  -8.374  -0.432  1.00  0.00     0.074 A 
ATOM     45  C   UNL     1      10.522  -8.597  -1.755  1.00  0.00     0.049 A 
ATOM     46  N   UNL     1      13.660  -8.985  -0.880  1.00  0.00    -0.248 NA
ATOM     47  C   UNL     1      12.639  -8.154   1.024  1.00  0.00     0.031 C 
ATOM     48  C   UNL     1       9.180  -8.201  -2.218  1.00  0.00     0.029 A 
ATOM     49  N   UNL     1      10.498  -9.950  -1.909  1.00  0.00    -0.354 N 
ATOM     50  C   UNL     1      14.375  -9.405   0.243  1.00  0.00     0.074 A 
ATOM     51  C   UNL     1      13.796  -8.724   1.370  1.00  0.00     0.031 C 
ATOM     52  C   UNL     1       8.402  -9.294  -2.356  1.00  0.00     0.029 A 
ATOM     53  C   UNL     1       9.244 -10.464  -2.215  1.00  0.00     0.049 A 
ATOM     54  H   UNL     1      11.299 -10.514  -1.811  1.00  0.00     0.167 HD
ATOM     55  C   UNL     1      15.224 -10.469   0.181  1.00  0.00     0.037 A 
ATOM     56  C   UNL     1       8.916 -11.766  -2.365  1.00  0.00     0.037 A 
ATOM     57  C   UNL     1      15.450 -10.866  -1.183  1.00  0.00     0.049 A 
ATOM     58  C   UNL     1      10.162 -12.508  -2.648  1.00  0.00     0.074 A 
ATOM     59  C   UNL     1      16.262 -10.466  -2.219  1.00  0.00     0.029 A 
ATOM     60  N   UNL     1      14.440 -11.621  -1.716  1.00  0.00    -0.354 N 
ATOM     61  N   UNL     1      10.884 -12.320  -3.719  1.00  0.00    -0.248 NA
ATOM     62  C   UNL     1      10.815 -13.241  -1.571  1.00  0.00     0.031 C 
ATOM     63  C   UNL     1      15.600 -10.864  -3.419  1.00  0.00     0.029 A 
ATOM     64  C   UNL     1      14.423 -11.527  -3.082  1.00  0.00     0.049 A 
ATOM     65  H   UNL     1      13.809 -12.160  -1.187  1.00  0.00     0.167 HD
ATOM     66  C   UNL     1      12.179 -12.541  -3.299  1.00  0.00     0.074 A 
ATOM     67  C   UNL     1      12.064 -13.268  -2.042  1.00  0.00     0.031 C 
ATOM     68  C   UNL     1      13.221 -11.838  -3.824  1.00  0.00     0.037 A 
BRANCH  55  69
ATOM     69  C   UNL     1      15.538 -11.418   1.316  1.00  0.00     0.057 A 
ATOM     70  C   UNL     1      14.684 -11.643   2.413  1.00  0.00     0.134 A 
ATOM     71  C   UNL     1      16.585 -12.350   1.177  1.00  0.00     0.134 A 
ATOM     72  F   UNL     1      13.575 -10.920   2.611  1.00  0.00    -0.206 F 
ATOM     73  C   UNL     1      14.866 -12.697   3.316  1.00  0.00     0.040 A 
ATOM     74  C   UNL     1      16.746 -13.440   2.045  1.00  0.00     0.040 A 
ATOM     75  F   UNL     1      17.450 -12.268   0.155  1.00  0.00    -0.206 F 
ATOM     76  C   UNL     1      15.885 -13.616   3.121  1.00  0.00     0.006 A 
ENDBRANCH  55  69
BRANCH  56  77
ATOM     77  C   UNL     1       7.651 -12.446  -2.025  1.00  0.00     0.057 A 
ATOM     78  C   UNL     1       6.906 -12.061  -0.897  1.00  0.00     0.134 A 
ATOM     79  C   UNL     1       7.314 -13.673  -2.608  1.00  0.00     0.134 A 
ATOM     80  F   UNL     1       7.185 -10.925  -0.242  1.00  0.00    -0.206 F 
ATOM     81  C   UNL     1       5.915 -12.880  -0.347  1.00  0.00     0.040 A 
ATOM     82  C   UNL     1       6.325 -14.503  -2.067  1.00  0.00     0.040 A 
ATOM     83  F   UNL     1       7.988 -14.125  -3.675  1.00  0.00    -0.206 F 
ATOM     84  C   UNL     1       5.637 -14.116  -0.920  1.00  0.00     0.006 A 
ENDBRANCH  56  77
BRANCH  68  85
ATOM     85  C   UNL     1      13.037 -11.197  -5.164  1.00  0.00     0.057 A 
ATOM     86  C   UNL     1      13.817 -11.660  -6.228  1.00  0.00     0.134 A 
ATOM     87  C   UNL     1      12.223 -10.084  -5.411  1.00  0.00     0.134 A 
ATOM     88  F   UNL     1      14.646 -12.702  -6.053  1.00  0.00    -0.206 F 
ATOM     89  C   UNL     1      13.806 -11.039  -7.477  1.00  0.00     0.040 A 
ATOM     90  C   UNL     1      12.179  -9.469  -6.666  1.00  0.00     0.040 A 
ATOM     91  F   UNL     1      11.489  -9.533  -4.438  1.00  0.00    -0.206 F 
ATOM     92  C   UNL     1      12.981  -9.940  -7.701  1.00  0.00     0.006 A 
ENDBRANCH  68  85
ENDBRANCH  42  43
ENDBRANCH  34  37
ENDBRANCH  32  33
ENDBRANCH  31  32
ENDBRANCH   1  31
TORSDOF 13
