REMARK SMILES Cc1cccc([C@@H](CC(=O)NCCCCNC(=O)c2ccc(-c3c4nc(c(-c5c(F)cccc5F)c5ccc([nH]5)c(-c5c(F)cccc5F)c5nc(c(-c6c(F)cccc6F)c6ccc3[nH]6)C=C5)C=C4)cc2)NC(=O)OC(C)(C)C)c1
REMARK SMILES IDX 12 1 11 2 9 3 10 4 8 6 7 7 6 8 1 9 2 10 3 11 81 12 4 13 5 14
REMARK SMILES IDX 73 15 74 16 75 18 76 19 77 20 78 21 79 22 80 23 13 24 14 25
REMARK SMILES IDX 15 26 16 27 17 28 18 30 19 31 20 32 72 33 21 34 71 35 22 36
REMARK SMILES IDX 23 37 24 38 65 39 25 40 70 41 64 42 66 43 26 44 69 45 63 46
REMARK SMILES IDX 62 47 27 49 53 50 36 51 52 52 37 53 40 54 51 55 67 56 38 57
REMARK SMILES IDX 39 58 50 60 68 61 41 62 28 63 29 64 34 65 30 66 31 67 33 68
REMARK SMILES IDX 35 69 32 70 54 71 55 72 60 73 56 74 57 75 59 76 61 77 58 78
REMARK SMILES IDX 42 79 43 80 48 81 44 82 45 83 47 84 49 85 46 86
REMARK H PARENT 11 5 73 17 16 29 66 48 40 59
REMARK Flexibility Score: inf
ROOT
ATOM      1  C   UNL     1      -2.666  -0.621  -1.672  1.00  0.00     0.116 C 
ENDROOT
BRANCH   1   2
ATOM      2  N   UNL     1      -3.723   0.369  -1.608  1.00  0.00    -0.356 N 
ATOM      3  C   UNL     1      -3.652   1.670  -1.202  1.00  0.00     0.222 C 
ATOM      4  O   UNL     1      -4.713   2.229  -0.910  1.00  0.00    -0.275 OA
ATOM      5  H   UNL     1      -4.612   0.062  -1.898  1.00  0.00     0.163 HD
BRANCH   3   6
ATOM      6  C   UNL     1      -2.333   2.426  -1.146  1.00  0.00     0.130 C 
BRANCH   6   7
ATOM      7  C   UNL     1      -1.685   2.631   0.242  1.00  0.00     0.125 C 
BRANCH   7   8
ATOM      8  C   UNL     1      -0.660   1.570   0.651  1.00  0.00    -0.025 A 
ATOM      9  C   UNL     1       2.869   0.480  -0.343  1.00  0.00     0.044 C 
ATOM     10  C   UNL     1       1.516   0.495   0.306  1.00  0.00    -0.051 A 
ATOM     11  C   UNL     1       1.182  -0.488   1.241  1.00  0.00     0.003 A 
ATOM     12  C   UNL     1       0.576   1.489  -0.016  1.00  0.00     0.009 A 
ATOM     13  C   UNL     1      -0.006  -0.388   1.956  1.00  0.00     0.001 A 
ATOM     14  C   UNL     1      -0.890   0.663   1.701  1.00  0.00     0.006 A 
ENDBRANCH   7   8
BRANCH   7  15
ATOM     15  N   UNL     1      -2.671   2.871   1.280  1.00  0.00    -0.314 N 
ATOM     16  C   UNL     1      -2.595   3.788   2.287  1.00  0.00     0.408 C 
ATOM     17  H   UNL     1      -3.481   2.312   1.255  1.00  0.00     0.167 HD
ATOM     18  O   UNL     1      -3.395   3.789   3.197  1.00  0.00    -0.225 OA
BRANCH  16  19
ATOM     19  O   UNL     1      -1.563   4.651   2.119  1.00  0.00    -0.444 OA
BRANCH  19  20
ATOM     20  C   UNL     1      -1.345   5.726   3.064  1.00  0.00     0.106 C 
ATOM     21  C   UNL     1      -2.564   6.651   3.160  1.00  0.00     0.056 C 
ATOM     22  C   UNL     1      -0.928   5.168   4.427  1.00  0.00     0.056 C 
ATOM     23  C   UNL     1      -0.174   6.528   2.476  1.00  0.00     0.056 C 
ENDBRANCH  19  20
ENDBRANCH  16  19
ENDBRANCH   7  15
ENDBRANCH   6   7
ENDBRANCH   3   6
ENDBRANCH   1   2
BRANCH   1  24
ATOM     24  C   UNL     1      -2.379  -1.181  -0.281  1.00  0.00     0.023 C 
BRANCH  24  25
ATOM     25  C   UNL     1      -3.178  -2.358   0.283  1.00  0.00     0.023 C 
BRANCH  25  26
ATOM     26  C   UNL     1      -2.728  -3.744  -0.161  1.00  0.00     0.116 C 
BRANCH  26  27
ATOM     27  N   UNL     1      -1.304  -4.048   0.142  1.00  0.00    -0.352 N 
ATOM     28  C   UNL     1      -0.402  -4.911  -0.482  1.00  0.00     0.251 C 
ATOM     29  H   UNL     1      -0.935  -3.558   0.912  1.00  0.00     0.163 HD
ATOM     30  O   UNL     1       0.615  -5.300   0.080  1.00  0.00    -0.269 OA
BRANCH  28  31
ATOM     31  C   UNL     1      -0.648  -5.285  -1.883  1.00  0.00     0.039 A 
ATOM     32  C   UNL     1      -0.158  -6.400  -2.575  1.00  0.00     0.014 A 
ATOM     33  C   UNL     1      -1.374  -4.340  -2.566  1.00  0.00     0.014 A 
ATOM     34  C   UNL     1      -0.424  -6.483  -3.946  1.00  0.00     0.010 A 
ATOM     35  C   UNL     1      -2.053  -4.705  -3.664  1.00  0.00     0.010 A 
ATOM     36  C   UNL     1      -1.354  -5.585  -4.466  1.00  0.00    -0.014 A 
BRANCH  36  37
ATOM     37  C   UNL     1      -1.566  -5.188  -5.840  1.00  0.00     0.031 A 
ATOM     38  C   UNL     1      -2.552  -5.909  -6.624  1.00  0.00     0.074 A 
ATOM     39  C   UNL     1      -1.193  -3.905  -6.094  1.00  0.00     0.049 A 
ATOM     40  N   UNL     1      -2.567  -5.924  -7.904  1.00  0.00    -0.248 NA
ATOM     41  C   UNL     1      -3.631  -6.675  -6.006  1.00  0.00     0.031 C 
ATOM     42  C   UNL     1      -1.673  -2.938  -7.068  1.00  0.00     0.029 A 
ATOM     43  N   UNL     1      -0.207  -3.186  -5.398  1.00  0.00    -0.354 N 
ATOM     44  C   UNL     1      -3.836  -6.321  -8.251  1.00  0.00     0.074 A 
ATOM     45  C   UNL     1      -4.384  -6.956  -7.074  1.00  0.00     0.031 C 
ATOM     46  C   UNL     1      -0.775  -1.933  -7.152  1.00  0.00     0.029 A 
ATOM     47  C   UNL     1       0.358  -2.290  -6.312  1.00  0.00     0.049 A 
ATOM     48  H   UNL     1       0.038  -3.291  -4.451  1.00  0.00     0.167 HD
ATOM     49  C   UNL     1      -4.383  -5.835  -9.399  1.00  0.00     0.037 A 
ATOM     50  C   UNL     1       1.627  -2.568  -6.730  1.00  0.00     0.037 A 
ATOM     51  C   UNL     1      -3.496  -4.822  -9.992  1.00  0.00     0.049 A 
ATOM     52  C   UNL     1       1.641  -3.048  -8.163  1.00  0.00     0.074 A 
ATOM     53  C   UNL     1      -3.531  -3.436 -10.024  1.00  0.00     0.029 A 
ATOM     54  N   UNL     1      -2.186  -5.166 -10.314  1.00  0.00    -0.354 N 
ATOM     55  N   UNL     1       0.589  -3.450  -8.826  1.00  0.00    -0.248 NA
ATOM     56  C   UNL     1       2.842  -3.062  -8.975  1.00  0.00     0.031 C 
ATOM     57  C   UNL     1      -2.237  -2.959 -10.382  1.00  0.00     0.029 A 
ATOM     58  C   UNL     1      -1.410  -4.052 -10.573  1.00  0.00     0.049 A 
ATOM     59  H   UNL     1      -1.853  -6.092 -10.352  1.00  0.00     0.167 HD
ATOM     60  C   UNL     1       0.924  -3.760 -10.121  1.00  0.00     0.074 A 
ATOM     61  C   UNL     1       2.351  -3.480 -10.155  1.00  0.00     0.031 C 
ATOM     62  C   UNL     1      -0.020  -4.215 -11.014  1.00  0.00     0.037 A 
BRANCH  49  63
ATOM     63  C   UNL     1      -5.831  -6.040  -9.773  1.00  0.00     0.057 A 
ATOM     64  C   UNL     1      -6.530  -5.104 -10.556  1.00  0.00     0.134 A 
ATOM     65  C   UNL     1      -6.588  -7.171  -9.407  1.00  0.00     0.134 A 
ATOM     66  F   UNL     1      -5.931  -4.019 -11.061  1.00  0.00    -0.206 F 
ATOM     67  C   UNL     1      -7.888  -5.237 -10.873  1.00  0.00     0.040 A 
ATOM     68  C   UNL     1      -7.960  -7.293  -9.673  1.00  0.00     0.040 A 
ATOM     69  F   UNL     1      -6.019  -8.232  -8.817  1.00  0.00    -0.206 F 
ATOM     70  C   UNL     1      -8.617  -6.319 -10.409  1.00  0.00     0.006 A 
ENDBRANCH  49  63
BRANCH  50  71
ATOM     71  C   UNL     1       2.464  -3.084  -5.589  1.00  0.00     0.057 A 
ATOM     72  C   UNL     1       2.646  -2.219  -4.487  1.00  0.00     0.134 A 
ATOM     73  C   UNL     1       2.595  -4.455  -5.335  1.00  0.00     0.134 A 
ATOM     74  F   UNL     1       2.548  -0.889  -4.653  1.00  0.00    -0.206 F 
ATOM     75  C   UNL     1       2.757  -2.698  -3.178  1.00  0.00     0.040 A 
ATOM     76  C   UNL     1       2.738  -4.941  -4.025  1.00  0.00     0.040 A 
ATOM     77  F   UNL     1       2.440  -5.350  -6.320  1.00  0.00    -0.206 F 
ATOM     78  C   UNL     1       2.760  -4.066  -2.939  1.00  0.00     0.006 A 
ENDBRANCH  50  71
BRANCH  62  79
ATOM     79  C   UNL     1       0.194  -4.849 -12.394  1.00  0.00     0.057 A 
ATOM     80  C   UNL     1       1.423  -5.055 -13.030  1.00  0.00     0.134 A 
ATOM     81  C   UNL     1      -0.907  -5.373 -13.132  1.00  0.00     0.134 A 
ATOM     82  F   UNL     1       2.579  -4.630 -12.524  1.00  0.00    -0.206 F 
ATOM     83  C   UNL     1       1.554  -5.732 -14.254  1.00  0.00     0.040 A 
ATOM     84  C   UNL     1      -0.785  -6.097 -14.322  1.00  0.00     0.040 A 
ATOM     85  F   UNL     1      -2.182  -5.216 -12.752  1.00  0.00    -0.206 F 
ATOM     86  C   UNL     1       0.455  -6.279 -14.893  1.00  0.00     0.006 A 
ENDBRANCH  62  79
ENDBRANCH  36  37
ENDBRANCH  28  31
ENDBRANCH  26  27
ENDBRANCH  25  26
ENDBRANCH  24  25
ENDBRANCH   1  24
TORSDOF 16
