REMARK SMILES Cc1nc2cc(S(=O)(=O)N3CCC(C(=O)NCCCCNC(=O)c4ccc(-c5c6nc(c(-c7c(F)cccc7F)c7ccc([nH]7)c(-c7c(F)cccc7F)c7nc(c(-c8c(F)cccc8F)c8ccc5[nH]8)C=C7)C=C6)cc4)CC3)ccc2n1C1CCCC1
REMARK SMILES IDX 18 1 17 2 16 3 14 4 15 5 13 7 10 8 11 9 79 10 12 11 78 12
REMARK SMILES IDX 7 13 8 14 9 15 6 16 1 17 2 18 3 19 83 20 4 21 82 22 5 23
REMARK SMILES IDX 81 24 80 25 84 26 85 27 88 28 86 29 87 30 19 31 20 32 21 33
REMARK SMILES IDX 22 34 23 36 24 37 25 38 77 39 26 40 76 41 27 42 28 43 29 44
REMARK SMILES IDX 70 45 30 46 75 47 69 48 71 49 31 50 74 51 68 52 67 53 32 55
REMARK SMILES IDX 58 56 41 57 57 58 42 59 45 60 56 61 72 62 43 63 44 64 55 66
REMARK SMILES IDX 73 67 46 68 33 69 34 70 39 71 35 72 36 73 38 74 40 75 37 76
REMARK SMILES IDX 59 77 60 78 65 79 61 80 62 81 64 82 66 83 63 84 47 85 48 86
REMARK SMILES IDX 53 87 49 88 50 89 52 90 54 91 51 92
REMARK H PARENT 16 6 21 35 71 54 45 65
REMARK Flexibility Score: inf
ROOT
ATOM      1  C   UNL     1      -4.524  -0.793 -12.278  1.00  0.00     0.023 C 
ENDROOT
BRANCH   1   2
ATOM      2  C   UNL     1      -3.121  -0.298 -11.950  1.00  0.00     0.116 C 
BRANCH   2   3
ATOM      3  N   UNL     1      -3.095   1.140 -11.722  1.00  0.00    -0.356 N 
ATOM      4  C   UNL     1      -2.748   1.837 -10.602  1.00  0.00     0.223 C 
ATOM      5  O   UNL     1      -2.809   3.066 -10.617  1.00  0.00    -0.275 OA
ATOM      6  H   UNL     1      -3.370   1.692 -12.490  1.00  0.00     0.163 HD
BRANCH   4   7
ATOM      7  C   UNL     1      -2.277   1.092  -9.366  1.00  0.00     0.081 C 
ATOM      8  N   UNL     1      -1.668  -1.437  -8.074  1.00  0.00    -0.198 NA
ATOM      9  C   UNL     1      -2.992  -0.813  -7.812  1.00  0.00     0.103 C 
ATOM     10  C   UNL     1      -0.552  -0.649  -8.657  1.00  0.00     0.103 C 
ATOM     11  C   UNL     1      -3.409   0.229  -8.819  1.00  0.00     0.030 C 
ATOM     12  C   UNL     1      -0.971   0.371  -9.683  1.00  0.00     0.030 C 
BRANCH   8  13
ATOM     13  S   UNL     1      -1.158  -2.481  -6.786  1.00  0.00     0.243 S 
ATOM     14  O   UNL     1       0.096  -3.096  -7.203  1.00  0.00    -0.207 OA
ATOM     15  O   UNL     1      -2.294  -3.262  -6.379  1.00  0.00    -0.207 OA
BRANCH  13  16
ATOM     16  C   UNL     1      -0.765  -1.376  -5.441  1.00  0.00     0.085 A 
ATOM     17  C   UNL     1       1.025   0.051   0.070  1.00  0.00     0.088 C 
ATOM     18  C   UNL     1       0.549  -0.127  -1.324  1.00  0.00     0.106 A 
ATOM     19  N   UNL     1       0.449  -1.298  -1.927  1.00  0.00    -0.233 NA
ATOM     20  N   UNL     1       0.171   0.896  -2.166  1.00  0.00    -0.325 N 
ATOM     21  C   UNL     1      -0.014  -1.044  -3.187  1.00  0.00     0.090 A 
ATOM     22  C   UNL     1      -0.205   0.322  -3.358  1.00  0.00     0.068 A 
ATOM     23  C   UNL     1      -0.303  -1.928  -4.240  1.00  0.00     0.052 A 
ATOM     24  C   UNL     1      -0.683   0.877  -4.535  1.00  0.00     0.030 A 
ATOM     25  C   UNL     1      -0.935   0.005  -5.571  1.00  0.00     0.024 A 
BRANCH  20  26
ATOM     26  C   UNL     1       0.130   2.321  -1.889  1.00  0.00     0.089 C 
ATOM     27  C   UNL     1       0.941   3.197  -2.853  1.00  0.00     0.025 C 
ATOM     28  C   UNL     1      -1.282   2.919  -1.940  1.00  0.00     0.025 C 
ATOM     29  C   UNL     1       0.359   4.592  -2.671  1.00  0.00     0.002 C 
ATOM     30  C   UNL     1      -1.087   4.405  -2.219  1.00  0.00     0.002 C 
ENDBRANCH  20  26
ENDBRANCH  13  16
ENDBRANCH   8  13
ENDBRANCH   4   7
ENDBRANCH   2   3
ENDBRANCH   1   2
BRANCH   1  31
ATOM     31  C   UNL     1      -5.031  -0.314 -13.636  1.00  0.00     0.023 C 
BRANCH  31  32
ATOM     32  C   UNL     1      -4.069  -0.625 -14.777  1.00  0.00     0.116 C 
BRANCH  32  33
ATOM     33  N   UNL     1      -3.791  -2.034 -14.911  1.00  0.00    -0.352 N 
ATOM     34  C   UNL     1      -4.219  -2.982 -15.787  1.00  0.00     0.251 C 
ATOM     35  H   UNL     1      -3.167  -2.379 -14.232  1.00  0.00     0.163 HD
ATOM     36  O   UNL     1      -3.568  -4.027 -15.839  1.00  0.00    -0.269 OA
BRANCH  34  37
ATOM     37  C   UNL     1      -5.507  -2.898 -16.505  1.00  0.00     0.039 A 
ATOM     38  C   UNL     1      -6.327  -1.785 -16.656  1.00  0.00     0.014 A 
ATOM     39  C   UNL     1      -5.983  -4.123 -16.961  1.00  0.00     0.014 A 
ATOM     40  C   UNL     1      -7.701  -1.992 -16.809  1.00  0.00     0.010 A 
ATOM     41  C   UNL     1      -7.267  -4.207 -17.437  1.00  0.00     0.010 A 
ATOM     42  C   UNL     1      -8.201  -3.290 -17.017  1.00  0.00    -0.014 A 
BRANCH  42  43
ATOM     43  C   UNL     1      -9.609  -3.575 -17.362  1.00  0.00     0.031 A 
ATOM     44  C   UNL     1      -9.946  -2.650 -18.511  1.00  0.00     0.074 A 
ATOM     45  C   UNL     1     -10.411  -4.532 -16.768  1.00  0.00     0.049 A 
ATOM     46  N   UNL     1     -10.600  -1.543 -18.379  1.00  0.00    -0.248 NA
ATOM     47  C   UNL     1      -9.207  -2.682 -19.802  1.00  0.00     0.031 C 
ATOM     48  C   UNL     1     -10.155  -5.500 -15.669  1.00  0.00     0.029 A 
ATOM     49  N   UNL     1     -11.746  -4.843 -17.025  1.00  0.00    -0.354 N 
ATOM     50  C   UNL     1     -10.678  -0.971 -19.646  1.00  0.00     0.074 A 
ATOM     51  C   UNL     1      -9.625  -1.563 -20.408  1.00  0.00     0.031 C 
ATOM     52  C   UNL     1     -11.142  -6.444 -15.594  1.00  0.00     0.029 A 
ATOM     53  C   UNL     1     -12.202  -6.110 -16.526  1.00  0.00     0.049 A 
ATOM     54  H   UNL     1     -12.340  -4.232 -17.519  1.00  0.00     0.167 HD
ATOM     55  C   UNL     1     -11.833  -0.343 -20.000  1.00  0.00     0.037 A 
ATOM     56  C   UNL     1     -13.423  -6.722 -16.757  1.00  0.00     0.037 A 
ATOM     57  C   UNL     1     -12.588  -0.064 -18.799  1.00  0.00     0.049 A 
ATOM     58  C   UNL     1     -14.341  -5.643 -17.215  1.00  0.00     0.074 A 
ATOM     59  C   UNL     1     -12.383   0.719 -17.682  1.00  0.00     0.029 A 
ATOM     60  N   UNL     1     -13.440  -1.074 -18.433  1.00  0.00    -0.354 N 
ATOM     61  N   UNL     1     -14.713  -4.685 -16.409  1.00  0.00    -0.248 NA
ATOM     62  C   UNL     1     -14.230  -5.305 -18.630  1.00  0.00     0.031 C 
ATOM     63  C   UNL     1     -12.809  -0.085 -16.582  1.00  0.00     0.029 A 
ATOM     64  C   UNL     1     -13.431  -1.230 -17.075  1.00  0.00     0.049 A 
ATOM     65  H   UNL     1     -13.980  -1.611 -19.057  1.00  0.00     0.167 HD
ATOM     66  C   UNL     1     -14.370  -3.533 -17.098  1.00  0.00     0.074 A 
ATOM     67  C   UNL     1     -14.067  -3.985 -18.469  1.00  0.00     0.031 C 
ATOM     68  C   UNL     1     -13.990  -2.394 -16.439  1.00  0.00     0.037 A 
BRANCH  55  69
ATOM     69  C   UNL     1     -12.539  -0.520 -21.330  1.00  0.00     0.057 A 
ATOM     70  C   UNL     1     -12.273  -1.549 -22.257  1.00  0.00     0.134 A 
ATOM     71  C   UNL     1     -13.771   0.138 -21.511  1.00  0.00     0.134 A 
ATOM     72  F   UNL     1     -11.162  -2.292 -22.211  1.00  0.00    -0.206 F 
ATOM     73  C   UNL     1     -13.194  -1.939 -23.237  1.00  0.00     0.040 A 
ATOM     74  C   UNL     1     -14.718  -0.276 -22.455  1.00  0.00     0.040 A 
ATOM     75  F   UNL     1     -14.134   1.148 -20.704  1.00  0.00    -0.206 F 
ATOM     76  C   UNL     1     -14.437  -1.330 -23.313  1.00  0.00     0.006 A 
ENDBRANCH  55  69
BRANCH  56  77
ATOM     77  C   UNL     1     -13.796  -8.170 -16.989  1.00  0.00     0.057 A 
ATOM     78  C   UNL     1     -12.816  -9.033 -17.498  1.00  0.00     0.134 A 
ATOM     79  C   UNL     1     -15.115  -8.696 -17.038  1.00  0.00     0.134 A 
ATOM     80  F   UNL     1     -11.548  -8.617 -17.602  1.00  0.00    -0.206 F 
ATOM     81  C   UNL     1     -13.097 -10.310 -18.012  1.00  0.00     0.040 A 
ATOM     82  C   UNL     1     -15.410  -9.991 -17.538  1.00  0.00     0.040 A 
ATOM     83  F   UNL     1     -16.169  -7.957 -16.659  1.00  0.00    -0.206 F 
ATOM     84  C   UNL     1     -14.395 -10.800 -18.036  1.00  0.00     0.006 A 
ENDBRANCH  56  77
BRANCH  68  85
ATOM     85  C   UNL     1     -14.122  -2.354 -14.940  1.00  0.00     0.057 A 
ATOM     86  C   UNL     1     -14.993  -1.408 -14.399  1.00  0.00     0.134 A 
ATOM     87  C   UNL     1     -13.357  -3.094 -14.022  1.00  0.00     0.134 A 
ATOM     88  F   UNL     1     -15.654  -0.566 -15.207  1.00  0.00    -0.206 F 
ATOM     89  C   UNL     1     -15.169  -1.261 -13.024  1.00  0.00     0.040 A 
ATOM     90  C   UNL     1     -13.553  -2.989 -12.638  1.00  0.00     0.040 A 
ATOM     91  F   UNL     1     -12.353  -3.877 -14.431  1.00  0.00    -0.206 F 
ATOM     92  C   UNL     1     -14.481  -2.083 -12.137  1.00  0.00     0.006 A 
ENDBRANCH  68  85
ENDBRANCH  42  43
ENDBRANCH  34  37
ENDBRANCH  32  33
ENDBRANCH  31  32
ENDBRANCH   1  31
TORSDOF 14
