REMARK SMILES O=C(NCCCCNC(=O)c1ccc(-c2c3nc(c(-c4c(F)cccc4F)c4ccc([nH]4)c(-c4c(F)cccc4F)c4nc(c(-c5c(F)cccc5F)c5ccc2[nH]5)C=C4)C=C3)cc1)C1=Cc2cc(Cl)cc(-c3ccc(CO)cc3)c2O[C@@H]1C(F)(F)F
REMARK SMILES IDX 5 1 4 2 3 3 1 4 2 5 65 7 66 8 83 9 67 10 82 11 68 12 81 13
REMARK SMILES IDX 69 14 72 15 70 16 71 17 84 18 85 19 86 20 87 21 73 22 74 23
REMARK SMILES IDX 80 24 75 25 79 26 76 27 77 28 78 29 6 31 7 32 8 33 9 34
REMARK SMILES IDX 10 36 11 37 12 38 64 39 13 40 63 41 14 42 15 43 16 44 57 45
REMARK SMILES IDX 17 46 62 47 56 48 58 49 18 50 61 51 55 52 54 53 19 55 45 56
REMARK SMILES IDX 28 57 44 58 29 59 32 60 43 61 59 62 30 63 31 64 42 66 60 67
REMARK SMILES IDX 33 68 20 69 21 70 26 71 22 72 23 73 25 74 27 75 24 76 46 77
REMARK SMILES IDX 47 78 52 79 48 80 49 81 51 82 53 83 50 84 34 85 35 86 40 87
REMARK SMILES IDX 36 88 37 89 39 90 41 91 38 92
REMARK H PARENT 3 6 78 30 8 35 58 54 32 65
REMARK Flexibility Score: inf
ROOT
ATOM      1  C   UNL     1       4.357  -1.175   3.048  1.00  0.00     0.023 C 
ENDROOT
BRANCH   1   2
ATOM      2  C   UNL     1       3.762  -1.165   1.638  1.00  0.00     0.116 C 
BRANCH   2   3
ATOM      3  N   UNL     1       2.617  -0.270   1.492  1.00  0.00    -0.352 N 
ATOM      4  O   UNL     1       1.171   1.121   0.479  1.00  0.00    -0.270 OA
ATOM      5  C   UNL     1       2.314   0.678   0.546  1.00  0.00     0.251 C 
ATOM      6  H   UNL     1       1.940  -0.363   2.200  1.00  0.00     0.163 HD
BRANCH   5   7
ATOM      7  C   UNL     1       3.305   1.047  -0.496  1.00  0.00     0.067 C 
ATOM      8  C   UNL     1       4.545   1.466  -0.215  1.00  0.00     0.025 C 
ATOM      9  C   UNL     1       3.079   0.423  -1.837  1.00  0.00     0.314 C 
ATOM     10  C   UNL     1       5.607   0.573  -0.690  1.00  0.00     0.019 A 
ATOM     11  O   UNL     1       4.010  -0.659  -2.071  1.00  0.00    -0.475 OA
ATOM     12  C   UNL     1       6.840   0.621  -0.030  1.00  0.00     0.032 A 
ATOM     13  C   UNL     1       5.248  -0.557  -1.468  1.00  0.00     0.135 A 
ATOM     14  C   UNL     1       7.685  -0.481  -0.091  1.00  0.00     0.042 A 
ATOM     15  C   UNL     1       6.067  -1.704  -1.466  1.00  0.00     0.026 A 
ATOM     16  Cl  UNL     1       9.128  -0.497   0.846  1.00  0.00    -0.084 Cl
ATOM     17  C   UNL     1       7.303  -1.628  -0.787  1.00  0.00     0.033 A 
BRANCH   9  18
ATOM     18  C   UNL     1       3.129   1.511  -2.937  1.00  0.00     0.429 C 
ATOM     19  F   UNL     1       2.793   1.008  -4.148  1.00  0.00    -0.167 F 
ATOM     20  F   UNL     1       2.263   2.523  -2.679  1.00  0.00    -0.167 F 
ATOM     21  F   UNL     1       4.356   2.072  -3.067  1.00  0.00    -0.167 F 
ENDBRANCH   9  18
BRANCH  15  22
ATOM     22  C   UNL     1       5.594  -3.029  -1.926  1.00  0.00    -0.015 A 
ATOM     23  C   UNL     1       5.574  -4.103  -1.016  1.00  0.00     0.009 A 
ATOM     24  C   UNL     1       5.149  -3.281  -3.229  1.00  0.00     0.009 A 
ATOM     25  C   UNL     1       5.165  -5.380  -1.400  1.00  0.00     0.007 A 
ATOM     26  C   UNL     1       4.732  -4.566  -3.616  1.00  0.00     0.007 A 
ATOM     27  C   UNL     1       4.756  -5.633  -2.709  1.00  0.00    -0.023 A 
BRANCH  27  28
ATOM     28  C   UNL     1       4.309  -7.019  -3.098  1.00  0.00     0.191 C 
BRANCH  28  29
ATOM     29  O   UNL     1       5.202  -8.005  -2.586  1.00  0.00    -0.392 OA
ATOM     30  H   UNL     1       6.089  -7.859  -2.951  1.00  0.00     0.211 HD
ENDBRANCH  28  29
ENDBRANCH  27  28
ENDBRANCH  15  22
ENDBRANCH   5   7
ENDBRANCH   2   3
ENDBRANCH   1   2
BRANCH   1  31
ATOM     31  C   UNL     1       4.169  -2.487   3.815  1.00  0.00     0.023 C 
BRANCH  31  32
ATOM     32  C   UNL     1       4.706  -3.746   3.138  1.00  0.00     0.116 C 
BRANCH  32  33
ATOM     33  N   UNL     1       6.126  -3.726   2.836  1.00  0.00    -0.352 N 
ATOM     34  C   UNL     1       6.994  -4.801   2.688  1.00  0.00     0.251 C 
ATOM     35  H   UNL     1       6.526  -2.834   2.721  1.00  0.00     0.163 HD
ATOM     36  O   UNL     1       8.161  -4.623   2.472  1.00  0.00    -0.269 OA
BRANCH  34  37
ATOM     37  C   UNL     1       6.457  -6.183   2.833  1.00  0.00     0.039 A 
ATOM     38  C   UNL     1       7.143  -7.089   3.648  1.00  0.00     0.014 A 
ATOM     39  C   UNL     1       5.279  -6.573   2.195  1.00  0.00     0.014 A 
ATOM     40  C   UNL     1       6.592  -8.351   3.895  1.00  0.00     0.010 A 
ATOM     41  C   UNL     1       4.712  -7.812   2.466  1.00  0.00     0.010 A 
ATOM     42  C   UNL     1       5.352  -8.700   3.337  1.00  0.00    -0.014 A 
BRANCH  42  43
ATOM     43  C   UNL     1       4.649  -9.947   3.715  1.00  0.00     0.031 A 
ATOM     44  C   UNL     1       4.470 -11.052   2.718  1.00  0.00     0.074 A 
ATOM     45  C   UNL     1       4.062 -10.010   4.926  1.00  0.00     0.049 A 
ATOM     46  N   UNL     1       3.832 -12.186   2.853  1.00  0.00    -0.248 NA
ATOM     47  C   UNL     1       5.061 -10.847   1.386  1.00  0.00     0.031 C 
ATOM     48  C   UNL     1       4.097  -8.951   5.938  1.00  0.00     0.029 A 
ATOM     49  N   UNL     1       3.296 -10.991   5.500  1.00  0.00    -0.354 N 
ATOM     50  C   UNL     1       3.959 -12.838   1.634  1.00  0.00     0.074 A 
ATOM     51  C   UNL     1       4.680 -11.947   0.750  1.00  0.00     0.031 C 
ATOM     52  C   UNL     1       3.384  -9.339   7.006  1.00  0.00     0.029 A 
ATOM     53  C   UNL     1       2.828 -10.663   6.749  1.00  0.00     0.049 A 
ATOM     54  H   UNL     1       3.100 -11.850   5.059  1.00  0.00     0.167 HD
ATOM     55  C   UNL     1       3.533 -14.078   1.295  1.00  0.00     0.037 A 
ATOM     56  C   UNL     1       2.036 -11.355   7.590  1.00  0.00     0.037 A 
ATOM     57  C   UNL     1       2.798 -14.946   2.178  1.00  0.00     0.049 A 
ATOM     58  C   UNL     1       1.575 -12.728   7.186  1.00  0.00     0.074 A 
ATOM     59  C   UNL     1       2.354 -16.237   1.948  1.00  0.00     0.029 A 
ATOM     60  N   UNL     1       2.390 -14.605   3.459  1.00  0.00    -0.354 N 
ATOM     61  N   UNL     1       1.794 -13.378   6.068  1.00  0.00    -0.248 NA
ATOM     62  C   UNL     1       0.776 -13.474   8.168  1.00  0.00     0.031 C 
ATOM     63  C   UNL     1       1.644 -16.662   3.076  1.00  0.00     0.029 A 
ATOM     64  C   UNL     1       1.690 -15.656   4.027  1.00  0.00     0.049 A 
ATOM     65  H   UNL     1       2.572 -13.744   3.900  1.00  0.00     0.167 HD
ATOM     66  C   UNL     1       1.197 -14.621   6.228  1.00  0.00     0.074 A 
ATOM     67  C   UNL     1       0.617 -14.637   7.555  1.00  0.00     0.031 C 
ATOM     68  C   UNL     1       1.137 -15.658   5.358  1.00  0.00     0.037 A 
BRANCH  55  69
ATOM     69  C   UNL     1       3.873 -14.580  -0.078  1.00  0.00     0.057 A 
ATOM     70  C   UNL     1       5.189 -14.915  -0.426  1.00  0.00     0.134 A 
ATOM     71  C   UNL     1       2.877 -14.794  -1.039  1.00  0.00     0.134 A 
ATOM     72  F   UNL     1       6.191 -14.728   0.446  1.00  0.00    -0.206 F 
ATOM     73  C   UNL     1       5.504 -15.431  -1.685  1.00  0.00     0.040 A 
ATOM     74  C   UNL     1       3.177 -15.332  -2.293  1.00  0.00     0.040 A 
ATOM     75  F   UNL     1       1.596 -14.502  -0.770  1.00  0.00    -0.206 F 
ATOM     76  C   UNL     1       4.494 -15.649  -2.619  1.00  0.00     0.006 A 
ENDBRANCH  55  69
BRANCH  56  77
ATOM     77  C   UNL     1       1.662 -10.785   8.908  1.00  0.00     0.057 A 
ATOM     78  C   UNL     1       2.166 -11.325  10.098  1.00  0.00     0.134 A 
ATOM     79  C   UNL     1       0.777  -9.705   9.016  1.00  0.00     0.134 A 
ATOM     80  F   UNL     1       3.008 -12.368  10.060  1.00  0.00    -0.206 F 
ATOM     81  C   UNL     1       1.778 -10.837  11.346  1.00  0.00     0.040 A 
ATOM     82  C   UNL     1       0.401  -9.189  10.257  1.00  0.00     0.040 A 
ATOM     83  F   UNL     1       0.271  -9.131   7.914  1.00  0.00    -0.206 F 
ATOM     84  C   UNL     1       0.893  -9.764  11.428  1.00  0.00     0.006 A 
ENDBRANCH  56  77
BRANCH  68  85
ATOM     85  C   UNL     1       0.468 -16.913   5.835  1.00  0.00     0.057 A 
ATOM     86  C   UNL     1      -0.919 -16.996   6.011  1.00  0.00     0.134 A 
ATOM     87  C   UNL     1       1.224 -18.064   6.093  1.00  0.00     0.134 A 
ATOM     88  F   UNL     1      -1.697 -15.925   5.793  1.00  0.00    -0.206 F 
ATOM     89  C   UNL     1      -1.528 -18.171   6.453  1.00  0.00     0.040 A 
ATOM     90  C   UNL     1       0.624 -19.253   6.508  1.00  0.00     0.040 A 
ATOM     91  F   UNL     1       2.556 -18.054   5.936  1.00  0.00    -0.206 F 
ATOM     92  C   UNL     1      -0.755 -19.306   6.697  1.00  0.00     0.006 A 
ENDBRANCH  68  85
ENDBRANCH  42  43
ENDBRANCH  34  37
ENDBRANCH  32  33
ENDBRANCH  31  32
ENDBRANCH   1  31
TORSDOF 15
