REMARK SMILES COc1cc2nc(SCC(=O)NCCCCNC(=O)c3ccc(-c4c5nc(c(-c6c(F)cccc6F)c6ccc([nH]6)c(-c6c(F)cccc6F)c6nc(c(-c7c(F)cccc7F)c7ccc4[nH]7)C=C6)C=C5)cc3)nc(O)c2cc1OC
REMARK SMILES IDX 14 1 13 2 12 3 10 4 11 5 9 7 8 8 7 9 3 10 4 11 79 12 5 13
REMARK SMILES IDX 78 14 6 15 77 16 75 17 74 18 2 19 1 20 80 21 81 22 76 23
REMARK SMILES IDX 15 25 16 26 17 27 18 28 19 30 20 31 21 32 73 33 22 34 72 35
REMARK SMILES IDX 23 36 24 37 25 38 66 39 26 40 71 41 65 42 67 43 27 44 70 45
REMARK SMILES IDX 64 46 63 47 28 49 54 50 37 51 53 52 38 53 41 54 52 55 68 56
REMARK SMILES IDX 39 57 40 58 51 60 69 61 42 62 29 63 30 64 35 65 31 66 32 67
REMARK SMILES IDX 34 68 36 69 33 70 55 71 56 72 61 73 57 74 58 75 60 76 62 77
REMARK SMILES IDX 59 78 43 79 44 80 49 81 45 82 46 83 48 84 50 85 47 86
REMARK H PARENT 12 6 76 24 17 29 67 48 41 59
REMARK Flexibility Score: inf
ROOT
ATOM      1  C   UNL     1      -3.103  -0.782   7.681  1.00  0.00     0.023 C 
ENDROOT
BRANCH   1   2
ATOM      2  C   UNL     1      -2.763  -0.137   9.026  1.00  0.00     0.116 C 
BRANCH   2   3
ATOM      3  N   UNL     1      -1.329  -0.052   9.236  1.00  0.00    -0.355 N 
ATOM      4  C   UNL     1      -0.504   1.035   9.195  1.00  0.00     0.230 C 
ATOM      5  O   UNL     1       0.696   0.848   9.417  1.00  0.00    -0.274 OA
ATOM      6  H   UNL     1      -0.885  -0.906   9.440  1.00  0.00     0.163 HD
BRANCH   4   7
ATOM      7  C   UNL     1      -1.063   2.433   8.989  1.00  0.00     0.178 C 
BRANCH   7   8
ATOM      8  S   UNL     1      -1.794   2.715   7.350  1.00  0.00    -0.076 SA
BRANCH   8   9
ATOM      9  C   UNL     1      -0.425   2.359   6.282  1.00  0.00     0.192 A 
ATOM     10  C   UNL     1       1.063   1.521   1.871  1.00  0.00     0.162 A 
ATOM     11  C   UNL     1       0.043   1.825   2.781  1.00  0.00     0.079 A 
ATOM     12  C   UNL     1       2.389   1.383   2.301  1.00  0.00     0.161 A 
ATOM     13  C   UNL     1       0.295   1.959   4.137  1.00  0.00     0.083 A 
ATOM     14  C   UNL     1       2.655   1.517   3.663  1.00  0.00     0.066 A 
ATOM     15  N   UNL     1      -0.714   2.225   4.978  1.00  0.00    -0.222 NA
ATOM     16  C   UNL     1       1.609   1.802   4.574  1.00  0.00     0.066 A 
ATOM     17  C   UNL     1       1.765   1.955   5.943  1.00  0.00     0.223 A 
ATOM     18  N   UNL     1       0.794   2.245   6.810  1.00  0.00    -0.187 NA
BRANCH  10  19
ATOM     19  O   UNL     1       0.677   1.449   0.555  1.00  0.00    -0.493 OA
ATOM     20  C   UNL     1       0.928   0.165  -0.013  1.00  0.00     0.278 C 
ENDBRANCH  10  19
BRANCH  12  21
ATOM     21  O   UNL     1       3.335   1.150   1.342  1.00  0.00    -0.493 OA
ATOM     22  C   UNL     1       4.677   0.957   1.771  1.00  0.00     0.278 C 
ENDBRANCH  12  21
BRANCH  17  23
ATOM     23  O   UNL     1       2.974   1.783   6.542  1.00  0.00    -0.493 OA
ATOM     24  H   UNL     1       3.058   1.891   7.469  1.00  0.00     0.295 HD
ENDBRANCH  17  23
ENDBRANCH   8   9
ENDBRANCH   7   8
ENDBRANCH   4   7
ENDBRANCH   2   3
ENDBRANCH   1   2
BRANCH   1  25
ATOM     25  C   UNL     1      -2.633  -2.231   7.524  1.00  0.00     0.023 C 
BRANCH  25  26
ATOM     26  C   UNL     1      -3.173  -3.213   8.559  1.00  0.00     0.116 C 
BRANCH  26  27
ATOM     27  N   UNL     1      -4.620  -3.357   8.521  1.00  0.00    -0.352 N 
ATOM     28  C   UNL     1      -5.378  -4.503   8.605  1.00  0.00     0.251 C 
ATOM     29  H   UNL     1      -5.128  -2.519   8.422  1.00  0.00     0.163 HD
ATOM     30  O   UNL     1      -6.595  -4.454   8.451  1.00  0.00    -0.269 OA
BRANCH  28  31
ATOM     31  C   UNL     1      -4.714  -5.805   8.832  1.00  0.00     0.039 A 
ATOM     32  C   UNL     1      -3.735  -5.947   9.816  1.00  0.00     0.014 A 
ATOM     33  C   UNL     1      -5.046  -6.888   8.011  1.00  0.00     0.014 A 
ATOM     34  C   UNL     1      -2.967  -7.106   9.862  1.00  0.00     0.010 A 
ATOM     35  C   UNL     1      -4.325  -8.081   8.111  1.00  0.00     0.010 A 
ATOM     36  C   UNL     1      -3.240  -8.179   8.997  1.00  0.00    -0.014 A 
BRANCH  36  37
ATOM     37  C   UNL     1      -2.352  -9.371   9.008  1.00  0.00     0.031 A 
ATOM     38  C   UNL     1      -1.498  -9.702   7.811  1.00  0.00     0.074 A 
ATOM     39  C   UNL     1      -2.265 -10.124  10.121  1.00  0.00     0.049 A 
ATOM     40  N   UNL     1      -0.646 -10.685   7.649  1.00  0.00    -0.248 NA
ATOM     41  C   UNL     1      -1.615  -8.816   6.642  1.00  0.00     0.031 C 
ATOM     42  C   UNL     1      -3.029  -9.905  11.351  1.00  0.00     0.029 A 
ATOM     43  N   UNL     1      -1.479 -11.211  10.407  1.00  0.00    -0.354 N 
ATOM     44  C   UNL     1      -0.143 -10.547   6.361  1.00  0.00     0.074 A 
ATOM     45  C   UNL     1      -0.804  -9.402   5.772  1.00  0.00     0.031 C 
ATOM     46  C   UNL     1      -2.641 -10.800  12.273  1.00  0.00     0.029 A 
ATOM     47  C   UNL     1      -1.643 -11.687  11.685  1.00  0.00     0.049 A 
ATOM     48  H   UNL     1      -0.856 -11.613   9.758  1.00  0.00     0.167 HD
ATOM     49  C   UNL     1       0.793 -11.296   5.730  1.00  0.00     0.037 A 
ATOM     50  C   UNL     1      -1.063 -12.727  12.310  1.00  0.00     0.037 A 
ATOM     51  C   UNL     1       1.472 -12.420   6.320  1.00  0.00     0.049 A 
ATOM     52  C   UNL     1      -0.057 -13.563  11.572  1.00  0.00     0.074 A 
ATOM     53  C   UNL     1       2.453 -13.225   5.765  1.00  0.00     0.029 A 
ATOM     54  N   UNL     1       1.241 -12.897   7.601  1.00  0.00    -0.354 N 
ATOM     55  N   UNL     1       0.416 -13.410  10.360  1.00  0.00    -0.248 NA
ATOM     56  C   UNL     1       0.490 -14.722  12.291  1.00  0.00     0.031 C 
ATOM     57  C   UNL     1       2.792 -14.210   6.699  1.00  0.00     0.029 A 
ATOM     58  C   UNL     1       2.049 -13.996   7.848  1.00  0.00     0.049 A 
ATOM     59  H   UNL     1       0.599 -12.513   8.240  1.00  0.00     0.167 HD
ATOM     60  C   UNL     1       1.325 -14.443  10.175  1.00  0.00     0.074 A 
ATOM     61  C   UNL     1       1.355 -15.202  11.408  1.00  0.00     0.031 C 
ATOM     62  C   UNL     1       2.067 -14.739   9.081  1.00  0.00     0.037 A 
BRANCH  49  63
ATOM     63  C   UNL     1       1.135 -10.929   4.315  1.00  0.00     0.057 A 
ATOM     64  C   UNL     1       0.723 -11.739   3.249  1.00  0.00     0.134 A 
ATOM     65  C   UNL     1       1.905  -9.800   4.010  1.00  0.00     0.134 A 
ATOM     66  F   UNL     1      -0.012 -12.838   3.472  1.00  0.00    -0.206 F 
ATOM     67  C   UNL     1       1.069 -11.440   1.930  1.00  0.00     0.040 A 
ATOM     68  C   UNL     1       2.239  -9.479   2.693  1.00  0.00     0.040 A 
ATOM     69  F   UNL     1       2.320  -8.976   4.985  1.00  0.00    -0.206 F 
ATOM     70  C   UNL     1       1.826 -10.304   1.649  1.00  0.00     0.006 A 
ENDBRANCH  49  63
BRANCH  50  71
ATOM     71  C   UNL     1      -1.426 -13.049  13.712  1.00  0.00     0.057 A 
ATOM     72  C   UNL     1      -2.685 -13.566  14.037  1.00  0.00     0.134 A 
ATOM     73  C   UNL     1      -0.512 -12.866  14.756  1.00  0.00     0.134 A 
ATOM     74  F   UNL     1      -3.605 -13.761  13.081  1.00  0.00    -0.206 F 
ATOM     75  C   UNL     1      -3.026 -13.885  15.352  1.00  0.00     0.040 A 
ATOM     76  C   UNL     1      -0.830 -13.204  16.072  1.00  0.00     0.040 A 
ATOM     77  F   UNL     1       0.717 -12.394  14.502  1.00  0.00    -0.206 F 
ATOM     78  C   UNL     1      -2.093 -13.712  16.372  1.00  0.00     0.006 A 
ENDBRANCH  50  71
BRANCH  62  79
ATOM     79  C   UNL     1       2.986 -15.919   9.184  1.00  0.00     0.057 A 
ATOM     80  C   UNL     1       4.370 -15.739   9.295  1.00  0.00     0.134 A 
ATOM     81  C   UNL     1       2.501 -17.233   9.163  1.00  0.00     0.134 A 
ATOM     82  F   UNL     1       4.897 -14.506   9.316  1.00  0.00    -0.206 F 
ATOM     83  C   UNL     1       5.240 -16.826   9.386  1.00  0.00     0.040 A 
ATOM     84  C   UNL     1       3.359 -18.327   9.275  1.00  0.00     0.040 A 
ATOM     85  F   UNL     1       1.183 -17.470   9.074  1.00  0.00    -0.206 F 
ATOM     86  C   UNL     1       4.734 -18.125   9.383  1.00  0.00     0.006 A 
ENDBRANCH  62  79
ENDBRANCH  36  37
ENDBRANCH  28  31
ENDBRANCH  26  27
ENDBRANCH  25  26
ENDBRANCH   1  25
TORSDOF 16
