REMARK SMILES C[C@]12C[C@@H](O)[C@@H]3[C@@H](CCC4=CC(=O)CC[C@]43C)[C@H]1CC[C@]2(O)C(=O)COC(=O)CCC(=O)NCCCCNC(=O)c1ccc(-c2c3nc(c(-c4c(F)cccc4F)c4ccc([nH]4)c(-c4c(F)cccc4F)c4nc(c(-c5c(F)cccc5F)c5ccc2[nH]5)C=C4)C=C3)cc1
REMARK SMILES IDX 31 1 32 2 33 3 30 5 29 6 27 7 28 8 26 9 25 10 23 11 24 12
REMARK SMILES IDX 21 13 17 14 16 15 15 16 10 17 6 18 14 19 11 20 9 21 7 22
REMARK SMILES IDX 4 23 12 24 8 25 18 26 3 27 13 28 2 29 19 30 1 31 20 32 5 33
REMARK SMILES IDX 22 35 34 37 35 38 36 39 37 40 38 41 39 42 40 44 41 45 42 46
REMARK SMILES IDX 94 47 43 48 93 49 44 50 45 51 46 52 87 53 47 54 92 55 86 56
REMARK SMILES IDX 88 57 48 58 91 59 85 60 84 61 49 63 75 64 58 65 74 66 59 67
REMARK SMILES IDX 62 68 73 69 89 70 60 71 61 72 72 74 90 75 63 76 50 77 51 78
REMARK SMILES IDX 56 79 52 80 53 81 55 82 57 83 54 84 76 85 77 86 82 87 78 88
REMARK SMILES IDX 79 89 81 90 83 91 80 92 64 93 65 94 70 95 66 96 67 97 69 98
REMARK SMILES IDX 71 99 68 100
REMARK H PARENT 33 4 5 34 22 36 38 43 88 62 62 73
REMARK Flexibility Score: inf
ROOT
ATOM      1  C   UNL     1      -2.191   6.894   2.286  1.00  0.00     0.220 C 
ATOM      2  O   UNL     1      -1.518   7.452   3.159  1.00  0.00    -0.275 OA
ATOM      3  N   UNL     1      -2.430   7.609   1.154  1.00  0.00    -0.356 N 
ATOM      4  H   UNL     1      -2.354   8.583   1.281  1.00  0.00     0.163 HD
ENDROOT
BRANCH   1   5
ATOM      5  C   UNL     1      -2.671   5.476   2.514  1.00  0.00     0.111 C 
BRANCH   5   6
ATOM      6  C   UNL     1      -4.176   5.302   2.480  1.00  0.00     0.132 C 
BRANCH   6   7
ATOM      7  C   UNL     1      -4.496   4.336   1.381  1.00  0.00     0.306 C 
ATOM      8  O   UNL     1      -4.575   3.131   1.496  1.00  0.00    -0.252 OA
BRANCH   7   9
ATOM      9  O   UNL     1      -4.582   5.040   0.232  1.00  0.00    -0.458 OA
BRANCH   9  10
ATOM     10  C   UNL     1      -4.858   4.305  -0.922  1.00  0.00     0.311 C 
BRANCH  10  11
ATOM     11  C   UNL     1      -3.941   4.475  -2.128  1.00  0.00     0.202 C 
ATOM     12  O   UNL     1      -4.588   4.656  -3.175  1.00  0.00    -0.293 OA
BRANCH  11  13
ATOM     13  C   UNL     1      -2.478   3.969  -2.277  1.00  0.00     0.132 C 
ATOM     14  C   UNL     1       1.439  -0.379   0.203  1.00  0.00     0.016 C 
ATOM     15  C   UNL     1       0.959   0.002  -1.215  1.00  0.00    -0.005 C 
ATOM     16  C   UNL     1       1.959  -0.663  -2.229  1.00  0.00     0.020 C 
ATOM     17  C   UNL     1      -0.367  -0.691  -1.567  1.00  0.00    -0.060 C 
ATOM     18  C   UNL     1       0.957   1.590  -1.422  1.00  0.00     0.031 C 
ATOM     19  C   UNL     1       1.620  -2.129  -2.601  1.00  0.00     0.081 C 
ATOM     20  C   UNL     1      -0.578  -1.973  -1.213  1.00  0.00     0.047 C 
ATOM     21  C   UNL     1      -0.949  -0.292  -2.900  1.00  0.00     0.032 C 
ATOM     22  C   UNL     1       0.197   1.999  -2.722  1.00  0.00    -0.000 C 
ATOM     23  C   UNL     1       0.627   2.613  -0.266  1.00  0.00     0.119 C 
ATOM     24  C   UNL     1       0.604  -2.792  -1.676  1.00  0.00     0.155 C 
ATOM     25  C   UNL     1      -1.082   1.191  -2.869  1.00  0.00     0.009 C 
ATOM     26  C   UNL     1      -0.051   3.526  -2.738  1.00  0.00     0.002 C 
ATOM     27  C   UNL     1      -0.759   3.291  -0.315  1.00  0.00     0.042 C 
ATOM     28  O   UNL     1       0.709  -3.960  -1.311  1.00  0.00    -0.295 OA
ATOM     29  C   UNL     1      -1.015   4.097  -1.614  1.00  0.00     0.009 C 
ATOM     30  C   UNL     1      -0.645   4.071  -4.019  1.00  0.00     0.008 C 
ATOM     31  C   UNL     1      -0.460   5.537  -1.405  1.00  0.00     0.015 C 
ATOM     32  C   UNL     1      -2.147   4.074  -3.808  1.00  0.00     0.044 C 
BRANCH  23  33
ATOM     33  O   UNL     1       0.826   2.135   1.052  1.00  0.00    -0.393 OA
ATOM     34  H   UNL     1       0.155   1.466   1.258  1.00  0.00     0.210 HD
ENDBRANCH  23  33
BRANCH  13  35
ATOM     35  O   UNL     1      -3.012   2.661  -1.968  1.00  0.00    -0.381 OA
ATOM     36  H   UNL     1      -2.293   2.009  -1.972  1.00  0.00     0.212 HD
ENDBRANCH  13  35
ENDBRANCH  11  13
ENDBRANCH  10  11
ENDBRANCH   9  10
ENDBRANCH   7   9
ENDBRANCH   6   7
ENDBRANCH   5   6
ENDBRANCH   1   5
BRANCH   3  37
ATOM     37  C   UNL     1      -2.775   7.228  -0.204  1.00  0.00     0.116 C 
BRANCH  37  38
ATOM     38  C   UNL     1      -4.041   7.873  -0.777  1.00  0.00     0.023 C 
BRANCH  38  39
ATOM     39  C   UNL     1      -3.799   8.644  -2.088  1.00  0.00     0.023 C 
BRANCH  39  40
ATOM     40  C   UNL     1      -3.413   7.834  -3.328  1.00  0.00     0.116 C 
BRANCH  40  41
ATOM     41  N   UNL     1      -4.486   7.040  -3.900  1.00  0.00    -0.352 N 
ATOM     42  C   UNL     1      -4.662   6.541  -5.177  1.00  0.00     0.251 C 
ATOM     43  H   UNL     1      -5.212   6.819  -3.272  1.00  0.00     0.163 HD
ATOM     44  O   UNL     1      -5.598   5.791  -5.442  1.00  0.00    -0.269 OA
BRANCH  42  45
ATOM     45  C   UNL     1      -3.807   7.000  -6.279  1.00  0.00     0.039 A 
ATOM     46  C   UNL     1      -4.485   7.375  -7.440  1.00  0.00     0.014 A 
ATOM     47  C   UNL     1      -2.439   7.227  -6.138  1.00  0.00     0.014 A 
ATOM     48  C   UNL     1      -3.846   8.181  -8.363  1.00  0.00     0.010 A 
ATOM     49  C   UNL     1      -1.819   8.096  -7.016  1.00  0.00     0.010 A 
ATOM     50  C   UNL     1      -2.549   8.629  -8.087  1.00  0.00    -0.014 A 
BRANCH  50  51
ATOM     51  C   UNL     1      -1.999   9.767  -8.837  1.00  0.00     0.031 A 
ATOM     52  C   UNL     1      -0.811   9.572  -9.712  1.00  0.00     0.074 A 
ATOM     53  C   UNL     1      -2.551  10.980  -8.639  1.00  0.00     0.049 A 
ATOM     54  N   UNL     1      -0.180  10.449 -10.441  1.00  0.00    -0.248 NA
ATOM     55  C   UNL     1      -0.234   8.219  -9.748  1.00  0.00     0.031 C 
ATOM     56  C   UNL     1      -3.673  11.265  -7.734  1.00  0.00     0.029 A 
ATOM     57  N   UNL     1      -2.253  12.198  -9.184  1.00  0.00    -0.354 N 
ATOM     58  C   UNL     1       0.873   9.758 -11.019  1.00  0.00     0.074 A 
ATOM     59  C   UNL     1       0.836   8.408 -10.505  1.00  0.00     0.031 C 
ATOM     60  C   UNL     1      -3.996  12.564  -7.827  1.00  0.00     0.029 A 
ATOM     61  C   UNL     1      -3.084  13.208  -8.762  1.00  0.00     0.049 A 
ATOM     62  H   UNL     1      -1.513  12.338  -9.818  1.00  0.00     0.167 HD
ATOM     63  C   UNL     1       1.770  10.217 -11.920  1.00  0.00     0.037 A 
ATOM     64  C   UNL     1      -3.104  14.508  -9.107  1.00  0.00     0.037 A 
ATOM     65  C   UNL     1       1.772  11.566 -12.416  1.00  0.00     0.049 A 
ATOM     66  C   UNL     1      -2.093  14.987 -10.109  1.00  0.00     0.074 A 
ATOM     67  C   UNL     1       2.587  12.131 -13.378  1.00  0.00     0.029 A 
ATOM     68  N   UNL     1       0.915  12.568 -11.975  1.00  0.00    -0.354 N 
ATOM     69  N   UNL     1      -1.157  14.307 -10.729  1.00  0.00    -0.248 NA
ATOM     70  C   UNL     1      -2.141  16.410 -10.465  1.00  0.00     0.031 C 
ATOM     71  C   UNL     1       2.265  13.488 -13.476  1.00  0.00     0.029 A 
ATOM     72  C   UNL     1       1.205  13.757 -12.622  1.00  0.00     0.049 A 
ATOM     73  H   UNL     1       0.206  12.449 -11.302  1.00  0.00     0.167 HD
ATOM     74  C   UNL     1      -0.525  15.209 -11.572  1.00  0.00     0.074 A 
ATOM     75  C   UNL     1      -1.196  16.482 -11.392  1.00  0.00     0.031 C 
ATOM     76  C   UNL     1       0.514  15.007 -12.420  1.00  0.00     0.037 A 
BRANCH  63  77
ATOM     77  C   UNL     1       2.815   9.253 -12.399  1.00  0.00     0.057 A 
ATOM     78  C   UNL     1       2.494   8.136 -13.183  1.00  0.00     0.134 A 
ATOM     79  C   UNL     1       4.162   9.441 -12.066  1.00  0.00     0.134 A 
ATOM     80  F   UNL     1       1.220   7.885 -13.520  1.00  0.00    -0.206 F 
ATOM     81  C   UNL     1       3.469   7.224 -13.590  1.00  0.00     0.040 A 
ATOM     82  C   UNL     1       5.150   8.554 -12.495  1.00  0.00     0.040 A 
ATOM     83  F   UNL     1       4.540  10.486 -11.315  1.00  0.00    -0.206 F 
ATOM     84  C   UNL     1       4.803   7.436 -13.251  1.00  0.00     0.006 A 
ENDBRANCH  63  77
BRANCH  64  85
ATOM     85  C   UNL     1      -4.132  15.419  -8.544  1.00  0.00     0.057 A 
ATOM     86  C   UNL     1      -5.145  15.948  -9.353  1.00  0.00     0.134 A 
ATOM     87  C   UNL     1      -4.136  15.781  -7.192  1.00  0.00     0.134 A 
ATOM     88  F   UNL     1      -5.190  15.647 -10.660  1.00  0.00    -0.206 F 
ATOM     89  C   UNL     1      -6.109  16.821  -8.846  1.00  0.00     0.040 A 
ATOM     90  C   UNL     1      -5.110  16.633  -6.664  1.00  0.00     0.040 A 
ATOM     91  F   UNL     1      -3.204  15.298  -6.358  1.00  0.00    -0.206 F 
ATOM     92  C   UNL     1      -6.095  17.162  -7.495  1.00  0.00     0.006 A 
ENDBRANCH  64  85
BRANCH  76  93
ATOM     93  C   UNL     1       0.959  16.182 -13.238  1.00  0.00     0.057 A 
ATOM     94  C   UNL     1       1.630  17.271 -12.668  1.00  0.00     0.134 A 
ATOM     95  C   UNL     1       0.749  16.202 -14.623  1.00  0.00     0.134 A 
ATOM     96  F   UNL     1       1.850  17.318 -11.345  1.00  0.00    -0.206 F 
ATOM     97  C   UNL     1       2.054  18.350 -13.444  1.00  0.00     0.040 A 
ATOM     98  C   UNL     1       1.197  17.259 -15.413  1.00  0.00     0.040 A 
ATOM     99  F   UNL     1       0.121  15.184 -15.232  1.00  0.00    -0.206 F 
ATOM    100  C   UNL     1       1.846  18.341 -14.822  1.00  0.00     0.006 A 
ENDBRANCH  76  93
ENDBRANCH  50  51
ENDBRANCH  42  45
ENDBRANCH  40  41
ENDBRANCH  39  40
ENDBRANCH  38  39
ENDBRANCH  37  38
ENDBRANCH   3  37
TORSDOF 19
