REMARK SMILES C=C[C@@H]1[C@H](O)C[C@H]2[C@]3(CC[C@]4(C)[C@@H]([C@H](C)CCC=C(C)C)CC[C@]24C)C[C@]13CCC(=O)NCCCCNC(=O)c1ccc(-c2c3nc(c(-c4c(F)cccc4F)c4ccc([nH]4)c(-c4c(F)cccc4F)c4nc(c(-c5c(F)cccc5F)c5ccc2[nH]5)C=C4)C=C3)cc1
REMARK SMILES IDX 30 1 31 2 32 3 29 5 28 6 27 7 3 8 4 9 6 10 8 11 26 12 7 13
REMARK SMILES IDX 9 14 24 15 10 16 11 17 23 18 25 19 13 20 12 21 22 22 2 23
REMARK SMILES IDX 1 24 5 25 14 27 15 28 16 29 17 30 18 31 19 32 20 33 21 34
REMARK SMILES IDX 33 35 34 36 35 37 36 38 37 39 38 40 39 42 40 43 41 44 93 45
REMARK SMILES IDX 42 46 92 47 43 48 44 49 45 50 86 51 46 52 91 53 85 54 87 55
REMARK SMILES IDX 47 56 90 57 84 58 83 59 48 61 74 62 57 63 73 64 58 65 61 66
REMARK SMILES IDX 72 67 88 68 59 69 60 70 71 72 89 73 62 74 49 75 50 76 55 77
REMARK SMILES IDX 51 78 52 79 54 80 56 81 53 82 75 83 76 84 81 85 77 86 78 87
REMARK SMILES IDX 80 88 82 89 79 90 63 91 64 92 69 93 65 94 66 95 68 96 70 97
REMARK SMILES IDX 67 98
REMARK H PARENT 32 4 5 26 37 41 87 60 61 71
REMARK Flexibility Score: inf
ROOT
ATOM      1  C   UNL     1      -3.118  -1.258  -2.560  1.00  0.00     0.220 C 
ATOM      2  O   UNL     1      -3.397  -1.809  -3.622  1.00  0.00    -0.275 OA
ATOM      3  N   UNL     1      -2.973   0.098  -2.532  1.00  0.00    -0.356 N 
ATOM      4  H   UNL     1      -2.952   0.542  -3.411  1.00  0.00     0.163 HD
ENDROOT
BRANCH   1   5
ATOM      5  C   UNL     1      -2.974  -2.002  -1.269  1.00  0.00     0.100 C 
BRANCH   5   6
ATOM      6  C   UNL     1      -1.665  -1.733  -0.547  1.00  0.00     0.018 C 
BRANCH   6   7
ATOM      7  C   UNL     1      -1.421  -0.255  -0.259  1.00  0.00    -0.014 C 
ATOM      8  C   UNL     1      -0.716   0.592  -1.877  1.00  0.00     0.047 C 
ATOM      9  C   UNL     1      -1.599   2.283  -2.452  1.00  0.00     0.122 C 
ATOM     10  C   UNL     1      -2.780   3.219  -1.157  1.00  0.00     0.037 C 
ATOM     11  C   UNL     1      -2.498   0.603   0.928  1.00  0.00    -0.019 C 
ATOM     12  C   UNL     1      -1.051   0.120   1.290  1.00  0.00     0.016 C 
ATOM     13  C   UNL     1      -3.354   2.257   0.451  1.00  0.00     0.005 C 
ATOM     14  C   UNL     1      -3.458  -0.111   1.865  1.00  0.00     0.008 C 
ATOM     15  C   UNL     1      -3.905   3.008   1.729  1.00  0.00    -0.023 C 
ATOM     16  C   UNL     1      -3.801   0.794   3.044  1.00  0.00     0.008 C 
ATOM     17  C   UNL     1      -4.707   2.003   2.697  1.00  0.00    -0.024 C 
ATOM     18  C   UNL     1      -5.039   3.951   1.288  1.00  0.00     0.008 C 
ATOM     19  C   UNL     1      -2.795   3.793   2.427  1.00  0.00     0.012 C 
ATOM     20  C   UNL     1      -5.996   1.697   1.837  1.00  0.00    -0.002 C 
ATOM     21  C   UNL     1      -5.127   2.660   4.037  1.00  0.00     0.012 C 
ATOM     22  C   UNL     1      -6.299   3.074   1.163  1.00  0.00     0.005 C 
BRANCH   8  23
ATOM     23  C   UNL     1       0.815   0.486  -1.961  1.00  0.00    -0.028 C 
ATOM     24  C   UNL     1       1.592  -0.303  -1.204  1.00  0.00     0.004 C 
ENDBRANCH   8  23
BRANCH   9  25
ATOM     25  O   UNL     1      -0.741   3.127  -3.224  1.00  0.00    -0.392 OA
ATOM     26  H   UNL     1      -0.037   3.479  -2.657  1.00  0.00     0.210 HD
ENDBRANCH   9  25
BRANCH  20  27
ATOM     27  C   UNL     1      -7.261   0.920   2.340  1.00  0.00    -0.010 C 
ATOM     28  C   UNL     1      -8.350   1.820   2.946  1.00  0.00     0.008 C 
BRANCH  27  29
ATOM     29  C   UNL     1      -7.022  -0.314   3.251  1.00  0.00     0.008 C 
BRANCH  29  30
ATOM     30  C   UNL     1      -7.290  -1.694   2.619  1.00  0.00     0.027 C 
BRANCH  30  31
ATOM     31  C   UNL     1      -6.241  -2.273   1.702  1.00  0.00    -0.028 C 
ATOM     32  C   UNL     1      -5.426  -3.316   1.975  1.00  0.00    -0.080 C 
ATOM     33  C   UNL     1      -4.584  -3.968   0.912  1.00  0.00     0.039 C 
ATOM     34  C   UNL     1      -5.296  -3.962   3.326  1.00  0.00     0.039 C 
ENDBRANCH  30  31
ENDBRANCH  29  30
ENDBRANCH  27  29
ENDBRANCH  20  27
ENDBRANCH   6   7
ENDBRANCH   5   6
ENDBRANCH   1   5
BRANCH   3  35
ATOM     35  C   UNL     1      -2.839   1.028  -1.317  1.00  0.00     0.116 C 
BRANCH  35  36
ATOM     36  C   UNL     1      -1.248   2.055  -0.392  1.00  0.00     0.023 C 
BRANCH  36  37
ATOM     37  C   UNL     1       0.001   3.204  -0.730  1.00  0.00     0.023 C 
BRANCH  37  38
ATOM     38  C   UNL     1      -0.144   4.702  -1.012  1.00  0.00     0.116 C 
BRANCH  38  39
ATOM     39  N   UNL     1      -0.544   5.476   0.142  1.00  0.00    -0.352 N 
ATOM     40  C   UNL     1      -0.807   6.824   0.187  1.00  0.00     0.251 C 
ATOM     41  H   UNL     1      -0.638   4.982   0.989  1.00  0.00     0.163 HD
ATOM     42  O   UNL     1      -1.078   7.381   1.235  1.00  0.00    -0.269 OA
BRANCH  40  43
ATOM     43  C   UNL     1      -0.662   7.609  -1.057  1.00  0.00     0.039 A 
ATOM     44  C   UNL     1       0.337   8.582  -1.091  1.00  0.00     0.014 A 
ATOM     45  C   UNL     1      -1.467   7.371  -2.175  1.00  0.00     0.014 A 
ATOM     46  C   UNL     1       0.548   9.308  -2.260  1.00  0.00     0.010 A 
ATOM     47  C   UNL     1      -1.214   8.057  -3.362  1.00  0.00     0.010 A 
ATOM     48  C   UNL     1      -0.214   9.042  -3.409  1.00  0.00    -0.014 A 
BRANCH  48  49
ATOM     49  C   UNL     1       0.033   9.823  -4.645  1.00  0.00     0.031 A 
ATOM     50  C   UNL     1      -0.993  10.801  -5.138  1.00  0.00     0.074 A 
ATOM     51  C   UNL     1       1.191   9.657  -5.311  1.00  0.00     0.049 A 
ATOM     52  N   UNL     1      -0.924  11.635  -6.144  1.00  0.00    -0.248 NA
ATOM     53  C   UNL     1      -2.274  10.832  -4.418  1.00  0.00     0.031 C 
ATOM     54  C   UNL     1       2.235   8.695  -4.955  1.00  0.00     0.029 A 
ATOM     55  N   UNL     1       1.688  10.296  -6.418  1.00  0.00    -0.354 N 
ATOM     56  C   UNL     1      -2.151  12.285  -6.179  1.00  0.00     0.074 A 
ATOM     57  C   UNL     1      -2.966  11.704  -5.134  1.00  0.00     0.031 C 
ATOM     58  C   UNL     1       3.262   8.827  -5.809  1.00  0.00     0.029 A 
ATOM     59  C   UNL     1       2.938   9.863  -6.786  1.00  0.00     0.049 A 
ATOM     60  H   UNL     1       1.197  10.998  -6.902  1.00  0.00     0.167 HD
ATOM     61  C   UNL     1      -2.554  13.289  -6.994  1.00  0.00     0.037 A 
ATOM     62  C   UNL     1       3.735  10.259  -7.796  1.00  0.00     0.037 A 
ATOM     63  C   UNL     1      -1.730  13.857  -8.030  1.00  0.00     0.049 A 
ATOM     64  C   UNL     1       3.279  11.385  -8.682  1.00  0.00     0.074 A 
ATOM     65  C   UNL     1      -2.011  14.915  -8.876  1.00  0.00     0.029 A 
ATOM     66  N   UNL     1      -0.464  13.399  -8.370  1.00  0.00    -0.354 N 
ATOM     67  N   UNL     1       2.153  12.056  -8.648  1.00  0.00    -0.248 NA
ATOM     68  C   UNL     1       4.208  11.820  -9.732  1.00  0.00     0.031 C 
ATOM     69  C   UNL     1      -0.941  15.056  -9.767  1.00  0.00     0.029 A 
ATOM     70  C   UNL     1       0.036  14.130  -9.435  1.00  0.00     0.049 A 
ATOM     71  H   UNL     1       0.009  12.662  -7.920  1.00  0.00     0.167 HD
ATOM     72  C   UNL     1       2.241  13.004  -9.659  1.00  0.00     0.074 A 
ATOM     73  C   UNL     1       3.543  12.831 -10.274  1.00  0.00     0.031 C 
ATOM     74  C   UNL     1       1.330  13.933 -10.043  1.00  0.00     0.037 A 
BRANCH  61  75
ATOM     75  C   UNL     1      -3.953  13.807  -6.804  1.00  0.00     0.057 A 
ATOM     76  C   UNL     1      -4.346  14.490  -5.644  1.00  0.00     0.134 A 
ATOM     77  C   UNL     1      -4.929  13.600  -7.787  1.00  0.00     0.134 A 
ATOM     78  F   UNL     1      -3.466  14.714  -4.655  1.00  0.00    -0.206 F 
ATOM     79  C   UNL     1      -5.666  14.900  -5.446  1.00  0.00     0.040 A 
ATOM     80  C   UNL     1      -6.245  14.036  -7.615  1.00  0.00     0.040 A 
ATOM     81  F   UNL     1      -4.625  12.963  -8.927  1.00  0.00    -0.206 F 
ATOM     82  C   UNL     1      -6.620  14.675  -6.436  1.00  0.00     0.006 A 
ENDBRANCH  61  75
BRANCH  62  83
ATOM     83  C   UNL     1       5.050   9.597  -7.993  1.00  0.00     0.057 A 
ATOM     84  C   UNL     1       6.252  10.255  -7.712  1.00  0.00     0.134 A 
ATOM     85  C   UNL     1       5.130   8.267  -8.428  1.00  0.00     0.134 A 
ATOM     86  F   UNL     1       6.244  11.533  -7.306  1.00  0.00    -0.206 F 
ATOM     87  C   UNL     1       7.486   9.618  -7.860  1.00  0.00     0.040 A 
ATOM     88  C   UNL     1       6.355   7.611  -8.556  1.00  0.00     0.040 A 
ATOM     89  F   UNL     1       4.013   7.577  -8.705  1.00  0.00    -0.206 F 
ATOM     90  C   UNL     1       7.539   8.288  -8.275  1.00  0.00     0.006 A 
ENDBRANCH  62  83
BRANCH  74  91
ATOM     91  C   UNL     1       1.718  14.845 -11.172  1.00  0.00     0.057 A 
ATOM     92  C   UNL     1       1.824  14.388 -12.492  1.00  0.00     0.134 A 
ATOM     93  C   UNL     1       1.954  16.206 -10.938  1.00  0.00     0.134 A 
ATOM     94  F   UNL     1       1.622  13.094 -12.783  1.00  0.00    -0.206 F 
ATOM     95  C   UNL     1       2.176  15.247 -13.534  1.00  0.00     0.040 A 
ATOM     96  C   UNL     1       2.276  17.080 -11.977  1.00  0.00     0.040 A 
ATOM     97  F   UNL     1       1.860  16.711  -9.699  1.00  0.00    -0.206 F 
ATOM     98  C   UNL     1       2.397  16.599 -13.279  1.00  0.00     0.006 A 
ENDBRANCH  74  91
ENDBRANCH  48  49
ENDBRANCH  40  43
ENDBRANCH  38  39
ENDBRANCH  37  38
ENDBRANCH  36  37
ENDBRANCH  35  36
ENDBRANCH   3  35
TORSDOF 19
