REMARK SMILES C[N@H+](Cc1cc(Cl)ccc1[N+](=O)[O-])[C@H]1COC[C@@H]1C(=O)NCCCCNC(=O)c1ccc(-c2c3nc(c(-c4c(F)cccc4F)c4ccc([nH]4)c(-c4c(F)cccc4F)c4nc(c(-c5c(F)cccc5F)c5ccc2[nH]5)C=C4)C=C3)cc1
REMARK SMILES IDX 22 1 21 2 19 3 20 4 18 6 14 7 15 8 16 9 17 10 2 11 1 12 3 14
REMARK SMILES IDX 4 15 5 16 10 17 6 18 9 19 7 20 8 21 11 22 12 23 13 24 23 25
REMARK SMILES IDX 24 26 25 27 26 28 27 29 28 31 29 32 30 33 82 34 31 35 81 36
REMARK SMILES IDX 32 37 33 38 34 39 75 40 35 41 80 42 74 43 76 44 36 45 79 46
REMARK SMILES IDX 73 47 72 48 37 50 63 51 46 52 62 53 47 54 50 55 61 56 77 57
REMARK SMILES IDX 48 58 49 59 60 61 78 62 51 63 38 64 39 65 44 66 40 67 41 68
REMARK SMILES IDX 43 69 45 70 42 71 64 72 65 73 70 74 66 75 67 76 69 77 71 78
REMARK SMILES IDX 68 79 52 80 53 81 58 82 54 83 55 84 57 85 59 86 56 87
REMARK H PARENT 21 5 2 13 26 30 76 49 50 60
REMARK Flexibility Score: inf
ROOT
ATOM      1  C   UNL     1       5.159  -3.427   1.245  1.00  0.00     0.116 C 
ENDROOT
BRANCH   1   2
ATOM      2  N   UNL     1       3.980  -3.073   2.017  1.00  0.00    -0.356 N 
ATOM      3  C   UNL     1       2.709  -2.816   1.577  1.00  0.00     0.231 C 
ATOM      4  O   UNL     1       1.865  -2.457   2.395  1.00  0.00    -0.274 OA
ATOM      5  H   UNL     1       4.113  -3.009   2.991  1.00  0.00     0.163 HD
BRANCH   3   6
ATOM      6  C   UNL     1       2.422  -2.974   0.092  1.00  0.00     0.164 C 
ATOM      7  C   UNL     1       1.078  -2.380  -0.328  1.00  0.00     0.225 C 
ATOM      8  C   UNL     1       0.144  -3.575  -0.071  1.00  0.00     0.226 C 
ATOM      9  O   UNL     1       0.901  -4.777  -0.291  1.00  0.00    -0.374 OA
ATOM     10  C   UNL     1       2.293  -4.451  -0.241  1.00  0.00     0.180 C 
BRANCH   7  11
ATOM     11  N   UNL     1       0.917  -1.944  -1.758  1.00  0.00    -0.328 N 
ATOM     12  C   UNL     1       2.160  -1.879  -2.526  1.00  0.00     0.333 C 
ATOM     13  H   UNL     1       0.380  -2.674  -2.225  1.00  0.00     0.348 HD
BRANCH  11  14
ATOM     14  C   UNL     1       0.179  -0.661  -1.797  1.00  0.00     0.306 C 
BRANCH  14  15
ATOM     15  C   UNL     1      -0.203  -0.228  -3.201  1.00  0.00     0.085 A 
ATOM     16  C   UNL     1       0.672   0.689  -3.836  1.00  0.00     0.037 A 
ATOM     17  C   UNL     1      -1.284  -0.735  -3.954  1.00  0.00     0.278 A 
ATOM     18  C   UNL     1       0.510   1.047  -5.173  1.00  0.00     0.042 A 
ATOM     19  C   UNL     1      -1.447  -0.348  -5.303  1.00  0.00     0.088 A 
ATOM     20  Cl  UNL     1       1.645   2.103  -5.916  1.00  0.00    -0.084 Cl
ATOM     21  C   UNL     1      -0.545   0.528  -5.912  1.00  0.00     0.027 A 
BRANCH  17  22
ATOM     22  N   UNL     1      -2.292  -1.663  -3.402  1.00  0.00     0.063 N 
ATOM     23  O   UNL     1      -3.011  -2.266  -4.213  1.00  0.00    -0.258 OA
ATOM     24  O   UNL     1      -2.419  -1.748  -2.176  1.00  0.00    -0.258 OA
ENDBRANCH  17  22
ENDBRANCH  14  15
ENDBRANCH  11  14
ENDBRANCH   7  11
ENDBRANCH   3   6
ENDBRANCH   1   2
BRANCH   1  25
ATOM     25  C   UNL     1       6.181  -2.293   1.215  1.00  0.00     0.023 C 
BRANCH  25  26
ATOM     26  C   UNL     1       6.791  -1.949   2.576  1.00  0.00     0.023 C 
BRANCH  26  27
ATOM     27  C   UNL     1       7.397  -3.125   3.332  1.00  0.00     0.116 C 
BRANCH  27  28
ATOM     28  N   UNL     1       8.478  -3.777   2.608  1.00  0.00    -0.352 N 
ATOM     29  C   UNL     1       9.677  -4.239   3.097  1.00  0.00     0.251 C 
ATOM     30  H   UNL     1       8.331  -3.905   1.643  1.00  0.00     0.163 HD
ATOM     31  O   UNL     1      10.538  -4.665   2.334  1.00  0.00    -0.269 OA
BRANCH  29  32
ATOM     32  C   UNL     1       9.935  -4.179   4.550  1.00  0.00     0.039 A 
ATOM     33  C   UNL     1      11.126  -3.606   5.004  1.00  0.00     0.014 A 
ATOM     34  C   UNL     1       8.984  -4.648   5.460  1.00  0.00     0.014 A 
ATOM     35  C   UNL     1      11.330  -3.435   6.375  1.00  0.00     0.010 A 
ATOM     36  C   UNL     1       9.158  -4.413   6.819  1.00  0.00     0.010 A 
ATOM     37  C   UNL     1      10.331  -3.802   7.290  1.00  0.00    -0.014 A 
BRANCH  37  38
ATOM     38  C   UNL     1      10.486  -3.567   8.748  1.00  0.00     0.031 A 
ATOM     39  C   UNL     1      10.529  -4.736   9.692  1.00  0.00     0.074 A 
ATOM     40  C   UNL     1      10.505  -2.309   9.229  1.00  0.00     0.049 A 
ATOM     41  N   UNL     1      10.532  -4.744  11.001  1.00  0.00    -0.248 NA
ATOM     42  C   UNL     1      10.542  -6.075   9.082  1.00  0.00     0.031 C 
ATOM     43  C   UNL     1      10.437  -1.089   8.421  1.00  0.00     0.029 A 
ATOM     44  N   UNL     1      10.572  -1.848  10.520  1.00  0.00    -0.354 N 
ATOM     45  C   UNL     1      10.526  -6.083  11.368  1.00  0.00     0.074 A 
ATOM     46  C   UNL     1      10.469  -6.858  10.148  1.00  0.00     0.031 C 
ATOM     47  C   UNL     1      10.480  -0.021   9.234  1.00  0.00     0.029 A 
ATOM     48  C   UNL     1      10.538  -0.478  10.619  1.00  0.00     0.049 A 
ATOM     49  H   UNL     1      10.637  -2.443  11.302  1.00  0.00     0.167 HD
ATOM     50  C   UNL     1      10.586  -6.620  12.610  1.00  0.00     0.037 A 
ATOM     51  C   UNL     1      10.540   0.319  11.705  1.00  0.00     0.037 A 
ATOM     52  C   UNL     1      10.670  -5.849  13.822  1.00  0.00     0.049 A 
ATOM     53  C   UNL     1      10.592  -0.303  13.074  1.00  0.00     0.074 A 
ATOM     54  C   UNL     1      10.780  -6.301  15.125  1.00  0.00     0.029 A 
ATOM     55  N   UNL     1      10.659  -4.464  13.877  1.00  0.00    -0.354 N 
ATOM     56  N   UNL     1      10.634  -1.570  13.406  1.00  0.00    -0.248 NA
ATOM     57  C   UNL     1      10.600   0.618  14.220  1.00  0.00     0.031 C 
ATOM     58  C   UNL     1      10.800  -5.189  15.973  1.00  0.00     0.029 A 
ATOM     59  C   UNL     1      10.747  -4.044  15.194  1.00  0.00     0.049 A 
ATOM     60  H   UNL     1      10.597  -3.868  13.097  1.00  0.00     0.167 HD
ATOM     61  C   UNL     1      10.710  -1.598  14.792  1.00  0.00     0.074 A 
ATOM     62  C   UNL     1      10.713  -0.221  15.240  1.00  0.00     0.031 C 
ATOM     63  C   UNL     1      10.772  -2.669  15.620  1.00  0.00     0.037 A 
BRANCH  50  64
ATOM     64  C   UNL     1      10.569  -8.117  12.715  1.00  0.00     0.057 A 
ATOM     65  C   UNL     1      11.661  -8.896  12.311  1.00  0.00     0.134 A 
ATOM     66  C   UNL     1       9.460  -8.785  13.250  1.00  0.00     0.134 A 
ATOM     67  F   UNL     1      12.748  -8.318  11.778  1.00  0.00    -0.206 F 
ATOM     68  C   UNL     1      11.641 -10.288  12.410  1.00  0.00     0.040 A 
ATOM     69  C   UNL     1       9.439 -10.175  13.379  1.00  0.00     0.040 A 
ATOM     70  F   UNL     1       8.383  -8.099  13.661  1.00  0.00    -0.206 F 
ATOM     71  C   UNL     1      10.530 -10.931  12.951  1.00  0.00     0.006 A 
ENDBRANCH  50  64
BRANCH  51  72
ATOM     72  C   UNL     1      10.513   1.795  11.548  1.00  0.00     0.057 A 
ATOM     73  C   UNL     1      11.635   2.571  11.860  1.00  0.00     0.134 A 
ATOM     74  C   UNL     1       9.367   2.465  11.105  1.00  0.00     0.134 A 
ATOM     75  F   UNL     1      12.756   1.987  12.308  1.00  0.00    -0.206 F 
ATOM     76  C   UNL     1      11.614   3.963  11.756  1.00  0.00     0.040 A 
ATOM     77  C   UNL     1       9.339   3.855  10.973  1.00  0.00     0.040 A 
ATOM     78  F   UNL     1       8.261   1.778  10.784  1.00  0.00    -0.206 F 
ATOM     79  C   UNL     1      10.463   4.608  11.308  1.00  0.00     0.006 A 
ENDBRANCH  51  72
BRANCH  63  80
ATOM     80  C   UNL     1      10.905  -2.398  17.090  1.00  0.00     0.057 A 
ATOM     81  C   UNL     1       9.831  -1.933  17.858  1.00  0.00     0.134 A 
ATOM     82  C   UNL     1      12.113  -2.655  17.751  1.00  0.00     0.134 A 
ATOM     83  F   UNL     1       8.652  -1.655  17.280  1.00  0.00    -0.206 F 
ATOM     84  C   UNL     1       9.958  -1.718  19.231  1.00  0.00     0.040 A 
ATOM     85  C   UNL     1      12.245  -2.467  19.127  1.00  0.00     0.040 A 
ATOM     86  F   UNL     1      13.178  -3.110  17.073  1.00  0.00    -0.206 F 
ATOM     87  C   UNL     1      11.166  -1.993  19.870  1.00  0.00     0.006 A 
ENDBRANCH  63  80
ENDBRANCH  37  38
ENDBRANCH  29  32
ENDBRANCH  27  28
ENDBRANCH  26  27
ENDBRANCH  25  26
ENDBRANCH   1  25
TORSDOF 15
