REMARK SMILES O=C(CC[NH+]1CCC(n2nccc2NC(=O)c2ccccc2Cl)CC1)NCCCCNC(=O)c1ccc(-c2c3nc(c(-c4c(F)cccc4F)c4ccc([nH]4)c(-c4c(F)cccc4F)c4nc(c(-c5c(F)cccc5F)c5ccc2[nH]5)C=C4)C=C3)cc1
REMARK SMILES IDX 27 1 26 2 1 3 2 4 3 6 4 7 5 8 6 9 25 10 7 12 24 13 8 14 9 15
REMARK SMILES IDX 10 16 13 17 11 18 12 19 14 20 15 21 16 23 17 24 18 25 22 26
REMARK SMILES IDX 19 27 21 28 23 29 20 30 28 31 29 32 30 33 31 34 32 35 33 37
REMARK SMILES IDX 34 38 35 39 87 40 36 41 86 42 37 43 38 44 39 45 80 46 40 47
REMARK SMILES IDX 85 48 79 49 81 50 41 51 84 52 78 53 77 54 42 56 68 57 51 58
REMARK SMILES IDX 67 59 52 60 55 61 66 62 82 63 53 64 54 65 65 67 83 68 56 69
REMARK SMILES IDX 43 70 44 71 49 72 45 73 46 74 48 75 50 76 47 77 69 78 70 79
REMARK SMILES IDX 75 80 71 81 72 82 74 83 76 84 73 85 57 86 58 87 63 88 59 89
REMARK SMILES IDX 60 90 62 91 64 92 61 93
REMARK H PARENT 26 5 5 11 14 22 31 36 81 55 55 66
REMARK Flexibility Score: inf
ROOT
ATOM      1  C   UNL     1       1.913  -1.723  -1.989  1.00  0.00     0.116 C 
ENDROOT
BRANCH   1   2
ATOM      2  N   UNL     1       2.243  -0.518  -1.222  1.00  0.00    -0.356 N 
ATOM      3  O   UNL     1       0.558  -0.797   0.320  1.00  0.00    -0.275 OA
ATOM      4  C   UNL     1       1.546  -0.179  -0.066  1.00  0.00     0.225 C 
ATOM      5  H   UNL     1       2.974   0.064  -1.531  1.00  0.00     0.163 HD
BRANCH   4   6
ATOM      6  C   UNL     1       2.095   1.000   0.732  1.00  0.00     0.161 C 
BRANCH   6   7
ATOM      7  C   UNL     1       3.068   0.633   1.873  1.00  0.00     0.272 C 
BRANCH   7   8
ATOM      8  N   UNL     1       4.379   0.057   1.513  1.00  0.00    -0.334 N 
ATOM      9  C   UNL     1       4.272  -1.386   1.354  1.00  0.00     0.264 C 
ATOM     10  C   UNL     1       5.117   0.853   0.539  1.00  0.00     0.264 C 
ATOM     11  H   UNL     1       5.039   0.138   2.286  1.00  0.00     0.348 HD
ATOM     12  C   UNL     1       5.409  -2.021   0.595  1.00  0.00     0.089 C 
ATOM     13  C   UNL     1       6.254   0.151  -0.191  1.00  0.00     0.089 C 
ATOM     14  C   UNL     1       5.766  -1.199  -0.670  1.00  0.00     0.121 C 
BRANCH  14  15
ATOM     15  N   UNL     1       6.693  -1.927  -1.520  1.00  0.00    -0.246 N 
ATOM     16  N   UNL     1       6.486  -3.244  -1.507  1.00  0.00    -0.179 NA
ATOM     17  C   UNL     1       7.973  -1.653  -1.968  1.00  0.00     0.131 A 
ATOM     18  C   UNL     1       7.701  -3.680  -1.225  1.00  0.00     0.137 A 
ATOM     19  C   UNL     1       8.681  -2.777  -1.606  1.00  0.00     0.069 A 
BRANCH  17  20
ATOM     20  N   UNL     1       8.479  -0.507  -2.537  1.00  0.00    -0.307 N 
ATOM     21  C   UNL     1       9.795  -0.335  -3.091  1.00  0.00     0.258 C 
ATOM     22  H   UNL     1       7.880   0.274  -2.568  1.00  0.00     0.171 HD
ATOM     23  O   UNL     1      10.175   0.804  -3.187  1.00  0.00    -0.269 OA
BRANCH  21  24
ATOM     24  C   UNL     1      10.649  -1.469  -3.518  1.00  0.00     0.058 A 
ATOM     25  C   UNL     1      11.896  -1.623  -2.890  1.00  0.00     0.015 A 
ATOM     26  C   UNL     1      10.276  -2.339  -4.549  1.00  0.00     0.053 A 
ATOM     27  C   UNL     1      12.750  -2.660  -3.274  1.00  0.00     0.001 A 
ATOM     28  C   UNL     1      11.140  -3.372  -4.932  1.00  0.00     0.021 A 
ATOM     29  Cl  UNL     1       8.784  -2.173  -5.400  1.00  0.00    -0.083 Cl
ATOM     30  C   UNL     1      12.372  -3.533  -4.294  1.00  0.00     0.002 A 
ENDBRANCH  21  24
ENDBRANCH  17  20
ENDBRANCH  14  15
ENDBRANCH   7   8
ENDBRANCH   6   7
ENDBRANCH   4   6
ENDBRANCH   1   2
BRANCH   1  31
ATOM     31  C   UNL     1       2.231  -1.663  -3.498  1.00  0.00     0.023 C 
BRANCH  31  32
ATOM     32  C   UNL     1       3.672  -1.957  -3.975  1.00  0.00     0.023 C 
BRANCH  32  33
ATOM     33  C   UNL     1       4.222  -3.382  -3.754  1.00  0.00     0.116 C 
BRANCH  33  34
ATOM     34  N   UNL     1       3.900  -4.390  -4.779  1.00  0.00    -0.352 N 
ATOM     35  C   UNL     1       4.459  -5.659  -5.014  1.00  0.00     0.251 C 
ATOM     36  H   UNL     1       3.178  -4.135  -5.398  1.00  0.00     0.163 HD
ATOM     37  O   UNL     1       4.294  -6.189  -6.111  1.00  0.00    -0.269 OA
BRANCH  35  38
ATOM     38  C   UNL     1       5.258  -6.386  -3.977  1.00  0.00     0.039 A 
ATOM     39  C   UNL     1       6.293  -7.316  -4.235  1.00  0.00     0.014 A 
ATOM     40  C   UNL     1       5.000  -6.088  -2.669  1.00  0.00     0.014 A 
ATOM     41  C   UNL     1       7.098  -7.847  -3.173  1.00  0.00     0.010 A 
ATOM     42  C   UNL     1       5.956  -6.381  -1.728  1.00  0.00     0.010 A 
ATOM     43  C   UNL     1       6.944  -7.348  -1.876  1.00  0.00    -0.014 A 
BRANCH  43  44
ATOM     44  C   UNL     1       7.760  -7.588  -0.639  1.00  0.00     0.031 A 
ATOM     45  C   UNL     1       9.221  -7.193  -0.688  1.00  0.00     0.074 A 
ATOM     46  C   UNL     1       7.190  -7.636   0.606  1.00  0.00     0.049 A 
ATOM     47  N   UNL     1      10.237  -7.699  -1.330  1.00  0.00    -0.248 NA
ATOM     48  C   UNL     1       9.560  -5.873  -0.098  1.00  0.00     0.031 C 
ATOM     49  C   UNL     1       5.769  -7.531   0.992  1.00  0.00     0.029 A 
ATOM     50  N   UNL     1       7.806  -7.697   1.834  1.00  0.00    -0.354 N 
ATOM     51  C   UNL     1      11.283  -6.804  -1.040  1.00  0.00     0.074 A 
ATOM     52  C   UNL     1      10.622  -5.560  -0.845  1.00  0.00     0.031 C 
ATOM     53  C   UNL     1       5.651  -7.369   2.331  1.00  0.00     0.029 A 
ATOM     54  C   UNL     1       6.956  -7.542   2.936  1.00  0.00     0.049 A 
ATOM     55  H   UNL     1       8.776  -7.840   1.932  1.00  0.00     0.167 HD
ATOM     56  C   UNL     1      12.396  -7.115  -0.291  1.00  0.00     0.037 A 
ATOM     57  C   UNL     1       7.293  -7.612   4.251  1.00  0.00     0.037 A 
ATOM     58  C   UNL     1      12.351  -8.508   0.061  1.00  0.00     0.049 A 
ATOM     59  C   UNL     1       8.606  -8.292   4.328  1.00  0.00     0.074 A 
ATOM     60  C   UNL     1      12.433  -9.716  -0.589  1.00  0.00     0.029 A 
ATOM     61  N   UNL     1      11.799  -8.737   1.294  1.00  0.00    -0.354 N 
ATOM     62  N   UNL     1       8.789  -9.537   3.996  1.00  0.00    -0.248 NA
ATOM     63  C   UNL     1       9.819  -7.499   4.486  1.00  0.00     0.031 C 
ATOM     64  C   UNL     1      11.741 -10.651   0.233  1.00  0.00     0.029 A 
ATOM     65  C   UNL     1      11.313 -10.009   1.392  1.00  0.00     0.049 A 
ATOM     66  H   UNL     1      11.758  -8.069   2.017  1.00  0.00     0.167 HD
ATOM     67  C   UNL     1      10.066  -9.565   3.482  1.00  0.00     0.074 A 
ATOM     68  C   UNL     1      10.710  -8.355   3.976  1.00  0.00     0.031 C 
ATOM     69  C   UNL     1      10.354 -10.361   2.415  1.00  0.00     0.037 A 
BRANCH  56  70
ATOM     70  C   UNL     1      13.244  -6.167   0.608  1.00  0.00     0.057 A 
ATOM     71  C   UNL     1      14.439  -6.689   1.152  1.00  0.00     0.134 A 
ATOM     72  C   UNL     1      12.888  -4.907   1.154  1.00  0.00     0.134 A 
ATOM     73  F   UNL     1      14.922  -7.868   0.732  1.00  0.00    -0.206 F 
ATOM     74  C   UNL     1      15.159  -6.062   2.183  1.00  0.00     0.040 A 
ATOM     75  C   UNL     1      13.626  -4.252   2.151  1.00  0.00     0.040 A 
ATOM     76  F   UNL     1      11.774  -4.241   0.840  1.00  0.00    -0.206 F 
ATOM     77  C   UNL     1      14.750  -4.840   2.693  1.00  0.00     0.006 A 
ENDBRANCH  56  70
BRANCH  57  78
ATOM     78  C   UNL     1       6.664  -7.103   5.494  1.00  0.00     0.057 A 
ATOM     79  C   UNL     1       6.942  -7.697   6.739  1.00  0.00     0.134 A 
ATOM     80  C   UNL     1       6.044  -5.846   5.536  1.00  0.00     0.134 A 
ATOM     81  F   UNL     1       7.544  -8.893   6.803  1.00  0.00    -0.206 F 
ATOM     82  C   UNL     1       6.684  -7.050   7.954  1.00  0.00     0.040 A 
ATOM     83  C   UNL     1       5.776  -5.190   6.746  1.00  0.00     0.040 A 
ATOM     84  F   UNL     1       5.778  -5.178   4.404  1.00  0.00    -0.206 F 
ATOM     85  C   UNL     1       6.118  -5.781   7.959  1.00  0.00     0.006 A 
ENDBRANCH  57  78
BRANCH  69  86
ATOM     86  C   UNL     1       9.505 -11.575   2.192  1.00  0.00     0.057 A 
ATOM     87  C   UNL     1       8.149 -11.561   1.841  1.00  0.00     0.134 A 
ATOM     88  C   UNL     1      10.136 -12.823   2.234  1.00  0.00     0.134 A 
ATOM     89  F   UNL     1       7.475 -10.413   1.713  1.00  0.00    -0.206 F 
ATOM     90  C   UNL     1       7.449 -12.738   1.564  1.00  0.00     0.040 A 
ATOM     91  C   UNL     1       9.460 -14.002   1.924  1.00  0.00     0.040 A 
ATOM     92  F   UNL     1      11.442 -12.908   2.532  1.00  0.00    -0.206 F 
ATOM     93  C   UNL     1       8.108 -13.963   1.594  1.00  0.00     0.006 A 
ENDBRANCH  69  86
ENDBRANCH  43  44
ENDBRANCH  35  38
ENDBRANCH  33  34
ENDBRANCH  32  33
ENDBRANCH  31  32
ENDBRANCH   1  31
TORSDOF 16
