REMARK SMILES O=C(NCCCCNC(=O)[C@H](Cc1ccc(O)cc1)NC(=O)c1ccc(Cl)s1)c1ccc(-c2c3nc(c(-c4c(F)cccc4F)c4ccc([nH]4)c(-c4c(F)cccc4F)c4nc(c(-c5c(F)cccc5F)c5ccc2[nH]5)C=C4)C=C3)cc1
REMARK SMILES IDX 6 1 5 2 4 3 3 4 1 5 2 6 29 8 30 9 82 10 31 11 81 12 32 13
REMARK SMILES IDX 33 14 34 15 75 16 35 17 80 18 74 19 76 20 36 21 79 22 73 23
REMARK SMILES IDX 72 24 37 26 63 27 46 28 62 29 47 30 50 31 61 32 77 33 48 34
REMARK SMILES IDX 49 35 60 37 78 38 51 39 38 40 39 41 44 42 40 43 41 44 43 45
REMARK SMILES IDX 45 46 42 47 64 48 65 49 70 50 66 51 67 52 69 53 71 54 68 55
REMARK SMILES IDX 52 56 53 57 58 58 54 59 55 60 57 61 59 62 56 63 7 64 8 65
REMARK SMILES IDX 9 66 10 68 11 69 20 70 21 71 22 73 23 74 24 75 28 76 25 77
REMARK SMILES IDX 26 78 27 79 12 80 13 81 14 82 19 83 15 84 18 85 16 86 17 87
REMARK H PARENT 3 7 76 25 50 36 8 67 20 72 17 88
REMARK Flexibility Score: inf
ROOT
ATOM      1  C   UNL     1       4.654  -4.394   9.315  1.00  0.00     0.023 C 
ENDROOT
BRANCH   1   2
ATOM      2  C   UNL     1       3.702  -3.706  10.291  1.00  0.00     0.023 C 
BRANCH   2   3
ATOM      3  C   UNL     1       2.246  -4.120  10.146  1.00  0.00     0.116 C 
BRANCH   3   4
ATOM      4  N   UNL     1       2.054  -5.557  10.262  1.00  0.00    -0.352 N 
ATOM      5  O   UNL     1       1.144  -7.449  11.101  1.00  0.00    -0.269 OA
ATOM      6  C   UNL     1       1.100  -6.234  10.982  1.00  0.00     0.251 C 
ATOM      7  H   UNL     1       2.690  -6.117   9.761  1.00  0.00     0.163 HD
BRANCH   6   8
ATOM      8  C   UNL     1       0.033  -5.455  11.635  1.00  0.00     0.039 A 
ATOM      9  C   UNL     1      -0.674  -4.491  10.910  1.00  0.00     0.014 A 
ATOM     10  C   UNL     1      -0.223  -5.663  12.991  1.00  0.00     0.014 A 
ATOM     11  C   UNL     1      -1.552  -3.646  11.571  1.00  0.00     0.010 A 
ATOM     12  C   UNL     1      -1.165  -4.865  13.636  1.00  0.00     0.010 A 
ATOM     13  C   UNL     1      -1.817  -3.837  12.936  1.00  0.00    -0.014 A 
BRANCH  13  14
ATOM     14  C   UNL     1      -2.836  -3.002  13.609  1.00  0.00     0.031 A 
ATOM     15  C   UNL     1      -2.457  -2.063  14.713  1.00  0.00     0.074 A 
ATOM     16  C   UNL     1      -4.119  -3.131  13.227  1.00  0.00     0.049 A 
ATOM     17  N   UNL     1      -3.230  -1.329  15.471  1.00  0.00    -0.248 NA
ATOM     18  C   UNL     1      -1.023  -1.938  15.015  1.00  0.00     0.031 C 
ATOM     19  C   UNL     1      -4.595  -4.024  12.168  1.00  0.00     0.029 A 
ATOM     20  N   UNL     1      -5.257  -2.526  13.691  1.00  0.00    -0.354 N 
ATOM     21  C   UNL     1      -2.384  -0.678  16.358  1.00  0.00     0.074 A 
ATOM     22  C   UNL     1      -1.038  -1.114  16.054  1.00  0.00     0.031 C 
ATOM     23  C   UNL     1      -5.925  -3.905  12.058  1.00  0.00     0.029 A 
ATOM     24  C   UNL     1      -6.399  -2.979  13.079  1.00  0.00     0.049 A 
ATOM     25  H   UNL     1      -5.255  -1.836  14.393  1.00  0.00     0.167 HD
ATOM     26  C   UNL     1      -2.709   0.202  17.335  1.00  0.00     0.037 A 
ATOM     27  C   UNL     1      -7.691  -2.712  13.339  1.00  0.00     0.037 A 
ATOM     28  C   UNL     1      -4.055   0.634  17.615  1.00  0.00     0.049 A 
ATOM     29  C   UNL     1      -8.028  -1.755  14.440  1.00  0.00     0.074 A 
ATOM     30  C   UNL     1      -4.487   1.562  18.546  1.00  0.00     0.029 A 
ATOM     31  N   UNL     1      -5.188   0.156  16.971  1.00  0.00    -0.354 N 
ATOM     32  N   UNL     1      -7.218  -1.114  15.248  1.00  0.00    -0.248 NA
ATOM     33  C   UNL     1      -9.452  -1.484  14.671  1.00  0.00     0.031 C 
ATOM     34  C   UNL     1      -5.885   1.611  18.497  1.00  0.00     0.029 A 
ATOM     35  C   UNL     1      -6.321   0.748  17.504  1.00  0.00     0.049 A 
ATOM     36  H   UNL     1      -5.186  -0.507  16.243  1.00  0.00     0.167 HD
ATOM     37  C   UNL     1      -8.030  -0.352  16.074  1.00  0.00     0.074 A 
ATOM     38  C   UNL     1      -9.397  -0.604  15.662  1.00  0.00     0.031 C 
ATOM     39  C   UNL     1      -7.673   0.482  17.081  1.00  0.00     0.037 A 
BRANCH  26  40
ATOM     40  C   UNL     1      -1.595   0.728  18.192  1.00  0.00     0.057 A 
ATOM     41  C   UNL     1      -0.644   1.635  17.706  1.00  0.00     0.134 A 
ATOM     42  C   UNL     1      -1.484   0.334  19.533  1.00  0.00     0.134 A 
ATOM     43  F   UNL     1      -0.686   2.043  16.429  1.00  0.00    -0.206 F 
ATOM     44  C   UNL     1       0.392   2.109  18.513  1.00  0.00     0.040 A 
ATOM     45  C   UNL     1      -0.466   0.821  20.356  1.00  0.00     0.040 A 
ATOM     46  F   UNL     1      -2.364  -0.527  20.065  1.00  0.00    -0.206 F 
ATOM     47  C   UNL     1       0.480   1.705  19.844  1.00  0.00     0.006 A 
ENDBRANCH  26  40
BRANCH  27  48
ATOM     48  C   UNL     1      -8.738  -3.392  12.542  1.00  0.00     0.057 A 
ATOM     49  C   UNL     1      -9.466  -2.706  11.566  1.00  0.00     0.134 A 
ATOM     50  C   UNL     1      -8.977  -4.766  12.684  1.00  0.00     0.134 A 
ATOM     51  F   UNL     1      -9.285  -1.389  11.391  1.00  0.00    -0.206 F 
ATOM     52  C   UNL     1     -10.396  -3.360  10.757  1.00  0.00     0.040 A 
ATOM     53  C   UNL     1      -9.886  -5.437  11.867  1.00  0.00     0.040 A 
ATOM     54  F   UNL     1      -8.297  -5.480  13.592  1.00  0.00    -0.206 F 
ATOM     55  C   UNL     1     -10.599  -4.732  10.899  1.00  0.00     0.006 A 
ENDBRANCH  27  48
BRANCH  39  56
ATOM     56  C   UNL     1      -8.777   1.203  17.791  1.00  0.00     0.057 A 
ATOM     57  C   UNL     1      -9.601   0.556  18.721  1.00  0.00     0.134 A 
ATOM     58  C   UNL     1      -8.980   2.573  17.584  1.00  0.00     0.134 A 
ATOM     59  F   UNL     1      -9.465  -0.758  18.950  1.00  0.00    -0.206 F 
ATOM     60  C   UNL     1     -10.595   1.247  19.414  1.00  0.00     0.040 A 
ATOM     61  C   UNL     1      -9.956   3.279  18.288  1.00  0.00     0.040 A 
ATOM     62  F   UNL     1      -8.220   3.250  16.710  1.00  0.00    -0.206 F 
ATOM     63  C   UNL     1     -10.768   2.615  19.205  1.00  0.00     0.006 A 
ENDBRANCH  39  56
ENDBRANCH  13  14
ENDBRANCH   6   8
ENDBRANCH   3   4
ENDBRANCH   2   3
ENDBRANCH   1   2
BRANCH   1  64
ATOM     64  C   UNL     1       4.317  -4.156   7.842  1.00  0.00     0.116 C 
BRANCH  64  65
ATOM     65  N   UNL     1       4.692  -2.810   7.460  1.00  0.00    -0.354 N 
ATOM     66  C   UNL     1       5.827  -2.342   6.875  1.00  0.00     0.242 C 
ATOM     67  H   UNL     1       4.016  -2.123   7.657  1.00  0.00     0.163 HD
ATOM     68  O   UNL     1       6.189  -1.216   7.239  1.00  0.00    -0.273 OA
BRANCH  66  69
ATOM     69  C   UNL     1       6.681  -3.153   5.867  1.00  0.00     0.176 C 
BRANCH  69  70
ATOM     70  N   UNL     1       6.116  -4.392   5.335  1.00  0.00    -0.339 N 
ATOM     71  C   UNL     1       6.451  -5.710   5.547  1.00  0.00     0.262 C 
ATOM     72  H   UNL     1       5.363  -4.260   4.715  1.00  0.00     0.164 HD
ATOM     73  O   UNL     1       5.886  -6.521   4.809  1.00  0.00    -0.268 OA
BRANCH  71  74
ATOM     74  C   UNL     1       7.365  -6.110   6.615  1.00  0.00     0.093 A 
ATOM     75  C   UNL     1       7.710  -5.511   7.818  1.00  0.00     0.027 A 
ATOM     76  S   UNL     1       8.133  -7.654   6.488  1.00  0.00    -0.118 S 
ATOM     77  C   UNL     1       8.590  -6.302   8.615  1.00  0.00     0.033 A 
ATOM     78  C   UNL     1       8.885  -7.482   7.990  1.00  0.00     0.094 A 
ATOM     79  Cl  UNL     1       9.895  -8.730   8.597  1.00  0.00    -0.072 Cl
ENDBRANCH  71  74
ENDBRANCH  69  70
BRANCH  69  80
ATOM     80  C   UNL     1       7.144  -2.231   4.707  1.00  0.00     0.070 C 
BRANCH  80  81
ATOM     81  C   UNL     1       6.052  -1.587   3.875  1.00  0.00    -0.045 A 
ATOM     82  C   UNL     1       5.672  -2.124   2.637  1.00  0.00     0.007 A 
ATOM     83  C   UNL     1       5.433  -0.405   4.311  1.00  0.00     0.007 A 
ATOM     84  C   UNL     1       4.697  -1.491   1.857  1.00  0.00     0.046 A 
ATOM     85  C   UNL     1       4.447   0.215   3.545  1.00  0.00     0.046 A 
ATOM     86  C   UNL     1       4.091  -0.328   2.320  1.00  0.00     0.115 A 
BRANCH  86  87
ATOM     87  O   UNL     1       3.143   0.327   1.591  1.00  0.00    -0.508 OA
ATOM     88  H   UNL     1       2.877  -0.011   0.759  1.00  0.00     0.293 HD
ENDBRANCH  86  87
ENDBRANCH  80  81
ENDBRANCH  69  80
ENDBRANCH  66  69
ENDBRANCH  64  65
ENDBRANCH   1  64
TORSDOF 16
