REMARK SMILES O=C(NCCCCNC(=O)[C@@H]1Nc2c(cccc2C(F)(F)F)[C@@H]2C=CC[C@@H]12)c1ccc(-c2c3nc(c(-c4c(F)cccc4F)c4ccc([nH]4)c(-c4c(F)cccc4F)c4nc(c(-c5c(F)cccc5F)c5ccc2[nH]5)C=C4)C=C3)cc1
REMARK SMILES IDX 5 1 4 2 3 3 1 4 2 5 28 7 29 8 81 9 30 10 80 11 31 12 32 13
REMARK SMILES IDX 33 14 74 15 34 16 79 17 73 18 75 19 35 20 78 21 72 22 71 23
REMARK SMILES IDX 36 25 62 26 45 27 61 28 46 29 49 30 60 31 76 32 47 33 48 34
REMARK SMILES IDX 59 36 77 37 50 38 37 39 38 40 43 41 39 42 40 43 42 44 44 45
REMARK SMILES IDX 41 46 63 47 64 48 69 49 65 50 66 51 68 52 70 53 67 54 51 55
REMARK SMILES IDX 52 56 57 57 53 58 54 59 56 60 58 61 55 62 6 63 7 64 8 65
REMARK SMILES IDX 9 66 10 68 11 69 12 70 27 71 13 72 23 74 26 75 14 76 18 77
REMARK SMILES IDX 24 78 25 79 15 80 17 81 16 82 19 83 20 84 21 85 22 86
REMARK H PARENT 3 6 75 24 49 35 8 67 12 73
REMARK Flexibility Score: inf
ROOT
ATOM      1  C   UNL     1       1.932   8.723  -1.150  1.00  0.00     0.023 C 
ENDROOT
BRANCH   1   2
ATOM      2  C   UNL     1       2.325   9.232   0.230  1.00  0.00     0.116 C 
BRANCH   2   3
ATOM      3  N   UNL     1       2.668  10.646   0.249  1.00  0.00    -0.352 N 
ATOM      4  O   UNL     1       2.436  12.841   0.724  1.00  0.00    -0.269 OA
ATOM      5  C   UNL     1       2.094  11.681   0.948  1.00  0.00     0.251 C 
ATOM      6  H   UNL     1       3.427  10.900  -0.325  1.00  0.00     0.163 HD
BRANCH   5   7
ATOM      7  C   UNL     1       1.044  11.411   1.955  1.00  0.00     0.039 A 
ATOM      8  C   UNL     1      -0.072  12.248   2.013  1.00  0.00     0.014 A 
ATOM      9  C   UNL     1       1.157  10.341   2.846  1.00  0.00     0.014 A 
ATOM     10  C   UNL     1      -1.094  11.978   2.926  1.00  0.00     0.010 A 
ATOM     11  C   UNL     1       0.089  10.007   3.672  1.00  0.00     0.010 A 
ATOM     12  C   UNL     1      -1.036  10.838   3.745  1.00  0.00    -0.014 A 
BRANCH  12  13
ATOM     13  C   UNL     1      -2.121  10.539   4.716  1.00  0.00     0.031 A 
ATOM     14  C   UNL     1      -1.827  10.504   6.194  1.00  0.00     0.074 A 
ATOM     15  C   UNL     1      -3.368  10.282   4.275  1.00  0.00     0.049 A 
ATOM     16  N   UNL     1      -2.642  10.299   7.198  1.00  0.00    -0.248 NA
ATOM     17  C   UNL     1      -0.424  10.695   6.596  1.00  0.00     0.031 C 
ATOM     18  C   UNL     1      -3.777  10.232   2.870  1.00  0.00     0.029 A 
ATOM     19  N   UNL     1      -4.526  10.031   4.967  1.00  0.00    -0.354 N 
ATOM     20  C   UNL     1      -1.850  10.326   8.340  1.00  0.00     0.074 A 
ATOM     21  C   UNL     1      -0.483  10.485   7.901  1.00  0.00     0.031 C 
ATOM     22  C   UNL     1      -5.103  10.031   2.806  1.00  0.00     0.029 A 
ATOM     23  C   UNL     1      -5.631   9.902   4.160  1.00  0.00     0.049 A 
ATOM     24  H   UNL     1      -4.562   9.952   5.947  1.00  0.00     0.167 HD
ATOM     25  C   UNL     1      -2.225  10.259   9.640  1.00  0.00     0.037 A 
ATOM     26  C   UNL     1      -6.925   9.717   4.481  1.00  0.00     0.037 A 
ATOM     27  C   UNL     1      -3.588  10.116  10.079  1.00  0.00     0.049 A 
ATOM     28  C   UNL     1      -7.314   9.623   5.931  1.00  0.00     0.074 A 
ATOM     29  C   UNL     1      -4.084  10.096  11.371  1.00  0.00     0.029 A 
ATOM     30  N   UNL     1      -4.675   9.957   9.232  1.00  0.00    -0.354 N 
ATOM     31  N   UNL     1      -6.567   9.731   7.002  1.00  0.00    -0.248 NA
ATOM     32  C   UNL     1      -8.737   9.388   6.211  1.00  0.00     0.031 C 
ATOM     33  C   UNL     1      -5.464   9.867  11.306  1.00  0.00     0.029 A 
ATOM     34  C   UNL     1      -5.837   9.806   9.973  1.00  0.00     0.049 A 
ATOM     35  H   UNL     1      -4.628   9.953   8.249  1.00  0.00     0.167 HD
ATOM     36  C   UNL     1      -7.431   9.607   8.083  1.00  0.00     0.074 A 
ATOM     37  C   UNL     1      -8.761   9.442   7.534  1.00  0.00     0.031 C 
ATOM     38  C   UNL     1      -7.152   9.628   9.411  1.00  0.00     0.037 A 
BRANCH  25  39
ATOM     39  C   UNL     1      -1.131  10.331  10.671  1.00  0.00     0.057 A 
ATOM     40  C   UNL     1      -0.820   9.218  11.461  1.00  0.00     0.134 A 
ATOM     41  C   UNL     1      -0.370  11.493  10.868  1.00  0.00     0.134 A 
ATOM     42  F   UNL     1      -1.510   8.075  11.333  1.00  0.00    -0.206 F 
ATOM     43  C   UNL     1       0.216   9.253  12.397  1.00  0.00     0.040 A 
ATOM     44  C   UNL     1       0.691  11.528  11.775  1.00  0.00     0.040 A 
ATOM     45  F   UNL     1      -0.604  12.593  10.135  1.00  0.00    -0.206 F 
ATOM     46  C   UNL     1       0.984  10.406  12.546  1.00  0.00     0.006 A 
ENDBRANCH  25  39
BRANCH  26  47
ATOM     47  C   UNL     1      -7.962   9.659   3.419  1.00  0.00     0.057 A 
ATOM     48  C   UNL     1      -8.053   8.579   2.534  1.00  0.00     0.134 A 
ATOM     49  C   UNL     1      -8.909  10.683   3.286  1.00  0.00     0.134 A 
ATOM     50  F   UNL     1      -7.173   7.569   2.605  1.00  0.00    -0.206 F 
ATOM     51  C   UNL     1      -9.047   8.518   1.556  1.00  0.00     0.040 A 
ATOM     52  C   UNL     1      -9.924  10.622   2.330  1.00  0.00     0.040 A 
ATOM     53  F   UNL     1      -8.886  11.735   4.117  1.00  0.00    -0.206 F 
ATOM     54  C   UNL     1      -9.992   9.537   1.459  1.00  0.00     0.006 A 
ENDBRANCH  26  47
BRANCH  38  55
ATOM     55  C   UNL     1      -8.319   9.495  10.348  1.00  0.00     0.057 A 
ATOM     56  C   UNL     1      -8.733  10.582  11.130  1.00  0.00     0.134 A 
ATOM     57  C   UNL     1      -9.048   8.303  10.465  1.00  0.00     0.134 A 
ATOM     58  F   UNL     1      -8.074  11.749  11.079  1.00  0.00    -0.206 F 
ATOM     59  C   UNL     1      -9.837  10.493  11.979  1.00  0.00     0.040 A 
ATOM     60  C   UNL     1     -10.175   8.213  11.284  1.00  0.00     0.040 A 
ATOM     61  F   UNL     1      -8.713   7.228   9.736  1.00  0.00    -0.206 F 
ATOM     62  C   UNL     1     -10.571   9.311  12.046  1.00  0.00     0.006 A 
ENDBRANCH  38  55
ENDBRANCH  12  13
ENDBRANCH   5   7
ENDBRANCH   2   3
ENDBRANCH   1   2
BRANCH   1  63
ATOM     63  C   UNL     1       3.014   8.829  -2.216  1.00  0.00     0.023 C 
BRANCH  63  64
ATOM     64  C   UNL     1       4.349   8.188  -1.868  1.00  0.00     0.116 C 
BRANCH  64  65
ATOM     65  N   UNL     1       4.290   6.753  -1.668  1.00  0.00    -0.354 N 
ATOM     66  C   UNL     1       5.269   5.820  -1.887  1.00  0.00     0.242 C 
ATOM     67  H   UNL     1       3.434   6.403  -1.330  1.00  0.00     0.163 HD
ATOM     68  O   UNL     1       5.024   4.653  -1.565  1.00  0.00    -0.273 OA
BRANCH  66  69
ATOM     69  C   UNL     1       6.598   6.175  -2.593  1.00  0.00     0.173 C 
ATOM     70  N   UNL     1       7.149   7.466  -2.127  1.00  0.00    -0.373 N 
ATOM     71  C   UNL     1       6.393   6.204  -4.097  1.00  0.00     0.036 C 
ATOM     72  C   UNL     1       7.630   8.447  -2.993  1.00  0.00     0.051 A 
ATOM     73  H   UNL     1       7.178   7.641  -1.158  1.00  0.00     0.161 HD
ATOM     74  C   UNL     1       7.688   6.688  -4.755  1.00  0.00     0.049 C 
ATOM     75  C   UNL     1       6.070   4.899  -4.818  1.00  0.00     0.034 C 
ATOM     76  C   UNL     1       7.874   8.127  -4.356  1.00  0.00    -0.017 A 
ATOM     77  C   UNL     1       7.755   9.788  -2.580  1.00  0.00     0.079 A 
ATOM     78  C   UNL     1       7.418   6.276  -6.171  1.00  0.00    -0.023 C 
ATOM     79  C   UNL     1       6.551   5.250  -6.200  1.00  0.00    -0.030 C 
ATOM     80  C   UNL     1       8.318   9.107  -5.251  1.00  0.00     0.006 A 
ATOM     81  C   UNL     1       8.174  10.762  -3.509  1.00  0.00     0.015 A 
ATOM     82  C   UNL     1       8.466  10.422  -4.827  1.00  0.00     0.001 A 
BRANCH  77  83
ATOM     83  C   UNL     1       7.351  10.260  -1.206  1.00  0.00     0.418 C 
ATOM     84  F   UNL     1       8.192  11.202  -0.694  1.00  0.00    -0.166 F 
ATOM     85  F   UNL     1       6.110  10.833  -1.208  1.00  0.00    -0.166 F 
ATOM     86  F   UNL     1       7.289   9.276  -0.260  1.00  0.00    -0.166 F 
ENDBRANCH  77  83
ENDBRANCH  66  69
ENDBRANCH  64  65
ENDBRANCH  63  64
ENDBRANCH   1  63
TORSDOF 12
