REMARK SMILES CCN(C(=O)N[C@@H]1CCOC1)[C@H]1COC[C@H]1C(=O)NCCCCNC(=O)c1ccc(-c2c3nc(c(-c4c(F)cccc4F)c4ccc([nH]4)c(-c4c(F)cccc4F)c4nc(c(-c5c(F)cccc5F)c5ccc2[nH]5)C=C4)C=C3)cc1
REMARK SMILES IDX 21 1 20 2 19 3 17 4 18 5 16 7 12 8 13 9 14 10 15 11 3 12
REMARK SMILES IDX 2 13 1 14 4 15 5 16 6 17 7 19 8 20 11 21 9 22 10 23 22 24
REMARK SMILES IDX 23 25 24 26 25 27 26 29 27 30 28 31 80 32 29 33 79 34 30 35
REMARK SMILES IDX 31 36 32 37 73 38 33 39 78 40 72 41 74 42 34 43 77 44 71 45
REMARK SMILES IDX 70 46 35 48 61 49 44 50 60 51 45 52 48 53 59 54 75 55 46 56
REMARK SMILES IDX 47 57 58 59 76 60 49 61 36 62 37 63 42 64 38 65 39 66 41 67
REMARK SMILES IDX 43 68 40 69 62 70 63 71 68 72 64 73 65 74 67 75 69 76 66 77
REMARK SMILES IDX 50 78 51 79 56 80 52 81 53 82 55 83 57 84 54 85
REMARK H PARENT 19 6 6 18 24 28 74 47 48 58
REMARK Flexibility Score: inf
ROOT
ATOM      1  C   UNL     1       3.046   4.663  -4.090  1.00  0.00     0.023 C 
ENDROOT
BRANCH   1   2
ATOM      2  C   UNL     1       4.025   4.961  -2.453  1.00  0.00     0.116 C 
BRANCH   2   3
ATOM      3  N   UNL     1       3.308   5.270  -1.166  1.00  0.00    -0.356 N 
ATOM      4  C   UNL     1       2.956   4.626   0.021  1.00  0.00     0.227 C 
ATOM      5  O   UNL     1       2.661   5.437   0.917  1.00  0.00    -0.275 OA
ATOM      6  H   UNL     1       2.993   6.203  -1.159  1.00  0.00     0.163 HD
BRANCH   4   7
ATOM      7  C   UNL     1       2.906   3.011   0.458  1.00  0.00     0.129 C 
ATOM      8  C   UNL     1       2.303   1.617  -0.293  1.00  0.00     0.127 C 
ATOM      9  C   UNL     1       3.121   0.583   0.456  1.00  0.00     0.186 C 
ATOM     10  O   UNL     1       4.409   1.156   0.746  1.00  0.00    -0.378 OA
ATOM     11  C   UNL     1       4.315   2.583   0.839  1.00  0.00     0.176 C 
BRANCH   8  12
ATOM     12  N   UNL     1       2.479   1.579  -1.796  1.00  0.00    -0.319 N 
BRANCH  12  13
ATOM     13  C   UNL     1       2.663   2.862  -2.107  1.00  0.00     0.118 C 
ATOM     14  C   UNL     1       1.278   3.577  -2.009  1.00  0.00     0.027 C 
ENDBRANCH  12  13
BRANCH  12  15
ATOM     15  C   UNL     1       2.005   0.950  -2.945  1.00  0.00     0.318 C 
ATOM     16  O   UNL     1       1.224   0.002  -2.906  1.00  0.00    -0.249 OA
ATOM     17  N   UNL     1       2.332   1.527  -4.231  1.00  0.00    -0.333 N 
ATOM     18  H   UNL     1       1.907   0.958  -4.912  1.00  0.00     0.165 HD
BRANCH  17  19
ATOM     19  C   UNL     1       3.131   2.762  -5.058  1.00  0.00     0.112 C 
ATOM     20  C   UNL     1       4.729   3.828  -4.491  1.00  0.00     0.056 C 
ATOM     21  C   UNL     1       1.901   4.094  -5.798  1.00  0.00     0.185 C 
ATOM     22  C   UNL     1       4.290   5.856  -4.767  1.00  0.00     0.162 C 
ATOM     23  O   UNL     1       2.562   5.835  -5.595  1.00  0.00    -0.379 OA
ENDBRANCH  17  19
ENDBRANCH  12  15
ENDBRANCH   8  12
ENDBRANCH   4   7
ENDBRANCH   2   3
ENDBRANCH   1   2
BRANCH   1  24
ATOM     24  C   UNL     1       3.923   4.521  -6.085  1.00  0.00     0.023 C 
BRANCH  24  25
ATOM     25  C   UNL     1       5.581   5.037  -6.521  1.00  0.00     0.116 C 
BRANCH  25  26
ATOM     26  N   UNL     1       6.477   4.090  -7.137  1.00  0.00    -0.352 N 
ATOM     27  C   UNL     1       7.236   4.336  -8.251  1.00  0.00     0.251 C 
ATOM     28  H   UNL     1       6.548   3.198  -6.726  1.00  0.00     0.163 HD
ATOM     29  O   UNL     1       8.011   3.505  -8.700  1.00  0.00    -0.269 OA
BRANCH  27  30
ATOM     30  C   UNL     1       7.034   5.635  -8.910  1.00  0.00     0.039 A 
ATOM     31  C   UNL     1       6.405   5.623 -10.149  1.00  0.00     0.014 A 
ATOM     32  C   UNL     1       7.230   6.825  -8.193  1.00  0.00     0.014 A 
ATOM     33  C   UNL     1       5.972   6.824 -10.688  1.00  0.00     0.010 A 
ATOM     34  C   UNL     1       6.650   7.992  -8.665  1.00  0.00     0.010 A 
ATOM     35  C   UNL     1       6.068   8.011  -9.941  1.00  0.00    -0.014 A 
BRANCH  35  36
ATOM     36  C   UNL     1       5.637   9.299 -10.524  1.00  0.00     0.031 A 
ATOM     37  C   UNL     1       6.654  10.394 -10.688  1.00  0.00     0.074 A 
ATOM     38  C   UNL     1       4.356   9.470 -10.898  1.00  0.00     0.049 A 
ATOM     39  N   UNL     1       6.496  11.602 -11.161  1.00  0.00    -0.248 NA
ATOM     40  C   UNL     1       8.025  10.110 -10.227  1.00  0.00     0.031 C 
ATOM     41  C   UNL     1       3.285   8.481 -10.738  1.00  0.00     0.029 A 
ATOM     42  N   UNL     1       3.737  10.533 -11.500  1.00  0.00    -0.354 N 
ATOM     43  C   UNL     1       7.737  12.214 -11.036  1.00  0.00     0.074 A 
ATOM     44  C   UNL     1       8.613  11.285 -10.367  1.00  0.00     0.031 C 
ATOM     45  C   UNL     1       2.155   8.966 -11.275  1.00  0.00     0.029 A 
ATOM     46  C   UNL     1       2.405  10.318 -11.760  1.00  0.00     0.049 A 
ATOM     47  H   UNL     1       4.202  11.371 -11.725  1.00  0.00     0.167 HD
ATOM     48  C   UNL     1       8.121  13.432 -11.479  1.00  0.00     0.037 A 
ATOM     49  C   UNL     1       1.491  11.134 -12.317  1.00  0.00     0.037 A 
ATOM     50  C   UNL     1       7.239  14.332 -12.165  1.00  0.00     0.049 A 
ATOM     51  C   UNL     1       1.933  12.500 -12.762  1.00  0.00     0.074 A 
ATOM     52  C   UNL     1       7.523  15.571 -12.705  1.00  0.00     0.029 A 
ATOM     53  N   UNL     1       5.892  14.087 -12.397  1.00  0.00    -0.354 N 
ATOM     54  N   UNL     1       3.130  13.038 -12.714  1.00  0.00    -0.248 NA
ATOM     55  C   UNL     1       0.903  13.374 -13.337  1.00  0.00     0.031 C 
ATOM     56  C   UNL     1       6.331  16.110 -13.196  1.00  0.00     0.029 A 
ATOM     57  C   UNL     1       5.320  15.175 -13.030  1.00  0.00     0.049 A 
ATOM     58  H   UNL     1       5.416  13.262 -12.147  1.00  0.00     0.167 HD
ATOM     59  C   UNL     1       3.000  14.306 -13.265  1.00  0.00     0.074 A 
ATOM     60  C   UNL     1       1.615  14.441 -13.671  1.00  0.00     0.031 C 
ATOM     61  C   UNL     1       3.935  15.277 -13.416  1.00  0.00     0.037 A 
BRANCH  48  62
ATOM     62  C   UNL     1       9.540  13.851 -11.222  1.00  0.00     0.057 A 
ATOM     63  C   UNL     1      10.630  13.211 -11.828  1.00  0.00     0.134 A 
ATOM     64  C   UNL     1       9.819  14.922 -10.364  1.00  0.00     0.134 A 
ATOM     65  F   UNL     1      10.438  12.164 -12.645  1.00  0.00    -0.206 F 
ATOM     66  C   UNL     1      11.945  13.601 -11.567  1.00  0.00     0.040 A 
ATOM     67  C   UNL     1      11.128  15.345 -10.124  1.00  0.00     0.040 A 
ATOM     68  F   UNL     1       8.826  15.579  -9.747  1.00  0.00    -0.206 F 
ATOM     69  C   UNL     1      12.196  14.677 -10.720  1.00  0.00     0.006 A 
ENDBRANCH  48  62
BRANCH  49  70
ATOM     70  C   UNL     1       0.083  10.685 -12.475  1.00  0.00     0.057 A 
ATOM     71  C   UNL     1      -0.486  10.504 -13.740  1.00  0.00     0.134 A 
ATOM     72  C   UNL     1      -0.732  10.433 -11.363  1.00  0.00     0.134 A 
ATOM     73  F   UNL     1       0.237  10.739 -14.845  1.00  0.00    -0.206 F 
ATOM     74  C   UNL     1      -1.817  10.114 -13.896  1.00  0.00     0.040 A 
ATOM     75  C   UNL     1      -2.054  10.010 -11.504  1.00  0.00     0.040 A 
ATOM     76  F   UNL     1      -0.248  10.576 -10.121  1.00  0.00    -0.206 F 
ATOM     77  C   UNL     1      -2.604   9.861 -12.775  1.00  0.00     0.006 A 
ENDBRANCH  49  70
BRANCH  61  78
ATOM     78  C   UNL     1       3.490  16.560 -14.053  1.00  0.00     0.057 A 
ATOM     79  C   UNL     1       2.635  17.451 -13.393  1.00  0.00     0.134 A 
ATOM     80  C   UNL     1       3.969  16.933 -15.316  1.00  0.00     0.134 A 
ATOM     81  F   UNL     1       2.135  17.148 -12.186  1.00  0.00    -0.206 F 
ATOM     82  C   UNL     1       2.250  18.657 -13.978  1.00  0.00     0.040 A 
ATOM     83  C   UNL     1       3.622  18.153 -15.894  1.00  0.00     0.040 A 
ATOM     84  F   UNL     1       4.803  16.131 -15.994  1.00  0.00    -0.206 F 
ATOM     85  C   UNL     1       2.753  19.015 -15.228  1.00  0.00     0.006 A 
ENDBRANCH  61  78
ENDBRANCH  35  36
ENDBRANCH  27  30
ENDBRANCH  25  26
ENDBRANCH  24  25
ENDBRANCH   1  24
TORSDOF 15
