REMARK SMILES NC(=O)CC[C@H](NC(=O)CC1CC1)C(=O)NCCCCNC(=O)c1ccc(-c2c3nc(c(-c4c(F)cccc4F)c4ccc([nH]4)c(-c4c(F)cccc4F)c4nc(c(-c5c(F)cccc5F)c5ccc2[nH]5)C=C4)C=C3)cc1
REMARK SMILES IDX 18 1 17 2 16 3 14 4 15 5 6 7 5 8 4 9 2 10 1 11 3 14 7 15
REMARK SMILES IDX 8 16 9 18 10 19 11 20 12 21 13 22 19 23 20 24 21 25 22 26
REMARK SMILES IDX 23 28 24 29 25 30 77 31 26 32 76 33 27 34 28 35 29 36 70 37
REMARK SMILES IDX 30 38 75 39 69 40 71 41 31 42 74 43 68 44 67 45 32 47 58 48
REMARK SMILES IDX 41 49 57 50 42 51 45 52 56 53 72 54 43 55 44 56 55 58 73 59
REMARK SMILES IDX 46 60 33 61 34 62 39 63 35 64 36 65 38 66 40 67 37 68 59 69
REMARK SMILES IDX 60 70 65 71 61 72 62 73 64 74 66 75 63 76 47 77 48 78 53 79
REMARK SMILES IDX 49 80 50 81 52 82 54 83 51 84
REMARK H PARENT 16 6 1 12 1 13 7 17 21 27 71 46 45 57
REMARK Flexibility Score: inf
ROOT
ATOM      1  C   UNL     1       3.746   2.178   5.931  1.00  0.00     0.023 C 
ENDROOT
BRANCH   1   2
ATOM      2  C   UNL     1       4.293   1.488   4.685  1.00  0.00     0.116 C 
BRANCH   2   3
ATOM      3  N   UNL     1       3.530   0.329   4.264  1.00  0.00    -0.354 N 
ATOM      4  C   UNL     1       3.241   0.001   2.966  1.00  0.00     0.242 C 
ATOM      5  O   UNL     1       3.446  -1.167   2.622  1.00  0.00    -0.273 OA
ATOM      6  H   UNL     1       3.193  -0.271   4.968  1.00  0.00     0.163 HD
BRANCH   4   7
ATOM      7  C   UNL     1       2.498   0.995   2.018  1.00  0.00     0.171 C 
BRANCH   7   8
ATOM      8  C   UNL     1       3.024   0.908   0.577  1.00  0.00     0.045 C 
BRANCH   8   9
ATOM      9  C   UNL     1       1.948   0.976  -0.516  1.00  0.00     0.102 C 
BRANCH   9  10
ATOM     10  C   UNL     1       1.031   2.176  -0.460  1.00  0.00     0.217 C 
ATOM     11  N   UNL     1      -0.102   2.019   0.278  1.00  0.00    -0.370 N 
ATOM     12  H   UNL     1      -0.744   2.761   0.357  1.00  0.00     0.159 HD
ATOM     13  H   UNL     1      -0.279   1.164   0.733  1.00  0.00     0.159 HD
ATOM     14  O   UNL     1       1.271   3.235  -1.026  1.00  0.00    -0.275 OA
ENDBRANCH   9  10
ENDBRANCH   8   9
ENDBRANCH   7   8
BRANCH   7  15
ATOM     15  N   UNL     1       2.211   2.309   2.602  1.00  0.00    -0.344 N 
ATOM     16  C   UNL     1       2.635   3.588   2.461  1.00  0.00     0.220 C 
ATOM     17  H   UNL     1       1.512   2.243   3.292  1.00  0.00     0.164 HD
ATOM     18  O   UNL     1       2.337   4.348   3.391  1.00  0.00    -0.275 OA
BRANCH  16  19
ATOM     19  C   UNL     1       3.393   4.113   1.263  1.00  0.00     0.103 C 
BRANCH  19  20
ATOM     20  C   UNL     1       4.868   4.369   1.394  1.00  0.00    -0.002 C 
ATOM     21  C   UNL     1       5.571   4.472   2.719  1.00  0.00     0.004 C 
ATOM     22  C   UNL     1       5.846   3.301   1.813  1.00  0.00     0.004 C 
ENDBRANCH  19  20
ENDBRANCH  16  19
ENDBRANCH   7  15
ENDBRANCH   4   7
ENDBRANCH   2   3
ENDBRANCH   1   2
BRANCH   1  23
ATOM     23  C   UNL     1       4.787   2.405   7.034  1.00  0.00     0.023 C 
BRANCH  23  24
ATOM     24  C   UNL     1       6.111   3.050   6.630  1.00  0.00     0.116 C 
BRANCH  24  25
ATOM     25  N   UNL     1       6.029   4.442   6.227  1.00  0.00    -0.352 N 
ATOM     26  C   UNL     1       6.979   5.431   6.380  1.00  0.00     0.251 C 
ATOM     27  H   UNL     1       5.190   4.715   5.790  1.00  0.00     0.163 HD
ATOM     28  O   UNL     1       6.786   6.558   5.931  1.00  0.00    -0.269 OA
BRANCH  26  29
ATOM     29  C   UNL     1       8.196   5.161   7.183  1.00  0.00     0.039 A 
ATOM     30  C   UNL     1       8.480   6.023   8.247  1.00  0.00     0.014 A 
ATOM     31  C   UNL     1       8.981   4.025   6.974  1.00  0.00     0.014 A 
ATOM     32  C   UNL     1       9.463   5.675   9.176  1.00  0.00     0.010 A 
ATOM     33  C   UNL     1       9.910   3.642   7.942  1.00  0.00     0.010 A 
ATOM     34  C   UNL     1      10.133   4.445   9.071  1.00  0.00    -0.014 A 
BRANCH  34  35
ATOM     35  C   UNL     1      10.996   3.958  10.180  1.00  0.00     0.031 A 
ATOM     36  C   UNL     1      12.467   3.740   9.978  1.00  0.00     0.074 A 
ATOM     37  C   UNL     1      10.430   3.647  11.364  1.00  0.00     0.049 A 
ATOM     38  N   UNL     1      13.360   3.303  10.830  1.00  0.00    -0.248 NA
ATOM     39  C   UNL     1      13.002   4.024   8.638  1.00  0.00     0.031 C 
ATOM     40  C   UNL     1       9.000   3.739  11.670  1.00  0.00     0.029 A 
ATOM     41  N   UNL     1      10.987   3.187  12.531  1.00  0.00    -0.354 N 
ATOM     42  C   UNL     1      14.557   3.247  10.128  1.00  0.00     0.074 A 
ATOM     43  C   UNL     1      14.267   3.650   8.768  1.00  0.00     0.031 C 
ATOM     44  C   UNL     1       8.798   3.384  12.949  1.00  0.00     0.029 A 
ATOM     45  C   UNL     1      10.076   3.013  13.546  1.00  0.00     0.049 A 
ATOM     46  H   UNL     1      11.948   2.999  12.632  1.00  0.00     0.167 HD
ATOM     47  C   UNL     1      15.789   2.912  10.580  1.00  0.00     0.037 A 
ATOM     48  C   UNL     1      10.251   2.608  14.819  1.00  0.00     0.037 A 
ATOM     49  C   UNL     1      16.086   2.539  11.938  1.00  0.00     0.049 A 
ATOM     50  C   UNL     1      11.633   2.281  15.306  1.00  0.00     0.074 A 
ATOM     51  C   UNL     1      17.316   2.245  12.504  1.00  0.00     0.029 A 
ATOM     52  N   UNL     1      15.143   2.410  12.945  1.00  0.00    -0.354 N 
ATOM     53  N   UNL     1      12.767   2.308  14.649  1.00  0.00    -0.248 NA
ATOM     54  C   UNL     1      11.762   1.876  16.713  1.00  0.00     0.031 C 
ATOM     55  C   UNL     1      17.112   1.913  13.848  1.00  0.00     0.029 A 
ATOM     56  C   UNL     1      15.760   2.030  14.126  1.00  0.00     0.049 A 
ATOM     57  H   UNL     1      14.176   2.565  12.838  1.00  0.00     0.167 HD
ATOM     58  C   UNL     1      13.745   1.946  15.566  1.00  0.00     0.074 A 
ATOM     59  C   UNL     1      13.073   1.718  16.828  1.00  0.00     0.031 C 
ATOM     60  C   UNL     1      15.079   1.813  15.376  1.00  0.00     0.037 A 
BRANCH  47  61
ATOM     61  C   UNL     1      16.914   2.948   9.589  1.00  0.00     0.057 A 
ATOM     62  C   UNL     1      17.433   4.159   9.112  1.00  0.00     0.134 A 
ATOM     63  C   UNL     1      17.500   1.764   9.125  1.00  0.00     0.134 A 
ATOM     64  F   UNL     1      16.907   5.327   9.510  1.00  0.00    -0.206 F 
ATOM     65  C   UNL     1      18.477   4.190   8.187  1.00  0.00     0.040 A 
ATOM     66  C   UNL     1      18.560   1.784   8.217  1.00  0.00     0.040 A 
ATOM     67  F   UNL     1      17.053   0.571   9.547  1.00  0.00    -0.206 F 
ATOM     68  C   UNL     1      19.047   2.999   7.740  1.00  0.00     0.006 A 
ENDBRANCH  47  61
BRANCH  48  69
ATOM     69  C   UNL     1       9.090   2.532  15.739  1.00  0.00     0.057 A 
ATOM     70  C   UNL     1       8.919   3.475  16.759  1.00  0.00     0.134 A 
ATOM     71  C   UNL     1       8.132   1.518  15.628  1.00  0.00     0.134 A 
ATOM     72  F   UNL     1       9.816   4.458  16.925  1.00  0.00    -0.206 F 
ATOM     73  C   UNL     1       7.845   3.404  17.647  1.00  0.00     0.040 A 
ATOM     74  C   UNL     1       7.042   1.446  16.497  1.00  0.00     0.040 A 
ATOM     75  F   UNL     1       8.238   0.589  14.667  1.00  0.00    -0.206 F 
ATOM     76  C   UNL     1       6.901   2.388  17.515  1.00  0.00     0.006 A 
ENDBRANCH  48  69
BRANCH  60  77
ATOM     77  C   UNL     1      15.902   1.427  16.568  1.00  0.00     0.057 A 
ATOM     78  C   UNL     1      15.903   0.119  17.069  1.00  0.00     0.134 A 
ATOM     79  C   UNL     1      16.722   2.367  17.203  1.00  0.00     0.134 A 
ATOM     80  F   UNL     1      15.126  -0.822  16.513  1.00  0.00    -0.206 F 
ATOM     81  C   UNL     1      16.678  -0.236  18.174  1.00  0.00     0.040 A 
ATOM     82  C   UNL     1      17.517   2.019  18.296  1.00  0.00     0.040 A 
ATOM     83  F   UNL     1      16.769   3.635  16.768  1.00  0.00    -0.206 F 
ATOM     84  C   UNL     1      17.493   0.715  18.787  1.00  0.00     0.006 A 
ENDBRANCH  60  77
ENDBRANCH  34  35
ENDBRANCH  26  29
ENDBRANCH  24  25
ENDBRANCH  23  24
ENDBRANCH   1  23
TORSDOF 17
