REMARK SMILES CC1(C)CC[C@@]2(C(=O)NCCCCNC(=O)c3ccc(-c4c5nc(c(-c6c(F)cccc6F)c6ccc([nH]6)c(-c6c(F)cccc6F)c6nc(c(-c7c(F)cccc7F)c7ccc4[nH]7)C=C6)C=C5)cc3)CC[C@@]3(C)C(=CC[C@H]4[C@@]5(C)CC[C@H](O)C(C)(C)[C@@H]5CC[C@]43C)[C@@H]2C1
REMARK SMILES IDX 12 1 11 2 10 3 9 4 7 5 8 6 6 8 1 9 2 10 3 11 4 12 94 13 5 14
REMARK SMILES IDX 93 15 75 16 71 17 73 18 76 19 72 20 74 21 91 22 77 23 78 24
REMARK SMILES IDX 90 25 92 26 79 27 89 28 80 29 81 30 88 31 82 32 85 33 83 34
REMARK SMILES IDX 86 35 87 36 84 37 13 39 14 40 15 41 16 43 17 44 18 45 70 46
REMARK SMILES IDX 19 47 69 48 20 49 21 50 22 51 63 52 23 53 68 54 62 55 64 56
REMARK SMILES IDX 24 57 67 58 61 59 60 60 25 62 51 63 34 64 50 65 35 66 38 67
REMARK SMILES IDX 49 68 65 69 36 70 37 71 48 73 66 74 39 75 26 76 27 77 32 78
REMARK SMILES IDX 28 79 29 80 31 81 33 82 30 83 52 84 53 85 58 86 54 87 55 88
REMARK SMILES IDX 57 89 59 90 56 91 40 92 41 93 46 94 42 95 43 96 45 97 47 98
REMARK SMILES IDX 44 99
REMARK H PARENT 9 7 84 38 14 42 64 61 38 72
REMARK Flexibility Score: inf
ROOT
ATOM      1  C   UNL     1      -1.781  -1.335  -3.205  1.00  0.00     0.023 C 
ENDROOT
BRANCH   1   2
ATOM      2  C   UNL     1      -1.419  -2.615  -2.428  1.00  0.00     0.023 C 
BRANCH   2   3
ATOM      3  C   UNL     1      -0.536  -2.565  -1.170  1.00  0.00     0.116 C 
BRANCH   3   4
ATOM      4  N   UNL     1      -0.825  -1.692  -0.053  1.00  0.00    -0.356 N 
ATOM      5  C   UNL     1      -0.752  -2.019   1.295  1.00  0.00     0.226 C 
ATOM      6  O   UNL     1      -1.120  -3.118   1.709  1.00  0.00    -0.274 OA
ATOM      7  H   UNL     1      -1.101  -0.772  -0.270  1.00  0.00     0.163 HD
BRANCH   5   8
ATOM      8  C   UNL     1      -0.028  -0.982   2.241  1.00  0.00     0.056 C 
ATOM      9  C   UNL     1       3.825  -0.456   0.915  1.00  0.00     0.011 C 
ATOM     10  C   UNL     1       2.467  -1.066   0.531  1.00  0.00    -0.035 C 
ATOM     11  C   UNL     1       2.725  -1.762  -0.842  1.00  0.00     0.011 C 
ATOM     12  C   UNL     1       2.103  -2.178   1.538  1.00  0.00     0.007 C 
ATOM     13  C   UNL     1       1.412   0.109   0.412  1.00  0.00     0.015 C 
ATOM     14  C   UNL     1       1.258  -1.708   2.708  1.00  0.00     0.018 C 
ATOM     15  C   UNL     1       0.357   0.359   1.573  1.00  0.00     0.031 C 
ATOM     16  C   UNL     1      -0.990   1.108   1.230  1.00  0.00    -0.064 C 
ATOM     17  C   UNL     1      -0.822  -0.659   3.528  1.00  0.00     0.018 C 
ATOM     18  C   UNL     1      -2.077   1.308   2.345  1.00  0.00    -0.006 C 
ATOM     19  C   UNL     1      -1.262   1.453  -0.039  1.00  0.00    -0.027 C 
ATOM     20  C   UNL     1      -2.132   0.084   3.291  1.00  0.00     0.013 C 
ATOM     21  C   UNL     1      -1.542   2.503   3.210  1.00  0.00     0.017 C 
ATOM     22  C   UNL     1      -3.595   1.681   1.748  1.00  0.00    -0.020 C 
ATOM     23  C   UNL     1      -2.639   1.527  -0.617  1.00  0.00     0.032 C 
ATOM     24  C   UNL     1      -3.814   1.111   0.307  1.00  0.00     0.006 C 
ATOM     25  C   UNL     1      -4.839   1.308   2.650  1.00  0.00     0.008 C 
ATOM     26  C   UNL     1      -3.697   3.250   1.574  1.00  0.00     0.012 C 
ATOM     27  C   UNL     1      -4.531  -0.328   0.082  1.00  0.00    -0.025 C 
ATOM     28  C   UNL     1      -5.964   0.444   1.998  1.00  0.00     0.005 C 
ATOM     29  C   UNL     1      -5.355  -0.127  -1.224  1.00  0.00     0.012 C 
ATOM     30  C   UNL     1      -3.616  -1.521  -0.128  1.00  0.00     0.010 C 
ATOM     31  C   UNL     1      -5.355  -0.781   1.331  1.00  0.00     0.003 C 
ATOM     32  C   UNL     1      -4.257  -2.900  -0.328  1.00  0.00     0.033 C 
ATOM     33  C   UNL     1      -6.188  -2.128   1.161  1.00  0.00    -0.006 C 
ATOM     34  C   UNL     1      -5.173  -3.271   0.829  1.00  0.00     0.120 C 
ATOM     35  C   UNL     1      -7.301  -2.101   0.097  1.00  0.00     0.014 C 
ATOM     36  C   UNL     1      -6.876  -2.513   2.491  1.00  0.00     0.014 C 
BRANCH  34  37
ATOM     37  O   UNL     1      -5.839  -4.495   0.514  1.00  0.00    -0.393 OA
ATOM     38  H   UNL     1      -6.375  -4.375  -0.286  1.00  0.00     0.210 HD
ENDBRANCH  34  37
ENDBRANCH   5   8
ENDBRANCH   3   4
ENDBRANCH   2   3
ENDBRANCH   1   2
BRANCH   1  39
ATOM     39  C   UNL     1      -0.654  -0.350  -3.475  1.00  0.00     0.116 C 
BRANCH  39  40
ATOM     40  N   UNL     1       0.263  -0.869  -4.468  1.00  0.00    -0.352 N 
ATOM     41  C   UNL     1       0.122  -0.870  -5.838  1.00  0.00     0.251 C 
ATOM     42  H   UNL     1       1.092  -1.271  -4.121  1.00  0.00     0.163 HD
ATOM     43  O   UNL     1       0.766  -1.657  -6.518  1.00  0.00    -0.269 OA
BRANCH  41  44
ATOM     44  C   UNL     1      -0.824   0.068  -6.489  1.00  0.00     0.039 A 
ATOM     45  C   UNL     1      -1.659  -0.399  -7.508  1.00  0.00     0.014 A 
ATOM     46  C   UNL     1      -0.850   1.419  -6.133  1.00  0.00     0.014 A 
ATOM     47  C   UNL     1      -2.554   0.477  -8.130  1.00  0.00     0.010 A 
ATOM     48  C   UNL     1      -1.795   2.272  -6.699  1.00  0.00     0.010 A 
ATOM     49  C   UNL     1      -2.653   1.814  -7.711  1.00  0.00    -0.014 A 
BRANCH  49  50
ATOM     50  C   UNL     1      -3.647   2.744  -8.314  1.00  0.00     0.031 A 
ATOM     51  C   UNL     1      -3.190   3.974  -9.053  1.00  0.00     0.074 A 
ATOM     52  C   UNL     1      -4.964   2.516  -8.136  1.00  0.00     0.049 A 
ATOM     53  N   UNL     1      -3.905   4.933  -9.585  1.00  0.00    -0.248 NA
ATOM     54  C   UNL     1      -1.737   4.167  -9.188  1.00  0.00     0.031 C 
ATOM     55  C   UNL     1      -5.533   1.391  -7.392  1.00  0.00     0.029 A 
ATOM     56  N   UNL     1      -6.062   3.224  -8.556  1.00  0.00    -0.354 N 
ATOM     57  C   UNL     1      -2.992   5.847 -10.099  1.00  0.00     0.074 A 
ATOM     58  C   UNL     1      -1.673   5.356  -9.769  1.00  0.00     0.031 C 
ATOM     59  C   UNL     1      -6.873   1.472  -7.427  1.00  0.00     0.029 A 
ATOM     60  C   UNL     1      -7.258   2.675  -8.157  1.00  0.00     0.049 A 
ATOM     61  H   UNL     1      -6.000   4.048  -9.092  1.00  0.00     0.167 HD
ATOM     62  C   UNL     1      -3.232   6.981 -10.801  1.00  0.00     0.037 A 
ATOM     63  C   UNL     1      -8.523   3.099  -8.347  1.00  0.00     0.037 A 
ATOM     64  C   UNL     1      -4.547   7.451 -11.151  1.00  0.00     0.049 A 
ATOM     65  C   UNL     1      -8.761   4.363  -9.127  1.00  0.00     0.074 A 
ATOM     66  C   UNL     1      -4.894   8.544 -11.925  1.00  0.00     0.029 A 
ATOM     67  N   UNL     1      -5.732   6.858 -10.742  1.00  0.00    -0.354 N 
ATOM     68  N   UNL     1      -7.887   5.170  -9.679  1.00  0.00    -0.248 NA
ATOM     69  C   UNL     1     -10.159   4.774  -9.314  1.00  0.00     0.031 C 
ATOM     70  C   UNL     1      -6.288   8.646 -11.938  1.00  0.00     0.029 A 
ATOM     71  C   UNL     1      -6.812   7.583 -11.219  1.00  0.00     0.049 A 
ATOM     72  H   UNL     1      -5.796   6.042 -10.194  1.00  0.00     0.167 HD
ATOM     73  C   UNL     1      -8.629   6.171 -10.294  1.00  0.00     0.074 A 
ATOM     74  C   UNL     1     -10.024   5.856 -10.067  1.00  0.00     0.031 C 
ATOM     75  C   UNL     1      -8.195   7.256 -10.981  1.00  0.00     0.037 A 
BRANCH  62  76
ATOM     76  C   UNL     1      -2.047   7.795 -11.241  1.00  0.00     0.057 A 
ATOM     77  C   UNL     1      -1.163   7.343 -12.230  1.00  0.00     0.134 A 
ATOM     78  C   UNL     1      -1.814   9.067 -10.703  1.00  0.00     0.134 A 
ATOM     79  F   UNL     1      -1.321   6.131 -12.782  1.00  0.00    -0.206 F 
ATOM     80  C   UNL     1      -0.076   8.115 -12.648  1.00  0.00     0.040 A 
ATOM     81  C   UNL     1      -0.748   9.860 -11.133  1.00  0.00     0.040 A 
ATOM     82  F   UNL     1      -2.625   9.567  -9.758  1.00  0.00    -0.206 F 
ATOM     83  C   UNL     1       0.129   9.381 -12.104  1.00  0.00     0.006 A 
ENDBRANCH  62  76
BRANCH  63  84
ATOM     84  C   UNL     1      -9.662   2.320  -7.796  1.00  0.00     0.057 A 
ATOM     85  C   UNL     1     -10.559   1.651  -8.637  1.00  0.00     0.134 A 
ATOM     86  C   UNL     1      -9.889   2.233  -6.416  1.00  0.00     0.134 A 
ATOM     87  F   UNL     1     -10.407   1.712  -9.969  1.00  0.00    -0.206 F 
ATOM     88  C   UNL     1     -11.650   0.944  -8.131  1.00  0.00     0.040 A 
ATOM     89  C   UNL     1     -10.960   1.505  -5.895  1.00  0.00     0.040 A 
ATOM     90  F   UNL     1      -9.063   2.844  -5.554  1.00  0.00    -0.206 F 
ATOM     91  C   UNL     1     -11.850   0.865  -6.754  1.00  0.00     0.006 A 
ENDBRANCH  63  84
BRANCH  75  92
ATOM     92  C   UNL     1      -9.240   8.171 -11.550  1.00  0.00     0.057 A 
ATOM     93  C   UNL     1     -10.016   9.003 -10.734  1.00  0.00     0.134 A 
ATOM     94  C   UNL     1      -9.441   8.252 -12.934  1.00  0.00     0.134 A 
ATOM     95  F   UNL     1      -9.881   8.965  -9.399  1.00  0.00    -0.206 F 
ATOM     96  C   UNL     1     -10.972   9.867 -11.272  1.00  0.00     0.040 A 
ATOM     97  C   UNL     1     -10.372   9.133 -13.486  1.00  0.00     0.040 A 
ATOM     98  F   UNL     1      -8.724   7.490 -13.774  1.00  0.00    -0.206 F 
ATOM     99  C   UNL     1     -11.146   9.939 -12.652  1.00  0.00     0.006 A 
ENDBRANCH  75  92
ENDBRANCH  49  50
ENDBRANCH  41  44
ENDBRANCH  39  40
ENDBRANCH   1  39
TORSDOF 12
