REMARK SMILES O=C(CCN1C(=O)[C@@H]2[C@@H](C1=O)[C@H]1c3ccccc3[C@]2(Br)c2ccccc21)NCCCCNC(=O)c1ccc(-c2c3nc(c(-c4c(F)cccc4F)c4ccc([nH]4)c(-c4c(F)cccc4F)c4nc(c(-c5c(F)cccc5F)c5ccc2[nH]5)C=C4)C=C3)cc1
REMARK SMILES IDX 29 1 28 2 27 3 1 4 2 5 3 7 4 8 5 9 6 10 10 11 7 12 8 13 9 14
REMARK SMILES IDX 11 15 19 16 12 17 21 18 20 19 18 20 26 21 13 22 22 23 17 24
REMARK SMILES IDX 25 25 14 26 23 27 16 28 24 29 15 30 30 31 31 32 32 33 33 34
REMARK SMILES IDX 34 36 35 37 36 38 88 39 37 40 87 41 38 42 39 43 40 44 81 45
REMARK SMILES IDX 41 46 86 47 80 48 82 49 42 50 85 51 79 52 78 53 43 55 69 56
REMARK SMILES IDX 52 57 68 58 53 59 56 60 67 61 83 62 54 63 55 64 66 66 84 67
REMARK SMILES IDX 57 68 44 69 45 70 50 71 46 72 47 73 49 74 51 75 48 76 70 77
REMARK SMILES IDX 71 78 76 79 72 80 73 81 75 82 77 83 74 84 58 85 59 86 64 87
REMARK SMILES IDX 60 88 61 89 63 90 65 91 62 92
REMARK H PARENT 27 6 32 35 82 54 56 65
REMARK Flexibility Score: inf
ROOT
ATOM      1  C   UNL     1       2.093  -3.813   0.599  1.00  0.00     0.023 C 
ENDROOT
BRANCH   1   2
ATOM      2  C   UNL     1       1.931  -2.376   1.120  1.00  0.00     0.116 C 
BRANCH   2   3
ATOM      3  N   UNL     1       2.628  -1.368   0.329  1.00  0.00    -0.356 N 
ATOM      4  O   UNL     1       0.957   0.209   0.511  1.00  0.00    -0.275 OA
ATOM      5  C   UNL     1       2.088  -0.107   0.148  1.00  0.00     0.221 C 
ATOM      6  H   UNL     1       3.494  -1.589  -0.083  1.00  0.00     0.163 HD
BRANCH   5   7
ATOM      7  C   UNL     1       2.994   0.905  -0.527  1.00  0.00     0.122 C 
BRANCH   7   8
ATOM      8  C   UNL     1       3.624   1.861   0.491  1.00  0.00     0.138 C 
BRANCH   8   9
ATOM      9  N   UNL     1       4.858   1.328   1.044  1.00  0.00    -0.281 N 
ATOM     10  C   UNL     1       4.909   0.506   2.167  1.00  0.00     0.235 C 
ATOM     11  C   UNL     1       6.093   1.417   0.395  1.00  0.00     0.234 C 
ATOM     12  O   UNL     1       3.977   0.076   2.818  1.00  0.00    -0.274 OA
ATOM     13  C   UNL     1       6.372   0.315   2.436  1.00  0.00     0.118 C 
ATOM     14  C   UNL     1       6.838   0.268   0.972  1.00  0.00     0.105 C 
ATOM     15  O   UNL     1       6.401   2.081  -0.574  1.00  0.00    -0.274 OA
ATOM     16  C   UNL     1       7.062  -0.844   3.173  1.00  0.00     0.088 C 
ATOM     17  C   UNL     1       8.290  -0.218   0.882  1.00  0.00     0.063 C 
ATOM     18  C   UNL     1       8.493  -0.274   3.375  1.00  0.00    -0.022 A 
ATOM     19  Br  UNL     1       6.172  -1.261   4.834  1.00  0.00    -0.074 Br
ATOM     20  C   UNL     1       7.254  -2.039   2.210  1.00  0.00    -0.022 A 
ATOM     21  C   UNL     1       9.114   0.093   2.134  1.00  0.00    -0.035 A 
ATOM     22  C   UNL     1       8.000  -1.729   1.021  1.00  0.00    -0.035 A 
ATOM     23  C   UNL     1       9.221  -0.193   4.562  1.00  0.00     0.006 A 
ATOM     24  C   UNL     1       6.751  -3.309   2.337  1.00  0.00     0.006 A 
ATOM     25  C   UNL     1      10.452   0.468   2.099  1.00  0.00     0.005 A 
ATOM     26  C   UNL     1       8.249  -2.668   0.027  1.00  0.00     0.005 A 
ATOM     27  C   UNL     1      10.558   0.205   4.514  1.00  0.00     0.000 A 
ATOM     28  C   UNL     1       6.954  -4.241   1.310  1.00  0.00     0.000 A 
ATOM     29  C   UNL     1      11.169   0.520   3.294  1.00  0.00     0.000 A 
ATOM     30  C   UNL     1       7.706  -3.933   0.177  1.00  0.00     0.000 A 
ENDBRANCH   8   9
ENDBRANCH   7   8
ENDBRANCH   5   7
ENDBRANCH   2   3
ENDBRANCH   1   2
BRANCH   1  31
ATOM     31  C   UNL     1       3.408  -4.522   0.980  1.00  0.00     0.023 C 
BRANCH  31  32
ATOM     32  C   UNL     1       3.549  -4.890   2.472  1.00  0.00     0.116 C 
BRANCH  32  33
ATOM     33  N   UNL     1       3.419  -6.314   2.766  1.00  0.00    -0.352 N 
ATOM     34  C   UNL     1       4.297  -7.296   3.186  1.00  0.00     0.251 C 
ATOM     35  H   UNL     1       2.503  -6.650   2.637  1.00  0.00     0.163 HD
ATOM     36  O   UNL     1       3.841  -8.421   3.398  1.00  0.00    -0.269 OA
BRANCH  34  37
ATOM     37  C   UNL     1       5.772  -7.116   3.314  1.00  0.00     0.039 A 
ATOM     38  C   UNL     1       6.383  -6.112   4.056  1.00  0.00     0.014 A 
ATOM     39  C   UNL     1       6.606  -8.058   2.695  1.00  0.00     0.014 A 
ATOM     40  C   UNL     1       7.788  -5.916   3.970  1.00  0.00     0.010 A 
ATOM     41  C   UNL     1       8.010  -7.906   2.688  1.00  0.00     0.010 A 
ATOM     42  C   UNL     1       8.633  -6.766   3.224  1.00  0.00    -0.014 A 
BRANCH  42  43
ATOM     43  C   UNL     1      10.090  -6.434   2.904  1.00  0.00     0.031 A 
ATOM     44  C   UNL     1      10.643  -6.575   1.478  1.00  0.00     0.074 A 
ATOM     45  C   UNL     1      10.966  -5.947   3.816  1.00  0.00     0.049 A 
ATOM     46  N   UNL     1      11.882  -6.476   1.040  1.00  0.00    -0.248 NA
ATOM     47  C   UNL     1       9.679  -6.865   0.406  1.00  0.00     0.031 C 
ATOM     48  C   UNL     1      10.685  -5.674   5.223  1.00  0.00     0.029 A 
ATOM     49  N   UNL     1      12.295  -5.580   3.679  1.00  0.00    -0.354 N 
ATOM     50  C   UNL     1      11.844  -6.740  -0.329  1.00  0.00     0.074 A 
ATOM     51  C   UNL     1      10.462  -7.014  -0.654  1.00  0.00     0.031 C 
ATOM     52  C   UNL     1      11.768  -5.124   5.796  1.00  0.00     0.029 A 
ATOM     53  C   UNL     1      12.869  -5.100   4.835  1.00  0.00     0.049 A 
ATOM     54  H   UNL     1      12.787  -5.656   2.830  1.00  0.00     0.167 HD
ATOM     55  C   UNL     1      12.841  -6.749  -1.252  1.00  0.00     0.037 A 
ATOM     56  C   UNL     1      14.133  -4.725   5.132  1.00  0.00     0.037 A 
ATOM     57  C   UNL     1      14.223  -6.417  -1.016  1.00  0.00     0.049 A 
ATOM     58  C   UNL     1      15.244  -4.835   4.120  1.00  0.00     0.074 A 
ATOM     59  C   UNL     1      15.270  -6.392  -1.927  1.00  0.00     0.029 A 
ATOM     60  N   UNL     1      14.754  -6.036   0.201  1.00  0.00    -0.354 N 
ATOM     61  N   UNL     1      15.189  -5.155   2.854  1.00  0.00    -0.248 NA
ATOM     62  C   UNL     1      16.611  -4.562   4.604  1.00  0.00     0.031 C 
ATOM     63  C   UNL     1      16.442  -6.035  -1.253  1.00  0.00     0.029 A 
ATOM     64  C   UNL     1      16.116  -5.797   0.068  1.00  0.00     0.049 A 
ATOM     65  H   UNL     1      14.243  -5.947   1.038  1.00  0.00     0.167 HD
ATOM     66  C   UNL     1      16.501  -5.111   2.392  1.00  0.00     0.074 A 
ATOM     67  C   UNL     1      17.332  -4.708   3.502  1.00  0.00     0.031 C 
ATOM     68  C   UNL     1      16.968  -5.394   1.153  1.00  0.00     0.037 A 
BRANCH  55  69
ATOM     69  C   UNL     1      12.488  -7.157  -2.656  1.00  0.00     0.057 A 
ATOM     70  C   UNL     1      12.896  -8.405  -3.150  1.00  0.00     0.134 A 
ATOM     71  C   UNL     1      11.842  -6.288  -3.542  1.00  0.00     0.134 A 
ATOM     72  F   UNL     1      13.536  -9.275  -2.355  1.00  0.00    -0.206 F 
ATOM     73  C   UNL     1      12.684  -8.768  -4.480  1.00  0.00     0.040 A 
ATOM     74  C   UNL     1      11.605  -6.649  -4.870  1.00  0.00     0.040 A 
ATOM     75  F   UNL     1      11.422  -5.083  -3.128  1.00  0.00    -0.206 F 
ATOM     76  C   UNL     1      12.035  -7.888  -5.344  1.00  0.00     0.006 A 
ENDBRANCH  55  69
BRANCH  56  77
ATOM     77  C   UNL     1      14.473  -4.267   6.507  1.00  0.00     0.057 A 
ATOM     78  C   UNL     1      14.476  -5.158   7.587  1.00  0.00     0.134 A 
ATOM     79  C   UNL     1      14.888  -2.952   6.753  1.00  0.00     0.134 A 
ATOM     80  F   UNL     1      14.109  -6.436   7.412  1.00  0.00    -0.206 F 
ATOM     81  C   UNL     1      14.862  -4.756   8.865  1.00  0.00     0.040 A 
ATOM     82  C   UNL     1      15.308  -2.545   8.020  1.00  0.00     0.040 A 
ATOM     83  F   UNL     1      14.952  -2.065   5.749  1.00  0.00    -0.206 F 
ATOM     84  C   UNL     1      15.289  -3.448   9.082  1.00  0.00     0.006 A 
ENDBRANCH  56  77
BRANCH  68  85
ATOM     85  C   UNL     1      18.443  -5.254   0.910  1.00  0.00     0.057 A 
ATOM     86  C   UNL     1      18.951  -4.199   0.141  1.00  0.00     0.134 A 
ATOM     87  C   UNL     1      19.367  -6.170   1.432  1.00  0.00     0.134 A 
ATOM     88  F   UNL     1      18.125  -3.288  -0.396  1.00  0.00    -0.206 F 
ATOM     89  C   UNL     1      20.321  -4.056  -0.094  1.00  0.00     0.040 A 
ATOM     90  C   UNL     1      20.741  -6.026   1.222  1.00  0.00     0.040 A 
ATOM     91  F   UNL     1      18.951  -7.197   2.188  1.00  0.00    -0.206 F 
ATOM     92  C   UNL     1      21.221  -4.968   0.454  1.00  0.00     0.006 A 
ENDBRANCH  68  85
ENDBRANCH  42  43
ENDBRANCH  34  37
ENDBRANCH  32  33
ENDBRANCH  31  32
ENDBRANCH   1  31
TORSDOF 13
