REMARK SMILES O=C(NCCCCNC(=O)c1ccc(-c2c3nc(c(-c4c(F)cccc4F)c4ccc([nH]4)c(-c4c(F)cccc4F)c4nc(c(-c5c(F)cccc5F)c5ccc2[nH]5)C=C4)C=C3)cc1)C1=Cc2cc(OC(F)(F)F)ccc2O[C@@H]1C(F)(F)F
REMARK SMILES IDX 5 1 4 2 3 3 1 4 2 5 65 7 66 8 79 9 67 10 78 11 68 12 77 13
REMARK SMILES IDX 69 14 76 15 75 16 80 17 81 18 82 19 83 20 70 21 71 22 72 23
REMARK SMILES IDX 73 24 74 25 6 26 7 27 8 28 9 29 10 31 11 32 12 33 64 34
REMARK SMILES IDX 13 35 63 36 14 37 15 38 16 39 57 40 17 41 62 42 56 43 58 44
REMARK SMILES IDX 18 45 61 46 55 47 54 48 19 50 45 51 28 52 44 53 29 54 32 55
REMARK SMILES IDX 43 56 59 57 30 58 31 59 42 61 60 62 33 63 20 64 21 65 26 66
REMARK SMILES IDX 22 67 23 68 25 69 27 70 24 71 46 72 47 73 52 74 48 75 49 76
REMARK SMILES IDX 51 77 53 78 50 79 34 80 35 81 40 82 36 83 37 84 39 85 41 86
REMARK SMILES IDX 38 87
REMARK H PARENT 3 6 8 30 58 49 32 60
REMARK Flexibility Score: inf
ROOT
ATOM      1  C   UNL     1       4.260  -3.200   0.274  1.00  0.00     0.023 C 
ENDROOT
BRANCH   1   2
ATOM      2  C   UNL     1       3.768  -1.833  -0.202  1.00  0.00     0.116 C 
BRANCH   2   3
ATOM      3  N   UNL     1       2.621  -1.310   0.539  1.00  0.00    -0.352 N 
ATOM      4  O   UNL     1       1.220   0.311   1.287  1.00  0.00    -0.270 OA
ATOM      5  C   UNL     1       2.334  -0.010   0.896  1.00  0.00     0.251 C 
ATOM      6  H   UNL     1       1.959  -1.982   0.823  1.00  0.00     0.163 HD
BRANCH   5   7
ATOM      7  C   UNL     1       3.386   1.005   0.685  1.00  0.00     0.067 C 
ATOM      8  C   UNL     1       4.525   0.922   1.388  1.00  0.00     0.025 C 
ATOM      9  C   UNL     1       3.280   1.853  -0.545  1.00  0.00     0.314 C 
ATOM     10  C   UNL     1       5.711   0.950   0.512  1.00  0.00     0.021 A 
ATOM     11  O   UNL     1       4.398   1.649  -1.442  1.00  0.00    -0.475 OA
ATOM     12  C   UNL     1       6.868   0.301   0.966  1.00  0.00     0.058 A 
ATOM     13  C   UNL     1       5.559   1.193  -0.867  1.00  0.00     0.128 A 
ATOM     14  C   UNL     1       7.809  -0.184   0.052  1.00  0.00     0.130 A 
ATOM     15  C   UNL     1       6.541   0.780  -1.767  1.00  0.00     0.051 A 
ATOM     16  C   UNL     1       7.656   0.076  -1.311  1.00  0.00     0.050 A 
BRANCH   9  17
ATOM     17  C   UNL     1       3.133   3.342  -0.185  1.00  0.00     0.429 C 
ATOM     18  F   UNL     1       2.903   4.091  -1.291  1.00  0.00    -0.167 F 
ATOM     19  F   UNL     1       2.094   3.557   0.656  1.00  0.00    -0.167 F 
ATOM     20  F   UNL     1       4.241   3.842   0.411  1.00  0.00    -0.167 F 
ENDBRANCH   9  17
BRANCH  14  21
ATOM     21  O   UNL     1       8.832  -0.918   0.584  1.00  0.00    -0.406 OA
BRANCH  21  22
ATOM     22  C   UNL     1       9.136  -2.117  -0.126  1.00  0.00     0.573 C 
ATOM     23  F   UNL     1       8.004  -2.797  -0.420  1.00  0.00    -0.132 F 
ATOM     24  F   UNL     1       9.820  -1.844  -1.254  1.00  0.00    -0.132 F 
ATOM     25  F   UNL     1       9.907  -2.898   0.663  1.00  0.00    -0.132 F 
ENDBRANCH  21  22
ENDBRANCH  14  21
ENDBRANCH   5   7
ENDBRANCH   2   3
ENDBRANCH   1   2
BRANCH   1  26
ATOM     26  C   UNL     1       4.029  -4.339  -0.716  1.00  0.00     0.023 C 
BRANCH  26  27
ATOM     27  C   UNL     1       4.604  -4.145  -2.118  1.00  0.00     0.116 C 
BRANCH  27  28
ATOM     28  N   UNL     1       6.051  -3.982  -2.169  1.00  0.00    -0.352 N 
ATOM     29  C   UNL     1       6.949  -4.596  -3.017  1.00  0.00     0.251 C 
ATOM     30  H   UNL     1       6.436  -3.353  -1.517  1.00  0.00     0.163 HD
ATOM     31  O   UNL     1       8.153  -4.368  -2.948  1.00  0.00    -0.269 OA
BRANCH  29  32
ATOM     32  C   UNL     1       6.434  -5.592  -3.977  1.00  0.00     0.039 A 
ATOM     33  C   UNL     1       6.867  -6.916  -3.871  1.00  0.00     0.014 A 
ATOM     34  C   UNL     1       5.417  -5.239  -4.864  1.00  0.00     0.014 A 
ATOM     35  C   UNL     1       6.197  -7.915  -4.581  1.00  0.00     0.010 A 
ATOM     36  C   UNL     1       4.702  -6.244  -5.506  1.00  0.00     0.010 A 
ATOM     37  C   UNL     1       5.071  -7.593  -5.356  1.00  0.00    -0.014 A 
BRANCH  37  38
ATOM     38  C   UNL     1       4.243  -8.633  -6.018  1.00  0.00     0.031 A 
ATOM     39  C   UNL     1       4.089  -8.606  -7.513  1.00  0.00     0.074 A 
ATOM     40  C   UNL     1       3.535  -9.512  -5.279  1.00  0.00     0.049 A 
ATOM     41  N   UNL     1       3.255  -9.267  -8.272  1.00  0.00    -0.248 NA
ATOM     42  C   UNL     1       4.963  -7.675  -8.245  1.00  0.00     0.031 C 
ATOM     43  C   UNL     1       3.558  -9.613  -3.818  1.00  0.00     0.029 A 
ATOM     44  N   UNL     1       2.629 -10.472  -5.660  1.00  0.00    -0.354 N 
ATOM     45  C   UNL     1       3.468  -8.795  -9.561  1.00  0.00     0.074 A 
ATOM     46  C   UNL     1       4.486  -7.771  -9.477  1.00  0.00     0.031 C 
ATOM     47  C   UNL     1       2.714 -10.584  -3.428  1.00  0.00     0.029 A 
ATOM     48  C   UNL     1       2.057 -11.144  -4.604  1.00  0.00     0.049 A 
ATOM     49  H   UNL     1       2.410 -10.662  -6.600  1.00  0.00     0.167 HD
ATOM     50  C   UNL     1       2.878  -9.191 -10.713  1.00  0.00     0.037 A 
ATOM     51  C   UNL     1       1.098 -12.090  -4.588  1.00  0.00     0.037 A 
ATOM     52  C   UNL     1       1.918 -10.257 -10.800  1.00  0.00     0.049 A 
ATOM     53  C   UNL     1       0.496 -12.547  -5.890  1.00  0.00     0.074 A 
ATOM     54  C   UNL     1       1.323 -10.789 -11.931  1.00  0.00     0.029 A 
ATOM     55  N   UNL     1       1.427 -10.966  -9.715  1.00  0.00    -0.354 N 
ATOM     56  N   UNL     1       0.745 -12.128  -7.107  1.00  0.00    -0.248 NA
ATOM     57  C   UNL     1      -0.518 -13.611  -5.818  1.00  0.00     0.031 C 
ATOM     58  C   UNL     1       0.452 -11.805 -11.527  1.00  0.00     0.029 A 
ATOM     59  C   UNL     1       0.533 -11.928 -10.150  1.00  0.00     0.049 A 
ATOM     60  H   UNL     1       1.677 -10.808  -8.776  1.00  0.00     0.167 HD
ATOM     61  C   UNL     1      -0.049 -12.900  -7.945  1.00  0.00     0.074 A 
ATOM     62  C   UNL     1      -0.786 -13.816  -7.100  1.00  0.00     0.031 C 
ATOM     63  C   UNL     1      -0.158 -12.856  -9.294  1.00  0.00     0.037 A 
BRANCH  50  64
ATOM     64  C   UNL     1       3.265  -8.479 -11.974  1.00  0.00     0.057 A 
ATOM     65  C   UNL     1       4.517  -8.664 -12.572  1.00  0.00     0.134 A 
ATOM     66  C   UNL     1       2.354  -7.635 -12.622  1.00  0.00     0.134 A 
ATOM     67  F   UNL     1       5.438  -9.448 -11.992  1.00  0.00    -0.206 F 
ATOM     68  C   UNL     1       4.859  -8.018 -13.761  1.00  0.00     0.040 A 
ATOM     69  C   UNL     1       2.675  -7.004 -13.825  1.00  0.00     0.040 A 
ATOM     70  F   UNL     1       1.136  -7.419 -12.104  1.00  0.00    -0.206 F 
ATOM     71  C   UNL     1       3.933  -7.192 -14.395  1.00  0.00     0.006 A 
ENDBRANCH  50  64
BRANCH  51  72
ATOM     72  C   UNL     1       0.647 -12.686  -3.304  1.00  0.00     0.057 A 
ATOM     73  C   UNL     1       0.951 -14.014  -2.982  1.00  0.00     0.134 A 
ATOM     74  C   UNL     1      -0.127 -11.963  -2.389  1.00  0.00     0.134 A 
ATOM     75  F   UNL     1       1.672 -14.765  -3.828  1.00  0.00    -0.206 F 
ATOM     76  C   UNL     1       0.480 -14.611  -1.811  1.00  0.00     0.040 A 
ATOM     77  C   UNL     1      -0.585 -12.540  -1.203  1.00  0.00     0.040 A 
ATOM     78  F   UNL     1      -0.448 -10.684  -2.635  1.00  0.00    -0.206 F 
ATOM     79  C   UNL     1      -0.290 -13.871  -0.916  1.00  0.00     0.006 A 
ENDBRANCH  51  72
BRANCH  63  80
ATOM     80  C   UNL     1      -1.052 -13.863  -9.950  1.00  0.00     0.057 A 
ATOM     81  C   UNL     1      -2.446 -13.744  -9.923  1.00  0.00     0.134 A 
ATOM     82  C   UNL     1      -0.502 -14.928 -10.676  1.00  0.00     0.134 A 
ATOM     83  F   UNL     1      -3.031 -12.753  -9.235  1.00  0.00    -0.206 F 
ATOM     84  C   UNL     1      -3.265 -14.657 -10.590  1.00  0.00     0.040 A 
ATOM     85  C   UNL     1      -1.310 -15.833 -11.364  1.00  0.00     0.040 A 
ATOM     86  F   UNL     1       0.828 -15.090 -10.746  1.00  0.00    -0.206 F 
ATOM     87  C   UNL     1      -2.696 -15.699 -11.320  1.00  0.00     0.006 A 
ENDBRANCH  63  80
ENDBRANCH  37  38
ENDBRANCH  29  32
ENDBRANCH  27  28
ENDBRANCH  26  27
ENDBRANCH   1  26
TORSDOF 14
