REMARK SMILES CC[C@H](C)[C@H](Nc1ncnc2scc(-c3ccccc3)c12)C(=O)NCCCCNC(=O)c1ccc(-c2c3nc(c(-c4c(F)cccc4F)c4ccc([nH]4)c(-c4c(F)cccc4F)c4nc(c(-c5c(F)cccc5F)c5ccc2[nH]5)C=C4)C=C3)cc1
REMARK SMILES IDX 26 1 25 2 24 3 22 4 23 5 5 7 3 8 4 9 2 10 1 11 6 12 7 14
REMARK SMILES IDX 8 15 21 16 9 17 11 18 14 19 10 20 12 21 13 22 15 23 16 24
REMARK SMILES IDX 20 25 17 26 19 27 18 28 27 29 28 30 29 31 30 32 31 34 32 35
REMARK SMILES IDX 33 36 85 37 34 38 84 39 35 40 36 41 37 42 78 43 38 44 83 45
REMARK SMILES IDX 77 46 79 47 39 48 82 49 76 50 75 51 40 53 66 54 49 55 65 56
REMARK SMILES IDX 50 57 53 58 64 59 80 60 51 61 52 62 63 64 81 65 54 66 41 67
REMARK SMILES IDX 42 68 47 69 43 70 44 71 46 72 48 73 45 74 67 75 68 76 73 77
REMARK SMILES IDX 69 78 70 79 72 80 74 81 71 82 55 83 56 84 61 85 57 86 58 87
REMARK SMILES IDX 60 88 62 89 59 90
REMARK H PARENT 24 6 6 13 29 33 79 52 53 63
REMARK Flexibility Score: inf
ROOT
ATOM      1  C   UNL     1       4.157   2.906   3.662  1.00  0.00     0.023 C 
ENDROOT
BRANCH   1   2
ATOM      2  C   UNL     1       3.399   1.872   4.485  1.00  0.00     0.116 C 
BRANCH   2   3
ATOM      3  N   UNL     1       2.047   2.304   4.719  1.00  0.00    -0.354 N 
ATOM      4  C   UNL     1       0.893   1.852   4.168  1.00  0.00     0.242 C 
ATOM      5  O   UNL     1      -0.098   2.579   4.335  1.00  0.00    -0.273 OA
ATOM      6  H   UNL     1       1.944   3.032   5.374  1.00  0.00     0.163 HD
BRANCH   4   7
ATOM      7  C   UNL     1       0.747   0.512   3.397  1.00  0.00     0.173 C 
BRANCH   7   8
ATOM      8  C   UNL     1       1.028  -0.854   4.079  1.00  0.00     0.018 C 
ATOM      9  C   UNL     1       2.435  -1.437   3.983  1.00  0.00     0.010 C 
BRANCH   8  10
ATOM     10  C   UNL     1       0.432  -0.935   5.512  1.00  0.00     0.002 C 
ATOM     11  C   UNL     1       1.407  -0.779   6.671  1.00  0.00     0.004 C 
ENDBRANCH   8  10
ENDBRANCH   7   8
BRANCH   7  12
ATOM     12  N   UNL     1       1.004   0.554   1.939  1.00  0.00    -0.358 N 
ATOM     13  H   UNL     1       0.365   0.089   1.351  1.00  0.00     0.162 HD
BRANCH  12  14
ATOM     14  C   UNL     1       2.071   1.195   1.342  1.00  0.00     0.139 A 
ATOM     15  N   UNL     1       3.307   0.668   1.473  1.00  0.00    -0.219 NA
ATOM     16  C   UNL     1       1.917   2.323   0.496  1.00  0.00     0.062 A 
ATOM     17  C   UNL     1       4.336   1.236   0.820  1.00  0.00     0.225 A 
ATOM     18  C   UNL     1       3.088   2.872  -0.009  1.00  0.00     0.129 A 
ATOM     19  C   UNL     1       0.776   3.037  -0.032  1.00  0.00     0.006 A 
ATOM     20  N   UNL     1       4.325   2.370   0.120  1.00  0.00    -0.225 NA
ATOM     21  S   UNL     1       2.832   4.317  -0.875  1.00  0.00    -0.123 S 
ATOM     22  C   UNL     1       1.137   4.155  -0.757  1.00  0.00     0.076 A 
BRANCH  19  23
ATOM     23  C   UNL     1      -0.605   2.588  -0.018  1.00  0.00    -0.017 A 
ATOM     24  C   UNL     1      -1.072   1.850  -1.114  1.00  0.00     0.009 A 
ATOM     25  C   UNL     1      -1.422   2.775   1.098  1.00  0.00     0.009 A 
ATOM     26  C   UNL     1      -2.345   1.286  -1.089  1.00  0.00     0.001 A 
ATOM     27  C   UNL     1      -2.695   2.199   1.123  1.00  0.00     0.001 A 
ATOM     28  C   UNL     1      -3.153   1.454   0.034  1.00  0.00     0.000 A 
ENDBRANCH  19  23
ENDBRANCH  12  14
ENDBRANCH   7  12
ENDBRANCH   4   7
ENDBRANCH   2   3
ENDBRANCH   1   2
BRANCH   1  29
ATOM     29  C   UNL     1       5.029   3.859   4.456  1.00  0.00     0.023 C 
BRANCH  29  30
ATOM     30  C   UNL     1       6.101   3.176   5.292  1.00  0.00     0.116 C 
BRANCH  30  31
ATOM     31  N   UNL     1       6.882   2.161   4.587  1.00  0.00    -0.352 N 
ATOM     32  C   UNL     1       8.229   1.895   4.683  1.00  0.00     0.251 C 
ATOM     33  H   UNL     1       6.378   1.592   3.961  1.00  0.00     0.163 HD
ATOM     34  O   UNL     1       8.758   1.043   3.978  1.00  0.00    -0.269 OA
BRANCH  32  35
ATOM     35  C   UNL     1       9.033   2.692   5.628  1.00  0.00     0.039 A 
ATOM     36  C   UNL     1      10.205   3.307   5.185  1.00  0.00     0.014 A 
ATOM     37  C   UNL     1       8.553   2.917   6.918  1.00  0.00     0.014 A 
ATOM     38  C   UNL     1      10.850   4.222   6.018  1.00  0.00     0.010 A 
ATOM     39  C   UNL     1       9.116   3.922   7.686  1.00  0.00     0.010 A 
ATOM     40  C   UNL     1      10.284   4.570   7.256  1.00  0.00    -0.014 A 
BRANCH  40  41
ATOM     41  C   UNL     1      10.914   5.568   8.154  1.00  0.00     0.031 A 
ATOM     42  C   UNL     1      11.318   5.153   9.544  1.00  0.00     0.074 A 
ATOM     43  C   UNL     1      11.039   6.850   7.763  1.00  0.00     0.049 A 
ATOM     44  N   UNL     1      11.777   5.883  10.527  1.00  0.00    -0.248 NA
ATOM     45  C   UNL     1      11.122   3.736   9.896  1.00  0.00     0.031 C 
ATOM     46  C   UNL     1      10.607   7.397   6.473  1.00  0.00     0.029 A 
ATOM     47  N   UNL     1      11.566   7.932   8.419  1.00  0.00    -0.354 N 
ATOM     48  C   UNL     1      11.871   5.027  11.617  1.00  0.00     0.074 A 
ATOM     49  C   UNL     1      11.356   3.744  11.197  1.00  0.00     0.031 C 
ATOM     50  C   UNL     1      10.932   8.699   6.417  1.00  0.00     0.029 A 
ATOM     51  C   UNL     1      11.566   9.085   7.673  1.00  0.00     0.049 A 
ATOM     52  H   UNL     1      11.912   7.887   9.340  1.00  0.00     0.167 HD
ATOM     53  C   UNL     1      12.380   5.272  12.846  1.00  0.00     0.037 A 
ATOM     54  C   UNL     1      12.044  10.308   7.968  1.00  0.00     0.037 A 
ATOM     55  C   UNL     1      12.975   6.522  13.227  1.00  0.00     0.049 A 
ATOM     56  C   UNL     1      12.700  10.531   9.303  1.00  0.00     0.074 A 
ATOM     57  C   UNL     1      13.604   6.856  14.412  1.00  0.00     0.029 A 
ATOM     58  N   UNL     1      13.035   7.641  12.409  1.00  0.00    -0.354 N 
ATOM     59  N   UNL     1      12.848   9.693  10.301  1.00  0.00    -0.248 NA
ATOM     60  C   UNL     1      13.271  11.863   9.545  1.00  0.00     0.031 C 
ATOM     61  C   UNL     1      14.033   8.184  14.317  1.00  0.00     0.029 A 
ATOM     62  C   UNL     1      13.697   8.665  13.061  1.00  0.00     0.049 A 
ATOM     63  H   UNL     1      12.661   7.697  11.500  1.00  0.00     0.167 HD
ATOM     64  C   UNL     1      13.562  10.382  11.273  1.00  0.00     0.074 A 
ATOM     65  C   UNL     1      13.822  11.704  10.740  1.00  0.00     0.031 C 
ATOM     66  C   UNL     1      13.968   9.961  12.495  1.00  0.00     0.037 A 
BRANCH  53  67
ATOM     67  C   UNL     1      12.335   4.152  13.844  1.00  0.00     0.057 A 
ATOM     68  C   UNL     1      13.123   3.001  13.700  1.00  0.00     0.134 A 
ATOM     69  C   UNL     1      11.488   4.219  14.956  1.00  0.00     0.134 A 
ATOM     70  F   UNL     1      13.942   2.865  12.646  1.00  0.00    -0.206 F 
ATOM     71  C   UNL     1      13.039   1.941  14.604  1.00  0.00     0.040 A 
ATOM     72  C   UNL     1      11.418   3.178  15.884  1.00  0.00     0.040 A 
ATOM     73  F   UNL     1      10.709   5.293  15.156  1.00  0.00    -0.206 F 
ATOM     74  C   UNL     1      12.188   2.030  15.703  1.00  0.00     0.006 A 
ENDBRANCH  53  67
BRANCH  54  75
ATOM     75  C   UNL     1      11.997  11.393   6.957  1.00  0.00     0.057 A 
ATOM     76  C   UNL     1      13.164  11.815   6.307  1.00  0.00     0.134 A 
ATOM     77  C   UNL     1      10.802  12.038   6.620  1.00  0.00     0.134 A 
ATOM     78  F   UNL     1      14.342  11.243   6.599  1.00  0.00    -0.206 F 
ATOM     79  C   UNL     1      13.150  12.855   5.377  1.00  0.00     0.040 A 
ATOM     80  C   UNL     1      10.770  13.067   5.676  1.00  0.00     0.040 A 
ATOM     81  F   UNL     1       9.649  11.673   7.199  1.00  0.00    -0.206 F 
ATOM     82  C   UNL     1      11.948  13.483   5.057  1.00  0.00     0.006 A 
ENDBRANCH  54  75
BRANCH  66  83
ATOM     83  C   UNL     1      14.784  10.916  13.310  1.00  0.00     0.057 A 
ATOM     84  C   UNL     1      14.211  12.026  13.942  1.00  0.00     0.134 A 
ATOM     85  C   UNL     1      16.155  10.697  13.494  1.00  0.00     0.134 A 
ATOM     86  F   UNL     1      12.905  12.295  13.794  1.00  0.00    -0.206 F 
ATOM     87  C   UNL     1      14.980  12.900  14.712  1.00  0.00     0.040 A 
ATOM     88  C   UNL     1      16.929  11.550  14.280  1.00  0.00     0.040 A 
ATOM     89  F   UNL     1      16.760   9.645  12.922  1.00  0.00    -0.206 F 
ATOM     90  C   UNL     1      16.342  12.659  14.887  1.00  0.00     0.006 A 
ENDBRANCH  66  83
ENDBRANCH  40  41
ENDBRANCH  32  35
ENDBRANCH  30  31
ENDBRANCH  29  30
ENDBRANCH   1  29
TORSDOF 16
