REMARK SMILES O=C(NC[C@@H]1CCOC1)NC[C@@H]1CC[C@H](C(=O)NCCCCNC(=O)c2ccc(-c3c4nc(c(-c5c(F)cccc5F)c5ccc([nH]5)c(-c5c(F)cccc5F)c5nc(c(-c6c(F)cccc6F)c6ccc3[nH]6)C=C5)C=C4)cc2)O1
REMARK SMILES IDX 19 1 18 2 16 3 17 4 15 6 12 7 13 8 80 9 14 10 11 11 10 12
REMARK SMILES IDX 1 13 2 14 3 15 4 18 5 19 6 20 9 21 7 22 8 23 20 24 21 25
REMARK SMILES IDX 22 26 23 27 24 28 25 30 26 31 27 32 79 33 28 34 78 35 29 36
REMARK SMILES IDX 30 37 31 38 72 39 32 40 77 41 71 42 73 43 33 44 76 45 70 46
REMARK SMILES IDX 69 47 34 49 60 50 43 51 59 52 44 53 47 54 58 55 74 56 45 57
REMARK SMILES IDX 46 58 57 60 75 61 48 62 35 63 36 64 41 65 37 66 38 67 40 68
REMARK SMILES IDX 42 69 39 70 61 71 62 72 67 73 63 74 64 75 66 76 68 77 65 78
REMARK SMILES IDX 49 79 50 80 55 81 51 82 52 83 54 84 56 85 53 86
REMARK H PARENT 18 5 3 16 10 17 23 29 73 48 47 59
REMARK Flexibility Score: inf
ROOT
ATOM      1  C   UNL     1       0.513  -3.281   0.218  1.00  0.00     0.116 C 
ENDROOT
BRANCH   1   2
ATOM      2  N   UNL     1       0.417  -4.673   0.598  1.00  0.00    -0.354 N 
ATOM      3  C   UNL     1       1.112  -5.363   1.547  1.00  0.00     0.249 C 
ATOM      4  O   UNL     1       0.855  -6.565   1.674  1.00  0.00    -0.272 OA
ATOM      5  H   UNL     1      -0.248  -5.199   0.099  1.00  0.00     0.163 HD
BRANCH   3   6
ATOM      6  C   UNL     1       2.239  -4.710   2.382  1.00  0.00     0.207 C 
ATOM      7  C   UNL     1       3.120  -2.562   2.683  1.00  0.00     0.138 C 
ATOM      8  C   UNL     1       3.831  -3.166   1.485  1.00  0.00     0.037 C 
ATOM      9  O   UNL     1       1.980  -3.413   2.924  1.00  0.00    -0.363 OA
ATOM     10  C   UNL     1       3.554  -4.642   1.617  1.00  0.00     0.045 C 
BRANCH   7  11
ATOM     11  C   UNL     1       2.663  -1.092   2.544  1.00  0.00     0.149 C 
BRANCH  11  12
ATOM     12  N   UNL     1       3.260  -0.375   1.427  1.00  0.00    -0.336 N 
ATOM     13  O   UNL     1       1.337  -0.097   0.221  1.00  0.00    -0.249 OA
ATOM     14  C   UNL     1       2.552   0.029   0.338  1.00  0.00     0.314 C 
ATOM     15  N   UNL     1       3.265   0.547  -0.694  1.00  0.00    -0.338 N 
ATOM     16  H   UNL     1       2.726   0.965  -1.404  1.00  0.00     0.165 HD
ATOM     17  H   UNL     1       4.223  -0.173   1.461  1.00  0.00     0.165 HD
BRANCH  15  18
ATOM     18  C   UNL     1       4.702   0.578  -0.912  1.00  0.00     0.123 C 
BRANCH  18  19
ATOM     19  C   UNL     1       5.090   0.011  -2.288  1.00  0.00     0.036 C 
ATOM     20  C   UNL     1       4.672  -1.433  -2.493  1.00  0.00     0.036 C 
ATOM     21  C   UNL     1       6.601  -0.125  -2.395  1.00  0.00     0.165 C 
ATOM     22  C   UNL     1       5.755  -2.205  -1.773  1.00  0.00     0.160 C 
ATOM     23  O   UNL     1       6.940  -1.397  -1.818  1.00  0.00    -0.381 OA
ENDBRANCH  18  19
ENDBRANCH  15  18
ENDBRANCH  11  12
ENDBRANCH   7  11
ENDBRANCH   3   6
ENDBRANCH   1   2
BRANCH   1  24
ATOM     24  C   UNL     1       1.185  -3.118  -1.142  1.00  0.00     0.023 C 
BRANCH  24  25
ATOM     25  C   UNL     1       0.233  -3.162  -2.330  1.00  0.00     0.023 C 
BRANCH  25  26
ATOM     26  C   UNL     1      -0.891  -2.131  -2.295  1.00  0.00     0.116 C 
BRANCH  26  27
ATOM     27  N   UNL     1      -0.441  -0.750  -2.177  1.00  0.00    -0.352 N 
ATOM     28  C   UNL     1      -0.984   0.360  -2.788  1.00  0.00     0.251 C 
ATOM     29  H   UNL     1       0.338  -0.592  -1.596  1.00  0.00     0.163 HD
ATOM     30  O   UNL     1      -0.423   1.450  -2.755  1.00  0.00    -0.269 OA
BRANCH  28  31
ATOM     31  C   UNL     1      -2.261   0.201  -3.523  1.00  0.00     0.039 A 
ATOM     32  C   UNL     1      -2.365   0.662  -4.836  1.00  0.00     0.014 A 
ATOM     33  C   UNL     1      -3.328  -0.476  -2.925  1.00  0.00     0.014 A 
ATOM     34  C   UNL     1      -3.508   0.358  -5.582  1.00  0.00     0.010 A 
ATOM     35  C   UNL     1      -4.426  -0.846  -3.692  1.00  0.00     0.010 A 
ATOM     36  C   UNL     1      -4.524  -0.441  -5.031  1.00  0.00    -0.014 A 
BRANCH  36  37
ATOM     37  C   UNL     1      -5.693  -0.883  -5.833  1.00  0.00     0.031 A 
ATOM     38  C   UNL     1      -7.081  -0.458  -5.441  1.00  0.00     0.074 A 
ATOM     39  C   UNL     1      -5.517  -1.742  -6.856  1.00  0.00     0.049 A 
ATOM     40  N   UNL     1      -8.232  -0.819  -5.949  1.00  0.00    -0.248 NA
ATOM     41  C   UNL     1      -7.188   0.470  -4.305  1.00  0.00     0.031 C 
ATOM     42  C   UNL     1      -4.230  -2.275  -7.305  1.00  0.00     0.029 A 
ATOM     43  N   UNL     1      -6.430  -2.329  -7.697  1.00  0.00    -0.354 N 
ATOM     44  C   UNL     1      -9.198  -0.180  -5.182  1.00  0.00     0.074 A 
ATOM     45  C   UNL     1      -8.500   0.547  -4.144  1.00  0.00     0.031 C 
ATOM     46  C   UNL     1      -4.433  -3.085  -8.357  1.00  0.00     0.029 A 
ATOM     47  C   UNL     1      -5.864  -3.159  -8.633  1.00  0.00     0.049 A 
ATOM     48  H   UNL     1      -7.400  -2.169  -7.634  1.00  0.00     0.167 HD
ATOM     49  C   UNL     1     -10.543  -0.178  -5.342  1.00  0.00     0.037 A 
ATOM     50  C   UNL     1      -6.434  -3.897  -9.604  1.00  0.00     0.037 A 
ATOM     51  C   UNL     1     -11.235  -0.876  -6.392  1.00  0.00     0.049 A 
ATOM     52  C   UNL     1      -7.928  -3.877  -9.764  1.00  0.00     0.074 A 
ATOM     53  C   UNL     1     -12.589  -0.885  -6.676  1.00  0.00     0.029 A 
ATOM     54  N   UNL     1     -10.623  -1.690  -7.333  1.00  0.00    -0.354 N 
ATOM     55  N   UNL     1      -8.825  -3.221  -9.070  1.00  0.00    -0.248 NA
ATOM     56  C   UNL     1      -8.488  -4.702 -10.845  1.00  0.00     0.031 C 
ATOM     57  C   UNL     1     -12.800  -1.730  -7.772  1.00  0.00     0.029 A 
ATOM     58  C   UNL     1     -11.573  -2.217  -8.191  1.00  0.00     0.049 A 
ATOM     59  H   UNL     1      -9.655  -1.866  -7.384  1.00  0.00     0.167 HD
ATOM     60  C   UNL     1     -10.051  -3.528  -9.645  1.00  0.00     0.074 A 
ATOM     61  C   UNL     1      -9.782  -4.427 -10.750  1.00  0.00     0.031 C 
ATOM     62  C   UNL     1     -11.288  -3.102  -9.291  1.00  0.00     0.037 A 
BRANCH  49  63
ATOM     63  C   UNL     1     -11.345   0.617  -4.355  1.00  0.00     0.057 A 
ATOM     64  C   UNL     1     -11.324   2.018  -4.347  1.00  0.00     0.134 A 
ATOM     65  C   UNL     1     -12.149  -0.022  -3.403  1.00  0.00     0.134 A 
ATOM     66  F   UNL     1     -10.563   2.691  -5.224  1.00  0.00    -0.206 F 
ATOM     67  C   UNL     1     -12.044   2.755  -3.406  1.00  0.00     0.040 A 
ATOM     68  C   UNL     1     -12.895   0.704  -2.473  1.00  0.00     0.040 A 
ATOM     69  F   UNL     1     -12.220  -1.361  -3.359  1.00  0.00    -0.206 F 
ATOM     70  C   UNL     1     -12.836   2.097  -2.467  1.00  0.00     0.006 A 
ENDBRANCH  49  63
BRANCH  50  71
ATOM     71  C   UNL     1      -5.585  -4.684 -10.530  1.00  0.00     0.057 A 
ATOM     72  C   UNL     1      -5.402  -4.271 -11.855  1.00  0.00     0.134 A 
ATOM     73  C   UNL     1      -4.934  -5.853 -10.121  1.00  0.00     0.134 A 
ATOM     74  F   UNL     1      -6.015  -3.168 -12.308  1.00  0.00    -0.206 F 
ATOM     75  C   UNL     1      -4.612  -4.999 -12.745  1.00  0.00     0.040 A 
ATOM     76  C   UNL     1      -4.125  -6.581 -10.996  1.00  0.00     0.040 A 
ATOM     77  F   UNL     1      -5.066  -6.297  -8.863  1.00  0.00    -0.206 F 
ATOM     78  C   UNL     1      -3.966  -6.156 -12.314  1.00  0.00     0.006 A 
ENDBRANCH  50  71
BRANCH  62  79
ATOM     79  C   UNL     1     -12.439  -3.572 -10.128  1.00  0.00     0.057 A 
ATOM     80  C   UNL     1     -12.935  -4.878 -10.033  1.00  0.00     0.134 A 
ATOM     81  C   UNL     1     -13.085  -2.694 -11.007  1.00  0.00     0.134 A 
ATOM     82  F   UNL     1     -12.351  -5.770  -9.220  1.00  0.00    -0.206 F 
ATOM     83  C   UNL     1     -14.026  -5.299 -10.796  1.00  0.00     0.040 A 
ATOM     84  C   UNL     1     -14.190  -3.097 -11.758  1.00  0.00     0.040 A 
ATOM     85  F   UNL     1     -12.661  -1.428 -11.139  1.00  0.00    -0.206 F 
ATOM     86  C   UNL     1     -14.660  -4.404 -11.656  1.00  0.00     0.006 A 
ENDBRANCH  62  79
ENDBRANCH  36  37
ENDBRANCH  28  31
ENDBRANCH  26  27
ENDBRANCH  25  26
ENDBRANCH  24  25
ENDBRANCH   1  24
TORSDOF 15
