REMARK SMILES O=C(NCCCCNC(=O)c1ccc2c(=O)n(CCC[NH+]3CCOCC3)c(=O)[nH]c2c1)c1ccc(-c2c3nc(c(-c4c(F)cccc4F)c4ccc([nH]4)c(-c4c(F)cccc4F)c4nc(c(-c5c(F)cccc5F)c5ccc2[nH]5)C=C4)C=C3)cc1
REMARK SMILES IDX 6 1 5 2 4 3 3 4 1 5 2 6 32 8 33 9 85 10 34 11 84 12 35 13
REMARK SMILES IDX 36 14 37 15 78 16 38 17 83 18 77 19 79 20 39 21 82 22 76 23
REMARK SMILES IDX 75 24 40 26 66 27 49 28 65 29 50 30 53 31 64 32 80 33 51 34
REMARK SMILES IDX 52 35 63 37 81 38 54 39 41 40 42 41 47 42 43 43 44 44 46 45
REMARK SMILES IDX 48 46 45 47 67 48 68 49 73 50 69 51 70 52 72 53 74 54 71 55
REMARK SMILES IDX 55 56 56 57 61 58 57 59 58 60 60 61 62 62 59 63 7 64 8 65
REMARK SMILES IDX 9 66 10 68 11 69 12 70 31 71 13 72 30 73 14 74 29 75 15 76
REMARK SMILES IDX 27 77 16 79 17 80 28 81 18 82 19 83 20 84 21 85 22 86 26 87
REMARK SMILES IDX 23 89 25 90 24 91
REMARK H PARENT 3 7 79 25 53 36 8 67 29 78 21 88
REMARK Flexibility Score: inf
ROOT
ATOM      1  C   UNL     1       4.521  -3.725  -0.456  1.00  0.00     0.023 C 
ENDROOT
BRANCH   1   2
ATOM      2  C   UNL     1       4.970  -2.483   0.312  1.00  0.00     0.023 C 
BRANCH   2   3
ATOM      3  C   UNL     1       4.664  -1.161  -0.379  1.00  0.00     0.116 C 
BRANCH   3   4
ATOM      4  N   UNL     1       3.239  -0.947  -0.559  1.00  0.00    -0.352 N 
ATOM      5  O   UNL     1       1.218  -0.035  -0.187  1.00  0.00    -0.269 OA
ATOM      6  C   UNL     1       2.438   0.057  -0.078  1.00  0.00     0.251 C 
ATOM      7  H   UNL     1       2.780  -1.623  -1.108  1.00  0.00     0.163 HD
BRANCH   6   8
ATOM      8  C   UNL     1       3.031   1.243   0.577  1.00  0.00     0.039 A 
ATOM      9  C   UNL     1       2.383   1.795   1.685  1.00  0.00     0.014 A 
ATOM     10  C   UNL     1       4.189   1.847   0.077  1.00  0.00     0.014 A 
ATOM     11  C   UNL     1       2.899   2.942   2.291  1.00  0.00     0.010 A 
ATOM     12  C   UNL     1       4.761   2.924   0.746  1.00  0.00     0.010 A 
ATOM     13  C   UNL     1       4.093   3.515   1.828  1.00  0.00    -0.014 A 
BRANCH  13  14
ATOM     14  C   UNL     1       4.583   4.807   2.375  1.00  0.00     0.031 A 
ATOM     15  C   UNL     1       4.643   6.014   1.471  1.00  0.00     0.074 A 
ATOM     16  C   UNL     1       4.963   4.908   3.662  1.00  0.00     0.049 A 
ATOM     17  N   UNL     1       5.067   7.226   1.730  1.00  0.00    -0.248 NA
ATOM     18  C   UNL     1       4.190   5.827   0.082  1.00  0.00     0.031 C 
ATOM     19  C   UNL     1       4.975   3.814   4.635  1.00  0.00     0.029 A 
ATOM     20  N   UNL     1       5.410   5.992   4.376  1.00  0.00    -0.354 N 
ATOM     21  C   UNL     1       4.932   7.934   0.541  1.00  0.00     0.074 A 
ATOM     22  C   UNL     1       4.472   6.999  -0.460  1.00  0.00     0.031 C 
ATOM     23  C   UNL     1       5.378   4.290   5.825  1.00  0.00     0.029 A 
ATOM     24  C   UNL     1       5.687   5.710   5.691  1.00  0.00     0.049 A 
ATOM     25  H   UNL     1       5.521   6.887   3.981  1.00  0.00     0.167 HD
ATOM     26  C   UNL     1       5.127   9.253   0.307  1.00  0.00     0.037 A 
ATOM     27  C   UNL     1       6.142   6.511   6.673  1.00  0.00     0.037 A 
ATOM     28  C   UNL     1       5.565  10.192   1.304  1.00  0.00     0.049 A 
ATOM     29  C   UNL     1       6.396   7.966   6.374  1.00  0.00     0.074 A 
ATOM     30  C   UNL     1       5.787  11.551   1.173  1.00  0.00     0.029 A 
ATOM     31  N   UNL     1       5.843   9.864   2.622  1.00  0.00    -0.354 N 
ATOM     32  N   UNL     1       6.227   8.628   5.255  1.00  0.00    -0.248 NA
ATOM     33  C   UNL     1       6.897   8.788   7.485  1.00  0.00     0.031 C 
ATOM     34  C   UNL     1       6.236  12.040   2.405  1.00  0.00     0.029 A 
ATOM     35  C   UNL     1       6.242  10.995   3.314  1.00  0.00     0.049 A 
ATOM     36  H   UNL     1       5.766   8.962   3.009  1.00  0.00     0.167 HD
ATOM     37  C   UNL     1       6.566   9.946   5.537  1.00  0.00     0.074 A 
ATOM     38  C   UNL     1       6.926   9.993   6.938  1.00  0.00     0.031 C 
ATOM     39  C   UNL     1       6.584  11.023   4.713  1.00  0.00     0.037 A 
BRANCH  26  40
ATOM     40  C   UNL     1       4.846   9.752  -1.082  1.00  0.00     0.057 A 
ATOM     41  C   UNL     1       5.883  10.193  -1.913  1.00  0.00     0.134 A 
ATOM     42  C   UNL     1       3.542   9.803  -1.595  1.00  0.00     0.134 A 
ATOM     43  F   UNL     1       7.154  10.175  -1.485  1.00  0.00    -0.206 F 
ATOM     44  C   UNL     1       5.633  10.665  -3.203  1.00  0.00     0.040 A 
ATOM     45  C   UNL     1       3.283  10.243  -2.893  1.00  0.00     0.040 A 
ATOM     46  F   UNL     1       2.504   9.378  -0.857  1.00  0.00    -0.206 F 
ATOM     47  C   UNL     1       4.331  10.683  -3.699  1.00  0.00     0.006 A 
ENDBRANCH  26  40
BRANCH  27  48
ATOM     48  C   UNL     1       6.390   5.976   8.038  1.00  0.00     0.057 A 
ATOM     49  C   UNL     1       7.435   5.080   8.290  1.00  0.00     0.134 A 
ATOM     50  C   UNL     1       5.633   6.407   9.136  1.00  0.00     0.134 A 
ATOM     51  F   UNL     1       8.193   4.621   7.284  1.00  0.00    -0.206 F 
ATOM     52  C   UNL     1       7.728   4.643   9.583  1.00  0.00     0.040 A 
ATOM     53  C   UNL     1       5.935   6.003  10.438  1.00  0.00     0.040 A 
ATOM     54  F   UNL     1       4.630   7.280   8.963  1.00  0.00    -0.206 F 
ATOM     55  C   UNL     1       6.987   5.119  10.664  1.00  0.00     0.006 A 
ENDBRANCH  27  48
BRANCH  39  56
ATOM     56  C   UNL     1       6.954  12.344   5.324  1.00  0.00     0.057 A 
ATOM     57  C   UNL     1       5.993  13.352   5.475  1.00  0.00     0.134 A 
ATOM     58  C   UNL     1       8.256  12.623   5.763  1.00  0.00     0.134 A 
ATOM     59  F   UNL     1       4.730  13.157   5.064  1.00  0.00    -0.206 F 
ATOM     60  C   UNL     1       6.310  14.584   6.047  1.00  0.00     0.040 A 
ATOM     61  C   UNL     1       8.577  13.839   6.367  1.00  0.00     0.040 A 
ATOM     62  F   UNL     1       9.221  11.697   5.658  1.00  0.00    -0.206 F 
ATOM     63  C   UNL     1       7.602  14.825   6.507  1.00  0.00     0.006 A 
ENDBRANCH  39  56
ENDBRANCH  13  14
ENDBRANCH   6   8
ENDBRANCH   3   4
ENDBRANCH   2   3
ENDBRANCH   1   2
BRANCH   1  64
ATOM     64  C   UNL     1       5.000  -3.785  -1.904  1.00  0.00     0.116 C 
BRANCH  64  65
ATOM     65  N   UNL     1       6.451  -3.732  -1.996  1.00  0.00    -0.352 N 
ATOM     66  C   UNL     1       7.301  -4.653  -2.546  1.00  0.00     0.251 C 
ATOM     67  H   UNL     1       6.877  -2.932  -1.612  1.00  0.00     0.163 HD
ATOM     68  O   UNL     1       8.515  -4.578  -2.397  1.00  0.00    -0.269 OA
BRANCH  66  69
ATOM     69  C   UNL     1       6.725  -5.755  -3.327  1.00  0.00     0.041 A 
ATOM     70  C   UNL     1       6.010  -5.465  -4.497  1.00  0.00     0.015 A 
ATOM     71  C   UNL     1       6.862  -7.063  -2.853  1.00  0.00     0.040 A 
ATOM     72  C   UNL     1       5.413  -6.503  -5.201  1.00  0.00     0.017 A 
ATOM     73  C   UNL     1       6.221  -8.086  -3.541  1.00  0.00     0.056 A 
ATOM     74  C   UNL     1       5.529  -7.808  -4.715  1.00  0.00     0.064 A 
ATOM     75  N   UNL     1       6.218  -9.385  -3.040  1.00  0.00    -0.307 N 
ATOM     76  C   UNL     1       4.908  -8.923  -5.434  1.00  0.00     0.264 A 
ATOM     77  C   UNL     1       5.455 -10.395  -3.564  1.00  0.00     0.328 A 
ATOM     78  H   UNL     1       6.794  -9.588  -2.269  1.00  0.00     0.171 HD
ATOM     79  O   UNL     1       4.589  -8.747  -6.604  1.00  0.00    -0.268 OA
ATOM     80  N   UNL     1       4.743 -10.102  -4.718  1.00  0.00    -0.260 N 
ATOM     81  O   UNL     1       5.442 -11.485  -2.995  1.00  0.00    -0.248 OA
BRANCH  80  82
ATOM     82  C   UNL     1       3.879 -11.126  -5.293  1.00  0.00     0.137 C 
BRANCH  82  83
ATOM     83  C   UNL     1       2.393 -10.906  -4.963  1.00  0.00     0.083 C 
BRANCH  83  84
ATOM     84  C   UNL     1       1.681  -9.783  -5.739  1.00  0.00     0.264 C 
BRANCH  84  85
ATOM     85  N   UNL     1       1.827  -9.810  -7.198  1.00  0.00    -0.331 N 
ATOM     86  C   UNL     1       1.048  -8.735  -7.851  1.00  0.00     0.291 C 
ATOM     87  C   UNL     1       1.492 -11.085  -7.853  1.00  0.00     0.291 C 
ATOM     88  H   UNL     1       2.829  -9.669  -7.326  1.00  0.00     0.348 HD
ATOM     89  C   UNL     1      -0.459  -9.042  -7.953  1.00  0.00     0.221 C 
ATOM     90  C   UNL     1      -0.014 -11.361  -7.890  1.00  0.00     0.221 C 
ATOM     91  O   UNL     1      -0.711 -10.311  -8.572  1.00  0.00    -0.370 OA
ENDBRANCH  84  85
ENDBRANCH  83  84
ENDBRANCH  82  83
ENDBRANCH  80  82
ENDBRANCH  66  69
ENDBRANCH  64  65
ENDBRANCH   1  64
TORSDOF 15
