REMARK SMILES C[C@@H]1[C@H](C)CC[C@@H]1NC(=O)N1CCO[C@H](CC(=O)NCCCCNC(=O)c2ccc(-c3c4nc(c(-c5c(F)cccc5F)c5ccc([nH]5)c(-c5c(F)cccc5F)c5nc(c(-c6c(F)cccc6F)c6ccc3[nH]6)C=C5)C=C4)cc2)C1
REMARK SMILES IDX 21 1 20 2 19 3 17 4 18 5 16 7 15 8 11 9 12 10 81 11 13 12
REMARK SMILES IDX 14 13 9 14 8 15 10 17 7 18 1 19 2 20 3 21 4 22 5 23 6 24
REMARK SMILES IDX 22 25 23 26 24 27 25 28 26 30 27 31 28 32 80 33 29 34 79 35
REMARK SMILES IDX 30 36 31 37 32 38 73 39 33 40 78 41 72 42 74 43 34 44 77 45
REMARK SMILES IDX 71 46 70 47 35 49 61 50 44 51 60 52 45 53 48 54 59 55 75 56
REMARK SMILES IDX 46 57 47 58 58 60 76 61 49 62 36 63 37 64 42 65 38 66 39 67
REMARK SMILES IDX 41 68 43 69 40 70 62 71 63 72 68 73 64 74 65 75 67 76 69 77
REMARK SMILES IDX 66 78 50 79 51 80 56 81 52 82 53 83 55 84 57 85 54 86
REMARK H PARENT 19 6 8 16 24 29 74 48 48 59
REMARK Flexibility Score: inf
ROOT
ATOM      1  C   UNL     1      -0.352   7.812  -0.613  1.00  0.00     0.023 C 
ENDROOT
BRANCH   1   2
ATOM      2  C   UNL     1      -0.927   6.464  -1.044  1.00  0.00     0.116 C 
BRANCH   2   3
ATOM      3  N   UNL     1      -0.618   6.239  -2.436  1.00  0.00    -0.356 N 
ATOM      4  C   UNL     1       0.573   5.793  -2.939  1.00  0.00     0.222 C 
ATOM      5  O   UNL     1       0.820   5.982  -4.129  1.00  0.00    -0.275 OA
ATOM      6  H   UNL     1      -1.334   6.424  -3.086  1.00  0.00     0.163 HD
BRANCH   4   7
ATOM      7  C   UNL     1       1.483   4.959  -2.061  1.00  0.00     0.133 C 
BRANCH   7   8
ATOM      8  C   UNL     1       2.600   5.633  -1.254  1.00  0.00     0.147 C 
ATOM      9  N   UNL     1       3.138   3.861   0.427  1.00  0.00    -0.320 N 
ATOM     10  C   UNL     1       2.895   4.783   1.522  1.00  0.00     0.150 C 
ATOM     11  C   UNL     1       3.612   4.563  -0.773  1.00  0.00     0.154 C 
ATOM     12  C   UNL     1       1.881   5.834   1.093  1.00  0.00     0.182 C 
ATOM     13  O   UNL     1       2.187   6.472  -0.157  1.00  0.00    -0.374 OA
BRANCH   9  14
ATOM     14  C   UNL     1       3.527   2.573   0.638  1.00  0.00     0.317 C 
ATOM     15  N   UNL     1       2.900   1.781   1.536  1.00  0.00    -0.335 N 
ATOM     16  H   UNL     1       3.542   1.322   2.125  1.00  0.00     0.165 HD
ATOM     17  O   UNL     1       4.503   2.094   0.058  1.00  0.00    -0.249 OA
BRANCH  15  18
ATOM     18  C   UNL     1       1.508   1.423   1.866  1.00  0.00     0.087 C 
ATOM     19  C   UNL     1       1.676  -0.699   0.348  1.00  0.00     0.010 C 
ATOM     20  C   UNL     1       0.830   0.445   0.875  1.00  0.00     0.011 C 
ATOM     21  C   UNL     1       0.140   1.334  -0.176  1.00  0.00    -0.009 C 
ATOM     22  C   UNL     1       0.891   1.502  -1.496  1.00  0.00     0.008 C 
ATOM     23  C   UNL     1      -0.092   2.663   0.557  1.00  0.00     0.006 C 
ATOM     24  C   UNL     1       0.437   2.498   1.973  1.00  0.00     0.025 C 
ENDBRANCH  15  18
ENDBRANCH   9  14
ENDBRANCH   7   8
ENDBRANCH   4   7
ENDBRANCH   2   3
ENDBRANCH   1   2
BRANCH   1  25
ATOM     25  C   UNL     1      -1.305   8.974  -0.839  1.00  0.00     0.023 C 
BRANCH  25  26
ATOM     26  C   UNL     1      -2.469   8.981   0.136  1.00  0.00     0.116 C 
BRANCH  26  27
ATOM     27  N   UNL     1      -2.060   9.098   1.530  1.00  0.00    -0.352 N 
ATOM     28  C   UNL     1      -2.731   9.731   2.553  1.00  0.00     0.251 C 
ATOM     29  H   UNL     1      -1.205   8.673   1.769  1.00  0.00     0.163 HD
ATOM     30  O   UNL     1      -2.256   9.823   3.668  1.00  0.00    -0.269 OA
BRANCH  28  31
ATOM     31  C   UNL     1      -4.033  10.341   2.227  1.00  0.00     0.039 A 
ATOM     32  C   UNL     1      -4.213  11.705   2.455  1.00  0.00     0.014 A 
ATOM     33  C   UNL     1      -5.005   9.583   1.571  1.00  0.00     0.014 A 
ATOM     34  C   UNL     1      -5.361  12.327   1.968  1.00  0.00     0.010 A 
ATOM     35  C   UNL     1      -6.091  10.224   0.997  1.00  0.00     0.010 A 
ATOM     36  C   UNL     1      -6.290  11.597   1.208  1.00  0.00    -0.014 A 
BRANCH  36  37
ATOM     37  C   UNL     1      -7.517  12.233   0.675  1.00  0.00     0.031 A 
ATOM     38  C   UNL     1      -8.858  11.747   1.150  1.00  0.00     0.074 A 
ATOM     39  C   UNL     1      -7.430  13.190  -0.268  1.00  0.00     0.049 A 
ATOM     40  N   UNL     1     -10.054  12.109   0.765  1.00  0.00    -0.248 NA
ATOM     41  C   UNL     1      -8.853  10.677   2.162  1.00  0.00     0.031 C 
ATOM     42  C   UNL     1      -6.188  13.696  -0.858  1.00  0.00     0.029 A 
ATOM     43  N   UNL     1      -8.413  13.907  -0.900  1.00  0.00    -0.354 N 
ATOM     44  C   UNL     1     -10.934  11.291   1.463  1.00  0.00     0.074 A 
ATOM     45  C   UNL     1     -10.137  10.369   2.238  1.00  0.00     0.031 C 
ATOM     46  C   UNL     1      -6.483  14.666  -1.739  1.00  0.00     0.029 A 
ATOM     47  C   UNL     1      -7.932  14.833  -1.794  1.00  0.00     0.049 A 
ATOM     48  H   UNL     1      -9.373  13.771  -0.729  1.00  0.00     0.167 HD
ATOM     49  C   UNL     1     -12.286  11.329   1.487  1.00  0.00     0.037 A 
ATOM     50  C   UNL     1      -8.593  15.722  -2.558  1.00  0.00     0.037 A 
ATOM     51  C   UNL     1     -13.072  12.287   0.759  1.00  0.00     0.049 A 
ATOM     52  C   UNL     1     -10.093  15.788  -2.467  1.00  0.00     0.074 A 
ATOM     53  C   UNL     1     -14.445  12.456   0.756  1.00  0.00     0.029 A 
ATOM     54  N   UNL     1     -12.545  13.251  -0.087  1.00  0.00    -0.354 N 
ATOM     55  N   UNL     1     -10.912  15.051  -1.756  1.00  0.00    -0.248 NA
ATOM     56  C   UNL     1     -10.758  16.821  -3.272  1.00  0.00     0.031 C 
ATOM     57  C   UNL     1     -14.750  13.512  -0.110  1.00  0.00     0.029 A 
ATOM     58  C   UNL     1     -13.565  14.022  -0.616  1.00  0.00     0.049 A 
ATOM     59  H   UNL     1     -11.587  13.370  -0.282  1.00  0.00     0.167 HD
ATOM     60  C   UNL     1     -12.184  15.553  -1.999  1.00  0.00     0.074 A 
ATOM     61  C   UNL     1     -12.025  16.664  -2.916  1.00  0.00     0.031 C 
ATOM     62  C   UNL     1     -13.377  15.135  -1.510  1.00  0.00     0.037 A 
BRANCH  49  63
ATOM     63  C   UNL     1     -12.983  10.317   2.346  1.00  0.00     0.057 A 
ATOM     64  C   UNL     1     -12.916  10.365   3.746  1.00  0.00     0.134 A 
ATOM     65  C   UNL     1     -13.722   9.276   1.772  1.00  0.00     0.134 A 
ATOM     66  F   UNL     1     -12.206  11.325   4.360  1.00  0.00    -0.206 F 
ATOM     67  C   UNL     1     -13.527   9.395   4.541  1.00  0.00     0.040 A 
ATOM     68  C   UNL     1     -14.363   8.316   2.558  1.00  0.00     0.040 A 
ATOM     69  F   UNL     1     -13.828   9.170   0.439  1.00  0.00    -0.206 F 
ATOM     70  C   UNL     1     -14.258   8.369   3.946  1.00  0.00     0.006 A 
ENDBRANCH  49  63
BRANCH  50  71
ATOM     71  C   UNL     1      -7.843  16.663  -3.427  1.00  0.00     0.057 A 
ATOM     72  C   UNL     1      -7.761  18.024  -3.110  1.00  0.00     0.134 A 
ATOM     73  C   UNL     1      -7.205  16.234  -4.596  1.00  0.00     0.134 A 
ATOM     74  F   UNL     1      -8.366  18.497  -2.010  1.00  0.00    -0.206 F 
ATOM     75  C   UNL     1      -7.094  18.930  -3.935  1.00  0.00     0.040 A 
ATOM     76  C   UNL     1      -6.515  17.125  -5.420  1.00  0.00     0.040 A 
ATOM     77  F   UNL     1      -7.239  14.941  -4.950  1.00  0.00    -0.206 F 
ATOM     78  C   UNL     1      -6.465  18.479  -5.094  1.00  0.00     0.006 A 
ENDBRANCH  50  71
BRANCH  62  79
ATOM     79  C   UNL     1     -14.591  15.916  -1.915  1.00  0.00     0.057 A 
ATOM     80  C   UNL     1     -15.128  15.833  -3.205  1.00  0.00     0.134 A 
ATOM     81  C   UNL     1     -15.246  16.738  -0.989  1.00  0.00     0.134 A 
ATOM     82  F   UNL     1     -14.539  15.072  -4.140  1.00  0.00    -0.206 F 
ATOM     83  C   UNL     1     -16.260  16.564  -3.569  1.00  0.00     0.040 A 
ATOM     84  C   UNL     1     -16.392  17.453  -1.334  1.00  0.00     0.040 A 
ATOM     85  F   UNL     1     -14.786  16.851   0.266  1.00  0.00    -0.206 F 
ATOM     86  C   UNL     1     -16.898  17.372  -2.630  1.00  0.00     0.006 A 
ENDBRANCH  62  79
ENDBRANCH  36  37
ENDBRANCH  28  31
ENDBRANCH  26  27
ENDBRANCH  25  26
ENDBRANCH   1  25
TORSDOF 14
