REMARK SMILES CCCc1noc(C2C[NH+](CC(=O)NCCCCNC(=O)c3ccc(-c4c5nc(c(-c6c(F)cccc6F)c6ccc([nH]6)c(-c6c(F)cccc6F)c6nc(c(-c7c(F)cccc7F)c7ccc4[nH]7)C=C6)C=C5)cc3)C2)n1
REMARK SMILES IDX 15 1 14 2 12 3 13 4 11 6 10 7 8 8 9 9 76 10 7 12 4 13 5 14
REMARK SMILES IDX 77 15 6 16 3 17 2 18 1 19 16 20 17 21 18 22 19 23 20 24
REMARK SMILES IDX 21 26 22 27 23 28 75 29 24 30 74 31 25 32 26 33 27 34 68 35
REMARK SMILES IDX 28 36 73 37 67 38 69 39 29 40 72 41 66 42 65 43 30 45 56 46
REMARK SMILES IDX 39 47 55 48 40 49 43 50 54 51 70 52 41 53 42 54 53 56 71 57
REMARK SMILES IDX 44 58 31 59 32 60 37 61 33 62 34 63 36 64 38 65 35 66 57 67
REMARK SMILES IDX 58 68 63 69 59 70 60 71 62 72 64 73 61 74 45 75 46 76 51 77
REMARK SMILES IDX 47 78 48 79 50 80 52 81 49 82
REMARK H PARENT 14 5 10 11 19 25 69 44 43 55
REMARK Flexibility Score: inf
ROOT
ATOM      1  C   UNL     1      -2.931  -1.976  -5.593  1.00  0.00     0.116 C 
ENDROOT
BRANCH   1   2
ATOM      2  N   UNL     1      -1.934  -1.681  -6.607  1.00  0.00    -0.351 N 
ATOM      3  C   UNL     1      -0.656  -2.139  -6.776  1.00  0.00     0.275 C 
ATOM      4  O   UNL     1      -0.022  -1.683  -7.732  1.00  0.00    -0.269 OA
ATOM      5  H   UNL     1      -2.229  -1.038  -7.292  1.00  0.00     0.163 HD
BRANCH   3   6
ATOM      6  C   UNL     1      -0.018  -3.144  -5.808  1.00  0.00     0.363 C 
BRANCH   6   7
ATOM      7  N   UNL     1       0.839  -2.624  -4.708  1.00  0.00    -0.325 N 
ATOM      8  C   UNL     1       0.422  -0.542  -4.520  1.00  0.00     0.188 C 
ATOM      9  C   UNL     1       1.618  -1.389  -5.007  1.00  0.00     0.282 C 
ATOM     10  C   UNL     1       0.084  -1.838  -3.716  1.00  0.00     0.282 C 
ATOM     11  H   UNL     1       1.325  -3.491  -4.479  1.00  0.00     0.348 HD
BRANCH   8  12
ATOM     12  C   UNL     1       0.647   0.668  -3.652  1.00  0.00     0.241 A 
ATOM     13  C   UNL     1       0.885   1.913  -1.988  1.00  0.00     0.171 A 
ATOM     14  N   UNL     1       0.227   2.694  -2.852  1.00  0.00    -0.062 NA
ATOM     15  N   UNL     1       1.212   0.669  -2.467  1.00  0.00    -0.196 NA
ATOM     16  O   UNL     1       0.071   1.872  -3.963  1.00  0.00    -0.339 OA
BRANCH  13  17
ATOM     17  C   UNL     1       1.185   2.342  -0.601  1.00  0.00     0.081 C 
BRANCH  17  18
ATOM     18  C   UNL     1       0.466   1.512   0.468  1.00  0.00     0.005 C 
ATOM     19  C   UNL     1       0.933   0.063   0.536  1.00  0.00     0.004 C 
ENDBRANCH  17  18
ENDBRANCH  13  17
ENDBRANCH   8  12
ENDBRANCH   6   7
ENDBRANCH   3   6
ENDBRANCH   1   2
BRANCH   1  20
ATOM     20  C   UNL     1      -3.123  -0.837  -4.584  1.00  0.00     0.023 C 
BRANCH  20  21
ATOM     21  C   UNL     1      -3.686   0.465  -5.144  1.00  0.00     0.023 C 
BRANCH  21  22
ATOM     22  C   UNL     1      -5.117   0.370  -5.648  1.00  0.00     0.116 C 
BRANCH  22  23
ATOM     23  N   UNL     1      -6.050  -0.074  -4.620  1.00  0.00    -0.352 N 
ATOM     24  C   UNL     1      -7.210   0.513  -4.173  1.00  0.00     0.251 C 
ATOM     25  H   UNL     1      -5.814  -0.922  -4.179  1.00  0.00     0.163 HD
ATOM     26  O   UNL     1      -7.793   0.069  -3.194  1.00  0.00    -0.269 OA
BRANCH  24  27
ATOM     27  C   UNL     1      -7.729   1.709  -4.868  1.00  0.00     0.039 A 
ATOM     28  C   UNL     1      -8.110   2.821  -4.113  1.00  0.00     0.014 A 
ATOM     29  C   UNL     1      -7.787   1.744  -6.263  1.00  0.00     0.014 A 
ATOM     30  C   UNL     1      -8.452   4.007  -4.764  1.00  0.00     0.010 A 
ATOM     31  C   UNL     1      -8.045   2.947  -6.906  1.00  0.00     0.010 A 
ATOM     32  C   UNL     1      -8.366   4.093  -6.162  1.00  0.00    -0.014 A 
BRANCH  32  33
ATOM     33  C   UNL     1      -8.568   5.376  -6.879  1.00  0.00     0.031 A 
ATOM     34  C   UNL     1      -9.684   5.511  -7.874  1.00  0.00     0.074 A 
ATOM     35  C   UNL     1      -7.678   6.374  -6.713  1.00  0.00     0.049 A 
ATOM     36  N   UNL     1      -9.938   6.491  -8.703  1.00  0.00    -0.248 NA
ATOM     37  C   UNL     1     -10.618   4.379  -7.977  1.00  0.00     0.031 C 
ATOM     38  C   UNL     1      -6.519   6.339  -5.818  1.00  0.00     0.029 A 
ATOM     39  N   UNL     1      -7.596   7.606  -7.313  1.00  0.00    -0.354 N 
ATOM     40  C   UNL     1     -11.043   6.085  -9.439  1.00  0.00     0.074 A 
ATOM     41  C   UNL     1     -11.384   4.752  -8.992  1.00  0.00     0.031 C 
ATOM     42  C   UNL     1      -5.850   7.498  -5.918  1.00  0.00     0.029 A 
ATOM     43  C   UNL     1      -6.505   8.340  -6.914  1.00  0.00     0.049 A 
ATOM     44  H   UNL     1      -8.255   7.932  -7.967  1.00  0.00     0.167 HD
ATOM     45  C   UNL     1     -11.722   6.771 -10.388  1.00  0.00     0.037 A 
ATOM     46  C   UNL     1      -6.071   9.548  -7.319  1.00  0.00     0.037 A 
ATOM     47  C   UNL     1     -11.399   8.110 -10.802  1.00  0.00     0.049 A 
ATOM     48  C   UNL     1      -6.844  10.288  -8.373  1.00  0.00     0.074 A 
ATOM     49  C   UNL     1     -12.079   8.924 -11.691  1.00  0.00     0.029 A 
ATOM     50  N   UNL     1     -10.302   8.830 -10.356  1.00  0.00    -0.354 N 
ATOM     51  N   UNL     1      -7.932   9.923  -9.008  1.00  0.00    -0.248 NA
ATOM     52  C   UNL     1      -6.329  11.606  -8.771  1.00  0.00     0.031 C 
ATOM     53  C   UNL     1     -11.370  10.123 -11.814  1.00  0.00     0.029 A 
ATOM     54  C   UNL     1     -10.270  10.070 -10.972  1.00  0.00     0.049 A 
ATOM     55  H   UNL     1      -9.644   8.509  -9.698  1.00  0.00     0.167 HD
ATOM     56  C   UNL     1      -8.239  10.969  -9.867  1.00  0.00     0.074 A 
ATOM     57  C   UNL     1      -7.235  11.992  -9.658  1.00  0.00     0.031 C 
ATOM     58  C   UNL     1      -9.259  11.072 -10.753  1.00  0.00     0.037 A 
BRANCH  45  59
ATOM     59  C   UNL     1     -12.887   6.085 -11.036  1.00  0.00     0.057 A 
ATOM     60  C   UNL     1     -14.087   5.860 -10.348  1.00  0.00     0.134 A 
ATOM     61  C   UNL     1     -12.823   5.678 -12.375  1.00  0.00     0.134 A 
ATOM     62  F   UNL     1     -14.208   6.214  -9.060  1.00  0.00    -0.206 F 
ATOM     63  C   UNL     1     -15.173   5.234 -10.962  1.00  0.00     0.040 A 
ATOM     64  C   UNL     1     -13.911   5.074 -13.006  1.00  0.00     0.040 A 
ATOM     65  F   UNL     1     -11.704   5.867 -13.091  1.00  0.00    -0.206 F 
ATOM     66  C   UNL     1     -15.089   4.846 -12.297  1.00  0.00     0.006 A 
ENDBRANCH  45  59
BRANCH  46  67
ATOM     67  C   UNL     1      -4.845  10.136  -6.725  1.00  0.00     0.057 A 
ATOM     68  C   UNL     1      -4.919  11.234  -5.860  1.00  0.00     0.134 A 
ATOM     69  C   UNL     1      -3.574   9.623  -7.009  1.00  0.00     0.134 A 
ATOM     70  F   UNL     1      -6.107  11.781  -5.566  1.00  0.00    -0.206 F 
ATOM     71  C   UNL     1      -3.773  11.811  -5.312  1.00  0.00     0.040 A 
ATOM     72  C   UNL     1      -2.421  10.175  -6.450  1.00  0.00     0.040 A 
ATOM     73  F   UNL     1      -3.437   8.568  -7.827  1.00  0.00    -0.206 F 
ATOM     74  C   UNL     1      -2.519  11.278  -5.603  1.00  0.00     0.006 A 
ENDBRANCH  46  67
BRANCH  58  75
ATOM     75  C   UNL     1      -9.344  12.337 -11.553  1.00  0.00     0.057 A 
ATOM     76  C   UNL     1      -8.463  12.597 -12.610  1.00  0.00     0.134 A 
ATOM     77  C   UNL     1     -10.342  13.284 -11.290  1.00  0.00     0.134 A 
ATOM     78  F   UNL     1      -7.478  11.734 -12.900  1.00  0.00    -0.206 F 
ATOM     79  C   UNL     1      -8.562  13.763 -13.369  1.00  0.00     0.040 A 
ATOM     80  C   UNL     1     -10.465  14.443 -12.057  1.00  0.00     0.040 A 
ATOM     81  F   UNL     1     -11.220  13.091 -10.295  1.00  0.00    -0.206 F 
ATOM     82  C   UNL     1      -9.571  14.687 -13.098  1.00  0.00     0.006 A 
ENDBRANCH  58  75
ENDBRANCH  32  33
ENDBRANCH  24  27
ENDBRANCH  22  23
ENDBRANCH  21  22
ENDBRANCH  20  21
ENDBRANCH   1  20
TORSDOF 15
