REMARK SMILES CCn1cc(S(=O)(=O)N2CCC(CCc3ccc(C(=O)NCCCCNC(=O)c4ccc(-c5c6nc(c(-c7c(F)cccc7F)c7ccc([nH]7)c(-c7c(F)cccc7F)c7nc(c(-c8c(F)cccc8F)c8ccc5[nH]8)C=C7)C=C6)cc4)cc3)CC2)cn1
REMARK SMILES IDX 19 1 20 2 21 3 18 5 15 6 16 7 84 8 17 9 83 10 14 11 13 12
REMARK SMILES IDX 12 13 9 14 10 15 86 16 11 17 85 18 6 19 7 20 8 21 5 22 3 23
REMARK SMILES IDX 4 24 88 25 87 26 2 27 1 28 22 29 23 30 24 31 25 32 26 33
REMARK SMILES IDX 27 34 28 36 29 37 30 38 82 39 31 40 81 41 32 42 33 43 34 44
REMARK SMILES IDX 75 45 35 46 80 47 74 48 76 49 36 50 79 51 73 52 72 53 37 55
REMARK SMILES IDX 63 56 46 57 62 58 47 59 50 60 61 61 77 62 48 63 49 64 60 66
REMARK SMILES IDX 78 67 51 68 38 69 39 70 44 71 40 72 41 73 43 74 45 75 42 76
REMARK SMILES IDX 64 77 65 78 70 79 66 80 67 81 69 82 71 83 68 84 52 85 53 86
REMARK SMILES IDX 58 87 54 88 55 89 57 90 59 91 56 92
REMARK H PARENT 21 4 26 35 76 54 50 65
REMARK Flexibility Score: inf
ROOT
ATOM      1  C   UNL     1       2.146   5.734  -3.079  1.00  0.00     0.251 C 
ATOM      2  O   UNL     1       2.409   6.937  -3.024  1.00  0.00    -0.269 OA
ATOM      3  N   UNL     1       1.422   5.223  -2.029  1.00  0.00    -0.352 N 
ATOM      4  H   UNL     1       1.134   5.917  -1.393  1.00  0.00     0.163 HD
ENDROOT
BRANCH   1   5
ATOM      5  C   UNL     1       2.603   4.955  -4.269  1.00  0.00     0.039 A 
ATOM      6  C   UNL     1       3.537   3.590  -6.583  1.00  0.00    -0.048 A 
ATOM      7  C   UNL     1       3.729   4.966  -6.449  1.00  0.00     0.004 A 
ATOM      8  C   UNL     1       2.758   2.959  -5.620  1.00  0.00     0.004 A 
ATOM      9  C   UNL     1       3.235   5.645  -5.320  1.00  0.00     0.014 A 
ATOM     10  C   UNL     1       2.418   3.592  -4.433  1.00  0.00     0.014 A 
BRANCH   6  11
ATOM     11  C   UNL     1       4.171   2.778  -7.691  1.00  0.00     0.036 C 
BRANCH  11  12
ATOM     12  C   UNL     1       5.120   1.645  -7.194  1.00  0.00     0.008 C 
BRANCH  12  13
ATOM     13  C   UNL     1       4.458   0.467  -6.440  1.00  0.00    -0.008 C 
ATOM     14  N   UNL     1       3.549  -2.208  -5.766  1.00  0.00    -0.198 NA
ATOM     15  C   UNL     1       2.632  -1.270  -6.452  1.00  0.00     0.103 C 
ATOM     16  C   UNL     1       4.691  -1.595  -5.038  1.00  0.00     0.103 C 
ATOM     17  C   UNL     1       3.391  -0.244  -7.279  1.00  0.00     0.020 C 
ATOM     18  C   UNL     1       5.441  -0.588  -5.923  1.00  0.00     0.020 C 
BRANCH  14  19
ATOM     19  S   UNL     1       2.763  -3.496  -4.954  1.00  0.00     0.246 S 
ATOM     20  O   UNL     1       3.749  -4.298  -4.281  1.00  0.00    -0.207 OA
ATOM     21  O   UNL     1       1.782  -4.071  -5.860  1.00  0.00    -0.207 OA
BRANCH  19  22
ATOM     22  C   UNL     1       1.794  -2.886  -3.679  1.00  0.00     0.120 A 
ATOM     23  N   UNL     1       0.861  -1.690  -2.119  1.00  0.00    -0.272 N 
ATOM     24  C   UNL     1       1.696  -1.602  -3.195  1.00  0.00     0.130 A 
ATOM     25  N   UNL     1       0.346  -2.914  -1.930  1.00  0.00    -0.180 NA
ATOM     26  C   UNL     1       0.942  -3.654  -2.871  1.00  0.00     0.156 A 
BRANCH  23  27
ATOM     27  C   UNL     1       0.732  -0.680  -1.086  1.00  0.00     0.141 C 
ATOM     28  C   UNL     1       1.770  -0.952  -0.004  1.00  0.00     0.029 C 
ENDBRANCH  23  27
ENDBRANCH  19  22
ENDBRANCH  14  19
ENDBRANCH  12  13
ENDBRANCH  11  12
ENDBRANCH   6  11
ENDBRANCH   1   5
BRANCH   3  29
ATOM     29  C   UNL     1       0.984   3.897  -1.643  1.00  0.00     0.116 C 
BRANCH  29  30
ATOM     30  C   UNL     1       2.049   3.193  -0.796  1.00  0.00     0.023 C 
BRANCH  30  31
ATOM     31  C   UNL     1       1.985   3.519   0.711  1.00  0.00     0.023 C 
BRANCH  31  32
ATOM     32  C   UNL     1       0.652   3.191   1.389  1.00  0.00     0.116 C 
BRANCH  32  33
ATOM     33  N   UNL     1       0.310   1.776   1.226  1.00  0.00    -0.352 N 
ATOM     34  C   UNL     1      -0.740   1.013   1.697  1.00  0.00     0.251 C 
ATOM     35  H   UNL     1       0.952   1.273   0.674  1.00  0.00     0.163 HD
ATOM     36  O   UNL     1      -0.657  -0.195   1.856  1.00  0.00    -0.269 OA
BRANCH  34  37
ATOM     37  C   UNL     1      -2.035   1.671   1.766  1.00  0.00     0.039 A 
ATOM     38  C   UNL     1      -3.122   1.300   2.562  1.00  0.00     0.014 A 
ATOM     39  C   UNL     1      -2.190   2.659   0.823  1.00  0.00     0.014 A 
ATOM     40  C   UNL     1      -4.318   1.994   2.374  1.00  0.00     0.010 A 
ATOM     41  C   UNL     1      -3.062   3.621   1.141  1.00  0.00     0.010 A 
ATOM     42  C   UNL     1      -4.269   3.125   1.565  1.00  0.00    -0.014 A 
BRANCH  42  43
ATOM     43  C   UNL     1      -5.337   4.009   1.179  1.00  0.00     0.031 A 
ATOM     44  C   UNL     1      -5.654   5.003   2.227  1.00  0.00     0.074 A 
ATOM     45  C   UNL     1      -5.611   4.185  -0.132  1.00  0.00     0.049 A 
ATOM     46  N   UNL     1      -6.630   4.935   3.068  1.00  0.00    -0.248 NA
ATOM     47  C   UNL     1      -4.636   6.013   2.587  1.00  0.00     0.031 C 
ATOM     48  C   UNL     1      -5.026   3.538  -1.316  1.00  0.00     0.029 A 
ATOM     49  N   UNL     1      -6.443   5.105  -0.678  1.00  0.00    -0.354 N 
ATOM     50  C   UNL     1      -6.469   6.040   3.891  1.00  0.00     0.074 A 
ATOM     51  C   UNL     1      -5.091   6.416   3.775  1.00  0.00     0.031 C 
ATOM     52  C   UNL     1      -5.387   4.219  -2.430  1.00  0.00     0.029 A 
ATOM     53  C   UNL     1      -6.318   5.265  -2.054  1.00  0.00     0.049 A 
ATOM     54  H   UNL     1      -7.088   5.620  -0.141  1.00  0.00     0.167 HD
ATOM     55  C   UNL     1      -7.539   6.760   4.326  1.00  0.00     0.037 A 
ATOM     56  C   UNL     1      -6.918   6.254  -2.765  1.00  0.00     0.037 A 
ATOM     57  C   UNL     1      -8.767   6.091   3.958  1.00  0.00     0.049 A 
ATOM     58  C   UNL     1      -8.024   6.781  -1.904  1.00  0.00     0.074 A 
ATOM     59  C   UNL     1      -9.307   4.853   4.245  1.00  0.00     0.029 A 
ATOM     60  N   UNL     1      -9.392   6.524   2.807  1.00  0.00    -0.354 N 
ATOM     61  N   UNL     1      -9.068   6.068  -1.566  1.00  0.00    -0.248 NA
ATOM     62  C   UNL     1      -7.702   7.871  -0.989  1.00  0.00     0.031 C 
ATOM     63  C   UNL     1      -9.861   4.399   3.011  1.00  0.00     0.029 A 
ATOM     64  C   UNL     1      -9.729   5.418   2.064  1.00  0.00     0.049 A 
ATOM     65  H   UNL     1      -9.566   7.461   2.561  1.00  0.00     0.167 HD
ATOM     66  C   UNL     1      -9.274   6.338  -0.216  1.00  0.00     0.074 A 
ATOM     67  C   UNL     1      -8.438   7.506   0.067  1.00  0.00     0.031 C 
ATOM     68  C   UNL     1      -9.835   5.410   0.619  1.00  0.00     0.037 A 
BRANCH  55  69
ATOM     69  C   UNL     1      -7.517   8.211   4.734  1.00  0.00     0.057 A 
ATOM     70  C   UNL     1      -8.664   8.745   5.347  1.00  0.00     0.134 A 
ATOM     71  C   UNL     1      -6.543   9.161   4.364  1.00  0.00     0.134 A 
ATOM     72  F   UNL     1      -9.661   7.946   5.756  1.00  0.00    -0.206 F 
ATOM     73  C   UNL     1      -8.861  10.121   5.503  1.00  0.00     0.040 A 
ATOM     74  C   UNL     1      -6.706  10.534   4.566  1.00  0.00     0.040 A 
ATOM     75  F   UNL     1      -5.425   8.842   3.704  1.00  0.00    -0.206 F 
ATOM     76  C   UNL     1      -7.883  11.022   5.105  1.00  0.00     0.006 A 
ENDBRANCH  55  69
BRANCH  56  77
ATOM     77  C   UNL     1      -6.406   6.964  -3.962  1.00  0.00     0.057 A 
ATOM     78  C   UNL     1      -7.240   7.764  -4.756  1.00  0.00     0.134 A 
ATOM     79  C   UNL     1      -5.027   7.078  -4.218  1.00  0.00     0.134 A 
ATOM     80  F   UNL     1      -8.568   7.760  -4.566  1.00  0.00    -0.206 F 
ATOM     81  C   UNL     1      -6.733   8.635  -5.733  1.00  0.00     0.040 A 
ATOM     82  C   UNL     1      -4.507   7.939  -5.191  1.00  0.00     0.040 A 
ATOM     83  F   UNL     1      -4.127   6.419  -3.474  1.00  0.00    -0.206 F 
ATOM     84  C   UNL     1      -5.361   8.732  -5.946  1.00  0.00     0.006 A 
ENDBRANCH  56  77
BRANCH  68  85
ATOM     85  C   UNL     1     -10.410   4.155   0.004  1.00  0.00     0.057 A 
ATOM     86  C   UNL     1      -9.651   3.182  -0.667  1.00  0.00     0.134 A 
ATOM     87  C   UNL     1     -11.742   3.824   0.272  1.00  0.00     0.134 A 
ATOM     88  F   UNL     1      -8.344   3.350  -0.882  1.00  0.00    -0.206 F 
ATOM     89  C   UNL     1     -10.193   1.961  -1.080  1.00  0.00     0.040 A 
ATOM     90  C   UNL     1     -12.290   2.595  -0.106  1.00  0.00     0.040 A 
ATOM     91  F   UNL     1     -12.519   4.671   0.965  1.00  0.00    -0.206 F 
ATOM     92  C   UNL     1     -11.518   1.661  -0.791  1.00  0.00     0.006 A 
ENDBRANCH  68  85
ENDBRANCH  42  43
ENDBRANCH  34  37
ENDBRANCH  32  33
ENDBRANCH  31  32
ENDBRANCH  30  31
ENDBRANCH  29  30
ENDBRANCH   3  29
TORSDOF 17
