REMARK SMILES Cc1cc(S(=O)(=O)Nc2ccc(Cl)cc2F)ccc1OCC(=O)NCCCCNC(=O)c1ccc(-c2c3nc(c(-c4c(F)cccc4F)c4ccc([nH]4)c(-c4c(F)cccc4F)c4nc(c(-c5c(F)cccc5F)c5ccc2[nH]5)C=C4)C=C3)cc1
REMARK SMILES IDX 25 1 24 2 22 3 23 4 21 6 20 7 19 8 1 9 2 10 3 11 4 12 18 13
REMARK SMILES IDX 17 14 5 15 6 16 7 17 8 18 9 20 10 21 15 22 11 23 14 24 16 25
REMARK SMILES IDX 12 26 13 27 26 28 27 29 28 30 29 31 30 32 31 34 32 35 33 36
REMARK SMILES IDX 85 37 34 38 84 39 35 40 36 41 37 42 78 43 38 44 83 45 77 46
REMARK SMILES IDX 79 47 39 48 82 49 76 50 75 51 40 53 66 54 49 55 65 56 50 57
REMARK SMILES IDX 53 58 64 59 80 60 51 61 52 62 63 64 81 65 54 66 41 67 42 68
REMARK SMILES IDX 47 69 43 70 44 71 46 72 48 73 45 74 67 75 68 76 73 77 69 78
REMARK SMILES IDX 70 79 72 80 74 81 71 82 55 83 56 84 61 85 57 86 58 87 60 88
REMARK SMILES IDX 62 89 59 90
REMARK H PARENT 24 5 8 19 29 33 79 52 53 63
REMARK Flexibility Score: inf
ROOT
ATOM      1  C   UNL     1       1.438   3.607   2.660  1.00  0.00     0.116 C 
ENDROOT
BRANCH   1   2
ATOM      2  N   UNL     1       2.486   2.610   2.540  1.00  0.00    -0.353 N 
ATOM      3  C   UNL     1       3.047   2.085   1.410  1.00  0.00     0.257 C 
ATOM      4  O   UNL     1       4.022   1.340   1.532  1.00  0.00    -0.271 OA
ATOM      5  H   UNL     1       2.842   2.264   3.391  1.00  0.00     0.163 HD
BRANCH   3   6
ATOM      6  C   UNL     1       2.505   2.480   0.036  1.00  0.00     0.329 C 
BRANCH   6   7
ATOM      7  O   UNL     1       1.140   2.253  -0.241  1.00  0.00    -0.484 OA
BRANCH   7   8
ATOM      8  C   UNL     1       0.572   1.022  -0.095  1.00  0.00     0.123 A 
ATOM      9  C   UNL     1       2.531  -0.567  -0.672  1.00  0.00     0.048 C 
ATOM     10  C   UNL     1       1.105  -0.249  -0.330  1.00  0.00    -0.008 A 
ATOM     11  C   UNL     1       0.236  -1.361  -0.228  1.00  0.00     0.029 A 
ATOM     12  C   UNL     1      -1.109  -1.233   0.149  1.00  0.00     0.088 A 
ATOM     13  C   UNL     1      -0.774   1.129   0.294  1.00  0.00     0.048 A 
ATOM     14  C   UNL     1      -1.582   0.014   0.510  1.00  0.00     0.026 A 
BRANCH  12  15
ATOM     15  S   UNL     1      -2.115  -2.693   0.021  1.00  0.00     0.262 S 
ATOM     16  O   UNL     1      -1.819  -3.296  -1.274  1.00  0.00    -0.201 OA
ATOM     17  O   UNL     1      -1.887  -3.431   1.235  1.00  0.00    -0.201 OA
BRANCH  15  18
ATOM     18  N   UNL     1      -3.767  -2.377   0.046  1.00  0.00    -0.277 N 
ATOM     19  H   UNL     1      -4.365  -3.124   0.279  1.00  0.00     0.180 HD
BRANCH  18  20
ATOM     20  C   UNL     1      -4.372  -1.123  -0.240  1.00  0.00     0.085 A 
ATOM     21  C   UNL     1      -5.294  -0.657   0.707  1.00  0.00     0.031 A 
ATOM     22  C   UNL     1      -4.064  -0.318  -1.342  1.00  0.00     0.148 A 
ATOM     23  C   UNL     1      -5.816   0.633   0.610  1.00  0.00     0.023 A 
ATOM     24  C   UNL     1      -4.576   0.977  -1.441  1.00  0.00     0.062 A 
ATOM     25  F   UNL     1      -3.197  -0.738  -2.272  1.00  0.00    -0.205 F 
ATOM     26  C   UNL     1      -5.435   1.452  -0.452  1.00  0.00     0.044 A 
ATOM     27  Cl  UNL     1      -6.008   3.073  -0.513  1.00  0.00    -0.084 Cl
ENDBRANCH  18  20
ENDBRANCH  15  18
ENDBRANCH  12  15
ENDBRANCH   7   8
ENDBRANCH   6   7
ENDBRANCH   3   6
ENDBRANCH   1   2
BRANCH   1  28
ATOM     28  C   UNL     1       0.107   3.043   3.166  1.00  0.00     0.023 C 
BRANCH  28  29
ATOM     29  C   UNL     1       0.153   2.215   4.447  1.00  0.00     0.023 C 
BRANCH  29  30
ATOM     30  C   UNL     1       0.640   2.986   5.654  1.00  0.00     0.116 C 
BRANCH  30  31
ATOM     31  N   UNL     1      -0.339   3.882   6.246  1.00  0.00    -0.352 N 
ATOM     32  C   UNL     1      -0.225   4.732   7.332  1.00  0.00     0.251 C 
ATOM     33  H   UNL     1      -1.220   3.885   5.807  1.00  0.00     0.163 HD
ATOM     34  O   UNL     1      -1.235   5.297   7.746  1.00  0.00    -0.269 OA
BRANCH  32  35
ATOM     35  C   UNL     1       1.106   5.112   7.886  1.00  0.00     0.039 A 
ATOM     36  C   UNL     1       1.234   6.389   8.458  1.00  0.00     0.014 A 
ATOM     37  C   UNL     1       2.251   4.383   7.604  1.00  0.00     0.014 A 
ATOM     38  C   UNL     1       2.472   7.026   8.453  1.00  0.00     0.010 A 
ATOM     39  C   UNL     1       3.432   5.056   7.434  1.00  0.00     0.010 A 
ATOM     40  C   UNL     1       3.526   6.396   7.807  1.00  0.00    -0.014 A 
BRANCH  40  41
ATOM     41  C   UNL     1       4.773   7.022   7.420  1.00  0.00     0.031 A 
ATOM     42  C   UNL     1       6.005   6.665   8.146  1.00  0.00     0.074 A 
ATOM     43  C   UNL     1       4.807   7.691   6.246  1.00  0.00     0.049 A 
ATOM     44  N   UNL     1       7.114   7.303   8.038  1.00  0.00    -0.248 NA
ATOM     45  C   UNL     1       6.079   5.545   9.081  1.00  0.00     0.031 C 
ATOM     46  C   UNL     1       5.976   8.019   5.438  1.00  0.00     0.029 A 
ATOM     47  N   UNL     1       3.755   8.374   5.622  1.00  0.00    -0.354 N 
ATOM     48  C   UNL     1       8.095   6.550   8.642  1.00  0.00     0.074 A 
ATOM     49  C   UNL     1       7.391   5.489   9.322  1.00  0.00     0.031 C 
ATOM     50  C   UNL     1       5.668   9.038   4.620  1.00  0.00     0.029 A 
ATOM     51  C   UNL     1       4.343   9.497   4.998  1.00  0.00     0.049 A 
ATOM     52  H   UNL     1       2.803   8.124   5.620  1.00  0.00     0.167 HD
ATOM     53  C   UNL     1       9.398   6.851   8.384  1.00  0.00     0.037 A 
ATOM     54  C   UNL     1       4.057  10.763   5.425  1.00  0.00     0.037 A 
ATOM     55  C   UNL     1       9.485   8.020   7.515  1.00  0.00     0.049 A 
ATOM     56  C   UNL     1       5.267  11.507   5.939  1.00  0.00     0.074 A 
ATOM     57  C   UNL     1       9.610   8.156   6.142  1.00  0.00     0.029 A 
ATOM     58  N   UNL     1       9.077   9.256   8.000  1.00  0.00    -0.354 N 
ATOM     59  N   UNL     1       6.345  10.920   6.386  1.00  0.00    -0.248 NA
ATOM     60  C   UNL     1       5.375  12.962   5.968  1.00  0.00     0.031 C 
ATOM     61  C   UNL     1       9.228   9.476   5.797  1.00  0.00     0.029 A 
ATOM     62  C   UNL     1       8.895  10.145   6.962  1.00  0.00     0.049 A 
ATOM     63  H   UNL     1       8.938   9.467   8.952  1.00  0.00     0.167 HD
ATOM     64  C   UNL     1       7.274  11.867   6.739  1.00  0.00     0.074 A 
ATOM     65  C   UNL     1       6.618  13.129   6.455  1.00  0.00     0.031 C 
ATOM     66  C   UNL     1       8.504  11.522   7.225  1.00  0.00     0.037 A 
BRANCH  53  67
ATOM     67  C   UNL     1      10.572   5.955   8.692  1.00  0.00     0.057 A 
ATOM     68  C   UNL     1      11.734   5.998   7.895  1.00  0.00     0.134 A 
ATOM     69  C   UNL     1      10.620   5.016   9.736  1.00  0.00     0.134 A 
ATOM     70  F   UNL     1      11.881   6.890   6.907  1.00  0.00    -0.206 F 
ATOM     71  C   UNL     1      12.813   5.123   8.067  1.00  0.00     0.040 A 
ATOM     72  C   UNL     1      11.673   4.101   9.891  1.00  0.00     0.040 A 
ATOM     73  F   UNL     1       9.682   4.976  10.690  1.00  0.00    -0.206 F 
ATOM     74  C   UNL     1      12.774   4.147   9.049  1.00  0.00     0.006 A 
ENDBRANCH  53  67
BRANCH  54  75
ATOM     75  C   UNL     1       2.665  10.882   5.941  1.00  0.00     0.057 A 
ATOM     76  C   UNL     1       1.611  10.706   5.024  1.00  0.00     0.134 A 
ATOM     77  C   UNL     1       2.369  10.685   7.294  1.00  0.00     0.134 A 
ATOM     78  F   UNL     1       1.826  10.888   3.711  1.00  0.00    -0.206 F 
ATOM     79  C   UNL     1       0.367  10.204   5.416  1.00  0.00     0.040 A 
ATOM     80  C   UNL     1       1.118  10.200   7.698  1.00  0.00     0.040 A 
ATOM     81  F   UNL     1       3.321  10.820   8.228  1.00  0.00    -0.206 F 
ATOM     82  C   UNL     1       0.134   9.909   6.754  1.00  0.00     0.006 A 
ENDBRANCH  54  75
BRANCH  66  83
ATOM     83  C   UNL     1       9.507  12.423   7.917  1.00  0.00     0.057 A 
ATOM     84  C   UNL     1       9.188  13.634   8.545  1.00  0.00     0.134 A 
ATOM     85  C   UNL     1      10.843  11.990   8.115  1.00  0.00     0.134 A 
ATOM     86  F   UNL     1       7.944  14.127   8.539  1.00  0.00    -0.206 F 
ATOM     87  C   UNL     1      10.130  14.376   9.275  1.00  0.00     0.040 A 
ATOM     88  C   UNL     1      11.770  12.688   8.894  1.00  0.00     0.040 A 
ATOM     89  F   UNL     1      11.309  10.848   7.588  1.00  0.00    -0.206 F 
ATOM     90  C   UNL     1      11.419  13.896   9.468  1.00  0.00     0.006 A 
ENDBRANCH  66  83
ENDBRANCH  40  41
ENDBRANCH  32  35
ENDBRANCH  30  31
ENDBRANCH  29  30
ENDBRANCH  28  29
ENDBRANCH   1  28
TORSDOF 16
