REMARK SMILES O=C(NCCCCNC(=O)c1cc(-c2ccc(C(F)(F)F)cc2)cc([N+](=O)[O-])c1)c1ccc(-c2c3nc(c(-c4c(F)cccc4F)c4ccc([nH]4)c(-c4c(F)cccc4F)c4nc(c(-c5c(F)cccc5F)c5ccc2[nH]5)C=C4)C=C3)cc1
REMARK SMILES IDX 5 1 4 2 3 3 1 4 2 5 30 7 31 8 83 9 32 10 82 11 33 12 34 13
REMARK SMILES IDX 35 14 76 15 36 16 81 17 75 18 77 19 37 20 80 21 74 22 73 23
REMARK SMILES IDX 38 25 64 26 47 27 63 28 48 29 51 30 62 31 78 32 49 33 50 34
REMARK SMILES IDX 61 36 79 37 52 38 39 39 40 40 45 41 41 42 42 43 44 44 46 45
REMARK SMILES IDX 43 46 65 47 66 48 71 49 67 50 68 51 70 52 72 53 69 54 53 55
REMARK SMILES IDX 54 56 59 57 55 58 56 59 58 60 60 61 57 62 6 63 7 64 8 65
REMARK SMILES IDX 9 66 10 68 11 69 12 70 29 71 13 72 25 73 24 74 14 75 15 76
REMARK SMILES IDX 23 77 16 78 22 79 17 80 18 81 19 82 20 83 21 84 26 85 27 86
REMARK SMILES IDX 28 87
REMARK H PARENT 3 6 77 24 51 35 8 67
REMARK Flexibility Score: inf
ROOT
ATOM      1  C   UNL     1       4.953   0.733   2.541  1.00  0.00     0.023 C 
ENDROOT
BRANCH   1   2
ATOM      2  C   UNL     1       4.634  -0.178   1.363  1.00  0.00     0.116 C 
BRANCH   2   3
ATOM      3  N   UNL     1       3.205  -0.362   1.166  1.00  0.00    -0.352 N 
ATOM      4  O   UNL     1       1.208  -0.152   0.137  1.00  0.00    -0.269 OA
ATOM      5  C   UNL     1       2.432  -0.074   0.068  1.00  0.00     0.251 C 
ATOM      6  H   UNL     1       2.721  -0.750   1.930  1.00  0.00     0.163 HD
BRANCH   5   7
ATOM      7  C   UNL     1       3.072   0.356  -1.192  1.00  0.00     0.039 A 
ATOM      8  C   UNL     1       4.184  -0.323  -1.699  1.00  0.00     0.014 A 
ATOM      9  C   UNL     1       2.543   1.451  -1.881  1.00  0.00     0.014 A 
ATOM     10  C   UNL     1       4.847   0.173  -2.816  1.00  0.00     0.010 A 
ATOM     11  C   UNL     1       3.164   1.901  -3.047  1.00  0.00     0.010 A 
ATOM     12  C   UNL     1       4.338   1.283  -3.507  1.00  0.00    -0.014 A 
BRANCH  12  13
ATOM     13  C   UNL     1       5.006   1.746  -4.747  1.00  0.00     0.031 A 
ATOM     14  C   UNL     1       5.660   3.095  -4.819  1.00  0.00     0.074 A 
ATOM     15  C   UNL     1       5.007   0.934  -5.821  1.00  0.00     0.049 A 
ATOM     16  N   UNL     1       6.255   3.668  -5.834  1.00  0.00    -0.248 NA
ATOM     17  C   UNL     1       5.634   3.912  -3.597  1.00  0.00     0.031 C 
ATOM     18  C   UNL     1       4.385  -0.391  -5.874  1.00  0.00     0.029 A 
ATOM     19  N   UNL     1       5.542   1.103  -7.072  1.00  0.00    -0.354 N 
ATOM     20  C   UNL     1       6.654   4.920  -5.383  1.00  0.00     0.074 A 
ATOM     21  C   UNL     1       6.216   5.031  -4.008  1.00  0.00     0.031 C 
ATOM     22  C   UNL     1       4.587  -0.921  -7.088  1.00  0.00     0.029 A 
ATOM     23  C   UNL     1       5.303   0.046  -7.913  1.00  0.00     0.049 A 
ATOM     24  H   UNL     1       6.048   1.904  -7.340  1.00  0.00     0.167 HD
ATOM     25  C   UNL     1       7.329   5.883  -6.057  1.00  0.00     0.037 A 
ATOM     26  C   UNL     1       5.599  -0.120  -9.215  1.00  0.00     0.037 A 
ATOM     27  C   UNL     1       7.776   5.758  -7.420  1.00  0.00     0.049 A 
ATOM     28  C   UNL     1       6.334   0.965  -9.942  1.00  0.00     0.074 A 
ATOM     29  C   UNL     1       8.520   6.652  -8.170  1.00  0.00     0.029 A 
ATOM     30  N   UNL     1       7.511   4.672  -8.242  1.00  0.00    -0.354 N 
ATOM     31  N   UNL     1       6.750   2.123  -9.489  1.00  0.00    -0.248 NA
ATOM     32  C   UNL     1       6.639   0.725 -11.358  1.00  0.00     0.031 C 
ATOM     33  C   UNL     1       8.667   6.128  -9.459  1.00  0.00     0.029 A 
ATOM     34  C   UNL     1       8.051   4.887  -9.500  1.00  0.00     0.049 A 
ATOM     35  H   UNL     1       7.013   3.867  -7.972  1.00  0.00     0.167 HD
ATOM     36  C   UNL     1       7.374   2.747 -10.559  1.00  0.00     0.074 A 
ATOM     37  C   UNL     1       7.296   1.831 -11.680  1.00  0.00     0.031 C 
ATOM     38  C   UNL     1       7.958   3.969 -10.607  1.00  0.00     0.037 A 
BRANCH  25  39
ATOM     39  C   UNL     1       7.604   7.169  -5.334  1.00  0.00     0.057 A 
ATOM     40  C   UNL     1       8.554   7.256  -4.308  1.00  0.00     0.134 A 
ATOM     41  C   UNL     1       6.930   8.344  -5.691  1.00  0.00     0.134 A 
ATOM     42  F   UNL     1       9.228   6.166  -3.911  1.00  0.00    -0.206 F 
ATOM     43  C   UNL     1       8.806   8.460  -3.647  1.00  0.00     0.040 A 
ATOM     44  C   UNL     1       7.189   9.559  -5.052  1.00  0.00     0.040 A 
ATOM     45  F   UNL     1       6.013   8.333  -6.669  1.00  0.00    -0.206 F 
ATOM     46  C   UNL     1       8.125   9.617  -4.022  1.00  0.00     0.006 A 
ENDBRANCH  25  39
BRANCH  26  47
ATOM     47  C   UNL     1       5.176  -1.364  -9.899  1.00  0.00     0.057 A 
ATOM     48  C   UNL     1       6.103  -2.353 -10.245  1.00  0.00     0.134 A 
ATOM     49  C   UNL     1       3.826  -1.617 -10.171  1.00  0.00     0.134 A 
ATOM     50  F   UNL     1       7.411  -2.160 -10.020  1.00  0.00    -0.206 F 
ATOM     51  C   UNL     1       5.701  -3.551 -10.838  1.00  0.00     0.040 A 
ATOM     52  C   UNL     1       3.408  -2.819 -10.741  1.00  0.00     0.040 A 
ATOM     53  F   UNL     1       2.890  -0.711  -9.850  1.00  0.00    -0.206 F 
ATOM     54  C   UNL     1       4.349  -3.790 -11.078  1.00  0.00     0.006 A 
ENDBRANCH  26  47
BRANCH  38  55
ATOM     55  C   UNL     1       8.570   4.380 -11.912  1.00  0.00     0.057 A 
ATOM     56  C   UNL     1       7.783   4.784 -12.997  1.00  0.00     0.134 A 
ATOM     57  C   UNL     1       9.961   4.413 -12.069  1.00  0.00     0.134 A 
ATOM     58  F   UNL     1       6.444   4.759 -12.913  1.00  0.00    -0.206 F 
ATOM     59  C   UNL     1       8.359   5.193 -14.200  1.00  0.00     0.040 A 
ATOM     60  C   UNL     1      10.549   4.841 -13.260  1.00  0.00     0.040 A 
ATOM     61  F   UNL     1      10.769   4.043 -11.064  1.00  0.00    -0.206 F 
ATOM     62  C   UNL     1       9.747   5.230 -14.331  1.00  0.00     0.006 A 
ENDBRANCH  38  55
ENDBRANCH  12  13
ENDBRANCH   5   7
ENDBRANCH   2   3
ENDBRANCH   1   2
BRANCH   1  63
ATOM     63  C   UNL     1       4.460   0.238   3.900  1.00  0.00     0.023 C 
BRANCH  63  64
ATOM     64  C   UNL     1       4.851  -1.192   4.256  1.00  0.00     0.116 C 
BRANCH  64  65
ATOM     65  N   UNL     1       6.290  -1.395   4.268  1.00  0.00    -0.352 N 
ATOM     66  C   UNL     1       7.081  -1.976   5.224  1.00  0.00     0.251 C 
ATOM     67  H   UNL     1       6.766  -1.067   3.472  1.00  0.00     0.163 HD
ATOM     68  O   UNL     1       8.304  -1.936   5.119  1.00  0.00    -0.269 OA
BRANCH  66  69
ATOM     69  C   UNL     1       6.473  -2.639   6.396  1.00  0.00     0.047 A 
ATOM     70  C   UNL     1       7.021  -2.393   7.661  1.00  0.00     0.023 A 
ATOM     71  C   UNL     1       5.420  -3.542   6.248  1.00  0.00     0.099 A 
ATOM     72  C   UNL     1       6.496  -3.013   8.806  1.00  0.00    -0.011 A 
ATOM     73  C   UNL     1       4.856  -4.120   7.387  1.00  0.00     0.270 A 
ATOM     74  C   UNL     1       5.382  -3.857   8.659  1.00  0.00     0.094 A 
BRANCH  72  75
ATOM     75  C   UNL     1       7.144  -2.846  10.113  1.00  0.00    -0.018 A 
ATOM     76  C   UNL     1       7.311  -1.586  10.705  1.00  0.00     0.009 A 
ATOM     77  C   UNL     1       7.653  -3.969  10.786  1.00  0.00     0.009 A 
ATOM     78  C   UNL     1       7.977  -1.454  11.929  1.00  0.00     0.014 A 
ATOM     79  C   UNL     1       8.320  -3.840  12.005  1.00  0.00     0.014 A 
ATOM     80  C   UNL     1       8.495  -2.579  12.588  1.00  0.00     0.056 A 
BRANCH  80  81
ATOM     81  C   UNL     1       9.238  -2.425  13.893  1.00  0.00     0.416 C 
ATOM     82  F   UNL     1      10.341  -1.635  13.772  1.00  0.00    -0.166 F 
ATOM     83  F   UNL     1       8.473  -1.855  14.864  1.00  0.00    -0.166 F 
ATOM     84  F   UNL     1       9.681  -3.605  14.410  1.00  0.00    -0.166 F 
ENDBRANCH  80  81
ENDBRANCH  72  75
BRANCH  73  85
ATOM     85  N   UNL     1       3.700  -5.012   7.245  1.00  0.00     0.062 N 
ATOM     86  O   UNL     1       3.268  -5.564   8.265  1.00  0.00    -0.258 OA
ATOM     87  O   UNL     1       3.219  -5.149   6.111  1.00  0.00    -0.258 OA
ENDBRANCH  73  85
ENDBRANCH  66  69
ENDBRANCH  64  65
ENDBRANCH  63  64
ENDBRANCH   1  63
TORSDOF 14
