REMARK SMILES O=C(NCCCCNC(=O)[C@H](CO)NC(=O)[C@H](Cc1c[nH]c2ccccc12)NC(=O)[C@H](Cc1ccc(O)cc1)NC(=O)c1ccc(F)cc1)c1ccc(-c2c3nc(c(-c4c(F)cccc4F)c4ccc([nH]4)c(-c4c(F)cccc4F)c4nc(c(-c5c(F)cccc5F)c5ccc2[nH]5)C=C4)C=C3)cc1
REMARK SMILES IDX 8 1 9 2 10 3 7 5 6 6 5 7 4 8 3 9 1 10 2 11 50 13 51 14
REMARK SMILES IDX 103 15 52 16 102 17 53 18 54 19 55 20 96 21 56 22 101 23
REMARK SMILES IDX 95 24 97 25 57 26 100 27 94 28 93 29 58 31 84 32 67 33 83 34
REMARK SMILES IDX 68 35 71 36 82 37 98 38 69 39 70 40 81 42 99 43 72 44 59 45
REMARK SMILES IDX 60 46 65 47 61 48 62 49 64 50 66 51 63 52 85 53 86 54 91 55
REMARK SMILES IDX 87 56 88 57 90 58 92 59 89 60 73 61 74 62 79 63 75 64 76 65
REMARK SMILES IDX 78 66 80 67 77 68 11 69 14 70 15 71 16 73 17 74 28 75 29 76
REMARK SMILES IDX 30 78 31 79 40 80 41 81 42 83 43 84 44 85 49 86 45 87 48 88
REMARK SMILES IDX 46 89 47 90 32 91 33 92 34 93 39 94 35 95 38 96 36 97 37 98
REMARK SMILES IDX 18 100 19 101 20 102 27 103 21 104 22 105 26 106 23 108
REMARK SMILES IDX 25 109 24 110 12 111 13 112
REMARK H PARENT 8 4 3 12 97 30 71 41 14 72 28 77 40 82 37 99 21 107 13 113
REMARK Flexibility Score: inf
ROOT
ATOM      1  N   UNL     1       7.531   7.833  12.726  1.00  0.00    -0.354 N 
ATOM      2  C   UNL     1       6.277   8.382  12.859  1.00  0.00     0.244 C 
ATOM      3  O   UNL     1       5.507   7.911  13.700  1.00  0.00    -0.273 OA
ATOM      4  H   UNL     1       7.785   7.154  13.391  1.00  0.00     0.163 HD
ENDROOT
BRANCH   1   5
ATOM      5  C   UNL     1       8.522   8.144  11.713  1.00  0.00     0.116 C 
BRANCH   5   6
ATOM      6  C   UNL     1       9.915   8.492  12.233  1.00  0.00     0.023 C 
BRANCH   6   7
ATOM      7  C   UNL     1      10.842   7.329  12.551  1.00  0.00     0.023 C 
BRANCH   7   8
ATOM      8  C   UNL     1      10.886   6.178  11.559  1.00  0.00     0.116 C 
BRANCH   8   9
ATOM      9  N   UNL     1      11.510   6.456  10.272  1.00  0.00    -0.352 N 
ATOM     10  O   UNL     1      12.883   5.968   8.511  1.00  0.00    -0.269 OA
ATOM     11  C   UNL     1      12.407   5.647   9.588  1.00  0.00     0.251 C 
ATOM     12  H   UNL     1      11.269   7.308   9.842  1.00  0.00     0.163 HD
BRANCH  11  13
ATOM     13  C   UNL     1      12.836   4.378  10.228  1.00  0.00     0.039 A 
ATOM     14  C   UNL     1      11.884   3.487  10.724  1.00  0.00     0.014 A 
ATOM     15  C   UNL     1      14.199   4.140  10.435  1.00  0.00     0.014 A 
ATOM     16  C   UNL     1      12.281   2.482  11.598  1.00  0.00     0.010 A 
ATOM     17  C   UNL     1      14.602   3.057  11.226  1.00  0.00     0.010 A 
ATOM     18  C   UNL     1      13.644   2.244  11.851  1.00  0.00    -0.014 A 
BRANCH  18  19
ATOM     19  C   UNL     1      14.029   1.089  12.704  1.00  0.00     0.031 A 
ATOM     20  C   UNL     1      14.765   1.267  14.006  1.00  0.00     0.074 A 
ATOM     21  C   UNL     1      13.667  -0.145  12.299  1.00  0.00     0.049 A 
ATOM     22  N   UNL     1      15.177   0.349  14.845  1.00  0.00    -0.248 NA
ATOM     23  C   UNL     1      15.084   2.641  14.424  1.00  0.00     0.031 C 
ATOM     24  C   UNL     1      12.956  -0.442  11.053  1.00  0.00     0.029 A 
ATOM     25  N   UNL     1      13.825  -1.373  12.890  1.00  0.00    -0.354 N 
ATOM     26  C   UNL     1      15.823   1.026  15.872  1.00  0.00     0.074 A 
ATOM     27  C   UNL     1      15.756   2.436  15.552  1.00  0.00     0.031 C 
ATOM     28  C   UNL     1      12.692  -1.753  10.997  1.00  0.00     0.029 A 
ATOM     29  C   UNL     1      13.289  -2.403  12.156  1.00  0.00     0.049 A 
ATOM     30  H   UNL     1      14.277  -1.502  13.754  1.00  0.00     0.167 HD
ATOM     31  C   UNL     1      16.411   0.511  16.979  1.00  0.00     0.037 A 
ATOM     32  C   UNL     1      13.303  -3.732  12.366  1.00  0.00     0.037 A 
ATOM     33  C   UNL     1      16.439  -0.891  17.309  1.00  0.00     0.049 A 
ATOM     34  C   UNL     1      13.989  -4.270  13.584  1.00  0.00     0.074 A 
ATOM     35  C   UNL     1      16.957  -1.496  18.443  1.00  0.00     0.029 A 
ATOM     36  N   UNL     1      15.932  -1.905  16.512  1.00  0.00    -0.354 N 
ATOM     37  N   UNL     1      14.576  -3.612  14.553  1.00  0.00    -0.248 NA
ATOM     38  C   UNL     1      14.036  -5.731  13.729  1.00  0.00     0.031 C 
ATOM     39  C   UNL     1      16.807  -2.878  18.310  1.00  0.00     0.029 A 
ATOM     40  C   UNL     1      16.158  -3.133  17.114  1.00  0.00     0.049 A 
ATOM     41  H   UNL     1      15.480  -1.773  15.648  1.00  0.00     0.167 HD
ATOM     42  C   UNL     1      15.069  -4.576  15.419  1.00  0.00     0.074 A 
ATOM     43  C   UNL     1      14.685  -5.864  14.877  1.00  0.00     0.031 C 
ATOM     44  C   UNL     1      15.784  -4.406  16.555  1.00  0.00     0.037 A 
BRANCH  31  45
ATOM     45  C   UNL     1      17.087   1.448  17.937  1.00  0.00     0.057 A 
ATOM     46  C   UNL     1      18.485   1.469  18.038  1.00  0.00     0.134 A 
ATOM     47  C   UNL     1      16.361   2.210  18.859  1.00  0.00     0.134 A 
ATOM     48  F   UNL     1      19.239   0.748  17.195  1.00  0.00    -0.206 F 
ATOM     49  C   UNL     1      19.135   2.196  19.038  1.00  0.00     0.040 A 
ATOM     50  C   UNL     1      17.000   2.955  19.853  1.00  0.00     0.040 A 
ATOM     51  F   UNL     1      15.020   2.232  18.816  1.00  0.00    -0.206 F 
ATOM     52  C   UNL     1      18.391   2.938  19.952  1.00  0.00     0.006 A 
ENDBRANCH  31  45
BRANCH  32  53
ATOM     53  C   UNL     1      12.680  -4.633  11.366  1.00  0.00     0.057 A 
ATOM     54  C   UNL     1      13.227  -4.779  10.084  1.00  0.00     0.134 A 
ATOM     55  C   UNL     1      11.502  -5.329  11.649  1.00  0.00     0.134 A 
ATOM     56  F   UNL     1      14.352  -4.129   9.750  1.00  0.00    -0.206 F 
ATOM     57  C   UNL     1      12.609  -5.562   9.111  1.00  0.00     0.040 A 
ATOM     58  C   UNL     1      10.888  -6.140  10.693  1.00  0.00     0.040 A 
ATOM     59  F   UNL     1      10.941  -5.242  12.864  1.00  0.00    -0.206 F 
ATOM     60  C   UNL     1      11.436  -6.249   9.416  1.00  0.00     0.006 A 
ENDBRANCH  32  53
BRANCH  44  61
ATOM     61  C   UNL     1      16.215  -5.641  17.284  1.00  0.00     0.057 A 
ATOM     62  C   UNL     1      15.607  -6.014  18.488  1.00  0.00     0.134 A 
ATOM     63  C   UNL     1      17.278  -6.425  16.819  1.00  0.00     0.134 A 
ATOM     64  F   UNL     1      14.588  -5.299  18.988  1.00  0.00    -0.206 F 
ATOM     65  C   UNL     1      16.052  -7.119  19.214  1.00  0.00     0.040 A 
ATOM     66  C   UNL     1      17.718  -7.544  17.526  1.00  0.00     0.040 A 
ATOM     67  F   UNL     1      17.890  -6.124  15.664  1.00  0.00    -0.206 F 
ATOM     68  C   UNL     1      17.110  -7.888  18.732  1.00  0.00     0.006 A 
ENDBRANCH  44  61
ENDBRANCH  18  19
ENDBRANCH  11  13
ENDBRANCH   8   9
ENDBRANCH   7   8
ENDBRANCH   6   7
ENDBRANCH   5   6
ENDBRANCH   1   5
BRANCH   2  69
ATOM     69  C   UNL     1       5.882   9.626  12.020  1.00  0.00     0.197 C 
BRANCH  69  70
ATOM     70  N   UNL     1       4.416   9.736  11.890  1.00  0.00    -0.340 N 
ATOM     71  C   UNL     1       3.598   9.927  10.812  1.00  0.00     0.243 C 
ATOM     72  H   UNL     1       3.935   9.656  12.745  1.00  0.00     0.164 HD
ATOM     73  O   UNL     1       2.451  10.314  11.046  1.00  0.00    -0.273 OA
BRANCH  71  74
ATOM     74  C   UNL     1       4.112   9.752   9.356  1.00  0.00     0.175 C 
BRANCH  74  75
ATOM     75  N   UNL     1       4.702   8.412   9.248  1.00  0.00    -0.342 N 
ATOM     76  C   UNL     1       5.789   7.940   8.578  1.00  0.00     0.243 C 
ATOM     77  H   UNL     1       4.219   7.722   9.757  1.00  0.00     0.164 HD
ATOM     78  O   UNL     1       6.045   6.738   8.717  1.00  0.00    -0.273 OA
BRANCH  76  79
ATOM     79  C   UNL     1       6.740   8.857   7.769  1.00  0.00     0.176 C 
BRANCH  79  80
ATOM     80  N   UNL     1       8.045   8.748   8.445  1.00  0.00    -0.340 N 
ATOM     81  C   UNL     1       9.009   9.629   8.855  1.00  0.00     0.251 C 
ATOM     82  H   UNL     1       8.282   7.815   8.651  1.00  0.00     0.164 HD
ATOM     83  O   UNL     1      10.127   9.159   9.081  1.00  0.00    -0.269 OA
BRANCH  81  84
ATOM     84  C   UNL     1       8.776  11.076   9.155  1.00  0.00     0.040 A 
ATOM     85  C   UNL     1       7.515  11.627   9.375  1.00  0.00     0.017 A 
ATOM     86  C   UNL     1       9.889  11.894   9.408  1.00  0.00     0.017 A 
ATOM     87  C   UNL     1       7.339  12.948   9.794  1.00  0.00     0.040 A 
ATOM     88  C   UNL     1       9.728  13.215   9.850  1.00  0.00     0.040 A 
ATOM     89  C   UNL     1       8.453  13.732  10.035  1.00  0.00     0.123 A 
ATOM     90  F   UNL     1       8.293  14.979  10.492  1.00  0.00    -0.207 F 
ENDBRANCH  81  84
ENDBRANCH  79  80
BRANCH  79  91
ATOM     91  C   UNL     1       6.793   8.339   6.306  1.00  0.00     0.070 C 
BRANCH  91  92
ATOM     92  C   UNL     1       8.131   8.161   5.627  1.00  0.00    -0.045 A 
ATOM     93  C   UNL     1       8.408   6.974   4.931  1.00  0.00     0.007 A 
ATOM     94  C   UNL     1       9.088   9.185   5.619  1.00  0.00     0.007 A 
ATOM     95  C   UNL     1       9.637   6.793   4.295  1.00  0.00     0.046 A 
ATOM     96  C   UNL     1      10.329   8.992   5.016  1.00  0.00     0.046 A 
ATOM     97  C   UNL     1      10.596   7.798   4.363  1.00  0.00     0.115 A 
BRANCH  97  98
ATOM     98  O   UNL     1      11.821   7.648   3.785  1.00  0.00    -0.508 OA
ATOM     99  H   UNL     1      12.034   6.854   3.337  1.00  0.00     0.293 HD
ENDBRANCH  97  98
ENDBRANCH  91  92
ENDBRANCH  79  91
ENDBRANCH  76  79
ENDBRANCH  74  75
BRANCH  74 100
ATOM    100  C   UNL     1       2.963  10.009   8.352  1.00  0.00     0.072 C 
BRANCH 100 101
ATOM    101  C   UNL     1       3.283   9.697   6.916  1.00  0.00    -0.020 A 
ATOM    102  C   UNL     1       2.994   8.499   6.289  1.00  0.00     0.087 A 
ATOM    103  C   UNL     1       3.910  10.535   5.931  1.00  0.00     0.003 A 
ATOM    104  N   UNL     1       3.415   8.570   4.991  1.00  0.00    -0.361 N 
ATOM    105  C   UNL     1       4.003   9.789   4.752  1.00  0.00     0.046 A 
ATOM    106  C   UNL     1       4.441  11.842   5.929  1.00  0.00     0.010 A 
ATOM    107  H   UNL     1       3.312   7.853   4.324  1.00  0.00     0.166 HD
ATOM    108  C   UNL     1       4.639  10.260   3.595  1.00  0.00     0.026 A 
ATOM    109  C   UNL     1       5.081  12.329   4.779  1.00  0.00     0.001 A 
ATOM    110  C   UNL     1       5.189  11.542   3.635  1.00  0.00     0.002 A 
ENDBRANCH 100 101
ENDBRANCH  74 100
ENDBRANCH  71  74
ENDBRANCH  69  70
BRANCH  69 111
ATOM    111  C   UNL     1       6.415  10.870  12.765  1.00  0.00     0.191 C 
BRANCH 111 112
ATOM    112  O   UNL     1       7.834  10.970  12.757  1.00  0.00    -0.394 OA
ATOM    113  H   UNL     1       8.215  10.203  13.213  1.00  0.00     0.210 HD
ENDBRANCH 111 112
ENDBRANCH  69 111
ENDBRANCH   2  69
TORSDOF 24
