REMARK SMILES CC1(C)CCC[C@@H]1NC(=O)CC1(C(=O)NCCCCNC(=O)c2ccc(-c3c4nc(c(-c5c(F)cccc5F)c5ccc([nH]5)c(-c5c(F)cccc5F)c5nc(c(-c6c(F)cccc6F)c6ccc3[nH]6)C=C5)C=C4)cc2)CCCCC1
REMARK SMILES IDX 17 1 16 2 15 3 13 4 14 5 12 7 77 8 81 9 78 10 80 11 79 12
REMARK SMILES IDX 11 13 9 14 8 15 10 17 7 18 1 19 2 20 3 21 4 22 5 23 6 24
REMARK SMILES IDX 18 25 19 26 20 27 21 28 22 30 23 31 24 32 76 33 25 34 75 35
REMARK SMILES IDX 26 36 27 37 28 38 69 39 29 40 74 41 68 42 70 43 30 44 73 45
REMARK SMILES IDX 67 46 66 47 31 49 57 50 40 51 56 52 41 53 44 54 55 55 71 56
REMARK SMILES IDX 42 57 43 58 54 60 72 61 45 62 32 63 33 64 38 65 34 66 35 67
REMARK SMILES IDX 37 68 39 69 36 70 58 71 59 72 64 73 60 74 61 75 63 76 65 77
REMARK SMILES IDX 62 78 46 79 47 80 52 81 48 82 49 83 51 84 53 85 50 86
REMARK H PARENT 15 6 8 16 20 29 70 48 44 59
REMARK Flexibility Score: inf
ROOT
ATOM      1  C   UNL     1      -5.326   0.444   0.545  1.00  0.00     0.023 C 
ENDROOT
BRANCH   1   2
ATOM      2  C   UNL     1      -5.261   1.864   1.098  1.00  0.00     0.116 C 
BRANCH   2   3
ATOM      3  N   UNL     1      -4.038   2.086   1.820  1.00  0.00    -0.356 N 
ATOM      4  C   UNL     1      -2.870   2.711   1.582  1.00  0.00     0.226 C 
ATOM      5  O   UNL     1      -2.057   2.475   2.490  1.00  0.00    -0.274 OA
ATOM      6  H   UNL     1      -4.060   1.677   2.715  1.00  0.00     0.163 HD
BRANCH   4   7
ATOM      7  C   UNL     1      -2.502   3.678   0.403  1.00  0.00     0.058 C 
ATOM      8  C   UNL     1      -3.318   4.999   0.548  1.00  0.00     0.017 C 
ATOM      9  C   UNL     1      -2.624   3.217  -1.068  1.00  0.00     0.017 C 
ATOM     10  C   UNL     1      -4.713   5.017  -0.083  1.00  0.00     0.001 C 
ATOM     11  C   UNL     1      -3.986   3.173  -1.724  1.00  0.00     0.001 C 
ATOM     12  C   UNL     1      -4.788   4.443  -1.497  1.00  0.00     0.000 C 
BRANCH   7  13
ATOM     13  C   UNL     1      -0.964   4.023   0.663  1.00  0.00     0.117 C 
BRANCH  13  14
ATOM     14  C   UNL     1       0.062   3.464  -0.309  1.00  0.00     0.221 C 
ATOM     15  N   UNL     1       0.405   2.155  -0.396  1.00  0.00    -0.353 N 
ATOM     16  H   UNL     1       1.022   1.975  -1.142  1.00  0.00     0.163 HD
ATOM     17  O   UNL     1       0.633   4.232  -1.093  1.00  0.00    -0.275 OA
BRANCH  15  18
ATOM     18  C   UNL     1       0.071   0.950   0.361  1.00  0.00     0.087 C 
ATOM     19  C   UNL     1       2.401   0.049   0.952  1.00  0.00     0.013 C 
ATOM     20  C   UNL     1       1.113  -0.194   0.164  1.00  0.00    -0.015 C 
ATOM     21  C   UNL     1       1.474  -0.451  -1.319  1.00  0.00     0.013 C 
ATOM     22  C   UNL     1       0.351  -1.410   0.723  1.00  0.00     0.008 C 
ATOM     23  C   UNL     1      -1.092  -1.220   0.278  1.00  0.00     0.003 C 
ATOM     24  C   UNL     1      -1.222   0.255  -0.087  1.00  0.00     0.025 C 
ENDBRANCH  15  18
ENDBRANCH  13  14
ENDBRANCH   7  13
ENDBRANCH   4   7
ENDBRANCH   2   3
ENDBRANCH   1   2
BRANCH   1  25
ATOM     25  C   UNL     1      -5.952  -0.566   1.505  1.00  0.00     0.023 C 
BRANCH  25  26
ATOM     26  C   UNL     1      -7.362  -0.221   1.970  1.00  0.00     0.116 C 
BRANCH  26  27
ATOM     27  N   UNL     1      -8.276   0.131   0.885  1.00  0.00    -0.352 N 
ATOM     28  C   UNL     1      -9.632  -0.069   0.822  1.00  0.00     0.251 C 
ATOM     29  H   UNL     1      -7.868   0.566   0.102  1.00  0.00     0.163 HD
ATOM     30  O   UNL     1     -10.271   0.213  -0.171  1.00  0.00    -0.269 OA
BRANCH  28  31
ATOM     31  C   UNL     1     -10.289  -0.690   1.991  1.00  0.00     0.039 A 
ATOM     32  C   UNL     1     -10.982  -1.889   1.813  1.00  0.00     0.014 A 
ATOM     33  C   UNL     1     -10.106  -0.143   3.264  1.00  0.00     0.014 A 
ATOM     34  C   UNL     1     -11.425  -2.588   2.933  1.00  0.00     0.010 A 
ATOM     35  C   UNL     1     -10.481  -0.879   4.378  1.00  0.00     0.010 A 
ATOM     36  C   UNL     1     -11.136  -2.112   4.223  1.00  0.00    -0.014 A 
BRANCH  36  37
ATOM     37  C   UNL     1     -11.499  -2.890   5.431  1.00  0.00     0.031 A 
ATOM     38  C   UNL     1     -12.483  -2.323   6.413  1.00  0.00     0.074 A 
ATOM     39  C   UNL     1     -10.880  -4.059   5.683  1.00  0.00     0.049 A 
ATOM     40  N   UNL     1     -12.857  -2.796   7.573  1.00  0.00    -0.248 NA
ATOM     41  C   UNL     1     -13.100  -1.034   6.059  1.00  0.00     0.031 C 
ATOM     42  C   UNL     1      -9.861  -4.681   4.835  1.00  0.00     0.029 A 
ATOM     43  N   UNL     1     -11.009  -4.927   6.737  1.00  0.00    -0.354 N 
ATOM     44  C   UNL     1     -13.730  -1.853   8.097  1.00  0.00     0.074 A 
ATOM     45  C   UNL     1     -13.792  -0.758   7.154  1.00  0.00     0.031 C 
ATOM     46  C   UNL     1      -9.475  -5.842   5.390  1.00  0.00     0.029 A 
ATOM     47  C   UNL     1     -10.194  -6.029   6.646  1.00  0.00     0.049 A 
ATOM     48  H   UNL     1     -11.627  -4.774   7.488  1.00  0.00     0.167 HD
ATOM     49  C   UNL     1     -14.438  -1.906   9.250  1.00  0.00     0.037 A 
ATOM     50  C   UNL     1     -10.045  -7.072   7.485  1.00  0.00     0.037 A 
ATOM     51  C   UNL     1     -14.408  -3.016  10.163  1.00  0.00     0.049 A 
ATOM     52  C   UNL     1     -10.866  -7.123   8.743  1.00  0.00     0.074 A 
ATOM     53  C   UNL     1     -15.142  -3.201  11.321  1.00  0.00     0.029 A 
ATOM     54  N   UNL     1     -13.602  -4.135  10.015  1.00  0.00    -0.354 N 
ATOM     55  N   UNL     1     -11.739  -6.256   9.194  1.00  0.00    -0.248 NA
ATOM     56  C   UNL     1     -10.685  -8.300   9.604  1.00  0.00     0.031 C 
ATOM     57  C   UNL     1     -14.760  -4.421  11.889  1.00  0.00     0.029 A 
ATOM     58  C   UNL     1     -13.813  -5.010  11.067  1.00  0.00     0.049 A 
ATOM     59  H   UNL     1     -12.974  -4.285   9.273  1.00  0.00     0.167 HD
ATOM     60  C   UNL     1     -12.230  -6.792  10.377  1.00  0.00     0.074 A 
ATOM     61  C   UNL     1     -11.565  -8.065  10.568  1.00  0.00     0.031 C 
ATOM     62  C   UNL     1     -13.148  -6.277  11.230  1.00  0.00     0.037 A 
BRANCH  49  63
ATOM     63  C   UNL     1     -15.311  -0.732   9.574  1.00  0.00     0.057 A 
ATOM     64  C   UNL     1     -16.487  -0.469   8.858  1.00  0.00     0.134 A 
ATOM     65  C   UNL     1     -14.982   0.138  10.621  1.00  0.00     0.134 A 
ATOM     66  F   UNL     1     -16.848  -1.256   7.833  1.00  0.00    -0.206 F 
ATOM     67  C   UNL     1     -17.290   0.633   9.154  1.00  0.00     0.040 A 
ATOM     68  C   UNL     1     -15.791   1.229  10.942  1.00  0.00     0.040 A 
ATOM     69  F   UNL     1     -13.871  -0.058  11.347  1.00  0.00    -0.206 F 
ATOM     70  C   UNL     1     -16.945   1.483  10.203  1.00  0.00     0.006 A 
ENDBRANCH  49  63
BRANCH  50  71
ATOM     71  C   UNL     1      -9.107  -8.170   7.147  1.00  0.00     0.057 A 
ATOM     72  C   UNL     1      -9.584  -9.424   6.750  1.00  0.00     0.134 A 
ATOM     73  C   UNL     1      -7.720  -7.998   7.217  1.00  0.00     0.134 A 
ATOM     74  F   UNL     1     -10.903  -9.653   6.681  1.00  0.00    -0.206 F 
ATOM     75  C   UNL     1      -8.716 -10.476   6.452  1.00  0.00     0.040 A 
ATOM     76  C   UNL     1      -6.839  -9.034   6.901  1.00  0.00     0.040 A 
ATOM     77  F   UNL     1      -7.201  -6.816   7.582  1.00  0.00    -0.206 F 
ATOM     78  C   UNL     1      -7.338 -10.280   6.524  1.00  0.00     0.006 A 
ENDBRANCH  50  71
BRANCH  62  79
ATOM     79  C   UNL     1     -13.509  -7.103  12.427  1.00  0.00     0.057 A 
ATOM     80  C   UNL     1     -12.650  -7.221  13.526  1.00  0.00     0.134 A 
ATOM     81  C   UNL     1     -14.750  -7.749  12.497  1.00  0.00     0.134 A 
ATOM     82  F   UNL     1     -11.443  -6.637  13.511  1.00  0.00    -0.206 F 
ATOM     83  C   UNL     1     -13.007  -7.968  14.649  1.00  0.00     0.040 A 
ATOM     84  C   UNL     1     -15.127  -8.480  13.624  1.00  0.00     0.040 A 
ATOM     85  F   UNL     1     -15.619  -7.667  11.479  1.00  0.00    -0.206 F 
ATOM     86  C   UNL     1     -14.252  -8.594  14.703  1.00  0.00     0.006 A 
ENDBRANCH  62  79
ENDBRANCH  36  37
ENDBRANCH  28  31
ENDBRANCH  26  27
ENDBRANCH  25  26
ENDBRANCH   1  25
TORSDOF 14
