REMARK SMILES NS(=O)(=O)c1ccc(-n2nc(C(=O)NCCCCNC(=O)c3ccc(-c4c5nc(c(-c6c(F)cccc6F)c6ccc([nH]6)c(-c6c(F)cccc6F)c6nc(c(-c7c(F)cccc7F)c7ccc4[nH]7)C=C6)C=C5)cc3)cc2-c2ccc(Cl)s2)cc1
REMARK SMILES IDX 16 1 15 2 14 3 12 4 13 5 11 7 9 8 10 9 77 10 76 11 8 12 5 13
REMARK SMILES IDX 6 14 85 15 7 16 84 17 2 18 3 19 4 20 1 21 78 24 79 25 83 26
REMARK SMILES IDX 80 27 81 28 82 29 17 30 18 31 19 32 20 33 21 35 22 36 23 37
REMARK SMILES IDX 75 38 24 39 74 40 25 41 26 42 27 43 68 44 28 45 73 46 67 47
REMARK SMILES IDX 69 48 29 49 72 50 66 51 65 52 30 54 56 55 39 56 55 57 40 58
REMARK SMILES IDX 43 59 54 60 70 61 41 62 42 63 53 65 71 66 44 67 31 68 32 69
REMARK SMILES IDX 37 70 33 71 34 72 36 73 38 74 35 75 57 76 58 77 63 78 59 79
REMARK SMILES IDX 60 80 62 81 64 82 61 83 45 84 46 85 51 86 47 87 48 88 50 89
REMARK SMILES IDX 52 90 49 91
REMARK H PARENT 14 6 1 22 1 23 19 34 69 53 43 64
REMARK Flexibility Score: inf
ROOT
ATOM      1  C   UNL     1       3.611  11.306   4.793  1.00  0.00     0.023 C 
ENDROOT
BRANCH   1   2
ATOM      2  C   UNL     1       2.585  10.359   5.420  1.00  0.00     0.116 C 
BRANCH   2   3
ATOM      3  N   UNL     1       1.335  10.341   4.688  1.00  0.00    -0.351 N 
ATOM      4  C   UNL     1       0.797   9.488   3.748  1.00  0.00     0.271 C 
ATOM      5  O   UNL     1      -0.340   9.781   3.366  1.00  0.00    -0.267 OA
ATOM      6  H   UNL     1       0.746  11.099   4.907  1.00  0.00     0.163 HD
BRANCH   4   7
ATOM      7  C   UNL     1       1.508   8.283   3.258  1.00  0.00     0.151 A 
ATOM      8  N   UNL     1       1.717   6.355   2.305  1.00  0.00    -0.231 N 
ATOM      9  N   UNL     1       0.883   7.415   2.430  1.00  0.00    -0.162 NA
ATOM     10  C   UNL     1       2.932   6.589   2.916  1.00  0.00     0.085 A 
ATOM     11  C   UNL     1       2.831   7.838   3.484  1.00  0.00     0.066 A 
BRANCH   8  12
ATOM     12  C   UNL     1       1.306   5.190   1.610  1.00  0.00     0.065 A 
ATOM     13  C   UNL     1       0.716   2.909   0.130  1.00  0.00     0.082 A 
ATOM     14  C   UNL     1       1.284   2.778   1.400  1.00  0.00     0.024 A 
ATOM     15  C   UNL     1       0.403   4.173  -0.386  1.00  0.00     0.024 A 
ATOM     16  C   UNL     1       1.594   3.922   2.134  1.00  0.00     0.030 A 
ATOM     17  C   UNL     1       0.668   5.318   0.370  1.00  0.00     0.030 A 
BRANCH  13  18
ATOM     18  S   UNL     1       0.431   1.493  -0.891  1.00  0.00     0.238 S 
ATOM     19  O   UNL     1       1.191   1.643  -2.103  1.00  0.00    -0.207 OA
ATOM     20  O   UNL     1      -0.988   1.201  -0.879  1.00  0.00    -0.207 OA
BRANCH  18  21
ATOM     21  N   UNL     1       1.159   0.218  -0.066  1.00  0.00    -0.225 NA
ATOM     22  H   UNL     1       1.037  -0.644  -0.597  1.00  0.00     0.137 HD
ATOM     23  H   UNL     1       0.726   0.116   0.852  1.00  0.00     0.137 HD
ENDBRANCH  18  21
ENDBRANCH  13  18
ENDBRANCH   8  12
BRANCH  10  24
ATOM     24  C   UNL     1       4.101   5.765   2.874  1.00  0.00     0.054 A 
ATOM     25  C   UNL     1       4.768   5.229   3.960  1.00  0.00     0.024 A 
ATOM     26  S   UNL     1       4.911   5.428   1.402  1.00  0.00    -0.122 S 
ATOM     27  C   UNL     1       5.957   4.542   3.573  1.00  0.00     0.033 A 
ATOM     28  C   UNL     1       6.138   4.596   2.215  1.00  0.00     0.094 A 
ATOM     29  Cl  UNL     1       7.451   3.934   1.330  1.00  0.00    -0.072 Cl
ENDBRANCH  10  24
ENDBRANCH   4   7
ENDBRANCH   2   3
ENDBRANCH   1   2
BRANCH   1  30
ATOM     30  C   UNL     1       3.370  12.801   5.069  1.00  0.00     0.023 C 
BRANCH  30  31
ATOM     31  C   UNL     1       3.390  13.205   6.542  1.00  0.00     0.116 C 
BRANCH  31  32
ATOM     32  N   UNL     1       4.658  12.909   7.205  1.00  0.00    -0.352 N 
ATOM     33  C   UNL     1       4.953  12.983   8.554  1.00  0.00     0.251 C 
ATOM     34  H   UNL     1       5.394  12.621   6.618  1.00  0.00     0.163 HD
ATOM     35  O   UNL     1       6.108  13.143   8.931  1.00  0.00    -0.269 OA
BRANCH  33  36
ATOM     36  C   UNL     1       3.865  12.847   9.541  1.00  0.00     0.039 A 
ATOM     37  C   UNL     1       3.849  13.600  10.717  1.00  0.00     0.014 A 
ATOM     38  C   UNL     1       2.844  11.936   9.275  1.00  0.00     0.014 A 
ATOM     39  C   UNL     1       2.757  13.481  11.575  1.00  0.00     0.010 A 
ATOM     40  C   UNL     1       1.704  11.924  10.041  1.00  0.00     0.010 A 
ATOM     41  C   UNL     1       1.671  12.658  11.217  1.00  0.00    -0.014 A 
BRANCH  41  42
ATOM     42  C   UNL     1       0.415  12.718  11.963  1.00  0.00     0.031 A 
ATOM     43  C   UNL     1      -0.093  14.108  12.094  1.00  0.00     0.074 A 
ATOM     44  C   UNL     1      -0.321  11.642  12.324  1.00  0.00     0.049 A 
ATOM     45  N   UNL     1      -0.072  14.836  13.159  1.00  0.00    -0.248 NA
ATOM     46  C   UNL     1      -0.467  14.850  10.876  1.00  0.00     0.031 C 
ATOM     47  C   UNL     1      -0.072  10.233  12.003  1.00  0.00     0.029 A 
ATOM     48  N   UNL     1      -1.510  11.580  12.995  1.00  0.00    -0.354 N 
ATOM     49  C   UNL     1      -0.697  16.026  12.808  1.00  0.00     0.074 A 
ATOM     50  C   UNL     1      -0.687  16.071  11.371  1.00  0.00     0.031 C 
ATOM     51  C   UNL     1      -1.175   9.498  12.274  1.00  0.00     0.029 A 
ATOM     52  C   UNL     1      -2.155  10.342  12.932  1.00  0.00     0.049 A 
ATOM     53  H   UNL     1      -1.883  12.349  13.485  1.00  0.00     0.167 HD
ATOM     54  C   UNL     1      -1.465  16.676  13.726  1.00  0.00     0.037 A 
ATOM     55  C   UNL     1      -3.402  10.035  13.383  1.00  0.00     0.037 A 
ATOM     56  C   UNL     1      -1.161  16.207  15.062  1.00  0.00     0.049 A 
ATOM     57  C   UNL     1      -3.779  11.072  14.370  1.00  0.00     0.074 A 
ATOM     58  C   UNL     1      -0.018  16.103  15.834  1.00  0.00     0.029 A 
ATOM     59  N   UNL     1      -2.079  15.372  15.647  1.00  0.00    -0.354 N 
ATOM     60  N   UNL     1      -3.227  11.186  15.543  1.00  0.00    -0.248 NA
ATOM     61  C   UNL     1      -4.450  12.261  13.873  1.00  0.00     0.031 C 
ATOM     62  C   UNL     1      -0.160  14.875  16.548  1.00  0.00     0.029 A 
ATOM     63  C   UNL     1      -1.414  14.342  16.251  1.00  0.00     0.049 A 
ATOM     64  H   UNL     1      -3.056  15.494  15.634  1.00  0.00     0.167 HD
ATOM     65  C   UNL     1      -3.046  12.550  15.700  1.00  0.00     0.074 A 
ATOM     66  C   UNL     1      -3.914  13.166  14.696  1.00  0.00     0.031 C 
ATOM     67  C   UNL     1      -1.984  13.026  16.415  1.00  0.00     0.037 A 
BRANCH  54  68
ATOM     68  C   UNL     1      -2.803  17.318  13.400  1.00  0.00     0.057 A 
ATOM     69  C   UNL     1      -3.507  17.952  14.442  1.00  0.00     0.134 A 
ATOM     70  C   UNL     1      -3.569  17.054  12.245  1.00  0.00     0.134 A 
ATOM     71  F   UNL     1      -2.895  18.264  15.595  1.00  0.00    -0.206 F 
ATOM     72  C   UNL     1      -4.887  18.182  14.388  1.00  0.00     0.040 A 
ATOM     73  C   UNL     1      -4.937  17.326  12.163  1.00  0.00     0.040 A 
ATOM     74  F   UNL     1      -3.080  16.431  11.169  1.00  0.00    -0.206 F 
ATOM     75  C   UNL     1      -5.610  17.853  13.251  1.00  0.00     0.006 A 
ENDBRANCH  54  68
BRANCH  55  76
ATOM     76  C   UNL     1      -4.409   9.064  12.883  1.00  0.00     0.057 A 
ATOM     77  C   UNL     1      -5.555   8.751  13.637  1.00  0.00     0.134 A 
ATOM     78  C   UNL     1      -4.439   8.665  11.537  1.00  0.00     0.134 A 
ATOM     79  F   UNL     1      -5.646   9.115  14.925  1.00  0.00    -0.206 F 
ATOM     80  C   UNL     1      -6.677   8.124  13.077  1.00  0.00     0.040 A 
ATOM     81  C   UNL     1      -5.552   8.034  10.966  1.00  0.00     0.040 A 
ATOM     82  F   UNL     1      -3.429   8.960  10.707  1.00  0.00    -0.206 F 
ATOM     83  C   UNL     1      -6.684   7.779  11.730  1.00  0.00     0.006 A 
ENDBRANCH  55  76
BRANCH  67  84
ATOM     84  C   UNL     1      -1.238  12.056  17.292  1.00  0.00     0.057 A 
ATOM     85  C   UNL     1      -0.565  10.911  16.839  1.00  0.00     0.134 A 
ATOM     86  C   UNL     1      -1.121  12.359  18.653  1.00  0.00     0.134 A 
ATOM     87  F   UNL     1      -0.533  10.586  15.540  1.00  0.00    -0.206 F 
ATOM     88  C   UNL     1       0.143  10.079  17.714  1.00  0.00     0.040 A 
ATOM     89  C   UNL     1      -0.386  11.559  19.529  1.00  0.00     0.040 A 
ATOM     90  F   UNL     1      -1.695  13.466  19.151  1.00  0.00    -0.206 F 
ATOM     91  C   UNL     1       0.236  10.405  19.064  1.00  0.00     0.006 A 
ENDBRANCH  67  84
ENDBRANCH  41  42
ENDBRANCH  33  36
ENDBRANCH  31  32
ENDBRANCH  30  31
ENDBRANCH   1  30
TORSDOF 15
