REMARK SMILES C[C@@H](C(=O)NCCCCNC(=O)c1ccc(-c2c3nc(c(-c4c(F)cccc4F)c4ccc([nH]4)c(-c4c(F)cccc4F)c4nc(c(-c5c(F)cccc5F)c5ccc2[nH]5)C=C4)C=C3)cc1)c1ccc2c3cc(Cl)ccc3n(C(=O)c3ccc(Cl)cc3)c2c1
REMARK SMILES IDX 7 1 6 2 5 3 3 4 4 5 2 7 1 8 67 9 68 10 89 11 69 12 88 13
REMARK SMILES IDX 70 14 78 15 71 16 77 17 72 18 76 19 73 20 75 21 74 22 79 23
REMARK SMILES IDX 80 24 81 25 82 26 87 27 83 28 86 29 84 30 85 31 8 32 9 33
REMARK SMILES IDX 10 34 11 35 12 37 13 38 14 39 66 40 15 41 65 42 16 43 17 44
REMARK SMILES IDX 18 45 59 46 19 47 64 48 58 49 60 50 20 51 63 52 57 53 56 54
REMARK SMILES IDX 21 56 47 57 30 58 46 59 31 60 34 61 45 62 61 63 32 64 33 65
REMARK SMILES IDX 44 67 62 68 35 69 22 70 23 71 28 72 24 73 25 74 27 75 29 76
REMARK SMILES IDX 26 77 48 78 49 79 54 80 50 81 51 82 53 83 55 84 52 85 36 86
REMARK SMILES IDX 37 87 42 88 38 89 39 90 41 91 43 92 40 93
REMARK H PARENT 5 6 10 36 60 55 34 66
REMARK Flexibility Score: inf
ROOT
ATOM      1  C   UNL     1       4.221  -0.860   1.042  1.00  0.00     0.023 C 
ENDROOT
BRANCH   1   2
ATOM      2  C   UNL     1       3.414  -1.907   0.267  1.00  0.00     0.116 C 
BRANCH   2   3
ATOM      3  N   UNL     1       2.320  -2.389   1.080  1.00  0.00    -0.356 N 
ATOM      4  C   UNL     1       1.043  -1.904   1.165  1.00  0.00     0.227 C 
ATOM      5  O   UNL     1       0.402  -2.212   2.171  1.00  0.00    -0.274 OA
ATOM      6  H   UNL     1       2.520  -3.169   1.647  1.00  0.00     0.163 HD
BRANCH   4   7
ATOM      7  C   UNL     1       0.476  -1.047   0.012  1.00  0.00     0.105 C 
ATOM      8  C   UNL     1       1.035   0.379   0.097  1.00  0.00     0.023 C 
BRANCH   7   9
ATOM      9  C   UNL     1      -1.056  -1.086  -0.075  1.00  0.00    -0.034 A 
ATOM     10  C   UNL     1      -1.819   0.060  -0.311  1.00  0.00     0.005 A 
ATOM     11  C   UNL     1      -1.724  -2.321   0.045  1.00  0.00     0.032 A 
ATOM     12  C   UNL     1      -3.205  -0.004  -0.449  1.00  0.00     0.011 A 
ATOM     13  C   UNL     1      -3.136  -2.369   0.030  1.00  0.00     0.057 A 
ATOM     14  C   UNL     1      -3.869  -1.230  -0.273  1.00  0.00     0.008 A 
ATOM     15  N   UNL     1      -4.038  -3.425   0.283  1.00  0.00    -0.276 N 
ATOM     16  C   UNL     1      -5.236  -1.592  -0.300  1.00  0.00     0.009 A 
ATOM     17  C   UNL     1      -5.342  -2.907   0.174  1.00  0.00     0.057 A 
ATOM     18  C   UNL     1      -6.392  -0.844  -0.607  1.00  0.00     0.031 A 
ATOM     19  C   UNL     1      -6.611  -3.418   0.513  1.00  0.00     0.029 A 
ATOM     20  C   UNL     1      -7.641  -1.386  -0.342  1.00  0.00     0.041 A 
ATOM     21  C   UNL     1      -7.751  -2.640   0.243  1.00  0.00     0.023 A 
ATOM     22  Cl  UNL     1      -9.051  -0.463  -0.693  1.00  0.00    -0.084 Cl
BRANCH  15  23
ATOM     23  C   UNL     1      -3.614  -4.734   0.655  1.00  0.00     0.262 C 
ATOM     24  O   UNL     1      -2.465  -4.826   1.096  1.00  0.00    -0.268 OA
BRANCH  23  25
ATOM     25  C   UNL     1      -4.319  -6.043   0.555  1.00  0.00     0.040 A 
ATOM     26  C   UNL     1      -3.770  -7.112   1.298  1.00  0.00     0.015 A 
ATOM     27  C   UNL     1      -5.351  -6.321  -0.344  1.00  0.00     0.015 A 
ATOM     28  C   UNL     1      -4.231  -8.421   1.147  1.00  0.00     0.021 A 
ATOM     29  C   UNL     1      -5.839  -7.633  -0.471  1.00  0.00     0.021 A 
ATOM     30  C   UNL     1      -5.269  -8.676   0.262  1.00  0.00     0.041 A 
ATOM     31  Cl  UNL     1      -5.822 -10.289   0.044  1.00  0.00    -0.084 Cl
ENDBRANCH  23  25
ENDBRANCH  15  23
ENDBRANCH   7   9
ENDBRANCH   4   7
ENDBRANCH   2   3
ENDBRANCH   1   2
BRANCH   1  32
ATOM     32  C   UNL     1       5.005  -1.418   2.230  1.00  0.00     0.023 C 
BRANCH  32  33
ATOM     33  C   UNL     1       5.992  -2.518   1.876  1.00  0.00     0.116 C 
BRANCH  33  34
ATOM     34  N   UNL     1       6.937  -2.109   0.850  1.00  0.00    -0.352 N 
ATOM     35  C   UNL     1       8.288  -2.330   0.773  1.00  0.00     0.251 C 
ATOM     36  H   UNL     1       6.551  -1.599   0.102  1.00  0.00     0.163 HD
ATOM     37  O   UNL     1       8.950  -1.770  -0.091  1.00  0.00    -0.269 OA
BRANCH  35  38
ATOM     38  C   UNL     1       8.945  -3.220   1.753  1.00  0.00     0.039 A 
ATOM     39  C   UNL     1      10.179  -2.831   2.277  1.00  0.00     0.014 A 
ATOM     40  C   UNL     1       8.361  -4.426   2.152  1.00  0.00     0.014 A 
ATOM     41  C   UNL     1      10.801  -3.629   3.236  1.00  0.00     0.010 A 
ATOM     42  C   UNL     1       8.939  -5.175   3.172  1.00  0.00     0.010 A 
ATOM     43  C   UNL     1      10.171  -4.790   3.717  1.00  0.00    -0.014 A 
BRANCH  43  44
ATOM     44  C   UNL     1      10.803  -5.590   4.795  1.00  0.00     0.031 A 
ATOM     45  C   UNL     1      11.248  -7.003   4.544  1.00  0.00     0.074 A 
ATOM     46  C   UNL     1      10.968  -5.034   6.012  1.00  0.00     0.049 A 
ATOM     47  N   UNL     1      11.866  -7.828   5.352  1.00  0.00    -0.248 NA
ATOM     48  C   UNL     1      10.941  -7.577   3.224  1.00  0.00     0.031 C 
ATOM     49  C   UNL     1      10.512  -3.697   6.399  1.00  0.00     0.029 A 
ATOM     50  N   UNL     1      11.570  -5.520   7.144  1.00  0.00    -0.354 N 
ATOM     51  C   UNL     1      12.029  -9.007   4.637  1.00  0.00     0.074 A 
ATOM     52  C   UNL     1      11.381  -8.819   3.358  1.00  0.00     0.031 C 
ATOM     53  C   UNL     1      10.887  -3.454   7.664  1.00  0.00     0.029 A 
ATOM     54  C   UNL     1      11.579  -4.627   8.188  1.00  0.00     0.049 A 
ATOM     55  H   UNL     1      11.960  -6.422   7.203  1.00  0.00     0.167 HD
ATOM     56  C   UNL     1      12.690 -10.133   4.999  1.00  0.00     0.037 A 
ATOM     57  C   UNL     1      12.092  -4.739   9.427  1.00  0.00     0.037 A 
ATOM     58  C   UNL     1      13.335 -10.317   6.273  1.00  0.00     0.049 A 
ATOM     59  C   UNL     1      12.822  -5.998   9.803  1.00  0.00     0.074 A 
ATOM     60  C   UNL     1      14.058 -11.408   6.725  1.00  0.00     0.029 A 
ATOM     61  N   UNL     1      13.331  -9.387   7.302  1.00  0.00    -0.354 N 
ATOM     62  N   UNL     1      13.036  -7.076   9.087  1.00  0.00    -0.248 NA
ATOM     63  C   UNL     1      13.395  -6.050  11.154  1.00  0.00     0.031 C 
ATOM     64  C   UNL     1      14.453 -11.156   8.044  1.00  0.00     0.029 A 
ATOM     65  C   UNL     1      14.025  -9.886   8.394  1.00  0.00     0.049 A 
ATOM     66  H   UNL     1      12.900  -8.503   7.263  1.00  0.00     0.167 HD
ATOM     67  C   UNL     1      13.785  -7.924   9.892  1.00  0.00     0.074 A 
ATOM     68  C   UNL     1      14.014  -7.221  11.137  1.00  0.00     0.031 C 
ATOM     69  C   UNL     1      14.237  -9.175   9.630  1.00  0.00     0.037 A 
BRANCH  56  70
ATOM     70  C   UNL     1      12.761 -11.247   3.993  1.00  0.00     0.057 A 
ATOM     71  C   UNL     1      13.520 -11.131   2.820  1.00  0.00     0.134 A 
ATOM     72  C   UNL     1      12.100 -12.462   4.214  1.00  0.00     0.134 A 
ATOM     73  F   UNL     1      14.168  -9.990   2.539  1.00  0.00    -0.206 F 
ATOM     74  C   UNL     1      13.600 -12.172   1.893  1.00  0.00     0.040 A 
ATOM     75  C   UNL     1      12.196 -13.521   3.309  1.00  0.00     0.040 A 
ATOM     76  F   UNL     1      11.360 -12.645   5.318  1.00  0.00    -0.206 F 
ATOM     77  C   UNL     1      12.943 -13.375   2.141  1.00  0.00     0.006 A 
ENDBRANCH  56  70
BRANCH  57  78
ATOM     78  C   UNL     1      11.953  -3.621  10.395  1.00  0.00     0.057 A 
ATOM     79  C   UNL     1      13.063  -2.884  10.823  1.00  0.00     0.134 A 
ATOM     80  C   UNL     1      10.706  -3.275  10.929  1.00  0.00     0.134 A 
ATOM     81  F   UNL     1      14.287  -3.176  10.360  1.00  0.00    -0.206 F 
ATOM     82  C   UNL     1      12.944  -1.864  11.769  1.00  0.00     0.040 A 
ATOM     83  C   UNL     1      10.567  -2.237  11.852  1.00  0.00     0.040 A 
ATOM     84  F   UNL     1       9.600  -3.934  10.552  1.00  0.00    -0.206 F 
ATOM     85  C   UNL     1      11.691  -1.536  12.283  1.00  0.00     0.006 A 
ENDBRANCH  57  78
BRANCH  69  86
ATOM     86  C   UNL     1      15.043  -9.845  10.706  1.00  0.00     0.057 A 
ATOM     87  C   UNL     1      14.466 -10.263  11.913  1.00  0.00     0.134 A 
ATOM     88  C   UNL     1      16.414 -10.075  10.533  1.00  0.00     0.134 A 
ATOM     89  F   UNL     1      13.160 -10.062  12.148  1.00  0.00    -0.206 F 
ATOM     90  C   UNL     1      15.231 -10.845  12.925  1.00  0.00     0.040 A 
ATOM     91  C   UNL     1      17.183 -10.687  11.524  1.00  0.00     0.040 A 
ATOM     92  F   UNL     1      17.029  -9.713   9.397  1.00  0.00    -0.206 F 
ATOM     93  C   UNL     1      16.594 -11.061  12.730  1.00  0.00     0.006 A 
ENDBRANCH  69  86
ENDBRANCH  43  44
ENDBRANCH  35  38
ENDBRANCH  33  34
ENDBRANCH  32  33
ENDBRANCH   1  32
TORSDOF 14
