REMARK SMILES CS(=O)(=O)CCSCc1cc(F)cc(/C=C/C(=O)NCCCCNC(=O)c2ccc(-c3c4nc(c(-c5c(F)cccc5F)c5ccc([nH]5)c(-c5c(F)cccc5F)c5nc(c(-c6c(F)cccc6F)c6ccc3[nH]6)C=C5)C=C4)cc2)c1
REMARK SMILES IDX 17 1 18 2 19 3 16 5 15 6 14 7 9 8 10 9 81 10 11 11 12 12
REMARK SMILES IDX 13 13 8 14 7 15 6 16 5 17 2 18 1 19 3 20 4 21 20 22 21 23
REMARK SMILES IDX 22 24 23 25 24 26 25 27 26 29 27 30 28 31 80 32 29 33 79 34
REMARK SMILES IDX 30 35 31 36 32 37 73 38 33 39 78 40 72 41 74 42 34 43 77 44
REMARK SMILES IDX 71 45 70 46 35 48 61 49 44 50 60 51 45 52 48 53 59 54 75 55
REMARK SMILES IDX 46 56 47 57 58 59 76 60 49 61 36 62 37 63 42 64 38 65 39 66
REMARK SMILES IDX 41 67 43 68 40 69 62 70 63 71 68 72 64 73 65 74 67 75 69 76
REMARK SMILES IDX 66 77 50 78 51 79 56 80 52 81 53 82 55 83 57 84 54 85
REMARK H PARENT 19 4 24 28 74 47 48 58
REMARK Flexibility Score: inf
ROOT
ATOM      1  C   UNL     1      -6.084   4.717   1.187  1.00  0.00     0.243 C 
ATOM      2  O   UNL     1      -7.306   4.726   1.073  1.00  0.00    -0.270 OA
ATOM      3  N   UNL     1      -5.391   5.891   1.178  1.00  0.00    -0.353 N 
ATOM      4  H   UNL     1      -5.939   6.692   1.015  1.00  0.00     0.163 HD
ENDROOT
BRANCH   1   5
ATOM      5  C   UNL     1      -5.377   3.444   1.439  1.00  0.00     0.072 C 
ATOM      6  C   UNL     1      -4.268   3.098   0.775  1.00  0.00     0.014 C 
BRANCH   6   7
ATOM      7  C   UNL     1      -3.468   1.918   1.095  1.00  0.00    -0.022 A 
ATOM      8  C   UNL     1      -1.230   1.024   1.510  1.00  0.00    -0.035 A 
ATOM      9  C   UNL     1      -1.788  -0.265   1.518  1.00  0.00     0.043 A 
ATOM     10  C   UNL     1      -2.100   2.110   1.351  1.00  0.00     0.013 A 
ATOM     11  C   UNL     1      -3.153  -0.448   1.312  1.00  0.00     0.124 A 
ATOM     12  F   UNL     1      -3.655  -1.690   1.313  1.00  0.00    -0.207 F 
ATOM     13  C   UNL     1      -3.997   0.630   1.086  1.00  0.00     0.047 A 
BRANCH   8  14
ATOM     14  C   UNL     1       0.256   1.169   1.708  1.00  0.00     0.105 C 
BRANCH  14  15
ATOM     15  S   UNL     1       1.105   2.627   1.015  1.00  0.00    -0.156 SA
BRANCH  15  16
ATOM     16  C   UNL     1       0.504   2.704  -0.715  1.00  0.00     0.086 C 
BRANCH  16  17
ATOM     17  C   UNL     1       1.348   1.975  -1.746  1.00  0.00     0.147 C 
BRANCH  17  18
ATOM     18  S   UNL     1       0.919   0.263  -1.982  1.00  0.00     0.148 S 
ATOM     19  C   UNL     1       2.053  -0.628  -0.940  1.00  0.00     0.158 C 
ATOM     20  O   UNL     1       1.245  -0.079  -3.355  1.00  0.00    -0.229 OA
ATOM     21  O   UNL     1      -0.421   0.046  -1.480  1.00  0.00    -0.229 OA
ENDBRANCH  17  18
ENDBRANCH  16  17
ENDBRANCH  15  16
ENDBRANCH  14  15
ENDBRANCH   8  14
ENDBRANCH   6   7
ENDBRANCH   1   5
BRANCH   3  22
ATOM     22  C   UNL     1      -3.974   6.154   1.371  1.00  0.00     0.116 C 
BRANCH  22  23
ATOM     23  C   UNL     1      -3.322   6.612   0.066  1.00  0.00     0.023 C 
BRANCH  23  24
ATOM     24  C   UNL     1      -3.683   8.044  -0.338  1.00  0.00     0.023 C 
BRANCH  24  25
ATOM     25  C   UNL     1      -3.272   9.112   0.668  1.00  0.00     0.116 C 
BRANCH  25  26
ATOM     26  N   UNL     1      -1.838   9.144   0.916  1.00  0.00    -0.352 N 
ATOM     27  C   UNL     1      -1.041  10.240   1.147  1.00  0.00     0.251 C 
ATOM     28  H   UNL     1      -1.382   8.272   0.919  1.00  0.00     0.163 HD
ATOM     29  O   UNL     1       0.178  10.124   1.214  1.00  0.00    -0.269 OA
BRANCH  27  30
ATOM     30  C   UNL     1      -1.673  11.568   1.273  1.00  0.00     0.039 A 
ATOM     31  C   UNL     1      -1.182  12.625   0.504  1.00  0.00     0.014 A 
ATOM     32  C   UNL     1      -2.781  11.749   2.104  1.00  0.00     0.014 A 
ATOM     33  C   UNL     1      -1.851  13.850   0.516  1.00  0.00     0.010 A 
ATOM     34  C   UNL     1      -3.490  12.943   2.054  1.00  0.00     0.010 A 
ATOM     35  C   UNL     1      -3.034  14.005   1.259  1.00  0.00    -0.014 A 
BRANCH  35  36
ATOM     36  C   UNL     1      -3.813  15.267   1.210  1.00  0.00     0.031 A 
ATOM     37  C   UNL     1      -3.997  16.090   2.453  1.00  0.00     0.074 A 
ATOM     38  C   UNL     1      -4.407  15.638   0.059  1.00  0.00     0.049 A 
ATOM     39  N   UNL     1      -4.691  17.186   2.621  1.00  0.00    -0.248 NA
ATOM     40  C   UNL     1      -3.337  15.604   3.675  1.00  0.00     0.031 C 
ATOM     41  C   UNL     1      -4.340  14.899  -1.203  1.00  0.00     0.029 A 
ATOM     42  N   UNL     1      -5.188  16.727  -0.236  1.00  0.00    -0.354 N 
ATOM     43  C   UNL     1      -4.558  17.514   3.963  1.00  0.00     0.074 A 
ATOM     44  C   UNL     1      -3.769  16.471   4.579  1.00  0.00     0.031 C 
ATOM     45  C   UNL     1      -5.021  15.572  -2.143  1.00  0.00     0.029 A 
ATOM     46  C   UNL     1      -5.609  16.767  -1.543  1.00  0.00     0.049 A 
ATOM     47  H   UNL     1      -5.424  17.416   0.427  1.00  0.00     0.167 HD
ATOM     48  C   UNL     1      -5.028  18.603   4.616  1.00  0.00     0.037 A 
ATOM     49  C   UNL     1      -6.383  17.661  -2.187  1.00  0.00     0.037 A 
ATOM     50  C   UNL     1      -5.793  19.650   3.993  1.00  0.00     0.049 A 
ATOM     51  C   UNL     1      -6.910  18.852  -1.437  1.00  0.00     0.074 A 
ATOM     52  C   UNL     1      -6.264  20.821   4.558  1.00  0.00     0.029 A 
ATOM     53  N   UNL     1      -6.201  19.651   2.667  1.00  0.00    -0.354 N 
ATOM     54  N   UNL     1      -6.726  19.182  -0.181  1.00  0.00    -0.248 NA
ATOM     55  C   UNL     1      -7.748  19.796  -2.189  1.00  0.00     0.031 C 
ATOM     56  C   UNL     1      -7.004  21.505   3.591  1.00  0.00     0.029 A 
ATOM     57  C   UNL     1      -6.943  20.791   2.404  1.00  0.00     0.049 A 
ATOM     58  H   UNL     1      -5.994  18.947   2.011  1.00  0.00     0.167 HD
ATOM     59  C   UNL     1      -7.403  20.380   0.002  1.00  0.00     0.074 A 
ATOM     60  C   UNL     1      -7.993  20.726  -1.275  1.00  0.00     0.031 C 
ATOM     61  C   UNL     1      -7.523  21.125   1.128  1.00  0.00     0.037 A 
BRANCH  48  62
ATOM     62  C   UNL     1      -4.718  18.727   6.080  1.00  0.00     0.057 A 
ATOM     63  C   UNL     1      -5.737  18.651   7.037  1.00  0.00     0.134 A 
ATOM     64  C   UNL     1      -3.419  18.981   6.540  1.00  0.00     0.134 A 
ATOM     65  F   UNL     1      -7.005  18.415   6.666  1.00  0.00    -0.206 F 
ATOM     66  C   UNL     1      -5.478  18.834   8.397  1.00  0.00     0.040 A 
ATOM     67  C   UNL     1      -3.142  19.136   7.900  1.00  0.00     0.040 A 
ATOM     68  F   UNL     1      -2.393  19.054   5.678  1.00  0.00    -0.206 F 
ATOM     69  C   UNL     1      -4.176  19.073   8.831  1.00  0.00     0.006 A 
ENDBRANCH  48  62
BRANCH  49  70
ATOM     70  C   UNL     1      -6.671  17.474  -3.632  1.00  0.00     0.057 A 
ATOM     71  C   UNL     1      -7.489  16.433  -4.089  1.00  0.00     0.134 A 
ATOM     72  C   UNL     1      -6.094  18.310  -4.594  1.00  0.00     0.134 A 
ATOM     73  F   UNL     1      -8.065  15.592  -3.218  1.00  0.00    -0.206 F 
ATOM     74  C   UNL     1      -7.706  16.218  -5.451  1.00  0.00     0.040 A 
ATOM     75  C   UNL     1      -6.321  18.121  -5.958  1.00  0.00     0.040 A 
ATOM     76  F   UNL     1      -5.314  19.334  -4.218  1.00  0.00    -0.206 F 
ATOM     77  C   UNL     1      -7.122  17.066  -6.390  1.00  0.00     0.006 A 
ENDBRANCH  49  70
BRANCH  61  78
ATOM     78  C   UNL     1      -8.303  22.405   1.040  1.00  0.00     0.057 A 
ATOM     79  C   UNL     1      -7.657  23.643   1.160  1.00  0.00     0.134 A 
ATOM     80  C   UNL     1      -9.699  22.412   0.933  1.00  0.00     0.134 A 
ATOM     81  F   UNL     1      -6.322  23.706   1.278  1.00  0.00    -0.206 F 
ATOM     82  C   UNL     1      -8.373  24.840   1.196  1.00  0.00     0.040 A 
ATOM     83  C   UNL     1     -10.424  23.604   0.940  1.00  0.00     0.040 A 
ATOM     84  F   UNL     1     -10.377  21.261   0.806  1.00  0.00    -0.206 F 
ATOM     85  C   UNL     1      -9.762  24.822   1.085  1.00  0.00     0.006 A 
ENDBRANCH  61  78
ENDBRANCH  35  36
ENDBRANCH  27  30
ENDBRANCH  25  26
ENDBRANCH  24  25
ENDBRANCH  23  24
ENDBRANCH  22  23
ENDBRANCH   3  22
TORSDOF 17
