REMARK SMILES CC(C)Oc1ccc(-c2ccc(/C(=C\c3ccc(S(C)(=O)=O)cc3)C(=O)NCCCCNC(=O)c3ccc(-c4c5nc(c(-c6c(F)cccc6F)c6ccc([nH]6)c(-c6c(F)cccc6F)c6nc(c(-c7c(F)cccc7F)c7ccc4[nH]7)C=C6)C=C5)cc3)cc2)cc1
REMARK SMILES IDX 28 1 27 2 25 3 26 4 13 6 14 7 12 8 9 9 10 10 90 11 11 12
REMARK SMILES IDX 89 13 8 14 5 15 6 16 92 17 7 18 91 19 4 20 2 21 1 22 3 23
REMARK SMILES IDX 15 24 16 25 24 26 17 27 23 28 18 29 19 30 20 31 21 32 22 33
REMARK SMILES IDX 29 34 30 35 31 36 32 37 33 38 34 40 35 41 36 42 88 43 37 44
REMARK SMILES IDX 87 45 38 46 39 47 40 48 81 49 41 50 86 51 80 52 82 53 42 54
REMARK SMILES IDX 85 55 79 56 78 57 43 59 69 60 52 61 68 62 53 63 56 64 67 65
REMARK SMILES IDX 83 66 54 67 55 68 66 70 84 71 57 72 44 73 45 74 50 75 46 76
REMARK SMILES IDX 47 77 49 78 51 79 48 80 70 81 71 82 76 83 72 84 73 85 75 86
REMARK SMILES IDX 77 87 74 88 58 89 59 90 64 91 60 92 61 93 63 94 65 95 62 96
REMARK H PARENT 27 5 32 39 82 58 56 69
REMARK Flexibility Score: inf
ROOT
ATOM      1  C   UNL     1      -7.056   8.291  -7.134  1.00  0.00     0.116 C 
ENDROOT
BRANCH   1   2
ATOM      2  N   UNL     1      -6.875   6.854  -7.127  1.00  0.00    -0.352 N 
ATOM      3  C   UNL     1      -6.207   5.977  -6.330  1.00  0.00     0.251 C 
ATOM      4  O   UNL     1      -6.290   4.803  -6.699  1.00  0.00    -0.269 OA
ATOM      5  H   UNL     1      -7.343   6.410  -7.871  1.00  0.00     0.163 HD
BRANCH   3   6
ATOM      6  C   UNL     1      -5.476   6.364  -5.047  1.00  0.00     0.047 C 
ATOM      7  C   UNL     1      -4.958   7.612  -4.942  1.00  0.00     0.022 C 
BRANCH   6   8
ATOM      8  C   UNL     1      -5.171   5.304  -4.014  1.00  0.00    -0.013 A 
ATOM      9  C   UNL     1      -4.022   3.422  -2.161  1.00  0.00    -0.018 A 
ATOM     10  C   UNL     1      -4.503   4.669  -1.743  1.00  0.00     0.009 A 
ATOM     11  C   UNL     1      -4.267   3.083  -3.497  1.00  0.00     0.009 A 
ATOM     12  C   UNL     1      -5.114   5.564  -2.639  1.00  0.00     0.009 A 
ATOM     13  C   UNL     1      -4.793   4.012  -4.405  1.00  0.00     0.009 A 
BRANCH   9  14
ATOM     14  C   UNL     1      -3.227   2.542  -1.270  1.00  0.00    -0.018 A 
ATOM     15  C   UNL     1      -1.571   0.972   0.413  1.00  0.00     0.119 A 
ATOM     16  C   UNL     1      -2.581   1.758   0.957  1.00  0.00     0.047 A 
ATOM     17  C   UNL     1      -1.417   0.912  -0.964  1.00  0.00     0.047 A 
ATOM     18  C   UNL     1      -3.399   2.535   0.125  1.00  0.00     0.012 A 
ATOM     19  C   UNL     1      -2.220   1.705  -1.790  1.00  0.00     0.012 A 
BRANCH  15  20
ATOM     20  O   UNL     1      -0.838   0.203   1.268  1.00  0.00    -0.491 OA
BRANCH  20  21
ATOM     21  C   UNL     1       0.571   0.478   1.367  1.00  0.00     0.167 C 
ATOM     22  C   UNL     1       1.384  -0.183   0.256  1.00  0.00     0.052 C 
ATOM     23  C   UNL     1       0.922   1.955   1.546  1.00  0.00     0.052 C 
ENDBRANCH  20  21
ENDBRANCH  15  20
ENDBRANCH   9  14
ENDBRANCH   6   8
BRANCH   7  24
ATOM     24  C   UNL     1      -4.395   8.285  -3.763  1.00  0.00    -0.025 A 
ATOM     25  C   UNL     1      -5.253   9.118  -3.022  1.00  0.00     0.009 A 
ATOM     26  C   UNL     1      -3.096   8.046  -3.310  1.00  0.00     0.009 A 
ATOM     27  C   UNL     1      -4.845   9.639  -1.795  1.00  0.00     0.021 A 
ATOM     28  C   UNL     1      -2.680   8.570  -2.081  1.00  0.00     0.021 A 
ATOM     29  C   UNL     1      -3.564   9.347  -1.323  1.00  0.00     0.067 A 
BRANCH  29  30
ATOM     30  S   UNL     1      -3.125   9.849   0.325  1.00  0.00     0.175 S 
ATOM     31  C   UNL     1      -2.835  11.590   0.183  1.00  0.00     0.163 C 
ATOM     32  O   UNL     1      -4.298   9.650   1.153  1.00  0.00    -0.224 OA
ATOM     33  O   UNL     1      -1.863   9.213   0.659  1.00  0.00    -0.224 OA
ENDBRANCH  29  30
ENDBRANCH   7  24
ENDBRANCH   3   6
ENDBRANCH   1   2
BRANCH   1  34
ATOM     34  C   UNL     1      -6.047   8.952  -8.080  1.00  0.00     0.023 C 
BRANCH  34  35
ATOM     35  C   UNL     1      -6.358   8.759  -9.567  1.00  0.00     0.023 C 
BRANCH  35  36
ATOM     36  C   UNL     1      -7.702   9.315 -10.015  1.00  0.00     0.116 C 
BRANCH  36  37
ATOM     37  N   UNL     1      -7.868  10.729  -9.712  1.00  0.00    -0.352 N 
ATOM     38  C   UNL     1      -8.554  11.674 -10.437  1.00  0.00     0.251 C 
ATOM     39  H   UNL     1      -7.437  11.048  -8.887  1.00  0.00     0.163 HD
ATOM     40  O   UNL     1      -8.527  12.856 -10.120  1.00  0.00    -0.269 OA
BRANCH  38  41
ATOM     41  C   UNL     1      -9.294  11.234 -11.635  1.00  0.00     0.039 A 
ATOM     42  C   UNL     1      -9.020  11.841 -12.862  1.00  0.00     0.014 A 
ATOM     43  C   UNL     1     -10.190  10.166 -11.547  1.00  0.00     0.014 A 
ATOM     44  C   UNL     1      -9.595  11.325 -14.023  1.00  0.00     0.010 A 
ATOM     45  C   UNL     1     -10.704   9.611 -12.710  1.00  0.00     0.010 A 
ATOM     46  C   UNL     1     -10.408  10.182 -13.959  1.00  0.00    -0.014 A 
BRANCH  46  47
ATOM     47  C   UNL     1     -10.976   9.557 -15.177  1.00  0.00     0.031 A 
ATOM     48  C   UNL     1     -12.466   9.508 -15.355  1.00  0.00     0.074 A 
ATOM     49  C   UNL     1     -10.163   8.951 -16.064  1.00  0.00     0.049 A 
ATOM     50  N   UNL     1     -13.172   8.877 -16.258  1.00  0.00    -0.248 NA
ATOM     51  C   UNL     1     -13.271  10.239 -14.363  1.00  0.00     0.031 C 
ATOM     52  C   UNL     1      -8.702   8.904 -15.983  1.00  0.00     0.029 A 
ATOM     53  N   UNL     1     -10.456   8.237 -17.199  1.00  0.00    -0.354 N 
ATOM     54  C   UNL     1     -14.500   9.115 -15.929  1.00  0.00     0.074 A 
ATOM     55  C   UNL     1     -14.503   9.906 -14.717  1.00  0.00     0.031 C 
ATOM     56  C   UNL     1      -8.226   8.208 -17.028  1.00  0.00     0.029 A 
ATOM     57  C   UNL     1      -9.347   7.721 -17.826  1.00  0.00     0.049 A 
ATOM     58  H   UNL     1     -11.373   8.106 -17.532  1.00  0.00     0.167 HD
ATOM     59  C   UNL     1     -15.615   8.726 -16.589  1.00  0.00     0.037 A 
ATOM     60  C   UNL     1      -9.249   6.928 -18.910  1.00  0.00     0.037 A 
ATOM     61  C   UNL     1     -15.603   7.963 -17.808  1.00  0.00     0.049 A 
ATOM     62  C   UNL     1     -10.505   6.492 -19.616  1.00  0.00     0.074 A 
ATOM     63  C   UNL     1     -16.676   7.565 -18.585  1.00  0.00     0.029 A 
ATOM     64  N   UNL     1     -14.459   7.484 -18.427  1.00  0.00    -0.354 N 
ATOM     65  N   UNL     1     -11.753   6.769 -19.327  1.00  0.00    -0.248 NA
ATOM     66  C   UNL     1     -10.339   5.634 -20.798  1.00  0.00     0.031 C 
ATOM     67  C   UNL     1     -16.184   6.806 -19.651  1.00  0.00     0.029 A 
ATOM     68  C   UNL     1     -14.801   6.776 -19.566  1.00  0.00     0.049 A 
ATOM     69  H   UNL     1     -13.540   7.625 -18.103  1.00  0.00     0.167 HD
ATOM     70  C   UNL     1     -12.518   6.153 -20.309  1.00  0.00     0.074 A 
ATOM     71  C   UNL     1     -11.593   5.488 -21.203  1.00  0.00     0.031 C 
ATOM     72  C   UNL     1     -13.864   6.143 -20.459  1.00  0.00     0.037 A 
BRANCH  59  73
ATOM     73  C   UNL     1     -16.939   9.121 -16.003  1.00  0.00     0.057 A 
ATOM     74  C   UNL     1     -17.377  10.452 -15.996  1.00  0.00     0.134 A 
ATOM     75  C   UNL     1     -17.798   8.155 -15.464  1.00  0.00     0.134 A 
ATOM     76  F   UNL     1     -16.597  11.427 -16.485  1.00  0.00    -0.206 F 
ATOM     77  C   UNL     1     -18.609  10.812 -15.447  1.00  0.00     0.040 A 
ATOM     78  C   UNL     1     -19.045   8.499 -14.939  1.00  0.00     0.040 A 
ATOM     79  F   UNL     1     -17.443   6.862 -15.444  1.00  0.00    -0.206 F 
ATOM     80  C   UNL     1     -19.450   9.832 -14.923  1.00  0.00     0.006 A 
ENDBRANCH  59  73
BRANCH  60  81
ATOM     81  C   UNL     1      -7.915   6.505 -19.405  1.00  0.00     0.057 A 
ATOM     82  C   UNL     1      -7.406   6.998 -20.613  1.00  0.00     0.134 A 
ATOM     83  C   UNL     1      -7.121   5.597 -18.695  1.00  0.00     0.134 A 
ATOM     84  F   UNL     1      -8.128   7.857 -21.348  1.00  0.00    -0.206 F 
ATOM     85  C   UNL     1      -6.165   6.590 -21.105  1.00  0.00     0.040 A 
ATOM     86  C   UNL     1      -5.867   5.200 -19.163  1.00  0.00     0.040 A 
ATOM     87  F   UNL     1      -7.547   5.094 -17.527  1.00  0.00    -0.206 F 
ATOM     88  C   UNL     1      -5.389   5.691 -20.376  1.00  0.00     0.006 A 
ENDBRANCH  60  81
BRANCH  72  89
ATOM     89  C   UNL     1     -14.425   5.442 -21.660  1.00  0.00     0.057 A 
ATOM     90  C   UNL     1     -14.476   4.047 -21.749  1.00  0.00     0.134 A 
ATOM     91  C   UNL     1     -14.997   6.181 -22.705  1.00  0.00     0.134 A 
ATOM     92  F   UNL     1     -13.935   3.284 -20.787  1.00  0.00    -0.206 F 
ATOM     93  C   UNL     1     -15.069   3.409 -22.840  1.00  0.00     0.040 A 
ATOM     94  C   UNL     1     -15.615   5.555 -23.788  1.00  0.00     0.040 A 
ATOM     95  F   UNL     1     -14.989   7.522 -22.675  1.00  0.00    -0.206 F 
ATOM     96  C   UNL     1     -15.650   4.164 -23.857  1.00  0.00     0.006 A 
ENDBRANCH  72  89
ENDBRANCH  46  47
ENDBRANCH  38  41
ENDBRANCH  36  37
ENDBRANCH  35  36
ENDBRANCH  34  35
ENDBRANCH   1  34
TORSDOF 17
