REMARK SMILES C[C@H](C(=O)NCCCCNC(=O)c1ccc(-c2c3nc(c(-c4c(F)cccc4F)c4ccc([nH]4)c(-c4c(F)cccc4F)c4nc(c(-c5c(F)cccc5F)c5ccc2[nH]5)C=C4)C=C3)cc1)n1ccc(C(=O)N(C)Cc2cnn(C)c2)n1
REMARK SMILES IDX 6 1 5 2 3 3 4 4 2 6 1 7 67 8 68 9 82 10 69 11 70 12 71 13
REMARK SMILES IDX 72 14 73 15 74 16 75 17 76 18 77 19 81 20 78 21 79 22 80 23
REMARK SMILES IDX 7 24 8 25 9 26 10 27 11 28 12 30 13 31 14 32 66 33 15 34
REMARK SMILES IDX 65 35 16 36 17 37 18 38 59 39 19 40 64 41 58 42 60 43 20 44
REMARK SMILES IDX 63 45 57 46 56 47 21 49 47 50 30 51 46 52 31 53 34 54 45 55
REMARK SMILES IDX 61 56 32 57 33 58 44 60 62 61 35 62 22 63 23 64 28 65 24 66
REMARK SMILES IDX 25 67 27 68 29 69 26 70 48 71 49 72 54 73 50 74 51 75 53 76
REMARK SMILES IDX 55 77 52 78 36 79 37 80 42 81 38 82 39 83 41 84 43 85 40 86
REMARK H PARENT 5 5 10 29 60 48 34 59
REMARK Flexibility Score: inf
ROOT
ATOM      1  C   UNL     1      -0.966   0.092   1.482  1.00  0.00     0.116 C 
ENDROOT
BRANCH   1   2
ATOM      2  N   UNL     1       0.326  -0.377   1.013  1.00  0.00    -0.354 N 
ATOM      3  C   UNL     1       0.925  -0.301  -0.208  1.00  0.00     0.244 C 
ATOM      4  O   UNL     1       1.981  -0.941  -0.309  1.00  0.00    -0.273 OA
ATOM      5  H   UNL     1       0.865  -0.830   1.701  1.00  0.00     0.163 HD
BRANCH   3   6
ATOM      6  C   UNL     1       0.455   0.606  -1.352  1.00  0.00     0.193 C 
ATOM      7  C   UNL     1       1.175   0.237  -2.655  1.00  0.00     0.044 C 
BRANCH   6   8
ATOM      8  N   UNL     1      -0.988   0.640  -1.571  1.00  0.00    -0.260 N 
ATOM      9  C   UNL     1      -1.792  -0.360  -2.030  1.00  0.00     0.110 A 
ATOM     10  N   UNL     1      -1.660   1.787  -1.325  1.00  0.00    -0.167 NA
ATOM     11  C   UNL     1      -3.075   0.116  -1.914  1.00  0.00     0.056 A 
ATOM     12  C   UNL     1      -2.958   1.458  -1.444  1.00  0.00     0.150 A 
BRANCH  12  13
ATOM     13  C   UNL     1      -4.105   2.305  -1.053  1.00  0.00     0.274 C 
ATOM     14  O   UNL     1      -5.145   1.742  -0.695  1.00  0.00    -0.267 OA
BRANCH  13  15
ATOM     15  N   UNL     1      -4.054   3.705  -1.137  1.00  0.00    -0.336 N 
ATOM     16  C   UNL     1      -2.890   4.510  -1.476  1.00  0.00     0.147 C 
BRANCH  15  17
ATOM     17  C   UNL     1      -5.324   4.418  -1.025  1.00  0.00     0.158 C 
BRANCH  17  18
ATOM     18  C   UNL     1      -6.047   4.432  -2.333  1.00  0.00     0.009 A 
ATOM     19  C   UNL     1      -6.496   3.320  -3.089  1.00  0.00     0.140 A 
ATOM     20  C   UNL     1      -6.505   5.519  -3.056  1.00  0.00     0.113 A 
ATOM     21  N   UNL     1      -7.160   3.673  -4.191  1.00  0.00    -0.181 NA
ATOM     22  N   UNL     1      -7.178   5.013  -4.131  1.00  0.00    -0.275 N 
ATOM     23  C   UNL     1      -7.916   5.745  -5.131  1.00  0.00     0.173 C 
ENDBRANCH  17  18
ENDBRANCH  15  17
ENDBRANCH  13  15
ENDBRANCH  12  13
ENDBRANCH   6   8
ENDBRANCH   3   6
ENDBRANCH   1   2
BRANCH   1  24
ATOM     24  C   UNL     1      -2.034  -0.990   1.304  1.00  0.00     0.023 C 
BRANCH  24  25
ATOM     25  C   UNL     1      -2.011  -2.087   2.369  1.00  0.00     0.023 C 
BRANCH  25  26
ATOM     26  C   UNL     1      -2.361  -1.621   3.775  1.00  0.00     0.116 C 
BRANCH  26  27
ATOM     27  N   UNL     1      -3.693  -1.042   3.883  1.00  0.00    -0.352 N 
ATOM     28  C   UNL     1      -4.582  -1.144   4.927  1.00  0.00     0.251 C 
ATOM     29  H   UNL     1      -3.995  -0.511   3.111  1.00  0.00     0.163 HD
ATOM     30  O   UNL     1      -5.708  -0.664   4.850  1.00  0.00    -0.269 OA
BRANCH  28  31
ATOM     31  C   UNL     1      -4.177  -1.891   6.134  1.00  0.00     0.039 A 
ATOM     32  C   UNL     1      -4.979  -2.947   6.572  1.00  0.00     0.014 A 
ATOM     33  C   UNL     1      -2.967  -1.603   6.770  1.00  0.00     0.014 A 
ATOM     34  C   UNL     1      -4.520  -3.780   7.593  1.00  0.00     0.010 A 
ATOM     35  C   UNL     1      -2.484  -2.469   7.743  1.00  0.00     0.010 A 
ATOM     36  C   UNL     1      -3.247  -3.577   8.148  1.00  0.00    -0.014 A 
BRANCH  36  37
ATOM     37  C   UNL     1      -2.659  -4.535   9.116  1.00  0.00     0.031 A 
ATOM     38  C   UNL     1      -2.343  -4.090  10.514  1.00  0.00     0.074 A 
ATOM     39  C   UNL     1      -2.300  -5.764   8.695  1.00  0.00     0.049 A 
ATOM     40  N   UNL     1      -1.690  -4.724  11.453  1.00  0.00    -0.248 NA
ATOM     41  C   UNL     1      -2.793  -2.742  10.896  1.00  0.00     0.031 C 
ATOM     42  C   UNL     1      -2.502  -6.292   7.344  1.00  0.00     0.029 A 
ATOM     43  N   UNL     1      -1.659  -6.783   9.356  1.00  0.00    -0.354 N 
ATOM     44  C   UNL     1      -1.621  -3.843  12.523  1.00  0.00     0.074 A 
ATOM     45  C   UNL     1      -2.276  -2.621  12.111  1.00  0.00     0.031 C 
ATOM     46  C   UNL     1      -1.993  -7.533   7.275  1.00  0.00     0.029 A 
ATOM     47  C   UNL     1      -1.397  -7.874   8.562  1.00  0.00     0.049 A 
ATOM     48  H   UNL     1      -1.411  -6.736  10.307  1.00  0.00     0.167 HD
ATOM     49  C   UNL     1      -1.073  -4.044  13.744  1.00  0.00     0.037 A 
ATOM     50  C   UNL     1      -0.729  -9.011   8.834  1.00  0.00     0.037 A 
ATOM     51  C   UNL     1      -0.470  -5.279  14.168  1.00  0.00     0.049 A 
ATOM     52  C   UNL     1      -0.145  -9.212  10.204  1.00  0.00     0.074 A 
ATOM     53  C   UNL     1       0.004  -5.618  15.423  1.00  0.00     0.029 A 
ATOM     54  N   UNL     1      -0.256  -6.375  13.348  1.00  0.00    -0.354 N 
ATOM     55  N   UNL     1      -0.167  -8.404  11.236  1.00  0.00    -0.248 NA
ATOM     56  C   UNL     1       0.561 -10.479  10.446  1.00  0.00     0.031 C 
ATOM     57  C   UNL     1       0.541  -6.907  15.352  1.00  0.00     0.029 A 
ATOM     58  C   UNL     1       0.372  -7.381  14.062  1.00  0.00     0.049 A 
ATOM     59  H   UNL     1      -0.513  -6.430  12.399  1.00  0.00     0.167 HD
ATOM     60  C   UNL     1       0.506  -9.069  12.252  1.00  0.00     0.074 A 
ATOM     61  C   UNL     1       0.911 -10.353  11.719  1.00  0.00     0.031 C 
ATOM     62  C   UNL     1       0.767  -8.652  13.514  1.00  0.00     0.037 A 
BRANCH  49  63
ATOM     63  C   UNL     1      -1.103  -2.905  14.717  1.00  0.00     0.057 A 
ATOM     64  C   UNL     1      -2.280  -2.524  15.370  1.00  0.00     0.134 A 
ATOM     65  C   UNL     1       0.074  -2.221  15.046  1.00  0.00     0.134 A 
ATOM     66  F   UNL     1      -3.442  -3.135  15.090  1.00  0.00    -0.206 F 
ATOM     67  C   UNL     1      -2.290  -1.491  16.309  1.00  0.00     0.040 A 
ATOM     68  C   UNL     1       0.080  -1.200  15.997  1.00  0.00     0.040 A 
ATOM     69  F   UNL     1       1.236  -2.541  14.457  1.00  0.00    -0.206 F 
ATOM     70  C   UNL     1      -1.105  -0.831  16.630  1.00  0.00     0.006 A 
ENDBRANCH  49  63
BRANCH  50  71
ATOM     71  C   UNL     1      -0.564 -10.047   7.786  1.00  0.00     0.057 A 
ATOM     72  C   UNL     1      -1.255 -11.261   7.857  1.00  0.00     0.134 A 
ATOM     73  C   UNL     1       0.301  -9.858   6.702  1.00  0.00     0.134 A 
ATOM     74  F   UNL     1      -2.081 -11.508   8.884  1.00  0.00    -0.206 F 
ATOM     75  C   UNL     1      -1.078 -12.260   6.897  1.00  0.00     0.040 A 
ATOM     76  C   UNL     1       0.472 -10.838   5.723  1.00  0.00     0.040 A 
ATOM     77  F   UNL     1       0.989  -8.713   6.575  1.00  0.00    -0.206 F 
ATOM     78  C   UNL     1      -0.214 -12.047   5.824  1.00  0.00     0.006 A 
ENDBRANCH  50  71
BRANCH  62  79
ATOM     79  C   UNL     1       1.513  -9.595  14.407  1.00  0.00     0.057 A 
ATOM     80  C   UNL     1       2.892  -9.792  14.273  1.00  0.00     0.134 A 
ATOM     81  C   UNL     1       0.856 -10.272  15.441  1.00  0.00     0.134 A 
ATOM     82  F   UNL     1       3.573  -9.182  13.291  1.00  0.00    -0.206 F 
ATOM     83  C   UNL     1       3.592 -10.640  15.132  1.00  0.00     0.040 A 
ATOM     84  C   UNL     1       1.548 -11.107  16.319  1.00  0.00     0.040 A 
ATOM     85  F   UNL     1      -0.464 -10.120  15.625  1.00  0.00    -0.206 F 
ATOM     86  C   UNL     1       2.920 -11.294  16.164  1.00  0.00     0.006 A 
ENDBRANCH  62  79
ENDBRANCH  36  37
ENDBRANCH  28  31
ENDBRANCH  26  27
ENDBRANCH  25  26
ENDBRANCH  24  25
ENDBRANCH   1  24
TORSDOF 16
