REMARK SMILES COc1ccc(-c2cc(=O)oc3cc(OCC(=O)N[C@@H](C)C(=O)NCCCCNC(=O)c4ccc(-c5c6nc(c(-c7c(F)cccc7F)c7ccc([nH]7)c(-c7c(F)cccc7F)c7nc(c(-c8c(F)cccc8F)c8ccc5[nH]8)C=C7)C=C6)cc4)ccc23)cc1
REMARK SMILES IDX 22 1 23 2 24 3 20 5 21 6 19 7 17 8 18 9 16 11 15 12 14 13
REMARK SMILES IDX 7 14 8 15 88 16 9 17 12 18 87 19 10 20 11 21 13 22 86 23
REMARK SMILES IDX 6 24 3 25 4 26 90 27 5 28 89 29 2 30 1 31 25 32 26 33 27 34
REMARK SMILES IDX 28 35 29 36 30 37 31 39 32 40 33 41 85 42 34 43 84 44 35 45
REMARK SMILES IDX 36 46 37 47 78 48 38 49 83 50 77 51 79 52 39 53 82 54 76 55
REMARK SMILES IDX 75 56 40 58 66 59 49 60 65 61 50 62 53 63 64 64 80 65 51 66
REMARK SMILES IDX 52 67 63 69 81 70 54 71 41 72 42 73 47 74 43 75 44 76 46 77
REMARK SMILES IDX 48 78 45 79 67 80 68 81 73 82 69 83 70 84 72 85 74 86 71 87
REMARK SMILES IDX 55 88 56 89 61 90 57 91 58 92 60 93 62 94 59 95
REMARK H PARENT 24 4 19 10 29 38 79 57 53 68
REMARK Flexibility Score: inf
ROOT
ATOM      1  C   UNL     1       8.329  -3.608   2.790  1.00  0.00     0.242 C 
ATOM      2  O   UNL     1       7.690  -3.875   3.810  1.00  0.00    -0.273 OA
ATOM      3  N   UNL     1       9.620  -4.055   2.708  1.00  0.00    -0.354 N 
ATOM      4  H   UNL     1       9.973  -4.446   3.540  1.00  0.00     0.163 HD
ENDROOT
BRANCH   1   5
ATOM      5  C   UNL     1       7.664  -2.896   1.600  1.00  0.00     0.168 C 
ATOM      6  C   UNL     1       7.379  -3.927   0.505  1.00  0.00     0.041 C 
BRANCH   5   7
ATOM      7  N   UNL     1       8.512  -1.766   1.201  1.00  0.00    -0.342 N 
ATOM      8  C   UNL     1       8.162  -0.529   0.742  1.00  0.00     0.258 C 
ATOM      9  O   UNL     1       9.038   0.332   0.648  1.00  0.00    -0.271 OA
ATOM     10  H   UNL     1       9.481  -1.925   1.275  1.00  0.00     0.164 HD
BRANCH   8  11
ATOM     11  C   UNL     1       6.724  -0.245   0.363  1.00  0.00     0.329 C 
BRANCH  11  12
ATOM     12  O   UNL     1       6.440  -1.242  -0.602  1.00  0.00    -0.484 OA
BRANCH  12  13
ATOM     13  C   UNL     1       5.995  -0.880  -1.831  1.00  0.00     0.123 A 
ATOM     14  C   UNL     1       3.280  -1.519  -4.687  1.00  0.00    -0.000 A 
ATOM     15  C   UNL     1       3.449  -2.455  -5.631  1.00  0.00     0.103 A 
ATOM     16  C   UNL     1       4.497  -0.898  -4.119  1.00  0.00     0.026 A 
ATOM     17  C   UNL     1       4.813  -2.904  -5.995  1.00  0.00     0.336 A 
ATOM     18  C   UNL     1       5.567  -1.771  -4.012  1.00  0.00     0.142 A 
ATOM     19  C   UNL     1       4.372   0.181  -3.235  1.00  0.00     0.016 A 
ATOM     20  O   UNL     1       5.027  -3.519  -7.026  1.00  0.00    -0.246 OA
ATOM     21  O   UNL     1       5.777  -2.747  -4.996  1.00  0.00    -0.423 OA
ATOM     22  C   UNL     1       6.306  -1.794  -2.846  1.00  0.00     0.094 A 
ATOM     23  C   UNL     1       5.115   0.174  -2.059  1.00  0.00     0.047 A 
BRANCH  14  24
ATOM     24  C   UNL     1       2.056  -1.586  -3.847  1.00  0.00    -0.017 A 
ATOM     25  C   UNL     1       0.203  -1.226  -1.809  1.00  0.00     0.118 A 
ATOM     26  C   UNL     1      -0.041  -0.693  -3.078  1.00  0.00     0.047 A 
ATOM     27  C   UNL     1       1.296  -2.049  -1.578  1.00  0.00     0.047 A 
ATOM     28  C   UNL     1       0.897  -0.860  -4.105  1.00  0.00     0.012 A 
ATOM     29  C   UNL     1       2.215  -2.233  -2.599  1.00  0.00     0.012 A 
BRANCH  25  30
ATOM     30  O   UNL     1      -0.641  -0.915  -0.777  1.00  0.00    -0.497 OA
ATOM     31  C   UNL     1      -0.024   0.069   0.062  1.00  0.00     0.278 C 
ENDBRANCH  25  30
ENDBRANCH  14  24
ENDBRANCH  12  13
ENDBRANCH  11  12
ENDBRANCH   8  11
ENDBRANCH   5   7
ENDBRANCH   1   5
BRANCH   3  32
ATOM     32  C   UNL     1      10.558  -4.050   1.595  1.00  0.00     0.116 C 
BRANCH  32  33
ATOM     33  C   UNL     1      11.766  -3.156   1.866  1.00  0.00     0.023 C 
BRANCH  33  34
ATOM     34  C   UNL     1      12.652  -3.614   3.023  1.00  0.00     0.023 C 
BRANCH  34  35
ATOM     35  C   UNL     1      13.114  -5.064   2.952  1.00  0.00     0.116 C 
BRANCH  35  36
ATOM     36  N   UNL     1      13.788  -5.389   1.706  1.00  0.00    -0.352 N 
ATOM     37  C   UNL     1      14.891  -6.178   1.498  1.00  0.00     0.251 C 
ATOM     38  H   UNL     1      13.397  -4.987   0.896  1.00  0.00     0.163 HD
ATOM     39  O   UNL     1      15.386  -6.258   0.378  1.00  0.00    -0.269 OA
BRANCH  37  40
ATOM     40  C   UNL     1      15.507  -6.898   2.631  1.00  0.00     0.039 A 
ATOM     41  C   UNL     1      16.895  -6.845   2.776  1.00  0.00     0.014 A 
ATOM     42  C   UNL     1      14.730  -7.613   3.548  1.00  0.00     0.014 A 
ATOM     43  C   UNL     1      17.500  -7.459   3.873  1.00  0.00     0.010 A 
ATOM     44  C   UNL     1      15.327  -8.169   4.677  1.00  0.00     0.010 A 
ATOM     45  C   UNL     1      16.717  -8.099   4.848  1.00  0.00    -0.014 A 
BRANCH  45  46
ATOM     46  C   UNL     1      17.350  -8.688   6.053  1.00  0.00     0.031 A 
ATOM     47  C   UNL     1      17.333 -10.174   6.275  1.00  0.00     0.074 A 
ATOM     48  C   UNL     1      17.901  -7.873   6.973  1.00  0.00     0.049 A 
ATOM     49  N   UNL     1      17.844 -10.865   7.262  1.00  0.00    -0.248 NA
ATOM     50  C   UNL     1      16.627 -10.989   5.274  1.00  0.00     0.031 C 
ATOM     51  C   UNL     1      17.912  -6.410   6.911  1.00  0.00     0.029 A 
ATOM     52  N   UNL     1      18.555  -8.161   8.144  1.00  0.00    -0.354 N 
ATOM     53  C   UNL     1      17.507 -12.189   7.011  1.00  0.00     0.074 A 
ATOM     54  C   UNL     1      16.711 -12.201   5.803  1.00  0.00     0.031 C 
ATOM     55  C   UNL     1      18.563  -5.930   7.983  1.00  0.00     0.029 A 
ATOM     56  C   UNL     1      19.000  -7.047   8.814  1.00  0.00     0.049 A 
ATOM     57  H   UNL     1      18.692  -9.079   8.473  1.00  0.00     0.167 HD
ATOM     58  C   UNL     1      17.848 -13.295   7.712  1.00  0.00     0.037 A 
ATOM     59  C   UNL     1      19.692  -6.941   9.963  1.00  0.00     0.037 A 
ATOM     60  C   UNL     1      18.677 -13.287   8.889  1.00  0.00     0.049 A 
ATOM     61  C   UNL     1      20.111  -8.189  10.687  1.00  0.00     0.074 A 
ATOM     62  C   UNL     1      19.157 -14.364   9.613  1.00  0.00     0.029 A 
ATOM     63  N   UNL     1      19.150 -12.142   9.511  1.00  0.00    -0.354 N 
ATOM     64  N   UNL     1      19.871  -9.441  10.382  1.00  0.00    -0.248 NA
ATOM     65  C   UNL     1      20.912  -8.009  11.906  1.00  0.00     0.031 C 
ATOM     66  C   UNL     1      19.895 -13.869  10.695  1.00  0.00     0.029 A 
ATOM     67  C   UNL     1      19.902 -12.486  10.622  1.00  0.00     0.049 A 
ATOM     68  H   UNL     1      18.977 -11.222   9.209  1.00  0.00     0.167 HD
ATOM     69  C   UNL     1      20.507 -10.197  11.357  1.00  0.00     0.074 A 
ATOM     70  C   UNL     1      21.160  -9.264  12.252  1.00  0.00     0.031 C 
ATOM     71  C   UNL     1      20.546 -11.544  11.500  1.00  0.00     0.037 A 
BRANCH  58  72
ATOM     72  C   UNL     1      17.336 -14.615   7.218  1.00  0.00     0.057 A 
ATOM     73  C   UNL     1      17.853 -15.221   6.066  1.00  0.00     0.134 A 
ATOM     74  C   UNL     1      16.346 -15.307   7.925  1.00  0.00     0.134 A 
ATOM     75  F   UNL     1      18.794 -14.603   5.336  1.00  0.00    -0.206 F 
ATOM     76  C   UNL     1      17.389 -16.461   5.624  1.00  0.00     0.040 A 
ATOM     77  C   UNL     1      15.890 -16.558   7.506  1.00  0.00     0.040 A 
ATOM     78  F   UNL     1      15.812 -14.783   9.039  1.00  0.00    -0.206 F 
ATOM     79  C   UNL     1      16.410 -17.137   6.349  1.00  0.00     0.006 A 
ENDBRANCH  58  72
BRANCH  59  80
ATOM     80  C   UNL     1      20.070  -5.604  10.482  1.00  0.00     0.057 A 
ATOM     81  C   UNL     1      21.396  -5.160  10.431  1.00  0.00     0.134 A 
ATOM     82  C   UNL     1      19.122  -4.748  11.052  1.00  0.00     0.134 A 
ATOM     83  F   UNL     1      22.351  -5.945   9.911  1.00  0.00    -0.206 F 
ATOM     84  C   UNL     1      21.771  -3.920  10.949  1.00  0.00     0.040 A 
ATOM     85  C   UNL     1      19.479  -3.497  11.555  1.00  0.00     0.040 A 
ATOM     86  F   UNL     1      17.834  -5.115  11.122  1.00  0.00    -0.206 F 
ATOM     87  C   UNL     1      20.810  -3.083  11.511  1.00  0.00     0.006 A 
ENDBRANCH  59  80
BRANCH  71  88
ATOM     88  C   UNL     1      21.337 -12.082  12.654  1.00  0.00     0.057 A 
ATOM     89  C   UNL     1      20.870 -11.992  13.971  1.00  0.00     0.134 A 
ATOM     90  C   UNL     1      22.569 -12.712  12.444  1.00  0.00     0.134 A 
ATOM     91  F   UNL     1      19.702 -11.387  14.238  1.00  0.00    -0.206 F 
ATOM     92  C   UNL     1      21.614 -12.487  15.043  1.00  0.00     0.040 A 
ATOM     93  C   UNL     1      23.312 -13.232  13.504  1.00  0.00     0.040 A 
ATOM     94  F   UNL     1      23.068 -12.837  11.205  1.00  0.00    -0.206 F 
ATOM     95  C   UNL     1      22.837 -13.114  14.809  1.00  0.00     0.006 A 
ENDBRANCH  71  88
ENDBRANCH  45  46
ENDBRANCH  37  40
ENDBRANCH  35  36
ENDBRANCH  34  35
ENDBRANCH  33  34
ENDBRANCH  32  33
ENDBRANCH   3  32
TORSDOF 17
