REMARK SMILES Cc1ccc2nc(Cl)c([C@@H]3CC(c4cccs4)=NN3C(=O)CCCC(=O)NCCCCNC(=O)c3ccc(-c4c5nc(c(-c6c(F)cccc6F)c6ccc([nH]6)c(-c6c(F)cccc6F)c6nc(c(-c7c(F)cccc7F)c7ccc4[nH]7)C=C6)C=C5)cc3)cc2c1
REMARK SMILES IDX 28 1 27 2 25 3 26 4 24 6 23 7 22 8 20 9 21 10 19 11 10 12
REMARK SMILES IDX 11 13 12 14 18 15 9 16 1 17 2 18 3 19 91 20 4 21 90 22 5 23
REMARK SMILES IDX 89 24 6 25 7 26 8 27 13 28 14 29 17 30 15 31 16 32 29 33
REMARK SMILES IDX 30 34 31 35 32 36 33 37 34 39 35 40 36 41 88 42 37 43 87 44
REMARK SMILES IDX 38 45 39 46 40 47 81 48 41 49 86 50 80 51 82 52 42 53 85 54
REMARK SMILES IDX 79 55 78 56 43 58 69 59 52 60 68 61 53 62 56 63 67 64 83 65
REMARK SMILES IDX 54 66 55 67 66 69 84 70 57 71 44 72 45 73 50 74 46 75 47 76
REMARK SMILES IDX 49 77 51 78 48 79 70 80 71 81 76 82 72 83 73 84 75 85 77 86
REMARK SMILES IDX 74 87 58 88 59 89 64 90 60 91 61 92 63 93 65 94 62 95
REMARK H PARENT 27 5 32 38 82 57 56 68
REMARK Flexibility Score: inf
ROOT
ATOM      1  C   UNL     1      -4.469   0.988  -2.493  1.00  0.00     0.116 C 
ENDROOT
BRANCH   1   2
ATOM      2  N   UNL     1      -3.582  -0.123  -2.782  1.00  0.00    -0.356 N 
ATOM      3  C   UNL     1      -2.285  -0.380  -2.496  1.00  0.00     0.220 C 
ATOM      4  O   UNL     1      -1.972  -1.575  -2.423  1.00  0.00    -0.275 OA
ATOM      5  H   UNL     1      -4.016  -0.843  -3.294  1.00  0.00     0.163 HD
BRANCH   3   6
ATOM      6  C   UNL     1      -1.237   0.663  -2.158  1.00  0.00     0.100 C 
BRANCH   6   7
ATOM      7  C   UNL     1      -1.016   1.847  -3.066  1.00  0.00     0.020 C 
BRANCH   7   8
ATOM      8  C   UNL     1      -2.005   2.992  -3.029  1.00  0.00     0.103 C 
BRANCH   8   9
ATOM      9  C   UNL     1      -2.109   3.990  -1.871  1.00  0.00     0.243 C 
ATOM     10  O   UNL     1      -1.734   5.140  -2.177  1.00  0.00    -0.273 OA
BRANCH   9  11
ATOM     11  N   UNL     1      -2.705   3.772  -0.618  1.00  0.00    -0.225 N 
ATOM     12  C   UNL     1      -2.564   2.711   0.452  1.00  0.00     0.150 C 
ATOM     13  C   UNL     1      -2.224   3.515   1.714  1.00  0.00     0.092 C 
ATOM     14  C   UNL     1      -2.630   4.879   1.267  1.00  0.00     0.081 C 
ATOM     15  N   UNL     1      -2.949   4.986   0.019  1.00  0.00    -0.173 NA
BRANCH  12  16
ATOM     16  C   UNL     1      -3.748   1.761   0.684  1.00  0.00     0.015 A 
ATOM     17  C   UNL     1      -5.415  -3.945  -1.015  1.00  0.00     0.044 C 
ATOM     18  C   UNL     1      -5.599  -2.629  -0.313  1.00  0.00    -0.050 A 
ATOM     19  C   UNL     1      -6.874  -2.106  -0.101  1.00  0.00     0.005 A 
ATOM     20  C   UNL     1      -4.483  -1.865   0.061  1.00  0.00     0.013 A 
ATOM     21  C   UNL     1      -7.023  -0.826   0.441  1.00  0.00     0.029 A 
ATOM     22  C   UNL     1      -4.636  -0.536   0.513  1.00  0.00     0.001 A 
ATOM     23  C   UNL     1      -5.924  -0.017   0.710  1.00  0.00     0.072 A 
ATOM     24  C   UNL     1      -3.547   0.365   0.595  1.00  0.00     0.019 A 
ATOM     25  N   UNL     1      -6.119   1.270   1.016  1.00  0.00    -0.236 NA
ATOM     26  C   UNL     1      -5.062   2.125   0.970  1.00  0.00     0.135 A 
ATOM     27  Cl  UNL     1      -5.603   3.725   1.267  1.00  0.00    -0.062 Cl
ENDBRANCH  12  16
BRANCH  14  28
ATOM     28  C   UNL     1      -2.546   6.031   2.115  1.00  0.00     0.050 A 
ATOM     29  C   UNL     1      -1.464   6.455   2.857  1.00  0.00     0.022 A 
ATOM     30  S   UNL     1      -3.847   7.134   2.189  1.00  0.00    -0.142 S 
ATOM     31  C   UNL     1      -1.694   7.730   3.452  1.00  0.00     0.012 A 
ATOM     32  C   UNL     1      -2.957   8.206   3.179  1.00  0.00     0.065 A 
ENDBRANCH  14  28
ENDBRANCH   9  11
ENDBRANCH   8   9
ENDBRANCH   7   8
ENDBRANCH   6   7
ENDBRANCH   3   6
ENDBRANCH   1   2
BRANCH   1  33
ATOM     33  C   UNL     1      -5.417   1.340  -3.639  1.00  0.00     0.023 C 
BRANCH  33  34
ATOM     34  C   UNL     1      -6.872   0.993  -3.286  1.00  0.00     0.023 C 
BRANCH  34  35
ATOM     35  C   UNL     1      -7.468   1.841  -2.160  1.00  0.00     0.116 C 
BRANCH  35  36
ATOM     36  N   UNL     1      -7.952   3.133  -2.599  1.00  0.00    -0.352 N 
ATOM     37  C   UNL     1      -9.162   3.736  -2.330  1.00  0.00     0.251 C 
ATOM     38  H   UNL     1      -7.335   3.649  -3.167  1.00  0.00     0.163 HD
ATOM     39  O   UNL     1      -9.437   4.817  -2.822  1.00  0.00    -0.269 OA
BRANCH  37  40
ATOM     40  C   UNL     1     -10.163   3.038  -1.488  1.00  0.00     0.039 A 
ATOM     41  C   UNL     1     -11.453   2.884  -2.002  1.00  0.00     0.014 A 
ATOM     42  C   UNL     1      -9.851   2.541  -0.218  1.00  0.00     0.014 A 
ATOM     43  C   UNL     1     -12.417   2.188  -1.270  1.00  0.00     0.010 A 
ATOM     44  C   UNL     1     -10.802   1.799   0.490  1.00  0.00     0.010 A 
ATOM     45  C   UNL     1     -12.095   1.615  -0.028  1.00  0.00    -0.014 A 
BRANCH  45  46
ATOM     46  C   UNL     1     -13.119   0.838   0.723  1.00  0.00     0.031 A 
ATOM     47  C   UNL     1     -13.672   1.357   2.021  1.00  0.00     0.074 A 
ATOM     48  C   UNL     1     -13.556  -0.341   0.237  1.00  0.00     0.049 A 
ATOM     49  N   UNL     1     -14.594   0.837   2.794  1.00  0.00    -0.248 NA
ATOM     50  C   UNL     1     -13.106   2.616   2.527  1.00  0.00     0.031 C 
ATOM     51  C   UNL     1     -13.080  -0.978  -0.992  1.00  0.00     0.029 A 
ATOM     52  N   UNL     1     -14.504  -1.212   0.716  1.00  0.00    -0.354 N 
ATOM     53  C   UNL     1     -14.716   1.702   3.874  1.00  0.00     0.074 A 
ATOM     54  C   UNL     1     -13.737   2.751   3.685  1.00  0.00     0.031 C 
ATOM     55  C   UNL     1     -13.757  -2.122  -1.185  1.00  0.00     0.029 A 
ATOM     56  C   UNL     1     -14.696  -2.314  -0.083  1.00  0.00     0.049 A 
ATOM     57  H   UNL     1     -15.000  -1.062   1.553  1.00  0.00     0.167 HD
ATOM     58  C   UNL     1     -15.578   1.643   4.918  1.00  0.00     0.037 A 
ATOM     59  C   UNL     1     -15.536  -3.359   0.052  1.00  0.00     0.037 A 
ATOM     60  C   UNL     1     -16.565   0.610   5.103  1.00  0.00     0.049 A 
ATOM     61  C   UNL     1     -16.478  -3.406   1.225  1.00  0.00     0.074 A 
ATOM     62  C   UNL     1     -17.514   0.494   6.104  1.00  0.00     0.029 A 
ATOM     63  N   UNL     1     -16.727  -0.487   4.271  1.00  0.00    -0.354 N 
ATOM     64  N   UNL     1     -16.629  -2.543   2.200  1.00  0.00    -0.248 NA
ATOM     65  C   UNL     1     -17.375  -4.568   1.309  1.00  0.00     0.031 C 
ATOM     66  C   UNL     1     -18.221  -0.696   5.903  1.00  0.00     0.029 A 
ATOM     67  C   UNL     1     -17.747  -1.295   4.748  1.00  0.00     0.049 A 
ATOM     68  H   UNL     1     -16.196  -0.665   3.461  1.00  0.00     0.167 HD
ATOM     69  C   UNL     1     -17.658  -3.039   2.991  1.00  0.00     0.074 A 
ATOM     70  C   UNL     1     -18.102  -4.273   2.377  1.00  0.00     0.031 C 
ATOM     71  C   UNL     1     -18.189  -2.516   4.123  1.00  0.00     0.037 A 
BRANCH  58  72
ATOM     72  C   UNL     1     -15.492   2.733   5.946  1.00  0.00     0.057 A 
ATOM     73  C   UNL     1     -15.903   4.044   5.668  1.00  0.00     0.134 A 
ATOM     74  C   UNL     1     -15.025   2.464   7.239  1.00  0.00     0.134 A 
ATOM     75  F   UNL     1     -16.353   4.371   4.447  1.00  0.00    -0.206 F 
ATOM     76  C   UNL     1     -15.826   5.053   6.630  1.00  0.00     0.040 A 
ATOM     77  C   UNL     1     -14.970   3.458   8.217  1.00  0.00     0.040 A 
ATOM     78  F   UNL     1     -14.625   1.228   7.575  1.00  0.00    -0.206 F 
ATOM     79  C   UNL     1     -15.364   4.759   7.911  1.00  0.00     0.006 A 
ENDBRANCH  58  72
BRANCH  59  80
ATOM     80  C   UNL     1     -15.550  -4.440  -0.966  1.00  0.00     0.057 A 
ATOM     81  C   UNL     1     -16.642  -4.609  -1.827  1.00  0.00     0.134 A 
ATOM     82  C   UNL     1     -14.487  -5.342  -1.089  1.00  0.00     0.134 A 
ATOM     83  F   UNL     1     -17.700  -3.790  -1.743  1.00  0.00    -0.206 F 
ATOM     84  C   UNL     1     -16.686  -5.649  -2.757  1.00  0.00     0.040 A 
ATOM     85  C   UNL     1     -14.507  -6.371  -2.032  1.00  0.00     0.040 A 
ATOM     86  F   UNL     1     -13.410  -5.231  -0.298  1.00  0.00    -0.206 F 
ATOM     87  C   UNL     1     -15.613  -6.531  -2.864  1.00  0.00     0.006 A 
ENDBRANCH  59  80
BRANCH  71  88
ATOM     88  C   UNL     1     -19.339  -3.251   4.750  1.00  0.00     0.057 A 
ATOM     89  C   UNL     1     -19.166  -4.470   5.417  1.00  0.00     0.134 A 
ATOM     90  C   UNL     1     -20.631  -2.711   4.716  1.00  0.00     0.134 A 
ATOM     91  F   UNL     1     -17.956  -5.048   5.475  1.00  0.00    -0.206 F 
ATOM     92  C   UNL     1     -20.241  -5.138   6.006  1.00  0.00     0.040 A 
ATOM     93  C   UNL     1     -21.709  -3.355   5.325  1.00  0.00     0.040 A 
ATOM     94  F   UNL     1     -20.865  -1.541   4.102  1.00  0.00    -0.206 F 
ATOM     95  C   UNL     1     -21.516  -4.576   5.967  1.00  0.00     0.006 A 
ENDBRANCH  71  88
ENDBRANCH  45  46
ENDBRANCH  37  40
ENDBRANCH  35  36
ENDBRANCH  34  35
ENDBRANCH  33  34
ENDBRANCH   1  33
TORSDOF 17
