REMARK SMILES CC1(C)C[C@@H]1[NH2+]Cc1ccc(C(=O)NCCCCNC(=O)c2ccc(-c3c4nc(c(-c5c(F)cccc5F)c5ccc([nH]5)c(-c5c(F)cccc5F)c5nc(c(-c6c(F)cccc6F)c6ccc3[nH]6)C=C5)C=C4)cc2)cn1
REMARK SMILES IDX 16 1 15 2 14 3 12 4 13 5 11 7 8 8 9 9 77 10 10 11 76 12 7 13
REMARK SMILES IDX 6 14 5 17 1 18 2 19 3 20 4 21 17 22 18 23 19 24 20 25 21 27
REMARK SMILES IDX 22 28 23 29 75 30 24 31 74 32 25 33 26 34 27 35 68 36 28 37
REMARK SMILES IDX 73 38 67 39 69 40 29 41 72 42 66 43 65 44 30 46 56 47 39 48
REMARK SMILES IDX 55 49 40 50 43 51 54 52 70 53 41 54 42 55 53 57 71 58 44 59
REMARK SMILES IDX 31 60 32 61 37 62 33 63 34 64 36 65 38 66 35 67 57 68 58 69
REMARK SMILES IDX 63 70 59 71 60 72 62 73 64 74 61 75 45 76 46 77 51 78 47 79
REMARK SMILES IDX 48 80 50 81 52 82 49 83
REMARK H PARENT 14 6 6 15 6 16 19 26 69 45 43 56
REMARK Flexibility Score: inf
ROOT
ATOM      1  C   UNL     1      -1.099   7.401   5.627  1.00  0.00     0.023 C 
ENDROOT
BRANCH   1   2
ATOM      2  C   UNL     1      -2.250   6.420   5.861  1.00  0.00     0.116 C 
BRANCH   2   3
ATOM      3  N   UNL     1      -3.428   6.828   5.123  1.00  0.00    -0.352 N 
ATOM      4  C   UNL     1      -3.947   6.411   3.924  1.00  0.00     0.252 C 
ATOM      5  O   UNL     1      -5.002   6.923   3.551  1.00  0.00    -0.269 OA
ATOM      6  H   UNL     1      -3.952   7.536   5.562  1.00  0.00     0.163 HD
BRANCH   4   7
ATOM      7  C   UNL     1      -3.330   5.353   3.090  1.00  0.00     0.058 A 
ATOM      8  C   UNL     1      -2.458   3.291   1.456  1.00  0.00     0.094 A 
ATOM      9  C   UNL     1      -1.528   4.021   2.193  1.00  0.00     0.030 A 
ATOM     10  N   UNL     1      -3.780   3.585   1.480  1.00  0.00    -0.255 NA
ATOM     11  C   UNL     1      -1.969   5.070   3.002  1.00  0.00     0.017 A 
ATOM     12  C   UNL     1      -4.181   4.602   2.287  1.00  0.00     0.125 A 
BRANCH   8  13
ATOM     13  C   UNL     1      -2.002   2.147   0.570  1.00  0.00     0.318 C 
BRANCH  13  14
ATOM     14  N   UNL     1      -1.482   1.013   1.336  1.00  0.00    -0.338 N 
ATOM     15  H   UNL     1      -0.696   1.351   1.892  1.00  0.00     0.346 HD
ATOM     16  H   UNL     1      -2.277   0.672   1.877  1.00  0.00     0.346 HD
BRANCH  14  17
ATOM     17  C   UNL     1      -1.015  -0.148   0.574  1.00  0.00     0.189 C 
ATOM     18  C   UNL     1       1.144  -1.480   0.005  1.00  0.00     0.017 C 
ATOM     19  C   UNL     1       0.374  -0.185  -0.058  1.00  0.00     0.022 C 
ATOM     20  C   UNL     1       1.248   1.048  -0.105  1.00  0.00     0.017 C 
ATOM     21  C   UNL     1      -0.873  -0.174  -0.918  1.00  0.00     0.078 C 
ENDBRANCH  14  17
ENDBRANCH  13  14
ENDBRANCH   8  13
ENDBRANCH   4   7
ENDBRANCH   2   3
ENDBRANCH   1   2
BRANCH   1  22
ATOM     22  C   UNL     1      -1.254   8.741   6.355  1.00  0.00     0.023 C 
BRANCH  22  23
ATOM     23  C   UNL     1      -1.298   8.647   7.876  1.00  0.00     0.116 C 
BRANCH  23  24
ATOM     24  N   UNL     1      -0.125   8.002   8.447  1.00  0.00    -0.352 N 
ATOM     25  C   UNL     1       0.459   8.227   9.670  1.00  0.00     0.251 C 
ATOM     26  H   UNL     1       0.305   7.318   7.885  1.00  0.00     0.163 HD
ATOM     27  O   UNL     1       1.511   7.673   9.971  1.00  0.00    -0.269 OA
BRANCH  25  28
ATOM     28  C   UNL     1      -0.172   9.183  10.601  1.00  0.00     0.039 A 
ATOM     29  C   UNL     1       0.609  10.205  11.146  1.00  0.00     0.014 A 
ATOM     30  C   UNL     1      -1.534   9.094  10.898  1.00  0.00     0.014 A 
ATOM     31  C   UNL     1       0.006  11.184  11.937  1.00  0.00     0.010 A 
ATOM     32  C   UNL     1      -2.144  10.105  11.633  1.00  0.00     0.010 A 
ATOM     33  C   UNL     1      -1.381  11.161  12.154  1.00  0.00    -0.014 A 
BRANCH  33  34
ATOM     34  C   UNL     1      -2.056  12.238  12.918  1.00  0.00     0.031 A 
ATOM     35  C   UNL     1      -2.722  11.929  14.228  1.00  0.00     0.074 A 
ATOM     36  C   UNL     1      -2.132  13.476  12.393  1.00  0.00     0.049 A 
ATOM     37  N   UNL     1      -3.427  12.714  15.002  1.00  0.00    -0.248 NA
ATOM     38  C   UNL     1      -2.603  10.548  14.720  1.00  0.00     0.031 C 
ATOM     39  C   UNL     1      -1.571  13.887  11.104  1.00  0.00     0.029 A 
ATOM     40  N   UNL     1      -2.726  14.616  12.875  1.00  0.00    -0.354 N 
ATOM     41  C   UNL     1      -3.848  11.920  16.060  1.00  0.00     0.074 A 
ATOM     42  C   UNL     1      -3.361  10.582  15.805  1.00  0.00     0.031 C 
ATOM     43  C   UNL     1      -1.830  15.190  10.908  1.00  0.00     0.029 A 
ATOM     44  C   UNL     1      -2.603  15.697  12.037  1.00  0.00     0.049 A 
ATOM     45  H   UNL     1      -3.196  14.654  13.739  1.00  0.00     0.167 HD
ATOM     46  C   UNL     1      -4.557  12.279  17.156  1.00  0.00     0.037 A 
ATOM     47  C   UNL     1      -3.067  16.955  12.164  1.00  0.00     0.037 A 
ATOM     48  C   UNL     1      -5.014  13.617  17.421  1.00  0.00     0.049 A 
ATOM     49  C   UNL     1      -3.845  17.330  13.394  1.00  0.00     0.074 A 
ATOM     50  C   UNL     1      -5.685  14.096  18.533  1.00  0.00     0.029 A 
ATOM     51  N   UNL     1      -4.847  14.692  16.561  1.00  0.00    -0.354 N 
ATOM     52  N   UNL     1      -4.178  16.585  14.420  1.00  0.00    -0.248 NA
ATOM     53  C   UNL     1      -4.307  18.722  13.486  1.00  0.00     0.031 C 
ATOM     54  C   UNL     1      -5.955  15.453  18.330  1.00  0.00     0.029 A 
ATOM     55  C   UNL     1      -5.416  15.829  17.110  1.00  0.00     0.049 A 
ATOM     56  H   UNL     1      -4.391  14.653  15.690  1.00  0.00     0.167 HD
ATOM     57  C   UNL     1      -4.864  17.421  15.290  1.00  0.00     0.074 A 
ATOM     58  C   UNL     1      -4.888  18.733  14.678  1.00  0.00     0.031 C 
ATOM     59  C   UNL     1      -5.422  17.129  16.490  1.00  0.00     0.037 A 
BRANCH  46  60
ATOM     60  C   UNL     1      -4.873  11.206  18.155  1.00  0.00     0.057 A 
ATOM     61  C   UNL     1      -3.882  10.646  18.974  1.00  0.00     0.134 A 
ATOM     62  C   UNL     1      -6.185  10.745  18.321  1.00  0.00     0.134 A 
ATOM     63  F   UNL     1      -2.603  11.034  18.855  1.00  0.00    -0.206 F 
ATOM     64  C   UNL     1      -4.181   9.649  19.903  1.00  0.00     0.040 A 
ATOM     65  C   UNL     1      -6.500   9.766  19.265  1.00  0.00     0.040 A 
ATOM     66  F   UNL     1      -7.181  11.242  17.573  1.00  0.00    -0.206 F 
ATOM     67  C   UNL     1      -5.495   9.211  20.055  1.00  0.00     0.006 A 
ENDBRANCH  46  60
BRANCH  47  68
ATOM     68  C   UNL     1      -2.784  17.961  11.110  1.00  0.00     0.057 A 
ATOM     69  C   UNL     1      -1.886  19.009  11.339  1.00  0.00     0.134 A 
ATOM     70  C   UNL     1      -3.406  17.905   9.858  1.00  0.00     0.134 A 
ATOM     71  F   UNL     1      -1.273  19.125  12.526  1.00  0.00    -0.206 F 
ATOM     72  C   UNL     1      -1.629  19.977  10.367  1.00  0.00     0.040 A 
ATOM     73  C   UNL     1      -3.142  18.853   8.868  1.00  0.00     0.040 A 
ATOM     74  F   UNL     1      -4.271  16.920   9.575  1.00  0.00    -0.206 F 
ATOM     75  C   UNL     1      -2.256  19.898   9.125  1.00  0.00     0.006 A 
ENDBRANCH  47  68
BRANCH  59  76
ATOM     76  C   UNL     1      -6.077  18.255  17.233  1.00  0.00     0.057 A 
ATOM     77  C   UNL     1      -7.313  18.780  16.837  1.00  0.00     0.134 A 
ATOM     78  C   UNL     1      -5.481  18.791  18.382  1.00  0.00     0.134 A 
ATOM     79  F   UNL     1      -7.927  18.319  15.738  1.00  0.00    -0.206 F 
ATOM     80  C   UNL     1      -7.926  19.813  17.549  1.00  0.00     0.040 A 
ATOM     81  C   UNL     1      -6.096  19.806  19.115  1.00  0.00     0.040 A 
ATOM     82  F   UNL     1      -4.301  18.326  18.817  1.00  0.00    -0.206 F 
ATOM     83  C   UNL     1      -7.320  20.323  18.696  1.00  0.00     0.006 A 
ENDBRANCH  59  76
ENDBRANCH  33  34
ENDBRANCH  25  28
ENDBRANCH  23  24
ENDBRANCH  22  23
ENDBRANCH   1  22
TORSDOF 14
