REMARK SMILES O=C(NCCCCNC(=O)[C@H]1C[C@H]2CCCC[C@@H]2[N@@H+]1CC[C@@H]1CCCO1)c1ccc(-c2c3nc(c(-c4c(F)cccc4F)c4ccc([nH]4)c(-c4c(F)cccc4F)c4nc(c(-c5c(F)cccc5F)c5ccc2[nH]5)C=C4)C=C3)cc1
REMARK SMILES IDX 6 1 5 2 4 3 3 4 1 5 2 6 27 8 28 9 80 10 29 11 79 12 30 13
REMARK SMILES IDX 31 14 32 15 73 16 33 17 78 18 72 19 74 20 34 21 77 22 71 23
REMARK SMILES IDX 70 24 35 26 61 27 44 28 60 29 45 30 48 31 59 32 75 33 46 34
REMARK SMILES IDX 47 35 58 37 76 38 49 39 36 40 37 41 42 42 38 43 39 44 41 45
REMARK SMILES IDX 43 46 40 47 62 48 63 49 68 50 64 51 65 52 67 53 69 54 66 55
REMARK SMILES IDX 50 56 51 57 56 58 52 59 53 60 55 61 57 62 54 63 7 64 8 65
REMARK SMILES IDX 9 66 10 68 11 69 12 70 19 71 13 72 18 73 14 75 17 76 15 77
REMARK SMILES IDX 16 78 20 79 21 80 22 81 23 82 26 83 24 84 25 85
REMARK H PARENT 3 7 74 25 48 36 8 67 19 74
REMARK Flexibility Score: inf
ROOT
ATOM      1  C   UNL     1       3.383   7.882  -3.870  1.00  0.00     0.023 C 
ENDROOT
BRANCH   1   2
ATOM      2  C   UNL     1       3.240   8.548  -5.228  1.00  0.00     0.023 C 
BRANCH   2   3
ATOM      3  C   UNL     1       2.132   7.965  -6.075  1.00  0.00     0.116 C 
BRANCH   3   4
ATOM      4  N   UNL     1       0.824   8.007  -5.433  1.00  0.00    -0.352 N 
ATOM      5  O   UNL     1      -1.425   8.246  -5.363  1.00  0.00    -0.269 OA
ATOM      6  C   UNL     1      -0.408   8.136  -6.030  1.00  0.00     0.251 C 
ATOM      7  H   UNL     1       0.823   7.935  -4.451  1.00  0.00     0.163 HD
BRANCH   6   8
ATOM      8  C   UNL     1      -0.462   8.183  -7.503  1.00  0.00     0.039 A 
ATOM      9  C   UNL     1       0.261   7.254  -8.253  1.00  0.00     0.014 A 
ATOM     10  C   UNL     1      -1.177   9.206  -8.129  1.00  0.00     0.014 A 
ATOM     11  C   UNL     1       0.405   7.443  -9.615  1.00  0.00     0.010 A 
ATOM     12  C   UNL     1      -1.121   9.328  -9.518  1.00  0.00     0.010 A 
ATOM     13  C   UNL     1      -0.308   8.463 -10.266  1.00  0.00    -0.014 A 
BRANCH  13  14
ATOM     14  C   UNL     1      -0.250   8.526 -11.744  1.00  0.00     0.031 A 
ATOM     15  C   UNL     1       0.363   9.694 -12.456  1.00  0.00     0.074 A 
ATOM     16  C   UNL     1      -0.721   7.468 -12.431  1.00  0.00     0.049 A 
ATOM     17  N   UNL     1       0.514   9.879 -13.743  1.00  0.00    -0.248 NA
ATOM     18  C   UNL     1       0.865  10.802 -11.627  1.00  0.00     0.031 C 
ATOM     19  C   UNL     1      -1.345   6.285 -11.829  1.00  0.00     0.029 A 
ATOM     20  N   UNL     1      -0.722   7.196 -13.772  1.00  0.00    -0.354 N 
ATOM     21  C   UNL     1       1.109  11.126 -13.882  1.00  0.00     0.074 A 
ATOM     22  C   UNL     1       1.276  11.665 -12.548  1.00  0.00     0.031 C 
ATOM     23  C   UNL     1      -1.611   5.390 -12.790  1.00  0.00     0.029 A 
ATOM     24  C   UNL     1      -1.246   5.964 -14.077  1.00  0.00     0.049 A 
ATOM     25  H   UNL     1      -0.380   7.822 -14.451  1.00  0.00     0.167 HD
ATOM     26  C   UNL     1       1.482  11.755 -15.021  1.00  0.00     0.037 A 
ATOM     27  C   UNL     1      -1.432   5.368 -15.267  1.00  0.00     0.037 A 
ATOM     28  C   UNL     1       1.323  11.199 -16.342  1.00  0.00     0.049 A 
ATOM     29  C   UNL     1      -1.018   6.097 -16.508  1.00  0.00     0.074 A 
ATOM     30  C   UNL     1       1.687  11.749 -17.559  1.00  0.00     0.029 A 
ATOM     31  N   UNL     1       0.755   9.963 -16.616  1.00  0.00    -0.354 N 
ATOM     32  N   UNL     1      -0.447   7.271 -16.622  1.00  0.00    -0.248 NA
ATOM     33  C   UNL     1      -1.282   5.424 -17.785  1.00  0.00     0.031 C 
ATOM     34  C   UNL     1       1.306  10.862 -18.572  1.00  0.00     0.029 A 
ATOM     35  C   UNL     1       0.743   9.741 -17.984  1.00  0.00     0.049 A 
ATOM     36  H   UNL     1       0.412   9.337 -15.939  1.00  0.00     0.167 HD
ATOM     37  C   UNL     1      -0.280   7.479 -17.983  1.00  0.00     0.074 A 
ATOM     38  C   UNL     1      -0.780   6.293 -18.650  1.00  0.00     0.031 C 
ATOM     39  C   UNL     1       0.232   8.557 -18.624  1.00  0.00     0.037 A 
BRANCH  26  40
ATOM     40  C   UNL     1       2.088  13.122 -14.900  1.00  0.00     0.057 A 
ATOM     41  C   UNL     1       3.397  13.313 -14.439  1.00  0.00     0.134 A 
ATOM     42  C   UNL     1       1.378  14.257 -15.313  1.00  0.00     0.134 A 
ATOM     43  F   UNL     1       4.128  12.270 -14.017  1.00  0.00    -0.206 F 
ATOM     44  C   UNL     1       3.974  14.584 -14.386  1.00  0.00     0.040 A 
ATOM     45  C   UNL     1       1.951  15.530 -15.284  1.00  0.00     0.040 A 
ATOM     46  F   UNL     1       0.121  14.144 -15.770  1.00  0.00    -0.206 F 
ATOM     47  C   UNL     1       3.253  15.695 -14.817  1.00  0.00     0.006 A 
ENDBRANCH  26  40
BRANCH  27  48
ATOM     48  C   UNL     1      -2.056   4.025 -15.330  1.00  0.00     0.057 A 
ATOM     49  C   UNL     1      -1.321   2.901 -15.721  1.00  0.00     0.134 A 
ATOM     50  C   UNL     1      -3.400   3.831 -14.986  1.00  0.00     0.134 A 
ATOM     51  F   UNL     1      -0.033   3.027 -16.075  1.00  0.00    -0.206 F 
ATOM     52  C   UNL     1      -1.903   1.635 -15.783  1.00  0.00     0.040 A 
ATOM     53  C   UNL     1      -3.987   2.567 -15.015  1.00  0.00     0.040 A 
ATOM     54  F   UNL     1      -4.154   4.867 -14.591  1.00  0.00    -0.206 F 
ATOM     55  C   UNL     1      -3.239   1.464 -15.423  1.00  0.00     0.006 A 
ENDBRANCH  27  48
BRANCH  39  56
ATOM     56  C   UNL     1       0.278   8.484 -20.120  1.00  0.00     0.057 A 
ATOM     57  C   UNL     1      -0.882   8.595 -20.896  1.00  0.00     0.134 A 
ATOM     58  C   UNL     1       1.494   8.300 -20.789  1.00  0.00     0.134 A 
ATOM     59  F   UNL     1      -2.079   8.754 -20.311  1.00  0.00    -0.206 F 
ATOM     60  C   UNL     1      -0.839   8.497 -22.287  1.00  0.00     0.040 A 
ATOM     61  C   UNL     1       1.553   8.224 -22.180  1.00  0.00     0.040 A 
ATOM     62  F   UNL     1       2.641   8.191 -20.101  1.00  0.00    -0.206 F 
ATOM     63  C   UNL     1       0.383   8.315 -22.932  1.00  0.00     0.006 A 
ENDBRANCH  39  56
ENDBRANCH  13  14
ENDBRANCH   6   8
ENDBRANCH   3   4
ENDBRANCH   2   3
ENDBRANCH   1   2
BRANCH   1  64
ATOM     64  C   UNL     1       3.844   6.427  -3.857  1.00  0.00     0.116 C 
BRANCH  64  65
ATOM     65  N   UNL     1       5.218   6.220  -4.265  1.00  0.00    -0.351 N 
ATOM     66  C   UNL     1       6.387   6.250  -3.560  1.00  0.00     0.278 C 
ATOM     67  H   UNL     1       5.330   6.021  -5.223  1.00  0.00     0.163 HD
ATOM     68  O   UNL     1       7.365   5.737  -4.123  1.00  0.00    -0.268 OA
BRANCH  66  69
ATOM     69  C   UNL     1       6.585   6.967  -2.204  1.00  0.00     0.274 C 
ATOM     70  C   UNL     1       6.430   8.492  -2.331  1.00  0.00     0.085 C 
ATOM     71  N   UNL     1       5.661   6.525  -1.139  1.00  0.00    -0.322 N 
ATOM     72  C   UNL     1       5.595   8.879  -1.119  1.00  0.00     0.054 C 
ATOM     73  C   UNL     1       4.797   7.630  -0.766  1.00  0.00     0.188 C 
ATOM     74  H   UNL     1       5.019   5.822  -1.505  1.00  0.00     0.349 HD
ATOM     75  C   UNL     1       4.712  10.116  -1.148  1.00  0.00     0.010 C 
ATOM     76  C   UNL     1       4.099   7.723   0.586  1.00  0.00     0.065 C 
ATOM     77  C   UNL     1       4.050  10.268   0.230  1.00  0.00     0.001 C 
ATOM     78  C   UNL     1       3.272   9.016   0.660  1.00  0.00     0.006 C 
BRANCH  71  79
ATOM     79  C   UNL     1       6.129   5.541  -0.173  1.00  0.00     0.265 C 
BRANCH  79  80
ATOM     80  C   UNL     1       7.426   5.716   0.656  1.00  0.00     0.093 C 
BRANCH  80  81
ATOM     81  C   UNL     1       7.403   6.715   1.817  1.00  0.00     0.123 C 
ATOM     82  C   UNL     1       7.613   8.166   1.424  1.00  0.00     0.034 C 
ATOM     83  O   UNL     1       8.482   6.441   2.737  1.00  0.00    -0.378 OA
ATOM     84  C   UNL     1       8.641   8.733   2.369  1.00  0.00     0.031 C 
ATOM     85  C   UNL     1       8.746   7.671   3.428  1.00  0.00     0.160 C 
ENDBRANCH  80  81
ENDBRANCH  79  80
ENDBRANCH  71  79
ENDBRANCH  66  69
ENDBRANCH  64  65
ENDBRANCH   1  64
TORSDOF 14
