REMARK SMILES CC(C)CCn1nc(C(=O)NCCCCNC(=O)c2ccc(-c3c4nc(c(-c5c(F)cccc5F)c5ccc([nH]5)c(-c5c(F)cccc5F)c5nc(c(-c6c(F)cccc6F)c6ccc3[nH]6)C=C5)C=C4)cc2)c2c1CCN(C(=O)[C@@H]1CCc3nn(C)c(=O)n3C1)C2
REMARK SMILES IDX 13 1 12 2 11 3 9 4 10 5 8 7 6 8 7 9 74 10 73 11 75 12 91 13
REMARK SMILES IDX 76 14 77 15 5 16 4 17 2 18 1 19 3 20 78 21 79 22 80 23 81 24
REMARK SMILES IDX 90 25 82 26 89 27 83 28 87 29 84 30 85 31 88 32 86 33 14 34
REMARK SMILES IDX 15 35 16 36 17 37 18 39 19 40 20 41 72 42 21 43 71 44 22 45
REMARK SMILES IDX 23 46 24 47 65 48 25 49 70 50 64 51 66 52 26 53 69 54 63 55
REMARK SMILES IDX 62 56 27 58 53 59 36 60 52 61 37 62 40 63 51 64 67 65 38 66
REMARK SMILES IDX 39 67 50 69 68 70 41 71 28 72 29 73 34 74 30 75 31 76 33 77
REMARK SMILES IDX 35 78 32 79 54 80 55 81 60 82 56 83 57 84 59 85 61 86 58 87
REMARK SMILES IDX 42 88 43 89 48 90 44 91 45 92 47 93 49 94 46 95
REMARK H PARENT 11 6 16 38 66 57 40 68
REMARK Flexibility Score: inf
ROOT
ATOM      1  C   UNL     1      -0.924  -5.077  -7.533  1.00  0.00     0.023 C 
ENDROOT
BRANCH   1   2
ATOM      2  C   UNL     1       0.330  -4.254  -7.183  1.00  0.00     0.116 C 
BRANCH   2   3
ATOM      3  N   UNL     1       0.060  -2.825  -7.087  1.00  0.00    -0.351 N 
ATOM      4  C   UNL     1      -0.223  -1.919  -6.081  1.00  0.00     0.272 C 
ATOM      5  O   UNL     1      -0.181  -0.741  -6.459  1.00  0.00    -0.267 OA
ATOM      6  H   UNL     1       0.086  -2.390  -7.970  1.00  0.00     0.163 HD
BRANCH   4   7
ATOM      7  C   UNL     1      -0.544  -2.258  -4.665  1.00  0.00     0.155 A 
ATOM      8  N   UNL     1      -0.918  -1.831  -2.572  1.00  0.00    -0.268 N 
ATOM      9  N   UNL     1      -0.499  -1.275  -3.728  1.00  0.00    -0.167 NA
ATOM     10  C   UNL     1      -1.040  -3.178  -2.685  1.00  0.00     0.046 A 
ATOM     11  C   UNL     1      -1.000  -3.449  -4.037  1.00  0.00     0.026 A 
ATOM     12  C   UNL     1      -1.301  -4.199  -1.641  1.00  0.00     0.078 C 
ATOM     13  C   UNL     1      -1.403  -4.756  -4.585  1.00  0.00     0.159 C 
ATOM     14  C   UNL     1      -1.154  -5.583  -2.309  1.00  0.00     0.126 C 
ATOM     15  N   UNL     1      -1.904  -5.678  -3.568  1.00  0.00    -0.338 N 
BRANCH   8  16
ATOM     16  C   UNL     1      -1.397  -0.969  -1.503  1.00  0.00     0.145 C 
BRANCH  16  17
ATOM     17  C   UNL     1      -0.948  -1.319  -0.080  1.00  0.00     0.027 C 
BRANCH  17  18
ATOM     18  C   UNL     1       0.577  -1.365   0.106  1.00  0.00    -0.016 C 
ATOM     19  C   UNL     1       1.185   0.036   0.047  1.00  0.00     0.007 C 
ATOM     20  C   UNL     1       0.926  -2.037   1.435  1.00  0.00     0.007 C 
ENDBRANCH  17  18
ENDBRANCH  16  17
ENDBRANCH   8  16
BRANCH  15  21
ATOM     21  C   UNL     1      -2.731  -6.675  -4.054  1.00  0.00     0.227 C 
ATOM     22  O   UNL     1      -2.935  -6.745  -5.278  1.00  0.00    -0.274 OA
BRANCH  21  23
ATOM     23  C   UNL     1      -3.495  -7.694  -3.201  1.00  0.00     0.099 C 
ATOM     24  C   UNL     1      -4.623  -7.117  -2.345  1.00  0.00     0.023 C 
ATOM     25  C   UNL     1      -2.659  -8.723  -2.465  1.00  0.00     0.142 C 
ATOM     26  C   UNL     1      -4.185  -6.616  -0.979  1.00  0.00     0.078 C 
ATOM     27  N   UNL     1      -2.418  -8.354  -1.094  1.00  0.00    -0.278 N 
ATOM     28  C   UNL     1      -3.037  -7.384  -0.391  1.00  0.00     0.133 A 
ATOM     29  C   UNL     1      -1.290  -8.687  -0.388  1.00  0.00     0.345 A 
ATOM     30  N   UNL     1      -2.440  -7.052   0.717  1.00  0.00    -0.155 NA
ATOM     31  N   UNL     1      -1.320  -7.860   0.739  1.00  0.00    -0.216 N 
ATOM     32  O   UNL     1      -0.392  -9.430  -0.744  1.00  0.00    -0.246 OA
ATOM     33  C   UNL     1      -0.197  -7.605   1.597  1.00  0.00     0.179 C 
ENDBRANCH  21  23
ENDBRANCH  15  21
ENDBRANCH   4   7
ENDBRANCH   2   3
ENDBRANCH   1   2
BRANCH   1  34
ATOM     34  C   UNL     1      -1.032  -5.645  -8.947  1.00  0.00     0.023 C 
BRANCH  34  35
ATOM     35  C   UNL     1      -0.116  -6.837  -9.207  1.00  0.00     0.116 C 
BRANCH  35  36
ATOM     36  N   UNL     1      -0.486  -8.040  -8.461  1.00  0.00    -0.352 N 
ATOM     37  C   UNL     1       0.279  -9.184  -8.295  1.00  0.00     0.251 C 
ATOM     38  H   UNL     1      -1.373  -8.037  -8.033  1.00  0.00     0.163 HD
ATOM     39  O   UNL     1      -0.216 -10.265  -8.047  1.00  0.00    -0.269 OA
BRANCH  37  40
ATOM     40  C   UNL     1       1.741  -9.041  -8.423  1.00  0.00     0.039 A 
ATOM     41  C   UNL     1       2.462  -9.853  -9.296  1.00  0.00     0.014 A 
ATOM     42  C   UNL     1       2.355  -7.996  -7.729  1.00  0.00     0.014 A 
ATOM     43  C   UNL     1       3.789  -9.526  -9.561  1.00  0.00     0.010 A 
ATOM     44  C   UNL     1       3.639  -7.618  -8.066  1.00  0.00     0.010 A 
ATOM     45  C   UNL     1       4.362  -8.372  -8.987  1.00  0.00    -0.014 A 
BRANCH  45  46
ATOM     46  C   UNL     1       5.619  -7.852  -9.541  1.00  0.00     0.031 A 
ATOM     47  C   UNL     1       5.615  -7.767 -11.030  1.00  0.00     0.074 A 
ATOM     48  C   UNL     1       6.637  -7.307  -8.836  1.00  0.00     0.049 A 
ATOM     49  N   UNL     1       6.280  -8.509 -11.851  1.00  0.00    -0.248 NA
ATOM     50  C   UNL     1       4.656  -6.864 -11.692  1.00  0.00     0.031 C 
ATOM     51  C   UNL     1       6.670  -7.019  -7.399  1.00  0.00     0.029 A 
ATOM     52  N   UNL     1       7.838  -6.808  -9.270  1.00  0.00    -0.354 N 
ATOM     53  C   UNL     1       6.026  -7.990 -13.118  1.00  0.00     0.074 A 
ATOM     54  C   UNL     1       4.883  -7.128 -12.982  1.00  0.00     0.031 C 
ATOM     55  C   UNL     1       7.715  -6.207  -7.120  1.00  0.00     0.029 A 
ATOM     56  C   UNL     1       8.530  -6.067  -8.313  1.00  0.00     0.049 A 
ATOM     57  H   UNL     1       8.183  -6.960 -10.180  1.00  0.00     0.167 HD
ATOM     58  C   UNL     1       6.988  -8.057 -14.079  1.00  0.00     0.037 A 
ATOM     59  C   UNL     1       9.705  -5.406  -8.463  1.00  0.00     0.037 A 
ATOM     60  C   UNL     1       8.016  -8.996 -13.704  1.00  0.00     0.049 A 
ATOM     61  C   UNL     1      10.422  -6.017  -9.599  1.00  0.00     0.074 A 
ATOM     62  C   UNL     1       8.170 -10.362 -13.627  1.00  0.00     0.029 A 
ATOM     63  N   UNL     1       8.993  -8.436 -12.931  1.00  0.00    -0.354 N 
ATOM     64  N   UNL     1      10.945  -7.207  -9.558  1.00  0.00    -0.248 NA
ATOM     65  C   UNL     1      10.338  -5.410 -10.922  1.00  0.00     0.031 C 
ATOM     66  C   UNL     1       9.202 -10.599 -12.667  1.00  0.00     0.029 A 
ATOM     67  C   UNL     1       9.682  -9.374 -12.215  1.00  0.00     0.049 A 
ATOM     68  H   UNL     1       9.178  -7.470 -12.893  1.00  0.00     0.167 HD
ATOM     69  C   UNL     1      10.819  -7.665 -10.850  1.00  0.00     0.074 A 
ATOM     70  C   UNL     1      10.650  -6.471 -11.669  1.00  0.00     0.031 C 
ATOM     71  C   UNL     1      10.488  -8.965 -11.090  1.00  0.00     0.037 A 
BRANCH  58  72
ATOM     72  C   UNL     1       7.310  -6.926 -15.041  1.00  0.00     0.057 A 
ATOM     73  C   UNL     1       8.280  -7.137 -16.041  1.00  0.00     0.134 A 
ATOM     74  C   UNL     1       6.970  -5.574 -14.825  1.00  0.00     0.134 A 
ATOM     75  F   UNL     1       8.716  -8.374 -16.325  1.00  0.00    -0.206 F 
ATOM     76  C   UNL     1       8.901  -6.083 -16.726  1.00  0.00     0.040 A 
ATOM     77  C   UNL     1       7.548  -4.518 -15.537  1.00  0.00     0.040 A 
ATOM     78  F   UNL     1       6.147  -5.188 -13.843  1.00  0.00    -0.206 F 
ATOM     79  C   UNL     1       8.538  -4.766 -16.472  1.00  0.00     0.006 A 
ENDBRANCH  58  72
BRANCH  59  80
ATOM     80  C   UNL     1      10.267  -4.222  -7.776  1.00  0.00     0.057 A 
ATOM     81  C   UNL     1      11.639  -3.927  -7.855  1.00  0.00     0.134 A 
ATOM     82  C   UNL     1       9.438  -3.191  -7.310  1.00  0.00     0.134 A 
ATOM     83  F   UNL     1      12.512  -4.843  -8.296  1.00  0.00    -0.206 F 
ATOM     84  C   UNL     1      12.148  -2.657  -7.561  1.00  0.00     0.040 A 
ATOM     85  C   UNL     1       9.936  -1.918  -7.006  1.00  0.00     0.040 A 
ATOM     86  F   UNL     1       8.110  -3.358  -7.230  1.00  0.00    -0.206 F 
ATOM     87  C   UNL     1      11.290  -1.640  -7.157  1.00  0.00     0.006 A 
ENDBRANCH  59  80
BRANCH  71  88
ATOM     88  C   UNL     1      10.859  -9.966 -10.041  1.00  0.00     0.057 A 
ATOM     89  C   UNL     1      10.338  -9.999  -8.740  1.00  0.00     0.134 A 
ATOM     90  C   UNL     1      11.796 -10.949 -10.377  1.00  0.00     0.134 A 
ATOM     91  F   UNL     1       9.383  -9.144  -8.350  1.00  0.00    -0.206 F 
ATOM     92  C   UNL     1      10.777 -10.937  -7.800  1.00  0.00     0.040 A 
ATOM     93  C   UNL     1      12.216 -11.912  -9.459  1.00  0.00     0.040 A 
ATOM     94  F   UNL     1      12.312 -10.997 -11.615  1.00  0.00    -0.206 F 
ATOM     95  C   UNL     1      11.718 -11.897  -8.159  1.00  0.00     0.006 A 
ENDBRANCH  71  88
ENDBRANCH  45  46
ENDBRANCH  37  40
ENDBRANCH  35  36
ENDBRANCH  34  35
ENDBRANCH   1  34
TORSDOF 16
