REMARK SMILES CCOc1ccc(N2C[C@H](C(=O)NCCCCNC(=O)c3ccc(-c4c5nc(c(-c6c(F)cccc6F)c6ccc([nH]6)c(-c6c(F)cccc6F)c6nc(c(-c7c(F)cccc7F)c7ccc4[nH]7)C=C6)C=C5)cc3)CC2=O)cc1C(F)(F)F
REMARK SMILES IDX 15 1 14 2 13 3 11 4 12 5 10 7 8 8 9 9 76 10 75 11 77 12 7 13
REMARK SMILES IDX 4 14 5 15 79 16 6 17 78 18 3 19 2 20 1 21 80 22 81 23 82 24
REMARK SMILES IDX 83 25 16 26 17 27 18 28 19 29 20 31 21 32 22 33 74 34 23 35
REMARK SMILES IDX 73 36 24 37 25 38 26 39 67 40 27 41 72 42 66 43 68 44 28 45
REMARK SMILES IDX 71 46 65 47 64 48 29 50 55 51 38 52 54 53 39 54 42 55 53 56
REMARK SMILES IDX 69 57 40 58 41 59 52 61 70 62 43 63 30 64 31 65 36 66 32 67
REMARK SMILES IDX 33 68 35 69 37 70 34 71 56 72 57 73 62 74 58 75 59 76 61 77
REMARK SMILES IDX 63 78 60 79 44 80 45 81 50 82 46 83 47 84 49 85 51 86 48 87
REMARK H PARENT 13 6 18 30 68 49 42 60
REMARK Flexibility Score: inf
ROOT
ATOM      1  C   UNL     1       5.744  -0.855   7.007  1.00  0.00     0.023 C 
ENDROOT
BRANCH   1   2
ATOM      2  C   UNL     1       6.288   0.469   6.463  1.00  0.00     0.116 C 
BRANCH   2   3
ATOM      3  N   UNL     1       7.731   0.513   6.546  1.00  0.00    -0.356 N 
ATOM      4  C   UNL     1       8.713   0.281   5.647  1.00  0.00     0.225 C 
ATOM      5  O   UNL     1       9.870   0.385   6.074  1.00  0.00    -0.275 OA
ATOM      6  H   UNL     1       8.067   0.762   7.437  1.00  0.00     0.163 HD
BRANCH   4   7
ATOM      7  C   UNL     1       8.510   0.002   4.163  1.00  0.00     0.107 C 
ATOM      8  N   UNL     1       6.465   0.350   3.051  1.00  0.00    -0.312 N 
ATOM      9  C   UNL     1       7.258  -0.690   3.666  1.00  0.00     0.139 C 
ATOM     10  C   UNL     1       7.203   1.524   2.866  1.00  0.00     0.227 C 
ATOM     11  C   UNL     1       8.600   1.295   3.363  1.00  0.00     0.116 C 
ATOM     12  O   UNL     1       6.826   2.589   2.399  1.00  0.00    -0.274 OA
BRANCH   8  13
ATOM     13  C   UNL     1       5.108   0.207   2.671  1.00  0.00     0.044 A 
ATOM     14  C   UNL     1       2.370   0.162   2.020  1.00  0.00     0.131 A 
ATOM     15  C   UNL     1       2.844  -0.550   3.123  1.00  0.00     0.049 A 
ATOM     16  C   UNL     1       3.249   0.890   1.218  1.00  0.00     0.100 A 
ATOM     17  C   UNL     1       4.213  -0.570   3.412  1.00  0.00     0.030 A 
ATOM     18  C   UNL     1       4.612   0.907   1.565  1.00  0.00     0.043 A 
BRANCH  14  19
ATOM     19  O   UNL     1       1.026   0.252   1.798  1.00  0.00    -0.493 OA
BRANCH  19  20
ATOM     20  C   UNL     1       0.435  -0.968   1.340  1.00  0.00     0.226 C 
ATOM     21  C   UNL     1       0.171  -0.856  -0.151  1.00  0.00     0.049 C 
ENDBRANCH  19  20
ENDBRANCH  14  19
BRANCH  16  22
ATOM     22  C   UNL     1       2.811   1.590  -0.040  1.00  0.00     0.420 C 
ATOM     23  F   UNL     1       3.602   2.654  -0.361  1.00  0.00    -0.166 F 
ATOM     24  F   UNL     1       2.877   0.759  -1.121  1.00  0.00    -0.166 F 
ATOM     25  F   UNL     1       1.541   2.079  -0.023  1.00  0.00    -0.166 F 
ENDBRANCH  16  22
ENDBRANCH   8  13
ENDBRANCH   4   7
ENDBRANCH   2   3
ENDBRANCH   1   2
BRANCH   1  26
ATOM     26  C   UNL     1       5.229  -0.777   8.441  1.00  0.00     0.023 C 
BRANCH  26  27
ATOM     27  C   UNL     1       4.111   0.234   8.664  1.00  0.00     0.116 C 
BRANCH  27  28
ATOM     28  N   UNL     1       2.926   0.011   7.848  1.00  0.00    -0.352 N 
ATOM     29  C   UNL     1       1.613   0.239   8.201  1.00  0.00     0.251 C 
ATOM     30  H   UNL     1       3.079  -0.342   6.942  1.00  0.00     0.163 HD
ATOM     31  O   UNL     1       0.694  -0.073   7.452  1.00  0.00    -0.269 OA
BRANCH  29  32
ATOM     32  C   UNL     1       1.339   0.814   9.534  1.00  0.00     0.039 A 
ATOM     33  C   UNL     1       0.495   0.128  10.407  1.00  0.00     0.014 A 
ATOM     34  C   UNL     1       2.027   1.954   9.957  1.00  0.00     0.014 A 
ATOM     35  C   UNL     1       0.415   0.534  11.741  1.00  0.00     0.010 A 
ATOM     36  C   UNL     1       2.021   2.296  11.304  1.00  0.00     0.010 A 
ATOM     37  C   UNL     1       1.220   1.586  12.212  1.00  0.00    -0.014 A 
BRANCH  37  38
ATOM     38  C   UNL     1       1.248   1.952  13.652  1.00  0.00     0.031 A 
ATOM     39  C   UNL     1       0.825   3.328  14.086  1.00  0.00     0.074 A 
ATOM     40  C   UNL     1       1.719   1.073  14.559  1.00  0.00     0.049 A 
ATOM     41  N   UNL     1       0.838   3.857  15.283  1.00  0.00    -0.248 NA
ATOM     42  C   UNL     1       0.355   4.240  13.031  1.00  0.00     0.031 C 
ATOM     43  C   UNL     1       2.214  -0.273  14.262  1.00  0.00     0.029 A 
ATOM     44  N   UNL     1       1.866   1.184  15.920  1.00  0.00    -0.354 N 
ATOM     45  C   UNL     1       0.390   5.162  15.121  1.00  0.00     0.074 A 
ATOM     46  C   UNL     1       0.179   5.366  13.706  1.00  0.00     0.031 C 
ATOM     47  C   UNL     1       2.578  -0.872  15.407  1.00  0.00     0.029 A 
ATOM     48  C   UNL     1       2.383   0.058  16.515  1.00  0.00     0.049 A 
ATOM     49  H   UNL     1       1.623   1.995  16.423  1.00  0.00     0.167 HD
ATOM     50  C   UNL     1       0.147   6.098  16.069  1.00  0.00     0.037 A 
ATOM     51  C   UNL     1       2.672  -0.195  17.806  1.00  0.00     0.037 A 
ATOM     52  C   UNL     1       0.338   5.888  17.479  1.00  0.00     0.049 A 
ATOM     53  C   UNL     1       2.407   0.867  18.838  1.00  0.00     0.074 A 
ATOM     54  C   UNL     1       0.068   6.754  18.524  1.00  0.00     0.029 A 
ATOM     55  N   UNL     1       0.852   4.729  18.042  1.00  0.00    -0.354 N 
ATOM     56  N   UNL     1       1.913   2.071  18.679  1.00  0.00    -0.248 NA
ATOM     57  C   UNL     1       2.735   0.533  20.232  1.00  0.00     0.031 C 
ATOM     58  C   UNL     1       0.465   6.139  19.715  1.00  0.00     0.029 A 
ATOM     59  C   UNL     1       0.928   4.867  19.418  1.00  0.00     0.049 A 
ATOM     60  H   UNL     1       1.121   3.927  17.539  1.00  0.00     0.167 HD
ATOM     61  C   UNL     1       1.840   2.624  19.951  1.00  0.00     0.074 A 
ATOM     62  C   UNL     1       2.328   1.619  20.872  1.00  0.00     0.031 C 
ATOM     63  C   UNL     1       1.407   3.854  20.324  1.00  0.00     0.037 A 
BRANCH  50  64
ATOM     64  C   UNL     1      -0.358   7.434  15.606  1.00  0.00     0.057 A 
ATOM     65  C   UNL     1      -1.641   7.592  15.063  1.00  0.00     0.134 A 
ATOM     66  C   UNL     1       0.435   8.582  15.728  1.00  0.00     0.134 A 
ATOM     67  F   UNL     1      -2.448   6.531  14.906  1.00  0.00    -0.206 F 
ATOM     68  C   UNL     1      -2.105   8.835  14.631  1.00  0.00     0.040 A 
ATOM     69  C   UNL     1      -0.029   9.836  15.328  1.00  0.00     0.040 A 
ATOM     70  F   UNL     1       1.671   8.505  16.244  1.00  0.00    -0.206 F 
ATOM     71  C   UNL     1      -1.300   9.964  14.770  1.00  0.00     0.006 A 
ENDBRANCH  50  64
BRANCH  51  72
ATOM     72  C   UNL     1       3.222  -1.516  18.205  1.00  0.00     0.057 A 
ATOM     73  C   UNL     1       2.465  -2.413  18.969  1.00  0.00     0.134 A 
ATOM     74  C   UNL     1       4.518  -1.909  17.850  1.00  0.00     0.134 A 
ATOM     75  F   UNL     1       1.223  -2.087  19.357  1.00  0.00    -0.206 F 
ATOM     76  C   UNL     1       2.984  -3.640  19.387  1.00  0.00     0.040 A 
ATOM     77  C   UNL     1       5.040  -3.145  18.238  1.00  0.00     0.040 A 
ATOM     78  F   UNL     1       5.293  -1.101  17.112  1.00  0.00    -0.206 F 
ATOM     79  C   UNL     1       4.275  -4.010  19.016  1.00  0.00     0.006 A 
ENDBRANCH  51  72
BRANCH  63  80
ATOM     80  C   UNL     1       1.401   4.167  21.792  1.00  0.00     0.057 A 
ATOM     81  C   UNL     1       2.584   4.376  22.512  1.00  0.00     0.134 A 
ATOM     82  C   UNL     1       0.190   4.305  22.484  1.00  0.00     0.134 A 
ATOM     83  F   UNL     1       3.777   4.247  21.913  1.00  0.00    -0.206 F 
ATOM     84  C   UNL     1       2.563   4.685  23.874  1.00  0.00     0.040 A 
ATOM     85  C   UNL     1       0.156   4.644  23.837  1.00  0.00     0.040 A 
ATOM     86  F   UNL     1      -0.980   4.129  21.851  1.00  0.00    -0.206 F 
ATOM     87  C   UNL     1       1.346   4.828  24.537  1.00  0.00     0.006 A 
ENDBRANCH  63  80
ENDBRANCH  37  38
ENDBRANCH  29  32
ENDBRANCH  27  28
ENDBRANCH  26  27
ENDBRANCH   1  26
TORSDOF 15
