REMARK SMILES C=CCC(=O)N[C@@](C)(CC)C(=O)NCCCCNC(=O)c1ccc(-c2c3nc(c(-c4c(F)cccc4F)c4ccc([nH]4)c(-c4c(F)cccc4F)c4nc(c(-c5c(F)cccc5F)c5ccc2[nH]5)C=C4)C=C3)cc1
REMARK SMILES IDX 15 1 14 2 13 3 11 4 12 5 7 7 8 8 6 9 4 10 5 11 3 13 2 14
REMARK SMILES IDX 1 15 9 16 10 17 16 18 17 19 18 20 19 21 20 23 21 24 22 25
REMARK SMILES IDX 74 26 23 27 73 28 24 29 25 30 26 31 67 32 27 33 72 34 66 35
REMARK SMILES IDX 68 36 28 37 71 38 65 39 64 40 29 42 55 43 38 44 54 45 39 46
REMARK SMILES IDX 42 47 53 48 69 49 40 50 41 51 52 53 70 54 43 55 30 56 31 57
REMARK SMILES IDX 36 58 32 59 33 60 35 61 37 62 34 63 56 64 57 65 62 66 58 67
REMARK SMILES IDX 59 68 61 69 63 70 60 71 44 72 45 73 50 74 46 75 47 76 49 77
REMARK SMILES IDX 51 78 48 79
REMARK H PARENT 13 6 6 12 18 22 68 41 42 52
REMARK Flexibility Score: inf
ROOT
ATOM      1  C   UNL     1       0.577   4.251   1.985  1.00  0.00     0.023 C 
ENDROOT
BRANCH   1   2
ATOM      2  C   UNL     1       1.185   3.596   0.743  1.00  0.00     0.116 C 
BRANCH   2   3
ATOM      3  N   UNL     1       0.703   2.236   0.608  1.00  0.00    -0.354 N 
ATOM      4  C   UNL     1      -0.440   1.805  -0.003  1.00  0.00     0.245 C 
ATOM      5  O   UNL     1      -1.132   1.024   0.656  1.00  0.00    -0.272 OA
ATOM      6  H   UNL     1       1.270   1.536   1.006  1.00  0.00     0.163 HD
BRANCH   4   7
ATOM      7  C   UNL     1      -0.864   2.322  -1.411  1.00  0.00     0.116 C 
ATOM      8  C   UNL     1       0.347   2.567  -2.335  1.00  0.00     0.045 C 
BRANCH   7   9
ATOM      9  N   UNL     1      -1.764   1.382  -2.141  1.00  0.00    -0.342 N 
ATOM     10  C   UNL     1      -1.620   0.074  -2.489  1.00  0.00     0.224 C 
ATOM     11  O   UNL     1      -2.108  -0.270  -3.571  1.00  0.00    -0.275 OA
ATOM     12  H   UNL     1      -2.619   1.782  -2.423  1.00  0.00     0.164 HD
BRANCH  10  13
ATOM     13  C   UNL     1      -0.993  -0.963  -1.563  1.00  0.00     0.126 C 
BRANCH  13  14
ATOM     14  C   UNL     1       0.506  -0.983  -1.561  1.00  0.00    -0.025 C 
ATOM     15  C   UNL     1       1.243  -1.060  -0.444  1.00  0.00     0.004 C 
ENDBRANCH  13  14
ENDBRANCH  10  13
ENDBRANCH   7   9
BRANCH   7  16
ATOM     16  C   UNL     1      -1.651   3.653  -1.230  1.00  0.00     0.035 C 
ATOM     17  C   UNL     1      -2.957   3.508  -0.448  1.00  0.00     0.007 C 
ENDBRANCH   7  16
ENDBRANCH   4   7
ENDBRANCH   2   3
ENDBRANCH   1   2
BRANCH   1  18
ATOM     18  C   UNL     1       0.922   3.552   3.306  1.00  0.00     0.023 C 
BRANCH  18  19
ATOM     19  C   UNL     1       2.410   3.317   3.547  1.00  0.00     0.116 C 
BRANCH  19  20
ATOM     20  N   UNL     1       3.188   4.541   3.465  1.00  0.00    -0.352 N 
ATOM     21  C   UNL     1       4.197   4.990   4.274  1.00  0.00     0.251 C 
ATOM     22  H   UNL     1       2.955   5.137   2.716  1.00  0.00     0.163 HD
ATOM     23  O   UNL     1       4.637   6.130   4.120  1.00  0.00    -0.269 OA
BRANCH  21  24
ATOM     24  C   UNL     1       4.741   4.132   5.346  1.00  0.00     0.039 A 
ATOM     25  C   UNL     1       5.000   4.711   6.590  1.00  0.00     0.014 A 
ATOM     26  C   UNL     1       5.017   2.778   5.133  1.00  0.00     0.014 A 
ATOM     27  C   UNL     1       5.492   3.925   7.631  1.00  0.00     0.010 A 
ATOM     28  C   UNL     1       5.440   1.978   6.193  1.00  0.00     0.010 A 
ATOM     29  C   UNL     1       5.690   2.545   7.451  1.00  0.00    -0.014 A 
BRANCH  29  30
ATOM     30  C   UNL     1       6.149   1.703   8.584  1.00  0.00     0.031 A 
ATOM     31  C   UNL     1       7.495   1.034   8.550  1.00  0.00     0.074 A 
ATOM     32  C   UNL     1       5.337   1.533   9.645  1.00  0.00     0.049 A 
ATOM     33  N   UNL     1       8.080   0.312   9.472  1.00  0.00    -0.248 NA
ATOM     34  C   UNL     1       8.276   1.171   7.311  1.00  0.00     0.031 C 
ATOM     35  C   UNL     1       3.982   2.074   9.768  1.00  0.00     0.029 A 
ATOM     36  N   UNL     1       5.536   0.865  10.826  1.00  0.00    -0.354 N 
ATOM     37  C   UNL     1       9.293  -0.090   8.927  1.00  0.00     0.074 A 
ATOM     38  C   UNL     1       9.334   0.416   7.572  1.00  0.00     0.031 C 
ATOM     39  C   UNL     1       3.489   1.754  10.975  1.00  0.00     0.029 A 
ATOM     40  C   UNL     1       4.480   0.965  11.699  1.00  0.00     0.049 A 
ATOM     41  H   UNL     1       6.358   0.361  11.030  1.00  0.00     0.167 HD
ATOM     42  C   UNL     1      10.293  -0.792   9.510  1.00  0.00     0.037 A 
ATOM     43  C   UNL     1       4.333   0.486  12.948  1.00  0.00     0.037 A 
ATOM     44  C   UNL     1      10.256  -1.282  10.864  1.00  0.00     0.049 A 
ATOM     45  C   UNL     1       5.466  -0.271  13.580  1.00  0.00     0.074 A 
ATOM     46  C   UNL     1      11.240  -1.957  11.566  1.00  0.00     0.029 A 
ATOM     47  N   UNL     1       9.174  -1.150  11.722  1.00  0.00    -0.354 N 
ATOM     48  N   UNL     1       6.641  -0.572  13.082  1.00  0.00    -0.248 NA
ATOM     49  C   UNL     1       5.258  -0.742  14.956  1.00  0.00     0.031 C 
ATOM     50  C   UNL     1      10.738  -2.270  12.834  1.00  0.00     0.029 A 
ATOM     51  C   UNL     1       9.459  -1.747  12.940  1.00  0.00     0.049 A 
ATOM     52  H   UNL     1       8.328  -0.699  11.498  1.00  0.00     0.167 HD
ATOM     53  C   UNL     1       7.321  -1.244  14.089  1.00  0.00     0.074 A 
ATOM     54  C   UNL     1       6.434  -1.284  15.234  1.00  0.00     0.031 C 
ATOM     55  C   UNL     1       8.565  -1.782  14.069  1.00  0.00     0.037 A 
BRANCH  42  56
ATOM     56  C   UNL     1      11.519  -1.066   8.686  1.00  0.00     0.057 A 
ATOM     57  C   UNL     1      12.412  -0.046   8.330  1.00  0.00     0.134 A 
ATOM     58  C   UNL     1      11.829  -2.367   8.270  1.00  0.00     0.134 A 
ATOM     59  F   UNL     1      12.168   1.225   8.685  1.00  0.00    -0.206 F 
ATOM     60  C   UNL     1      13.554  -0.305   7.571  1.00  0.00     0.040 A 
ATOM     61  C   UNL     1      12.983  -2.643   7.533  1.00  0.00     0.040 A 
ATOM     62  F   UNL     1      11.021  -3.392   8.579  1.00  0.00    -0.206 F 
ATOM     63  C   UNL     1      13.846  -1.609   7.176  1.00  0.00     0.006 A 
ENDBRANCH  42  56
BRANCH  43  64
ATOM     64  C   UNL     1       3.081   0.748  13.702  1.00  0.00     0.057 A 
ATOM     65  C   UNL     1       3.067   1.614  14.802  1.00  0.00     0.134 A 
ATOM     66  C   UNL     1       1.874   0.133  13.349  1.00  0.00     0.134 A 
ATOM     67  F   UNL     1       4.196   2.219  15.198  1.00  0.00    -0.206 F 
ATOM     68  C   UNL     1       1.904   1.841  15.539  1.00  0.00     0.040 A 
ATOM     69  C   UNL     1       0.697   0.372  14.061  1.00  0.00     0.040 A 
ATOM     70  F   UNL     1       1.819  -0.699  12.299  1.00  0.00    -0.206 F 
ATOM     71  C   UNL     1       0.713   1.222  15.165  1.00  0.00     0.006 A 
ENDBRANCH  43  64
BRANCH  55  72
ATOM     72  C   UNL     1       9.042  -2.435  15.333  1.00  0.00     0.057 A 
ATOM     73  C   UNL     1       8.505  -3.647  15.790  1.00  0.00     0.134 A 
ATOM     74  C   UNL     1      10.052  -1.845  16.104  1.00  0.00     0.134 A 
ATOM     75  F   UNL     1       7.526  -4.257  15.105  1.00  0.00    -0.206 F 
ATOM     76  C   UNL     1       8.929  -4.227  16.986  1.00  0.00     0.040 A 
ATOM     77  C   UNL     1      10.505  -2.432  17.286  1.00  0.00     0.040 A 
ATOM     78  F   UNL     1      10.617  -0.691  15.719  1.00  0.00    -0.206 F 
ATOM     79  C   UNL     1       9.934  -3.620  17.736  1.00  0.00     0.006 A 
ENDBRANCH  55  72
ENDBRANCH  29  30
ENDBRANCH  21  24
ENDBRANCH  19  20
ENDBRANCH  18  19
ENDBRANCH   1  18
TORSDOF 15
