REMARK SMILES CC(C)N(CC1CC1)C(=O)NC1(CC(=O)NCCCCNC(=O)c2ccc(-c3c4nc(c(-c5c(F)cccc5F)c5ccc([nH]5)c(-c5c(F)cccc5F)c5nc(c(-c6c(F)cccc6F)c6ccc3[nH]6)C=C5)C=C4)cc2)CCC1
REMARK SMILES IDX 17 1 16 2 14 3 15 4 13 6 12 7 78 8 80 9 79 10 11 11 9 12
REMARK SMILES IDX 10 13 4 15 2 16 1 17 3 18 5 19 6 20 7 21 8 22 18 23 19 24
REMARK SMILES IDX 20 25 21 26 22 27 23 29 24 30 25 31 77 32 26 33 76 34 27 35
REMARK SMILES IDX 28 36 29 37 70 38 30 39 75 40 69 41 71 42 31 43 74 44 68 45
REMARK SMILES IDX 67 46 32 48 58 49 41 50 57 51 42 52 45 53 56 54 72 55 43 56
REMARK SMILES IDX 44 57 55 59 73 60 46 61 33 62 34 63 39 64 35 65 36 66 38 67
REMARK SMILES IDX 40 68 37 69 59 70 60 71 65 72 61 73 62 74 64 75 66 76 63 77
REMARK SMILES IDX 47 78 48 79 53 80 49 81 50 82 52 83 54 84 51 85
REMARK H PARENT 16 5 11 14 21 28 71 47 45 58
REMARK Flexibility Score: inf
ROOT
ATOM      1  C   UNL     1      -6.288   3.724  -1.373  1.00  0.00     0.116 C 
ENDROOT
BRANCH   1   2
ATOM      2  N   UNL     1      -6.127   2.537  -2.184  1.00  0.00    -0.356 N 
ATOM      3  C   UNL     1      -5.722   1.289  -1.827  1.00  0.00     0.222 C 
ATOM      4  O   UNL     1      -5.468   0.492  -2.734  1.00  0.00    -0.275 OA
ATOM      5  H   UNL     1      -6.342   2.649  -3.138  1.00  0.00     0.163 HD
BRANCH   3   6
ATOM      6  C   UNL     1      -5.549   0.869  -0.377  1.00  0.00     0.128 C 
BRANCH   6   7
ATOM      7  C   UNL     1      -4.200   1.232   0.316  1.00  0.00     0.051 C 
ATOM      8  C   UNL     1      -3.912   0.342   1.558  1.00  0.00     0.029 C 
ATOM      9  C   UNL     1      -4.415   2.429   1.272  1.00  0.00     0.029 C 
ATOM     10  C   UNL     1      -4.262   1.508   2.487  1.00  0.00     0.005 C 
BRANCH   7  11
ATOM     11  N   UNL     1      -3.113   1.223  -0.709  1.00  0.00    -0.332 N 
ATOM     12  C   UNL     1      -1.774   1.060  -0.801  1.00  0.00     0.318 C 
ATOM     13  O   UNL     1      -1.435   0.432  -1.811  1.00  0.00    -0.249 OA
ATOM     14  H   UNL     1      -3.493   1.390  -1.602  1.00  0.00     0.165 HD
BRANCH  12  15
ATOM     15  N   UNL     1      -0.847   1.598   0.045  1.00  0.00    -0.322 N 
BRANCH  15  16
ATOM     16  C   UNL     1       0.592   1.324  -0.211  1.00  0.00     0.080 C 
ATOM     17  C   UNL     1       0.942  -0.169  -0.192  1.00  0.00     0.031 C 
ATOM     18  C   UNL     1       1.111   2.004  -1.482  1.00  0.00     0.031 C 
ENDBRANCH  15  16
BRANCH  15  19
ATOM     19  C   UNL     1      -1.105   2.626   1.038  1.00  0.00     0.125 C 
BRANCH  19  20
ATOM     20  C   UNL     1      -1.490   3.926   0.400  1.00  0.00     0.009 C 
ATOM     21  C   UNL     1      -1.489   5.173   1.247  1.00  0.00     0.006 C 
ATOM     22  C   UNL     1      -0.535   5.046   0.092  1.00  0.00     0.006 C 
ENDBRANCH  19  20
ENDBRANCH  15  19
ENDBRANCH  12  15
ENDBRANCH   7  11
ENDBRANCH   6   7
ENDBRANCH   3   6
ENDBRANCH   1   2
BRANCH   1  23
ATOM     23  C   UNL     1      -4.973   4.497  -1.270  1.00  0.00     0.023 C 
BRANCH  23  24
ATOM     24  C   UNL     1      -4.701   5.471  -2.416  1.00  0.00     0.023 C 
BRANCH  24  25
ATOM     25  C   UNL     1      -5.586   6.712  -2.414  1.00  0.00     0.116 C 
BRANCH  25  26
ATOM     26  N   UNL     1      -5.373   7.583  -1.266  1.00  0.00    -0.352 N 
ATOM     27  C   UNL     1      -5.457   8.958  -1.213  1.00  0.00     0.251 C 
ATOM     28  H   UNL     1      -5.141   7.133  -0.422  1.00  0.00     0.163 HD
ATOM     29  O   UNL     1      -5.178   9.564  -0.184  1.00  0.00    -0.269 OA
BRANCH  27  30
ATOM     30  C   UNL     1      -5.831   9.699  -2.437  1.00  0.00     0.039 A 
ATOM     31  C   UNL     1      -5.002  10.731  -2.882  1.00  0.00     0.014 A 
ATOM     32  C   UNL     1      -6.942   9.309  -3.187  1.00  0.00     0.014 A 
ATOM     33  C   UNL     1      -5.225  11.300  -4.138  1.00  0.00     0.010 A 
ATOM     34  C   UNL     1      -7.117   9.822  -4.467  1.00  0.00     0.010 A 
ATOM     35  C   UNL     1      -6.248  10.807  -4.964  1.00  0.00    -0.014 A 
BRANCH  35  36
ATOM     36  C   UNL     1      -6.412  11.268  -6.366  1.00  0.00     0.031 A 
ATOM     37  C   UNL     1      -7.681  11.949  -6.791  1.00  0.00     0.074 A 
ATOM     38  C   UNL     1      -5.464  10.976  -7.279  1.00  0.00     0.049 A 
ATOM     39  N   UNL     1      -8.073  12.293  -7.991  1.00  0.00    -0.248 NA
ATOM     40  C   UNL     1      -8.653  12.252  -5.729  1.00  0.00     0.031 C 
ATOM     41  C   UNL     1      -4.208  10.273  -7.005  1.00  0.00     0.029 A 
ATOM     42  N   UNL     1      -5.420  11.216  -8.630  1.00  0.00    -0.354 N 
ATOM     43  C   UNL     1      -9.344  12.829  -7.832  1.00  0.00     0.074 A 
ATOM     44  C   UNL     1      -9.676  12.723  -6.428  1.00  0.00     0.031 C 
ATOM     45  C   UNL     1      -3.511  10.155  -8.147  1.00  0.00     0.029 A 
ATOM     46  C   UNL     1      -4.286  10.734  -9.239  1.00  0.00     0.049 A 
ATOM     47  H   UNL     1      -6.133  11.690  -9.116  1.00  0.00     0.167 HD
ATOM     48  C   UNL     1     -10.153  13.379  -8.768  1.00  0.00     0.037 A 
ATOM     49  C   UNL     1      -3.920  10.742 -10.535  1.00  0.00     0.037 A 
ATOM     50  C   UNL     1      -9.806  13.517 -10.158  1.00  0.00     0.049 A 
ATOM     51  C   UNL     1      -4.837  11.357 -11.556  1.00  0.00     0.074 A 
ATOM     52  C   UNL     1     -10.527  14.128 -11.169  1.00  0.00     0.029 A 
ATOM     53  N   UNL     1      -8.639  13.037 -10.731  1.00  0.00    -0.354 N 
ATOM     54  N   UNL     1      -6.008  11.917 -11.381  1.00  0.00    -0.248 NA
ATOM     55  C   UNL     1      -4.381  11.337 -12.954  1.00  0.00     0.031 C 
ATOM     56  C   UNL     1      -9.811  13.987 -12.362  1.00  0.00     0.029 A 
ATOM     57  C   UNL     1      -8.628  13.320 -12.086  1.00  0.00     0.049 A 
ATOM     58  H   UNL     1      -7.923  12.565 -10.246  1.00  0.00     0.167 HD
ATOM     59  C   UNL     1      -6.421  12.335 -12.639  1.00  0.00     0.074 A 
ATOM     60  C   UNL     1      -5.369  11.975 -13.567  1.00  0.00     0.031 C 
ATOM     61  C   UNL     1      -7.569  12.960 -12.994  1.00  0.00     0.037 A 
BRANCH  48  62
ATOM     62  C   UNL     1     -11.491  13.880  -8.314  1.00  0.00     0.057 A 
ATOM     63  C   UNL     1     -11.618  15.031  -7.526  1.00  0.00     0.134 A 
ATOM     64  C   UNL     1     -12.668  13.219  -8.688  1.00  0.00     0.134 A 
ATOM     65  F   UNL     1     -10.528  15.702  -7.123  1.00  0.00    -0.206 F 
ATOM     66  C   UNL     1     -12.865  15.493  -7.104  1.00  0.00     0.040 A 
ATOM     67  C   UNL     1     -13.922  13.686  -8.293  1.00  0.00     0.040 A 
ATOM     68  F   UNL     1     -12.617  12.113  -9.445  1.00  0.00    -0.206 F 
ATOM     69  C   UNL     1     -14.023  14.822  -7.493  1.00  0.00     0.006 A 
ENDBRANCH  48  62
BRANCH  49  70
ATOM     70  C   UNL     1      -2.616  10.162 -10.943  1.00  0.00     0.057 A 
ATOM     71  C   UNL     1      -1.562  10.986 -11.354  1.00  0.00     0.134 A 
ATOM     72  C   UNL     1      -2.393   8.781 -10.939  1.00  0.00     0.134 A 
ATOM     73  F   UNL     1      -1.723  12.316 -11.398  1.00  0.00    -0.206 F 
ATOM     74  C   UNL     1      -0.337  10.456 -11.762  1.00  0.00     0.040 A 
ATOM     75  C   UNL     1      -1.165   8.238 -11.323  1.00  0.00     0.040 A 
ATOM     76  F   UNL     1      -3.362   7.939 -10.550  1.00  0.00    -0.206 F 
ATOM     77  C   UNL     1      -0.135   9.078 -11.742  1.00  0.00     0.006 A 
ENDBRANCH  49  70
BRANCH  61  78
ATOM     78  C   UNL     1      -7.738  13.319 -14.440  1.00  0.00     0.057 A 
ATOM     79  C   UNL     1      -8.045  12.353 -15.405  1.00  0.00     0.134 A 
ATOM     80  C   UNL     1      -7.644  14.652 -14.860  1.00  0.00     0.134 A 
ATOM     81  F   UNL     1      -8.134  11.058 -15.068  1.00  0.00    -0.206 F 
ATOM     82  C   UNL     1      -8.242  12.699 -16.743  1.00  0.00     0.040 A 
ATOM     83  C   UNL     1      -7.861  15.013 -16.190  1.00  0.00     0.040 A 
ATOM     84  F   UNL     1      -7.359  15.624 -13.981  1.00  0.00    -0.206 F 
ATOM     85  C   UNL     1      -8.158  14.034 -17.136  1.00  0.00     0.006 A 
ENDBRANCH  61  78
ENDBRANCH  35  36
ENDBRANCH  27  30
ENDBRANCH  25  26
ENDBRANCH  24  25
ENDBRANCH  23  24
ENDBRANCH   1  23
TORSDOF 17
