REMARK SMILES CS(=O)(=O)NCC[NH2+]Cc1ccc(C(=O)NCCCCNC(=O)c2ccc(-c3c4nc(c(-c5c(F)cccc5F)c5ccc([nH]5)c(-c5c(F)cccc5F)c5nc(c(-c6c(F)cccc6F)c6ccc3[nH]6)C=C5)C=C4)cc2)cn1
REMARK SMILES IDX 14 1 15 2 16 3 13 5 10 6 11 7 79 8 12 9 78 10 9 11 8 12 7 15
REMARK SMILES IDX 6 16 5 17 2 19 1 20 3 21 4 22 17 23 18 24 19 25 20 26 21 27
REMARK SMILES IDX 22 28 23 30 24 31 25 32 77 33 26 34 76 35 27 36 28 37 29 38
REMARK SMILES IDX 70 39 30 40 75 41 69 42 71 43 31 44 74 45 68 46 67 47 32 49
REMARK SMILES IDX 58 50 41 51 57 52 42 53 45 54 56 55 72 56 43 57 44 58 55 60
REMARK SMILES IDX 73 61 46 62 33 63 34 64 39 65 35 66 36 67 38 68 40 69 37 70
REMARK SMILES IDX 59 71 60 72 65 73 61 74 62 75 64 76 66 77 63 78 47 79 48 80
REMARK SMILES IDX 53 81 49 82 50 83 52 84 54 85 51 86
REMARK H PARENT 16 4 8 13 8 14 5 18 21 29 71 48 45 59
REMARK Flexibility Score: inf
ROOT
ATOM      1  C   UNL     1       1.488  -4.995  -3.722  1.00  0.00     0.252 C 
ATOM      2  O   UNL     1       0.641  -4.992  -2.830  1.00  0.00    -0.269 OA
ATOM      3  N   UNL     1       1.955  -6.208  -4.154  1.00  0.00    -0.352 N 
ATOM      4  H   UNL     1       1.579  -6.984  -3.679  1.00  0.00     0.163 HD
ENDROOT
BRANCH   1   5
ATOM      5  C   UNL     1       1.931  -3.712  -4.314  1.00  0.00     0.058 A 
ATOM      6  C   UNL     1       2.538  -1.183  -5.236  1.00  0.00     0.094 A 
ATOM      7  C   UNL     1       3.525  -2.161  -5.264  1.00  0.00     0.030 A 
ATOM      8  N   UNL     1       1.269  -1.440  -4.835  1.00  0.00    -0.255 NA
ATOM      9  C   UNL     1       3.217  -3.433  -4.779  1.00  0.00     0.017 A 
ATOM     10  C   UNL     1       1.005  -2.680  -4.352  1.00  0.00     0.125 A 
BRANCH   6  11
ATOM     11  C   UNL     1       2.875   0.274  -5.494  1.00  0.00     0.317 C 
BRANCH  11  12
ATOM     12  N   UNL     1       2.342   1.161  -4.432  1.00  0.00    -0.340 N 
ATOM     13  H   UNL     1       2.442   2.132  -4.727  1.00  0.00     0.346 HD
ATOM     14  H   UNL     1       1.359   0.933  -4.280  1.00  0.00     0.346 HD
BRANCH  12  15
ATOM     15  C   UNL     1       3.072   0.963  -3.166  1.00  0.00     0.277 C 
BRANCH  15  16
ATOM     16  C   UNL     1       2.542   1.861  -2.037  1.00  0.00     0.159 C 
BRANCH  16  17
ATOM     17  N   UNL     1       1.078   1.803  -1.855  1.00  0.00    -0.210 NA
ATOM     18  H   UNL     1       0.831   2.590  -1.254  1.00  0.00     0.141 HD
BRANCH  17  19
ATOM     19  S   UNL     1       0.331   0.456  -1.200  1.00  0.00     0.208 S 
ATOM     20  C   UNL     1       0.934   0.419   0.471  1.00  0.00     0.176 C 
ATOM     21  O   UNL     1       0.824  -0.719  -1.870  1.00  0.00    -0.213 OA
ATOM     22  O   UNL     1      -1.083   0.766  -1.166  1.00  0.00    -0.213 OA
ENDBRANCH  17  19
ENDBRANCH  16  17
ENDBRANCH  15  16
ENDBRANCH  12  15
ENDBRANCH  11  12
ENDBRANCH   6  11
ENDBRANCH   1   5
BRANCH   3  23
ATOM     23  C   UNL     1       2.909  -6.542  -5.189  1.00  0.00     0.116 C 
BRANCH  23  24
ATOM     24  C   UNL     1       4.261  -6.887  -4.564  1.00  0.00     0.023 C 
BRANCH  24  25
ATOM     25  C   UNL     1       4.336  -8.308  -4.003  1.00  0.00     0.023 C 
BRANCH  25  26
ATOM     26  C   UNL     1       4.086  -9.403  -5.031  1.00  0.00     0.116 C 
BRANCH  26  27
ATOM     27  N   UNL     1       4.968  -9.313  -6.186  1.00  0.00    -0.352 N 
ATOM     28  C   UNL     1       5.482 -10.338  -6.940  1.00  0.00     0.251 C 
ATOM     29  H   UNL     1       5.229  -8.404  -6.459  1.00  0.00     0.163 HD
ATOM     30  O   UNL     1       6.324 -10.119  -7.804  1.00  0.00    -0.269 OA
BRANCH  28  31
ATOM     31  C   UNL     1       5.026 -11.713  -6.668  1.00  0.00     0.039 A 
ATOM     32  C   UNL     1       5.976 -12.721  -6.505  1.00  0.00     0.014 A 
ATOM     33  C   UNL     1       3.662 -11.988  -6.533  1.00  0.00     0.014 A 
ATOM     34  C   UNL     1       5.555 -14.005  -6.162  1.00  0.00     0.010 A 
ATOM     35  C   UNL     1       3.254 -13.242  -6.101  1.00  0.00     0.010 A 
ATOM     36  C   UNL     1       4.194 -14.269  -5.933  1.00  0.00    -0.014 A 
BRANCH  36  37
ATOM     37  C   UNL     1       3.727 -15.627  -5.564  1.00  0.00     0.031 A 
ATOM     38  C   UNL     1       2.802 -16.372  -6.487  1.00  0.00     0.074 A 
ATOM     39  C   UNL     1       4.096 -16.168  -4.387  1.00  0.00     0.049 A 
ATOM     40  N   UNL     1       2.244 -17.545  -6.330  1.00  0.00    -0.248 NA
ATOM     41  C   UNL     1       2.429 -15.694  -7.741  1.00  0.00     0.031 C 
ATOM     42  C   UNL     1       4.951 -15.524  -3.388  1.00  0.00     0.029 A 
ATOM     43  N   UNL     1       3.792 -17.384  -3.831  1.00  0.00    -0.354 N 
ATOM     44  C   UNL     1       1.449 -17.736  -7.453  1.00  0.00     0.074 A 
ATOM     45  C   UNL     1       1.540 -16.533  -8.248  1.00  0.00     0.031 C 
ATOM     46  C   UNL     1       5.128 -16.364  -2.356  1.00  0.00     0.029 A 
ATOM     47  C   UNL     1       4.368 -17.586  -2.600  1.00  0.00     0.049 A 
ATOM     48  H   UNL     1       3.216 -18.050  -4.272  1.00  0.00     0.167 HD
ATOM     49  C   UNL     1       0.733 -18.829  -7.807  1.00  0.00     0.037 A 
ATOM     50  C   UNL     1       4.287 -18.638  -1.764  1.00  0.00     0.037 A 
ATOM     51  C   UNL     1       0.664 -20.032  -7.022  1.00  0.00     0.049 A 
ATOM     52  C   UNL     1       3.470 -19.834  -2.171  1.00  0.00     0.074 A 
ATOM     53  C   UNL     1       0.010 -21.215  -7.313  1.00  0.00     0.029 A 
ATOM     54  N   UNL     1       1.270 -20.202  -5.785  1.00  0.00    -0.354 N 
ATOM     55  N   UNL     1       2.780 -20.031  -3.269  1.00  0.00    -0.248 NA
ATOM     56  C   UNL     1       3.429 -20.959  -1.227  1.00  0.00     0.031 C 
ATOM     57  C   UNL     1       0.172 -22.081  -6.228  1.00  0.00     0.029 A 
ATOM     58  C   UNL     1       0.984 -21.463  -5.290  1.00  0.00     0.049 A 
ATOM     59  H   UNL     1       1.821 -19.527  -5.328  1.00  0.00     0.167 HD
ATOM     60  C   UNL     1       2.255 -21.313  -3.165  1.00  0.00     0.074 A 
ATOM     61  C   UNL     1       2.717 -21.851  -1.902  1.00  0.00     0.031 C 
ATOM     62  C   UNL     1       1.463 -21.986  -4.035  1.00  0.00     0.037 A 
BRANCH  49  63
ATOM     63  C   UNL     1      -0.031 -18.768  -9.099  1.00  0.00     0.057 A 
ATOM     64  C   UNL     1       0.616 -18.725 -10.342  1.00  0.00     0.134 A 
ATOM     65  C   UNL     1      -1.431 -18.776  -9.103  1.00  0.00     0.134 A 
ATOM     66  F   UNL     1       1.956 -18.700 -10.412  1.00  0.00    -0.206 F 
ATOM     67  C   UNL     1      -0.101 -18.659 -11.539  1.00  0.00     0.040 A 
ATOM     68  C   UNL     1      -2.159 -18.745 -10.294  1.00  0.00     0.040 A 
ATOM     69  F   UNL     1      -2.116 -18.822  -7.950  1.00  0.00    -0.206 F 
ATOM     70  C   UNL     1      -1.494 -18.677 -11.516  1.00  0.00     0.006 A 
ENDBRANCH  49  63
BRANCH  50  71
ATOM     71  C   UNL     1       5.015 -18.621  -0.468  1.00  0.00     0.057 A 
ATOM     72  C   UNL     1       6.094 -19.481  -0.232  1.00  0.00     0.134 A 
ATOM     73  C   UNL     1       4.640 -17.760   0.571  1.00  0.00     0.134 A 
ATOM     74  F   UNL     1       6.491 -20.341  -1.182  1.00  0.00    -0.206 F 
ATOM     75  C   UNL     1       6.755 -19.508   0.997  1.00  0.00     0.040 A 
ATOM     76  C   UNL     1       5.311 -17.755   1.795  1.00  0.00     0.040 A 
ATOM     77  F   UNL     1       3.622 -16.903   0.407  1.00  0.00    -0.206 F 
ATOM     78  C   UNL     1       6.366 -18.638   2.014  1.00  0.00     0.006 A 
ENDBRANCH  50  71
BRANCH  62  79
ATOM     79  C   UNL     1       1.089 -23.397  -3.679  1.00  0.00     0.057 A 
ATOM     80  C   UNL     1       0.205 -23.694  -2.635  1.00  0.00     0.134 A 
ATOM     81  C   UNL     1       1.593 -24.472  -4.424  1.00  0.00     0.134 A 
ATOM     82  F   UNL     1      -0.306 -22.712  -1.876  1.00  0.00    -0.206 F 
ATOM     83  C   UNL     1      -0.141 -25.010  -2.324  1.00  0.00     0.040 A 
ATOM     84  C   UNL     1       1.228 -25.789  -4.145  1.00  0.00     0.040 A 
ATOM     85  F   UNL     1       2.436 -24.259  -5.446  1.00  0.00    -0.206 F 
ATOM     86  C   UNL     1       0.365 -26.061  -3.086  1.00  0.00     0.006 A 
ENDBRANCH  62  79
ENDBRANCH  36  37
ENDBRANCH  28  31
ENDBRANCH  26  27
ENDBRANCH  25  26
ENDBRANCH  24  25
ENDBRANCH  23  24
ENDBRANCH   3  23
TORSDOF 17
