REMARK SMILES CCc1ccc(Nc2nc(OCC(=O)NCCCCNC(=O)c3ccc(-c4c5nc(c(-c6c(F)cccc6F)c6ccc([nH]6)c(-c6c(F)cccc6F)c6nc(c(-c7c(F)cccc7F)c7ccc4[nH]7)C=C6)C=C5)cc3)cc(-c3cccnc3)n2)cc1
REMARK SMILES IDX 16 1 15 2 13 3 14 4 12 6 11 7 10 8 8 9 9 10 85 11 78 12
REMARK SMILES IDX 77 13 7 14 6 16 3 17 4 18 87 19 5 20 86 21 2 22 1 23 79 24
REMARK SMILES IDX 80 25 84 26 81 27 83 28 82 29 17 30 18 31 19 32 20 33 21 34
REMARK SMILES IDX 22 36 23 37 24 38 76 39 25 40 75 41 26 42 27 43 28 44 69 45
REMARK SMILES IDX 29 46 74 47 68 48 70 49 30 50 73 51 67 52 66 53 31 55 57 56
REMARK SMILES IDX 40 57 56 58 41 59 44 60 55 61 71 62 42 63 43 64 54 66 72 67
REMARK SMILES IDX 45 68 32 69 33 70 38 71 34 72 35 73 37 74 39 75 36 76 58 77
REMARK SMILES IDX 59 78 64 79 60 80 61 81 63 82 65 83 62 84 46 85 47 86 52 87
REMARK SMILES IDX 48 88 49 89 51 90 53 91 50 92
REMARK H PARENT 15 5 7 15 20 35 70 54 44 65
REMARK Flexibility Score: inf
ROOT
ATOM      1  C   UNL     1       3.655  -9.050  -2.293  1.00  0.00     0.116 C 
ENDROOT
BRANCH   1   2
ATOM      2  N   UNL     1       2.311  -9.573  -2.441  1.00  0.00    -0.353 N 
ATOM      3  C   UNL     1       1.624  -9.828  -3.590  1.00  0.00     0.258 C 
ATOM      4  O   UNL     1       0.471 -10.255  -3.507  1.00  0.00    -0.271 OA
ATOM      5  H   UNL     1       1.833  -9.769  -1.603  1.00  0.00     0.163 HD
BRANCH   3   6
ATOM      6  C   UNL     1       2.294  -9.596  -4.953  1.00  0.00     0.331 C 
BRANCH   6   7
ATOM      7  O   UNL     1       2.715  -8.277  -5.257  1.00  0.00    -0.467 OA
BRANCH   7   8
ATOM      8  C   UNL     1       1.763  -7.297  -5.294  1.00  0.00     0.219 A 
ATOM      9  C   UNL     1       1.452  -5.028  -5.197  1.00  0.00     0.231 A 
ATOM     10  N   UNL     1       2.295  -6.063  -5.292  1.00  0.00    -0.177 NA
ATOM     11  N   UNL     1       0.118  -5.160  -5.177  1.00  0.00    -0.212 NA
ATOM     12  C   UNL     1      -0.390  -6.401  -5.222  1.00  0.00     0.081 A 
ATOM     13  C   UNL     1       0.409  -7.518  -5.290  1.00  0.00     0.097 A 
BRANCH   9  14
ATOM     14  N   UNL     1       2.023  -3.767  -5.040  1.00  0.00    -0.324 N 
ATOM     15  H   UNL     1       2.791  -3.567  -5.622  1.00  0.00     0.170 HD
BRANCH  14  16
ATOM     16  C   UNL     1       1.639  -2.746  -4.156  1.00  0.00     0.041 A 
ATOM     17  C   UNL     1       0.917  -0.673  -2.364  1.00  0.00    -0.048 A 
ATOM     18  C   UNL     1       0.353  -1.945  -2.247  1.00  0.00     0.006 A 
ATOM     19  C   UNL     1       1.818  -0.433  -3.408  1.00  0.00     0.006 A 
ATOM     20  C   UNL     1       0.705  -2.960  -3.135  1.00  0.00     0.026 A 
ATOM     21  C   UNL     1       2.171  -1.459  -4.296  1.00  0.00     0.026 A 
BRANCH  17  22
ATOM     22  C   UNL     1       0.547   0.406  -1.380  1.00  0.00     0.032 C 
ATOM     23  C   UNL     1       1.042   0.096   0.028  1.00  0.00     0.009 C 
ENDBRANCH  17  22
ENDBRANCH  14  16
ENDBRANCH   9  14
BRANCH  12  24
ATOM     24  C   UNL     1      -1.843  -6.508  -5.136  1.00  0.00     0.019 A 
ATOM     25  C   UNL     1      -2.470  -7.174  -4.074  1.00  0.00     0.013 A 
ATOM     26  C   UNL     1      -2.672  -5.982  -6.122  1.00  0.00     0.121 A 
ATOM     27  C   UNL     1      -3.856  -7.306  -4.052  1.00  0.00     0.021 A 
ATOM     28  N   UNL     1      -4.023  -6.109  -6.138  1.00  0.00    -0.264 NA
ATOM     29  C   UNL     1      -4.581  -6.770  -5.102  1.00  0.00     0.111 A 
ENDBRANCH  12  24
ENDBRANCH   7   8
ENDBRANCH   6   7
ENDBRANCH   3   6
ENDBRANCH   1   2
BRANCH   1  30
ATOM     30  C   UNL     1       3.662  -7.644  -1.698  1.00  0.00     0.023 C 
BRANCH  30  31
ATOM     31  C   UNL     1       3.058  -7.527  -0.295  1.00  0.00     0.023 C 
BRANCH  31  32
ATOM     32  C   UNL     1       3.628  -8.477   0.753  1.00  0.00     0.116 C 
BRANCH  32  33
ATOM     33  N   UNL     1       5.057  -8.307   0.963  1.00  0.00    -0.352 N 
ATOM     34  C   UNL     1       5.759  -8.196   2.139  1.00  0.00     0.251 C 
ATOM     35  H   UNL     1       5.601  -8.266   0.143  1.00  0.00     0.163 HD
ATOM     36  O   UNL     1       6.960  -7.934   2.115  1.00  0.00    -0.269 OA
BRANCH  34  37
ATOM     37  C   UNL     1       5.069  -8.357   3.437  1.00  0.00     0.039 A 
ATOM     38  C   UNL     1       5.329  -7.436   4.456  1.00  0.00     0.014 A 
ATOM     39  C   UNL     1       4.167  -9.402   3.653  1.00  0.00     0.014 A 
ATOM     40  C   UNL     1       4.631  -7.521   5.663  1.00  0.00     0.010 A 
ATOM     41  C   UNL     1       3.417  -9.440   4.826  1.00  0.00     0.010 A 
ATOM     42  C   UNL     1       3.639  -8.499   5.843  1.00  0.00    -0.014 A 
BRANCH  42  43
ATOM     43  C   UNL     1       2.820  -8.544   7.083  1.00  0.00     0.031 A 
ATOM     44  C   UNL     1       2.883  -9.739   7.993  1.00  0.00     0.074 A 
ATOM     45  C   UNL     1       1.972  -7.534   7.359  1.00  0.00     0.049 A 
ATOM     46  N   UNL     1       2.201  -9.987   9.084  1.00  0.00    -0.248 NA
ATOM     47  C   UNL     1       3.819 -10.810   7.615  1.00  0.00     0.031 C 
ATOM     48  C   UNL     1       1.785  -6.336   6.538  1.00  0.00     0.029 A 
ATOM     49  N   UNL     1       1.101  -7.357   8.406  1.00  0.00    -0.354 N 
ATOM     50  C   UNL     1       2.619 -11.240   9.515  1.00  0.00     0.074 A 
ATOM     51  C   UNL     1       3.566 -11.728   8.536  1.00  0.00     0.031 C 
ATOM     52  C   UNL     1       0.881  -5.537   7.126  1.00  0.00     0.029 A 
ATOM     53  C   UNL     1       0.392  -6.181   8.341  1.00  0.00     0.049 A 
ATOM     54  H   UNL     1       0.995  -8.010   9.135  1.00  0.00     0.167 HD
ATOM     55  C   UNL     1       2.265 -11.913  10.636  1.00  0.00     0.037 A 
ATOM     56  C   UNL     1      -0.552  -5.683   9.162  1.00  0.00     0.037 A 
ATOM     57  C   UNL     1       1.330 -11.421  11.615  1.00  0.00     0.049 A 
ATOM     58  C   UNL     1      -0.953  -6.465  10.382  1.00  0.00     0.074 A 
ATOM     59  C   UNL     1       0.941 -12.008  12.807  1.00  0.00     0.029 A 
ATOM     60  N   UNL     1       0.631 -10.227  11.511  1.00  0.00    -0.354 N 
ATOM     61  N   UNL     1      -0.502  -7.619  10.811  1.00  0.00    -0.248 NA
ATOM     62  C   UNL     1      -1.994  -5.873  11.235  1.00  0.00     0.031 C 
ATOM     63  C   UNL     1      -0.032 -11.195  13.398  1.00  0.00     0.029 A 
ATOM     64  C   UNL     1      -0.206 -10.073  12.604  1.00  0.00     0.049 A 
ATOM     65  H   UNL     1       0.717  -9.585  10.770  1.00  0.00     0.167 HD
ATOM     66  C   UNL     1      -1.177  -7.874  11.999  1.00  0.00     0.074 A 
ATOM     67  C   UNL     1      -2.058  -6.748  12.228  1.00  0.00     0.031 C 
ATOM     68  C   UNL     1      -1.074  -8.943  12.826  1.00  0.00     0.037 A 
BRANCH  55  69
ATOM     69  C   UNL     1       2.896 -13.258  10.862  1.00  0.00     0.057 A 
ATOM     70  C   UNL     1       4.259 -13.396  11.156  1.00  0.00     0.134 A 
ATOM     71  C   UNL     1       2.127 -14.428  10.811  1.00  0.00     0.134 A 
ATOM     72  F   UNL     1       5.056 -12.318  11.210  1.00  0.00    -0.206 F 
ATOM     73  C   UNL     1       4.842 -14.649  11.356  1.00  0.00     0.040 A 
ATOM     74  C   UNL     1       2.692 -15.684  11.041  1.00  0.00     0.040 A 
ATOM     75  F   UNL     1       0.814 -14.370  10.544  1.00  0.00    -0.206 F 
ATOM     76  C   UNL     1       4.055 -15.798  11.305  1.00  0.00     0.006 A 
ENDBRANCH  55  69
BRANCH  56  77
ATOM     77  C   UNL     1      -1.169  -4.363   8.874  1.00  0.00     0.057 A 
ATOM     78  C   UNL     1      -0.924  -3.258   9.698  1.00  0.00     0.134 A 
ATOM     79  C   UNL     1      -2.028  -4.175   7.785  1.00  0.00     0.134 A 
ATOM     80  F   UNL     1      -0.126  -3.379  10.769  1.00  0.00    -0.206 F 
ATOM     81  C   UNL     1      -1.527  -2.021   9.464  1.00  0.00     0.040 A 
ATOM     82  C   UNL     1      -2.616  -2.936   7.522  1.00  0.00     0.040 A 
ATOM     83  F   UNL     1      -2.299  -5.191   6.952  1.00  0.00    -0.206 F 
ATOM     84  C   UNL     1      -2.373  -1.857   8.369  1.00  0.00     0.006 A 
ENDBRANCH  56  77
BRANCH  68  85
ATOM     85  C   UNL     1      -1.903  -8.928  14.078  1.00  0.00     0.057 A 
ATOM     86  C   UNL     1      -3.295  -9.084  14.052  1.00  0.00     0.134 A 
ATOM     87  C   UNL     1      -1.293  -8.789  15.332  1.00  0.00     0.134 A 
ATOM     88  F   UNL     1      -3.943  -9.208  12.883  1.00  0.00    -0.206 F 
ATOM     89  C   UNL     1      -4.053  -9.077  15.224  1.00  0.00     0.040 A 
ATOM     90  C   UNL     1      -2.037  -8.811  16.513  1.00  0.00     0.040 A 
ATOM     91  F   UNL     1       0.037  -8.645  15.432  1.00  0.00    -0.206 F 
ATOM     92  C   UNL     1      -3.422  -8.948  16.460  1.00  0.00     0.006 A 
ENDBRANCH  68  85
ENDBRANCH  42  43
ENDBRANCH  34  37
ENDBRANCH  32  33
ENDBRANCH  31  32
ENDBRANCH  30  31
ENDBRANCH   1  30
TORSDOF 17
