REMARK SMILES Cc1ccc(-c2cnnc(-n3nc(C)c4c3NC(=O)C[C@@H]4c3ccc(C(=O)NCCCCNC(=O)c4ccc(-c5c6nc(c(-c7c(F)cccc7F)c7ccc([nH]7)c(-c7c(F)cccc7F)c7nc(c(-c8c(F)cccc8F)c8ccc5[nH]8)C=C7)C=C6)cc4)cc3)n2)cc1
REMARK SMILES IDX 30 1 29 2 28 3 26 4 27 5 25 7 22 8 23 9 91 10 24 11 90 12
REMARK SMILES IDX 21 13 11 14 12 15 16 16 13 17 15 18 17 19 14 20 18 21 20 23
REMARK SMILES IDX 19 24 10 25 6 26 7 27 92 28 8 29 9 30 5 31 1 32 2 33 3 34
REMARK SMILES IDX 94 35 4 36 93 37 31 38 32 39 33 40 34 41 35 43 36 44 37 45
REMARK SMILES IDX 89 46 38 47 88 48 39 49 40 50 41 51 82 52 42 53 87 54 81 55
REMARK SMILES IDX 83 56 43 57 86 58 80 59 79 60 44 62 70 63 53 64 69 65 54 66
REMARK SMILES IDX 57 67 68 68 84 69 55 70 56 71 67 73 85 74 58 75 45 76 46 77
REMARK SMILES IDX 51 78 47 79 48 80 50 81 52 82 49 83 71 84 72 85 77 86 73 87
REMARK SMILES IDX 74 88 76 89 78 90 75 91 59 92 60 93 65 94 61 95 62 96 64 97
REMARK SMILES IDX 66 98 63 99
REMARK H PARENT 28 6 17 22 33 42 83 61 57 72
REMARK Flexibility Score: inf
ROOT
ATOM      1  C   UNL     1     -11.018   6.936  -5.708  1.00  0.00     0.023 C 
ENDROOT
BRANCH   1   2
ATOM      2  C   UNL     1     -11.606   5.639  -6.293  1.00  0.00     0.116 C 
BRANCH   2   3
ATOM      3  N   UNL     1     -11.477   5.548  -7.745  1.00  0.00    -0.352 N 
ATOM      4  C   UNL     1     -10.650   4.791  -8.544  1.00  0.00     0.251 C 
ATOM      5  O   UNL     1     -10.867   4.737  -9.752  1.00  0.00    -0.269 OA
ATOM      6  H   UNL     1     -12.093   6.134  -8.242  1.00  0.00     0.163 HD
BRANCH   4   7
ATOM      7  C   UNL     1      -9.540   3.994  -7.974  1.00  0.00     0.039 A 
ATOM      8  C   UNL     1      -7.705   2.309  -6.673  1.00  0.00    -0.040 A 
ATOM      9  C   UNL     1      -8.345   1.896  -7.856  1.00  0.00     0.005 A 
ATOM     10  C   UNL     1      -7.846   3.646  -6.288  1.00  0.00     0.005 A 
ATOM     11  C   UNL     1      -9.252   2.736  -8.508  1.00  0.00     0.014 A 
ATOM     12  C   UNL     1      -8.762   4.472  -6.927  1.00  0.00     0.014 A 
BRANCH   8  13
ATOM     13  C   UNL     1      -6.941   1.282  -5.865  1.00  0.00     0.064 C 
ATOM     14  N   UNL     1      -5.814   2.106  -2.524  1.00  0.00    -0.180 N 
ATOM     15  N   UNL     1      -7.100   2.504  -2.321  1.00  0.00    -0.168 NA
ATOM     16  C   UNL     1      -5.574   2.075  -3.888  1.00  0.00     0.143 A 
ATOM     17  C   UNL     1      -7.731   2.159  -3.448  1.00  0.00     0.066 A 
ATOM     18  C   UNL     1      -6.799   1.752  -4.449  1.00  0.00     0.026 A 
ATOM     19  N   UNL     1      -4.481   2.333  -4.693  1.00  0.00    -0.310 N 
ATOM     20  C   UNL     1      -9.195   2.399  -3.516  1.00  0.00     0.069 C 
ATOM     21  C   UNL     1      -4.586   2.038  -6.098  1.00  0.00     0.226 C 
ATOM     22  H   UNL     1      -3.652   2.708  -4.316  1.00  0.00     0.171 HD
ATOM     23  C   UNL     1      -5.574   0.955  -6.463  1.00  0.00     0.113 C 
ATOM     24  O   UNL     1      -3.829   2.597  -6.856  1.00  0.00    -0.275 OA
BRANCH  14  25
ATOM     25  C   UNL     1      -5.118   1.389  -1.503  1.00  0.00     0.272 A 
ATOM     26  C   UNL     1      -3.300   0.332  -0.617  1.00  0.00     0.095 A 
ATOM     27  C   UNL     1      -4.121  -0.280   0.315  1.00  0.00     0.164 A 
ATOM     28  N   UNL     1      -3.792   1.146  -1.597  1.00  0.00    -0.208 NA
ATOM     29  N   UNL     1      -5.436  -0.035   0.341  1.00  0.00    -0.153 NA
ATOM     30  N   UNL     1      -5.927   0.845  -0.553  1.00  0.00    -0.109 NA
BRANCH  26  31
ATOM     31  C   UNL     1      -1.841   0.220  -0.498  1.00  0.00     0.002 A 
ATOM     32  C   UNL     1       2.445  -0.034   0.073  1.00  0.00     0.044 C 
ATOM     33  C   UNL     1       0.957   0.061  -0.098  1.00  0.00    -0.051 A 
ATOM     34  C   UNL     1       0.184  -1.102  -0.174  1.00  0.00     0.004 A 
ATOM     35  C   UNL     1       0.326   1.303  -0.205  1.00  0.00     0.004 A 
ATOM     36  C   UNL     1      -1.199  -1.024  -0.369  1.00  0.00     0.011 A 
ATOM     37  C   UNL     1      -1.055   1.379  -0.407  1.00  0.00     0.011 A 
ENDBRANCH  26  31
ENDBRANCH  14  25
ENDBRANCH   8  13
ENDBRANCH   4   7
ENDBRANCH   2   3
ENDBRANCH   1   2
BRANCH   1  38
ATOM     38  C   UNL     1     -11.654   8.228  -6.215  1.00  0.00     0.023 C 
BRANCH  38  39
ATOM     39  C   UNL     1     -13.063   8.461  -5.708  1.00  0.00     0.116 C 
BRANCH  39  40
ATOM     40  N   UNL     1     -13.153   9.152  -4.430  1.00  0.00    -0.352 N 
ATOM     41  C   UNL     1     -14.271   9.593  -3.737  1.00  0.00     0.251 C 
ATOM     42  H   UNL     1     -12.291   9.334  -3.991  1.00  0.00     0.163 HD
ATOM     43  O   UNL     1     -14.114  10.274  -2.727  1.00  0.00    -0.269 OA
BRANCH  41  44
ATOM     44  C   UNL     1     -15.628   9.082  -4.076  1.00  0.00     0.039 A 
ATOM     45  C   UNL     1     -16.466   8.781  -2.992  1.00  0.00     0.014 A 
ATOM     46  C   UNL     1     -15.886   8.525  -5.319  1.00  0.00     0.014 A 
ATOM     47  C   UNL     1     -17.277   7.659  -3.060  1.00  0.00     0.010 A 
ATOM     48  C   UNL     1     -16.541   7.326  -5.349  1.00  0.00     0.010 A 
ATOM     49  C   UNL     1     -17.168   6.867  -4.194  1.00  0.00    -0.014 A 
BRANCH  49  50
ATOM     50  C   UNL     1     -17.729   5.545  -4.333  1.00  0.00     0.031 A 
ATOM     51  C   UNL     1     -19.062   5.471  -4.937  1.00  0.00     0.074 A 
ATOM     52  C   UNL     1     -16.911   4.499  -4.097  1.00  0.00     0.049 A 
ATOM     53  N   UNL     1     -19.879   4.495  -4.796  1.00  0.00    -0.248 NA
ATOM     54  C   UNL     1     -19.612   6.572  -5.726  1.00  0.00     0.031 C 
ATOM     55  C   UNL     1     -17.085   3.094  -4.438  1.00  0.00     0.029 A 
ATOM     56  N   UNL     1     -15.765   4.515  -3.292  1.00  0.00    -0.354 N 
ATOM     57  C   UNL     1     -20.894   4.678  -5.714  1.00  0.00     0.074 A 
ATOM     58  C   UNL     1     -20.754   6.039  -6.160  1.00  0.00     0.031 C 
ATOM     59  C   UNL     1     -16.303   2.354  -3.627  1.00  0.00     0.029 A 
ATOM     60  C   UNL     1     -15.714   3.261  -2.651  1.00  0.00     0.049 A 
ATOM     61  H   UNL     1     -15.123   5.255  -3.193  1.00  0.00     0.167 HD
ATOM     62  C   UNL     1     -21.605   3.583  -6.106  1.00  0.00     0.037 A 
ATOM     63  C   UNL     1     -15.929   3.199  -1.301  1.00  0.00     0.037 A 
ATOM     64  C   UNL     1     -21.160   2.424  -5.323  1.00  0.00     0.049 A 
ATOM     65  C   UNL     1     -17.239   2.514  -0.981  1.00  0.00     0.074 A 
ATOM     66  C   UNL     1     -20.211   1.450  -5.590  1.00  0.00     0.029 A 
ATOM     67  N   UNL     1     -21.363   2.410  -3.944  1.00  0.00    -0.354 N 
ATOM     68  N   UNL     1     -18.260   2.469  -1.798  1.00  0.00    -0.248 NA
ATOM     69  C   UNL     1     -17.468   1.765   0.250  1.00  0.00     0.031 C 
ATOM     70  C   UNL     1     -19.755   0.938  -4.345  1.00  0.00     0.029 A 
ATOM     71  C   UNL     1     -20.448   1.574  -3.327  1.00  0.00     0.049 A 
ATOM     72  H   UNL     1     -22.061   2.922  -3.475  1.00  0.00     0.167 HD
ATOM     73  C   UNL     1     -19.245   1.693  -1.249  1.00  0.00     0.074 A 
ATOM     74  C   UNL     1     -18.700   1.275   0.032  1.00  0.00     0.031 C 
ATOM     75  C   UNL     1     -20.428   1.423  -1.878  1.00  0.00     0.037 A 
BRANCH  62  76
ATOM     76  C   UNL     1     -22.419   3.473  -7.382  1.00  0.00     0.057 A 
ATOM     77  C   UNL     1     -22.701   2.202  -7.926  1.00  0.00     0.134 A 
ATOM     78  C   UNL     1     -22.903   4.540  -8.162  1.00  0.00     0.134 A 
ATOM     79  F   UNL     1     -22.385   1.073  -7.276  1.00  0.00    -0.206 F 
ATOM     80  C   UNL     1     -23.324   2.015  -9.169  1.00  0.00     0.040 A 
ATOM     81  C   UNL     1     -23.500   4.371  -9.422  1.00  0.00     0.040 A 
ATOM     82  F   UNL     1     -22.877   5.806  -7.739  1.00  0.00    -0.206 F 
ATOM     83  C   UNL     1     -23.705   3.103  -9.936  1.00  0.00     0.006 A 
ENDBRANCH  62  76
BRANCH  63  84
ATOM     84  C   UNL     1     -15.351   4.386  -0.596  1.00  0.00     0.057 A 
ATOM     85  C   UNL     1     -13.957   4.576  -0.691  1.00  0.00     0.134 A 
ATOM     86  C   UNL     1     -16.120   5.513  -0.290  1.00  0.00     0.134 A 
ATOM     87  F   UNL     1     -13.153   3.532  -0.954  1.00  0.00    -0.206 F 
ATOM     88  C   UNL     1     -13.379   5.849  -0.685  1.00  0.00     0.040 A 
ATOM     89  C   UNL     1     -15.543   6.790  -0.248  1.00  0.00     0.040 A 
ATOM     90  F   UNL     1     -17.451   5.422  -0.166  1.00  0.00    -0.206 F 
ATOM     91  C   UNL     1     -14.185   6.968  -0.513  1.00  0.00     0.006 A 
ENDBRANCH  63  84
BRANCH  75  92
ATOM     92  C   UNL     1     -21.646   0.873  -1.181  1.00  0.00     0.057 A 
ATOM     93  C   UNL     1     -21.918   1.073   0.180  1.00  0.00     0.134 A 
ATOM     94  C   UNL     1     -22.675   0.237  -1.910  1.00  0.00     0.134 A 
ATOM     95  F   UNL     1     -21.104   1.797   0.962  1.00  0.00    -0.206 F 
ATOM     96  C   UNL     1     -23.073   0.582   0.795  1.00  0.00     0.040 A 
ATOM     97  C   UNL     1     -23.865  -0.192  -1.321  1.00  0.00     0.040 A 
ATOM     98  F   UNL     1     -22.583   0.027  -3.232  1.00  0.00    -0.206 F 
ATOM     99  C   UNL     1     -24.056  -0.047   0.044  1.00  0.00     0.006 A 
ENDBRANCH  75  92
ENDBRANCH  49  50
ENDBRANCH  41  44
ENDBRANCH  39  40
ENDBRANCH  38  39
ENDBRANCH   1  38
TORSDOF 14
