REMARK SMILES CCC[N@H+]1CCC[C@H]([C@@H](C)Nc2cccc(C(=O)NCCCCNC(=O)c3ccc(-c4c5nc(c(-c6c(F)cccc6F)c6ccc([nH]6)c(-c6c(F)cccc6F)c6nc(c(-c7c(F)cccc7F)c7ccc4[nH]7)C=C6)C=C5)cc3)c2)C1
REMARK SMILES IDX 20 1 19 2 17 3 18 4 16 6 12 7 13 8 81 9 14 10 15 11 11 12
REMARK SMILES IDX 9 14 10 15 8 16 4 17 5 18 82 19 6 21 7 22 3 23 2 24 1 25
REMARK SMILES IDX 21 26 22 27 23 28 24 29 25 30 26 32 27 33 28 34 80 35 29 36
REMARK SMILES IDX 79 37 30 38 31 39 32 40 73 41 33 42 78 43 72 44 74 45 34 46
REMARK SMILES IDX 77 47 71 48 70 49 35 51 61 52 44 53 60 54 45 55 48 56 59 57
REMARK SMILES IDX 75 58 46 59 47 60 58 62 76 63 49 64 36 65 37 66 42 67 38 68
REMARK SMILES IDX 39 69 41 70 43 71 40 72 62 73 63 74 68 75 64 76 65 77 67 78
REMARK SMILES IDX 69 79 66 80 50 81 51 82 56 83 52 84 53 85 55 86 57 87 54 88
REMARK H PARENT 19 5 11 13 4 20 24 31 74 50 48 61
REMARK Flexibility Score: inf
ROOT
ATOM      1  C   UNL     1       3.748  -2.458   5.740  1.00  0.00     0.116 C 
ENDROOT
BRANCH   1   2
ATOM      2  N   UNL     1       4.973  -2.023   5.081  1.00  0.00    -0.352 N 
ATOM      3  C   UNL     1       5.509  -2.361   3.850  1.00  0.00     0.251 C 
ATOM      4  O   UNL     1       6.575  -1.854   3.506  1.00  0.00    -0.269 OA
ATOM      5  H   UNL     1       5.511  -1.381   5.599  1.00  0.00     0.163 HD
BRANCH   3   6
ATOM      6  C   UNL     1       4.869  -3.383   2.978  1.00  0.00     0.041 A 
ATOM      7  C   UNL     1       2.901  -4.720   2.515  1.00  0.00     0.035 A 
ATOM      8  C   UNL     1       3.712  -5.613   1.807  1.00  0.00     0.026 A 
ATOM      9  C   UNL     1       3.485  -3.529   2.936  1.00  0.00     0.039 A 
ATOM     10  C   UNL     1       5.079  -5.366   1.631  1.00  0.00     0.003 A 
ATOM     11  C   UNL     1       5.669  -4.273   2.261  1.00  0.00     0.014 A 
BRANCH   7  12
ATOM     12  N   UNL     1       1.588  -5.050   2.786  1.00  0.00    -0.382 N 
ATOM     13  H   UNL     1       1.293  -5.959   2.550  1.00  0.00     0.160 HD
BRANCH  12  14
ATOM     14  C   UNL     1       0.597  -4.159   3.396  1.00  0.00     0.084 C 
ATOM     15  C   UNL     1       0.361  -4.613   4.840  1.00  0.00     0.031 C 
BRANCH  14  16
ATOM     16  C   UNL     1      -0.686  -4.186   2.531  1.00  0.00     0.066 C 
ATOM     17  N   UNL     1       0.022  -2.398   0.916  1.00  0.00    -0.335 N 
ATOM     18  C   UNL     1      -1.101  -1.540   1.301  1.00  0.00     0.262 C 
ATOM     19  C   UNL     1      -0.363  -3.818   1.069  1.00  0.00     0.267 C 
ATOM     20  H   UNL     1       0.778  -2.130   1.547  1.00  0.00     0.348 HD
ATOM     21  C   UNL     1      -1.479  -1.782   2.767  1.00  0.00     0.062 C 
ATOM     22  C   UNL     1      -1.797  -3.251   3.039  1.00  0.00     0.017 C 
BRANCH  17  23
ATOM     23  C   UNL     1       0.552  -2.194  -0.444  1.00  0.00     0.261 C 
BRANCH  23  24
ATOM     24  C   UNL     1       0.550  -0.779  -1.034  1.00  0.00     0.058 C 
ATOM     25  C   UNL     1       1.440   0.217  -0.308  1.00  0.00     0.010 C 
ENDBRANCH  23  24
ENDBRANCH  17  23
ENDBRANCH  14  16
ENDBRANCH  12  14
ENDBRANCH   7  12
ENDBRANCH   3   6
ENDBRANCH   1   2
BRANCH   1  26
ATOM     26  C   UNL     1       3.909  -2.918   7.181  1.00  0.00     0.023 C 
BRANCH  26  27
ATOM     27  C   UNL     1       4.322  -1.855   8.185  1.00  0.00     0.023 C 
BRANCH  27  28
ATOM     28  C   UNL     1       3.493  -0.579   8.178  1.00  0.00     0.116 C 
BRANCH  28  29
ATOM     29  N   UNL     1       2.070  -0.790   8.400  1.00  0.00    -0.352 N 
ATOM     30  C   UNL     1       1.214  -0.120   9.244  1.00  0.00     0.251 C 
ATOM     31  H   UNL     1       1.662  -1.514   7.873  1.00  0.00     0.163 HD
ATOM     32  O   UNL     1       0.046  -0.484   9.356  1.00  0.00    -0.269 OA
BRANCH  30  33
ATOM     33  C   UNL     1       1.713   1.018  10.048  1.00  0.00     0.039 A 
ATOM     34  C   UNL     1       1.379   1.089  11.403  1.00  0.00     0.014 A 
ATOM     35  C   UNL     1       2.526   1.998   9.475  1.00  0.00     0.014 A 
ATOM     36  C   UNL     1       1.915   2.108  12.195  1.00  0.00     0.010 A 
ATOM     37  C   UNL     1       3.135   2.952  10.284  1.00  0.00     0.010 A 
ATOM     38  C   UNL     1       2.823   3.029  11.649  1.00  0.00    -0.014 A 
BRANCH  38  39
ATOM     39  C   UNL     1       3.412   4.117  12.472  1.00  0.00     0.031 A 
ATOM     40  C   UNL     1       3.120   5.554  12.125  1.00  0.00     0.074 A 
ATOM     41  C   UNL     1       4.235   3.824  13.499  1.00  0.00     0.049 A 
ATOM     42  N   UNL     1       3.582   6.650  12.671  1.00  0.00    -0.248 NA
ATOM     43  C   UNL     1       2.210   5.790  10.991  1.00  0.00     0.031 C 
ATOM     44  C   UNL     1       4.633   2.477  13.914  1.00  0.00     0.029 A 
ATOM     45  N   UNL     1       4.889   4.648  14.381  1.00  0.00    -0.354 N 
ATOM     46  C   UNL     1       3.025   7.696  11.946  1.00  0.00     0.074 A 
ATOM     47  C   UNL     1       2.254   7.108  10.875  1.00  0.00     0.031 C 
ATOM     48  C   UNL     1       5.436   2.566  14.987  1.00  0.00     0.029 A 
ATOM     49  C   UNL     1       5.637   3.974  15.316  1.00  0.00     0.049 A 
ATOM     50  H   UNL     1       4.828   5.630  14.347  1.00  0.00     0.167 HD
ATOM     51  C   UNL     1       3.113   9.029  12.172  1.00  0.00     0.037 A 
ATOM     52  C   UNL     1       6.396   4.442  16.325  1.00  0.00     0.037 A 
ATOM     53  C   UNL     1       3.859   9.617  13.252  1.00  0.00     0.049 A 
ATOM     54  C   UNL     1       6.485   5.930  16.545  1.00  0.00     0.074 A 
ATOM     55  C   UNL     1       4.003  10.955  13.574  1.00  0.00     0.029 A 
ATOM     56  N   UNL     1       4.577   8.898  14.194  1.00  0.00    -0.354 N 
ATOM     57  N   UNL     1       5.916   6.904  15.878  1.00  0.00    -0.248 NA
ATOM     58  C   UNL     1       7.312   6.380  17.674  1.00  0.00     0.031 C 
ATOM     59  C   UNL     1       4.830  11.047  14.699  1.00  0.00     0.029 A 
ATOM     60  C   UNL     1       5.162   9.764  15.102  1.00  0.00     0.049 A 
ATOM     61  H   UNL     1       4.659   7.917  14.214  1.00  0.00     0.167 HD
ATOM     62  C   UNL     1       6.274   8.075  16.534  1.00  0.00     0.074 A 
ATOM     63  C   UNL     1       7.100   7.688  17.658  1.00  0.00     0.031 C 
ATOM     64  C   UNL     1       5.950   9.357  16.236  1.00  0.00     0.037 A 
BRANCH  51  65
ATOM     65  C   UNL     1       2.356   9.936  11.246  1.00  0.00     0.057 A 
ATOM     66  C   UNL     1       0.955   9.993  11.261  1.00  0.00     0.134 A 
ATOM     67  C   UNL     1       3.027  10.781  10.354  1.00  0.00     0.134 A 
ATOM     68  F   UNL     1       0.251   9.198  12.080  1.00  0.00    -0.206 F 
ATOM     69  C   UNL     1       0.249  10.840  10.405  1.00  0.00     0.040 A 
ATOM     70  C   UNL     1       2.332  11.653   9.514  1.00  0.00     0.040 A 
ATOM     71  F   UNL     1       4.367  10.780  10.290  1.00  0.00    -0.206 F 
ATOM     72  C   UNL     1       0.939  11.680   9.534  1.00  0.00     0.006 A 
ENDBRANCH  51  65
BRANCH  52  73
ATOM     73  C   UNL     1       7.112   3.510  17.235  1.00  0.00     0.057 A 
ATOM     74  C   UNL     1       6.748   3.397  18.583  1.00  0.00     0.134 A 
ATOM     75  C   UNL     1       8.210   2.759  16.801  1.00  0.00     0.134 A 
ATOM     76  F   UNL     1       5.716   4.105  19.065  1.00  0.00    -0.206 F 
ATOM     77  C   UNL     1       7.474   2.607  19.476  1.00  0.00     0.040 A 
ATOM     78  C   UNL     1       8.928   1.941  17.676  1.00  0.00     0.040 A 
ATOM     79  F   UNL     1       8.606   2.813  15.521  1.00  0.00    -0.206 F 
ATOM     80  C   UNL     1       8.569   1.875  19.021  1.00  0.00     0.006 A 
ENDBRANCH  52  73
BRANCH  64  81
ATOM     81  C   UNL     1       6.422  10.421  17.183  1.00  0.00     0.057 A 
ATOM     82  C   UNL     1       7.770  10.784  17.289  1.00  0.00     0.134 A 
ATOM     83  C   UNL     1       5.503  11.102  17.993  1.00  0.00     0.134 A 
ATOM     84  F   UNL     1       8.702  10.163  16.550  1.00  0.00    -0.206 F 
ATOM     85  C   UNL     1       8.193  11.759  18.195  1.00  0.00     0.040 A 
ATOM     86  C   UNL     1       5.910  12.099  18.879  1.00  0.00     0.040 A 
ATOM     87  F   UNL     1       4.194  10.812  17.932  1.00  0.00    -0.206 F 
ATOM     88  C   UNL     1       7.260  12.422  18.990  1.00  0.00     0.006 A 
ENDBRANCH  64  81
ENDBRANCH  38  39
ENDBRANCH  30  33
ENDBRANCH  28  29
ENDBRANCH  27  28
ENDBRANCH  26  27
ENDBRANCH   1  26
TORSDOF 16
