REMARK SMILES CC[NH2+][C@@]1(C(=O)NCCCCNC(=O)c2ccc(-c3c4nc(c(-c5c(F)cccc5F)c5ccc([nH]5)c(-c5c(F)cccc5F)c5nc(c(-c6c(F)cccc6F)c6ccc3[nH]6)C=C5)C=C4)cc2)CCC[C@@H](Sc2ncc(C)cn2)C1
REMARK SMILES IDX 9 1 8 2 7 3 5 4 6 5 4 7 69 8 81 9 70 10 72 11 71 12 3 13
REMARK SMILES IDX 2 16 1 17 73 18 74 19 75 20 80 21 76 22 79 23 77 24 78 25
REMARK SMILES IDX 10 26 11 27 12 28 13 29 14 31 15 32 16 33 68 34 17 35 67 36
REMARK SMILES IDX 18 37 19 38 20 39 61 40 21 41 66 42 60 43 62 44 22 45 65 46
REMARK SMILES IDX 59 47 58 48 23 50 49 51 32 52 48 53 33 54 36 55 47 56 63 57
REMARK SMILES IDX 34 58 35 59 46 61 64 62 37 63 24 64 25 65 30 66 26 67 27 68
REMARK SMILES IDX 29 69 31 70 28 71 50 72 51 73 56 74 52 75 53 76 55 77 57 78
REMARK SMILES IDX 54 79 38 80 39 81 44 82 40 83 41 84 43 85 45 86 42 87
REMARK H PARENT 7 6 3 14 3 15 12 30 62 49 36 60
REMARK Flexibility Score: inf
ROOT
ATOM      1  C   UNL     1       1.195   2.524  -7.322  1.00  0.00     0.023 C 
ENDROOT
BRANCH   1   2
ATOM      2  C   UNL     1       0.633   1.182  -6.842  1.00  0.00     0.116 C 
BRANCH   2   3
ATOM      3  N   UNL     1       1.525   0.537  -5.910  1.00  0.00    -0.351 N 
ATOM      4  C   UNL     1       1.573   0.399  -4.569  1.00  0.00     0.281 C 
ATOM      5  O   UNL     1       2.614  -0.163  -4.175  1.00  0.00    -0.268 OA
ATOM      6  H   UNL     1       2.279   0.090  -6.360  1.00  0.00     0.163 HD
BRANCH   4   7
ATOM      7  C   UNL     1       0.517   0.908  -3.474  1.00  0.00     0.176 C 
ATOM      8  C   UNL     1      -0.962   0.537  -3.748  1.00  0.00     0.079 C 
ATOM      9  C   UNL     1       0.747   2.416  -3.214  1.00  0.00     0.094 C 
ATOM     10  C   UNL     1      -1.903   1.594  -4.340  1.00  0.00     0.008 C 
ATOM     11  C   UNL     1      -0.061   3.315  -4.141  1.00  0.00     0.061 C 
ATOM     12  C   UNL     1      -1.557   3.043  -4.016  1.00  0.00     0.015 C 
BRANCH   7  13
ATOM     13  N   UNL     1       0.893   0.050  -2.284  1.00  0.00    -0.334 N 
ATOM     14  H   UNL     1       0.324  -0.795  -2.331  1.00  0.00     0.347 HD
ATOM     15  H   UNL     1       1.900  -0.080  -2.378  1.00  0.00     0.347 HD
BRANCH  13  16
ATOM     16  C   UNL     1       0.729   0.604  -0.947  1.00  0.00     0.257 C 
ATOM     17  C   UNL     1       1.096  -0.453   0.086  1.00  0.00     0.071 C 
ENDBRANCH  13  16
ENDBRANCH   7  13
BRANCH  11  18
ATOM     18  S   UNL     1       0.411   5.082  -3.994  1.00  0.00    -0.083 SA
BRANCH  18  19
ATOM     19  C   UNL     1      -0.514   5.554  -2.566  1.00  0.00     0.187 A 
ATOM     20  N   UNL     1      -0.184   5.000  -1.389  1.00  0.00    -0.231 NA
ATOM     21  N   UNL     1      -1.531   6.408  -2.760  1.00  0.00    -0.231 NA
ATOM     22  C   UNL     1      -0.954   5.334  -0.338  1.00  0.00     0.119 A 
ATOM     23  C   UNL     1      -2.265   6.712  -1.675  1.00  0.00     0.119 A 
ATOM     24  C   UNL     1      -2.032   6.189  -0.421  1.00  0.00    -0.014 A 
ATOM     25  C   UNL     1      -2.873   6.547   0.753  1.00  0.00     0.048 C 
ENDBRANCH  18  19
ENDBRANCH  11  18
ENDBRANCH   4   7
ENDBRANCH   2   3
ENDBRANCH   1   2
BRANCH   1  26
ATOM     26  C   UNL     1       1.798   2.506  -8.720  1.00  0.00     0.023 C 
BRANCH  26  27
ATOM     27  C   UNL     1       0.821   2.155  -9.834  1.00  0.00     0.116 C 
BRANCH  27  28
ATOM     28  N   UNL     1      -0.354   3.015  -9.905  1.00  0.00    -0.352 N 
ATOM     29  C   UNL     1      -1.050   3.398 -11.033  1.00  0.00     0.251 C 
ATOM     30  H   UNL     1      -0.691   3.364  -9.048  1.00  0.00     0.163 HD
ATOM     31  O   UNL     1      -2.009   4.152 -10.969  1.00  0.00    -0.269 OA
BRANCH  29  32
ATOM     32  C   UNL     1      -0.558   2.917 -12.339  1.00  0.00     0.039 A 
ATOM     33  C   UNL     1      -0.132   3.854 -13.280  1.00  0.00     0.014 A 
ATOM     34  C   UNL     1      -0.365   1.549 -12.546  1.00  0.00     0.014 A 
ATOM     35  C   UNL     1       0.597   3.423 -14.389  1.00  0.00     0.010 A 
ATOM     36  C   UNL     1       0.425   1.131 -13.607  1.00  0.00     0.010 A 
ATOM     37  C   UNL     1       0.934   2.066 -14.524  1.00  0.00    -0.014 A 
BRANCH  37  38
ATOM     38  C   UNL     1       1.859   1.600 -15.586  1.00  0.00     0.031 A 
ATOM     39  C   UNL     1       1.381   0.619 -16.616  1.00  0.00     0.074 A 
ATOM     40  C   UNL     1       3.155   1.970 -15.552  1.00  0.00     0.049 A 
ATOM     41  N   UNL     1       2.064  -0.013 -17.534  1.00  0.00    -0.248 NA
ATOM     42  C   UNL     1      -0.049   0.273 -16.582  1.00  0.00     0.031 C 
ATOM     43  C   UNL     1       3.760   2.862 -14.559  1.00  0.00     0.029 A 
ATOM     44  N   UNL     1       4.204   1.623 -16.366  1.00  0.00    -0.354 N 
ATOM     45  C   UNL     1       1.158  -0.856 -18.161  1.00  0.00     0.074 A 
ATOM     46  C   UNL     1      -0.116  -0.683 -17.497  1.00  0.00     0.031 C 
ATOM     47  C   UNL     1       5.067   3.005 -14.834  1.00  0.00     0.029 A 
ATOM     48  C   UNL     1       5.399   2.191 -15.998  1.00  0.00     0.049 A 
ATOM     49  H   UNL     1       4.108   1.022 -17.140  1.00  0.00     0.167 HD
ATOM     50  C   UNL     1       1.364  -1.687 -19.210  1.00  0.00     0.037 A 
ATOM     51  C   UNL     1       6.627   2.062 -16.535  1.00  0.00     0.037 A 
ATOM     52  C   UNL     1       2.615  -1.814 -19.907  1.00  0.00     0.049 A 
ATOM     53  C   UNL     1       6.818   1.174 -17.731  1.00  0.00     0.074 A 
ATOM     54  C   UNL     1       2.896  -2.552 -21.043  1.00  0.00     0.029 A 
ATOM     55  N   UNL     1       3.790  -1.179 -19.538  1.00  0.00    -0.354 N 
ATOM     56  N   UNL     1       5.936   0.437 -18.359  1.00  0.00    -0.248 NA
ATOM     57  C   UNL     1       8.174   1.101 -18.294  1.00  0.00     0.031 C 
ATOM     58  C   UNL     1       4.251  -2.382 -21.348  1.00  0.00     0.029 A 
ATOM     59  C   UNL     1       4.804  -1.519 -20.416  1.00  0.00     0.049 A 
ATOM     60  H   UNL     1       3.889  -0.577 -18.765  1.00  0.00     0.167 HD
ATOM     61  C   UNL     1       6.623  -0.174 -19.399  1.00  0.00     0.074 A 
ATOM     62  C   UNL     1       7.993   0.288 -19.326  1.00  0.00     0.031 C 
ATOM     63  C   UNL     1       6.160  -1.043 -20.329  1.00  0.00     0.037 A 
BRANCH  50  64
ATOM     64  C   UNL     1       0.202  -2.511 -19.671  1.00  0.00     0.057 A 
ATOM     65  C   UNL     1      -0.871  -1.944 -20.370  1.00  0.00     0.134 A 
ATOM     66  C   UNL     1       0.165  -3.889 -19.431  1.00  0.00     0.134 A 
ATOM     67  F   UNL     1      -0.900  -0.625 -20.616  1.00  0.00    -0.206 F 
ATOM     68  C   UNL     1      -1.953  -2.716 -20.794  1.00  0.00     0.040 A 
ATOM     69  C   UNL     1      -0.902  -4.676 -19.869  1.00  0.00     0.040 A 
ATOM     70  F   UNL     1       1.163  -4.493 -18.768  1.00  0.00    -0.206 F 
ATOM     71  C   UNL     1      -1.967  -4.087 -20.548  1.00  0.00     0.006 A 
ENDBRANCH  50  64
BRANCH  51  72
ATOM     72  C   UNL     1       7.772   2.809 -15.959  1.00  0.00     0.057 A 
ATOM     73  C   UNL     1       8.308   3.920 -16.620  1.00  0.00     0.134 A 
ATOM     74  C   UNL     1       8.360   2.430 -14.748  1.00  0.00     0.134 A 
ATOM     75  F   UNL     1       7.796   4.317 -17.795  1.00  0.00    -0.206 F 
ATOM     76  C   UNL     1       9.399   4.620 -16.105  1.00  0.00     0.040 A 
ATOM     77  C   UNL     1       9.441   3.132 -14.211  1.00  0.00     0.040 A 
ATOM     78  F   UNL     1       7.887   1.377 -14.066  1.00  0.00    -0.206 F 
ATOM     79  C   UNL     1       9.967   4.228 -14.894  1.00  0.00     0.006 A 
ENDBRANCH  51  72
BRANCH  63  80
ATOM     80  C   UNL     1       7.137  -1.534 -21.352  1.00  0.00     0.057 A 
ATOM     81  C   UNL     1       8.083  -2.519 -21.046  1.00  0.00     0.134 A 
ATOM     82  C   UNL     1       7.099  -1.051 -22.665  1.00  0.00     0.134 A 
ATOM     83  F   UNL     1       8.175  -3.009 -19.801  1.00  0.00    -0.206 F 
ATOM     84  C   UNL     1       8.966  -3.002 -22.012  1.00  0.00     0.040 A 
ATOM     85  C   UNL     1       7.965  -1.538 -23.644  1.00  0.00     0.040 A 
ATOM     86  F   UNL     1       6.211  -0.109 -23.019  1.00  0.00    -0.206 F 
ATOM     87  C   UNL     1       8.903  -2.516 -23.317  1.00  0.00     0.006 A 
ENDBRANCH  63  80
ENDBRANCH  37  38
ENDBRANCH  29  32
ENDBRANCH  27  28
ENDBRANCH  26  27
ENDBRANCH   1  26
TORSDOF 15
