REMARK SMILES COc1ccc(-c2noc(CC(=O)NCCCCNC(=O)c3ccc(-c4c5nc(c(-c6c(F)cccc6F)c6ccc([nH]6)c(-c6c(F)cccc6F)c6nc(c(-c7c(F)cccc7F)c7ccc4[nH]7)C=C6)C=C5)cc3)c2-c2ccc(OC)cc2)cc1
REMARK SMILES IDX 16 1 15 2 14 3 12 4 13 5 11 7 10 8 7 9 8 10 76 11 9 12 6 13
REMARK SMILES IDX 3 14 4 15 86 16 5 17 85 18 2 19 1 20 77 21 78 22 84 23 79 24
REMARK SMILES IDX 83 25 80 26 81 27 82 28 17 29 18 30 19 31 20 32 21 34 22 35
REMARK SMILES IDX 23 36 75 37 24 38 74 39 25 40 26 41 27 42 68 43 28 44 73 45
REMARK SMILES IDX 67 46 69 47 29 48 72 49 66 50 65 51 30 53 56 54 39 55 55 56
REMARK SMILES IDX 40 57 43 58 54 59 70 60 41 61 42 62 53 64 71 65 44 66 31 67
REMARK SMILES IDX 32 68 37 69 33 70 34 71 36 72 38 73 35 74 57 75 58 76 63 77
REMARK SMILES IDX 59 78 60 79 62 80 64 81 61 82 45 83 46 84 51 85 47 86 48 87
REMARK SMILES IDX 50 88 52 89 49 90
REMARK H PARENT 14 6 19 33 69 52 43 63
REMARK Flexibility Score: inf
ROOT
ATOM      1  C   UNL     1       1.281   6.668  -6.636  1.00  0.00     0.023 C 
ENDROOT
BRANCH   1   2
ATOM      2  C   UNL     1       2.672   7.124  -7.076  1.00  0.00     0.116 C 
BRANCH   2   3
ATOM      3  N   UNL     1       2.944   8.478  -6.640  1.00  0.00    -0.356 N 
ATOM      4  C   UNL     1       3.654   8.899  -5.551  1.00  0.00     0.227 C 
ATOM      5  O   UNL     1       3.708  10.111  -5.328  1.00  0.00    -0.275 OA
ATOM      6  H   UNL     1       2.567   9.191  -7.204  1.00  0.00     0.163 HD
BRANCH   4   7
ATOM      7  C   UNL     1       4.434   7.907  -4.710  1.00  0.00     0.179 C 
BRANCH   7   8
ATOM      8  C   UNL     1       3.552   7.013  -3.921  1.00  0.00     0.154 A 
ATOM      9  C   UNL     1       2.346   5.479  -2.868  1.00  0.00     0.122 A 
ATOM     10  N   UNL     1       1.887   6.669  -2.454  1.00  0.00    -0.079 NA
ATOM     11  C   UNL     1       3.401   5.645  -3.812  1.00  0.00     0.053 A 
ATOM     12  O   UNL     1       2.657   7.621  -3.095  1.00  0.00    -0.360 OA
BRANCH   9  13
ATOM     13  C   UNL     1       1.797   4.224  -2.378  1.00  0.00     0.005 A 
ATOM     14  C   UNL     1       0.808   1.730  -1.560  1.00  0.00     0.118 A 
ATOM     15  C   UNL     1      -0.040   2.664  -2.160  1.00  0.00     0.047 A 
ATOM     16  C   UNL     1       2.157   2.037  -1.382  1.00  0.00     0.047 A 
ATOM     17  C   UNL     1       0.446   3.914  -2.555  1.00  0.00     0.014 A 
ATOM     18  C   UNL     1       2.648   3.280  -1.788  1.00  0.00     0.014 A 
BRANCH  14  19
ATOM     19  O   UNL     1       0.230   0.537  -1.225  1.00  0.00    -0.497 OA
ATOM     20  C   UNL     1       0.811  -0.124  -0.106  1.00  0.00     0.278 C 
ENDBRANCH  14  19
ENDBRANCH   9  13
BRANCH  11  21
ATOM     21  C   UNL     1       4.108   4.655  -4.601  1.00  0.00    -0.012 A 
ATOM     22  C   UNL     1       3.382   3.764  -5.399  1.00  0.00     0.013 A 
ATOM     23  C   UNL     1       5.503   4.571  -4.582  1.00  0.00     0.013 A 
ATOM     24  C   UNL     1       4.044   2.826  -6.192  1.00  0.00     0.047 A 
ATOM     25  C   UNL     1       6.165   3.621  -5.372  1.00  0.00     0.047 A 
ATOM     26  C   UNL     1       5.437   2.752  -6.187  1.00  0.00     0.118 A 
BRANCH  26  27
ATOM     27  O   UNL     1       5.955   1.795  -7.013  1.00  0.00    -0.497 OA
ATOM     28  C   UNL     1       7.370   1.671  -7.052  1.00  0.00     0.278 C 
ENDBRANCH  26  27
ENDBRANCH  11  21
ENDBRANCH   7   8
ENDBRANCH   4   7
ENDBRANCH   2   3
ENDBRANCH   1   2
BRANCH   1  29
ATOM     29  C   UNL     1       0.133   7.296  -7.428  1.00  0.00     0.023 C 
BRANCH  29  30
ATOM     30  C   UNL     1       0.140   6.995  -8.924  1.00  0.00     0.116 C 
BRANCH  30  31
ATOM     31  N   UNL     1       0.082   5.572  -9.227  1.00  0.00    -0.352 N 
ATOM     32  C   UNL     1      -0.617   4.936 -10.226  1.00  0.00     0.251 C 
ATOM     33  H   UNL     1       0.613   4.988  -8.639  1.00  0.00     0.163 HD
ATOM     34  O   UNL     1      -0.645   3.711 -10.287  1.00  0.00    -0.269 OA
BRANCH  32  35
ATOM     35  C   UNL     1      -1.374   5.745 -11.201  1.00  0.00     0.039 A 
ATOM     36  C   UNL     1      -2.727   5.462 -11.403  1.00  0.00     0.014 A 
ATOM     37  C   UNL     1      -0.767   6.819 -11.858  1.00  0.00     0.014 A 
ATOM     38  C   UNL     1      -3.498   6.319 -12.191  1.00  0.00     0.010 A 
ATOM     39  C   UNL     1      -1.549   7.705 -12.592  1.00  0.00     0.010 A 
ATOM     40  C   UNL     1      -2.925   7.476 -12.744  1.00  0.00    -0.014 A 
BRANCH  40  41
ATOM     41  C   UNL     1      -3.760   8.496 -13.425  1.00  0.00     0.031 A 
ATOM     42  C   UNL     1      -3.573   8.784 -14.886  1.00  0.00     0.074 A 
ATOM     43  C   UNL     1      -4.628   9.227 -12.697  1.00  0.00     0.049 A 
ATOM     44  N   UNL     1      -4.139   9.705 -15.624  1.00  0.00    -0.248 NA
ATOM     45  C   UNL     1      -2.605   7.943 -15.607  1.00  0.00     0.031 C 
ATOM     46  C   UNL     1      -4.865   9.076 -11.259  1.00  0.00     0.029 A 
ATOM     47  N   UNL     1      -5.458  10.257 -13.063  1.00  0.00    -0.354 N 
ATOM     48  C   UNL     1      -3.593   9.561 -16.892  1.00  0.00     0.074 A 
ATOM     49  C   UNL     1      -2.618   8.493 -16.814  1.00  0.00     0.031 C 
ATOM     50  C   UNL     1      -5.788   9.969 -10.869  1.00  0.00     0.029 A 
ATOM     51  C   UNL     1      -6.178  10.781 -12.017  1.00  0.00     0.049 A 
ATOM     52  H   UNL     1      -5.531  10.588 -13.987  1.00  0.00     0.167 HD
ATOM     53  C   UNL     1      -3.892  10.244 -18.022  1.00  0.00     0.037 A 
ATOM     54  C   UNL     1      -7.043  11.812 -11.981  1.00  0.00     0.037 A 
ATOM     55  C   UNL     1      -4.875  11.293 -18.102  1.00  0.00     0.049 A 
ATOM     56  C   UNL     1      -7.336  12.570 -13.245  1.00  0.00     0.074 A 
ATOM     57  C   UNL     1      -5.297  11.994 -19.218  1.00  0.00     0.029 A 
ATOM     58  N   UNL     1      -5.584  11.794 -17.022  1.00  0.00    -0.354 N 
ATOM     59  N   UNL     1      -6.864  12.377 -14.452  1.00  0.00    -0.248 NA
ATOM     60  C   UNL     1      -8.280  13.692 -13.141  1.00  0.00     0.031 C 
ATOM     61  C   UNL     1      -6.232  12.950 -18.806  1.00  0.00     0.029 A 
ATOM     62  C   UNL     1      -6.421  12.816 -17.440  1.00  0.00     0.049 A 
ATOM     63  H   UNL     1      -5.505  11.472 -16.095  1.00  0.00     0.167 HD
ATOM     64  C   UNL     1      -7.463  13.339 -15.253  1.00  0.00     0.074 A 
ATOM     65  C   UNL     1      -8.348  14.104 -14.399  1.00  0.00     0.031 C 
ATOM     66  C   UNL     1      -7.292  13.571 -16.577  1.00  0.00     0.037 A 
BRANCH  53  67
ATOM     67  C   UNL     1      -3.151   9.873 -19.272  1.00  0.00     0.057 A 
ATOM     68  C   UNL     1      -3.411   8.676 -19.952  1.00  0.00     0.134 A 
ATOM     69  C   UNL     1      -2.205  10.742 -19.828  1.00  0.00     0.134 A 
ATOM     70  F   UNL     1      -4.299   7.796 -19.464  1.00  0.00    -0.206 F 
ATOM     71  C   UNL     1      -2.743   8.348 -21.132  1.00  0.00     0.040 A 
ATOM     72  C   UNL     1      -1.547  10.435 -21.021  1.00  0.00     0.040 A 
ATOM     73  F   UNL     1      -1.913  11.906 -19.230  1.00  0.00    -0.206 F 
ATOM     74  C   UNL     1      -1.813   9.233 -21.674  1.00  0.00     0.006 A 
ENDBRANCH  53  67
BRANCH  54  75
ATOM     75  C   UNL     1      -7.698  12.191 -10.705  1.00  0.00     0.057 A 
ATOM     76  C   UNL     1      -9.064  11.962 -10.501  1.00  0.00     0.134 A 
ATOM     77  C   UNL     1      -6.983  12.800  -9.667  1.00  0.00     0.134 A 
ATOM     78  F   UNL     1      -9.805  11.402 -11.468  1.00  0.00    -0.206 F 
ATOM     79  C   UNL     1      -9.699  12.341  -9.318  1.00  0.00     0.040 A 
ATOM     80  C   UNL     1      -7.601  13.162  -8.469  1.00  0.00     0.040 A 
ATOM     81  F   UNL     1      -5.670  13.041  -9.800  1.00  0.00    -0.206 F 
ATOM     82  C   UNL     1      -8.965  12.939  -8.296  1.00  0.00     0.006 A 
ENDBRANCH  54  75
BRANCH  66  83
ATOM     83  C   UNL     1      -8.086  14.690 -17.182  1.00  0.00     0.057 A 
ATOM     84  C   UNL     1      -7.758  16.031 -16.950  1.00  0.00     0.134 A 
ATOM     85  C   UNL     1      -9.166  14.423 -18.033  1.00  0.00     0.134 A 
ATOM     86  F   UNL     1      -6.743  16.352 -16.132  1.00  0.00    -0.206 F 
ATOM     87  C   UNL     1      -8.488  17.070 -17.530  1.00  0.00     0.040 A 
ATOM     88  C   UNL     1      -9.888  15.453 -18.637  1.00  0.00     0.040 A 
ATOM     89  F   UNL     1      -9.527  13.159 -18.300  1.00  0.00    -0.206 F 
ATOM     90  C   UNL     1      -9.552  16.781 -18.382  1.00  0.00     0.006 A 
ENDBRANCH  66  83
ENDBRANCH  40  41
ENDBRANCH  32  35
ENDBRANCH  30  31
ENDBRANCH  29  30
ENDBRANCH   1  29
TORSDOF 16
