REMARK SMILES Nc1ncc(C(=O)NCCCCNC(=O)c2ccc(-c3c4nc(c(-c5c(F)cccc5F)c5ccc([nH]5)c(-c5c(F)cccc5F)c5nc(c(-c6c(F)cccc6F)c6ccc3[nH]6)C=C5)C=C4)cc2)c(-c2ccccc2)n1
REMARK SMILES IDX 11 1 10 2 9 3 8 4 6 5 7 6 5 8 2 9 3 10 77 11 4 12 70 13 1 14
REMARK SMILES IDX 71 17 72 18 76 19 73 20 75 21 74 22 12 23 13 24 14 25 15 27
REMARK SMILES IDX 16 28 17 29 69 30 18 31 68 32 19 33 20 34 21 35 62 36 22 37
REMARK SMILES IDX 67 38 61 39 63 40 23 41 66 42 60 43 59 44 24 46 50 47 33 48
REMARK SMILES IDX 49 49 34 50 37 51 48 52 64 53 35 54 36 55 47 57 65 58 38 59
REMARK SMILES IDX 25 60 26 61 31 62 27 63 28 64 30 65 32 66 29 67 51 68 52 69
REMARK SMILES IDX 57 70 53 71 54 72 56 73 58 74 55 75 39 76 40 77 45 78 41 79
REMARK SMILES IDX 42 80 44 81 46 82 43 83
REMARK H PARENT 8 7 1 15 1 16 13 26 63 45 37 56
REMARK Flexibility Score: inf
ROOT
ATOM      1  C   UNL     1       6.025  -3.332  -1.537  1.00  0.00     0.023 C 
ENDROOT
BRANCH   1   2
ATOM      2  C   UNL     1       4.666  -2.923  -2.102  1.00  0.00     0.023 C 
BRANCH   2   3
ATOM      3  C   UNL     1       3.650  -2.356  -1.122  1.00  0.00     0.116 C 
BRANCH   3   4
ATOM      4  N   UNL     1       3.992  -1.118  -0.469  1.00  0.00    -0.352 N 
ATOM      5  C   UNL     1       3.180  -0.201   0.156  1.00  0.00     0.255 C 
ATOM      6  O   UNL     1       3.740   0.747   0.713  1.00  0.00    -0.269 OA
ATOM      7  H   UNL     1       4.951  -0.895  -0.471  1.00  0.00     0.163 HD
BRANCH   5   8
ATOM      8  C   UNL     1       1.694  -0.203   0.137  1.00  0.00     0.084 A 
ATOM      9  C   UNL     1      -1.015   0.234   0.082  1.00  0.00     0.220 A 
ATOM     10  N   UNL     1      -0.222   1.295  -0.017  1.00  0.00    -0.221 NA
ATOM     11  N   UNL     1      -0.574  -1.014   0.216  1.00  0.00    -0.212 NA
ATOM     12  C   UNL     1       1.110   1.051   0.021  1.00  0.00     0.131 A 
ATOM     13  C   UNL     1       0.772  -1.232   0.261  1.00  0.00     0.089 A 
BRANCH   9  14
ATOM     14  N   UNL     1      -2.362   0.426   0.039  1.00  0.00    -0.368 N 
ATOM     15  H   UNL     1      -2.727   1.335  -0.059  1.00  0.00     0.159 HD
ATOM     16  H   UNL     1      -2.971  -0.345   0.107  1.00  0.00     0.159 HD
ENDBRANCH   9  14
BRANCH  13  17
ATOM     17  C   UNL     1       1.057  -2.662   0.429  1.00  0.00     0.001 A 
ATOM     18  C   UNL     1       1.692  -3.178   1.568  1.00  0.00     0.010 A 
ATOM     19  C   UNL     1       0.675  -3.562  -0.589  1.00  0.00     0.010 A 
ATOM     20  C   UNL     1       1.998  -4.543   1.649  1.00  0.00     0.001 A 
ATOM     21  C   UNL     1       0.999  -4.917  -0.517  1.00  0.00     0.001 A 
ATOM     22  C   UNL     1       1.669  -5.405   0.601  1.00  0.00     0.000 A 
ENDBRANCH  13  17
ENDBRANCH   5   8
ENDBRANCH   3   4
ENDBRANCH   2   3
ENDBRANCH   1   2
BRANCH   1  23
ATOM     23  C   UNL     1       6.045  -4.073  -0.202  1.00  0.00     0.116 C 
BRANCH  23  24
ATOM     24  N   UNL     1       5.278  -5.311  -0.176  1.00  0.00    -0.352 N 
ATOM     25  C   UNL     1       5.668  -6.616   0.045  1.00  0.00     0.251 C 
ATOM     26  H   UNL     1       4.315  -5.197  -0.346  1.00  0.00     0.163 HD
ATOM     27  O   UNL     1       4.845  -7.517   0.007  1.00  0.00    -0.269 OA
BRANCH  25  28
ATOM     28  C   UNL     1       7.097  -6.935   0.271  1.00  0.00     0.039 A 
ATOM     29  C   UNL     1       7.682  -7.964  -0.475  1.00  0.00     0.014 A 
ATOM     30  C   UNL     1       7.868  -6.203   1.172  1.00  0.00     0.014 A 
ATOM     31  C   UNL     1       9.064  -8.165  -0.413  1.00  0.00     0.010 A 
ATOM     32  C   UNL     1       9.253  -6.340   1.162  1.00  0.00     0.010 A 
ATOM     33  C   UNL     1       9.869  -7.307   0.352  1.00  0.00    -0.014 A 
BRANCH  33  34
ATOM     34  C   UNL     1      11.354  -7.365   0.294  1.00  0.00     0.031 A 
ATOM     35  C   UNL     1      12.151  -7.629   1.541  1.00  0.00     0.074 A 
ATOM     36  C   UNL     1      11.989  -7.065  -0.858  1.00  0.00     0.049 A 
ATOM     37  N   UNL     1      13.446  -7.575   1.725  1.00  0.00    -0.248 NA
ATOM     38  C   UNL     1      11.386  -7.958   2.754  1.00  0.00     0.031 C 
ATOM     39  C   UNL     1      11.335  -6.727  -2.125  1.00  0.00     0.029 A 
ATOM     40  N   UNL     1      13.328  -6.975  -1.146  1.00  0.00    -0.354 N 
ATOM     41  C   UNL     1      13.647  -7.829   3.075  1.00  0.00     0.074 A 
ATOM     42  C   UNL     1      12.339  -7.990   3.674  1.00  0.00     0.031 C 
ATOM     43  C   UNL     1      12.272  -6.492  -3.057  1.00  0.00     0.029 A 
ATOM     44  C   UNL     1      13.591  -6.619  -2.447  1.00  0.00     0.049 A 
ATOM     45  H   UNL     1      14.034  -7.149  -0.482  1.00  0.00     0.167 HD
ATOM     46  C   UNL     1      14.814  -7.940   3.753  1.00  0.00     0.037 A 
ATOM     47  C   UNL     1      14.763  -6.410  -3.078  1.00  0.00     0.037 A 
ATOM     48  C   UNL     1      16.114  -7.823   3.146  1.00  0.00     0.049 A 
ATOM     49  C   UNL     1      16.047  -6.570  -2.312  1.00  0.00     0.074 A 
ATOM     50  C   UNL     1      17.357  -7.995   3.730  1.00  0.00     0.029 A 
ATOM     51  N   UNL     1      16.337  -7.510   1.814  1.00  0.00    -0.354 N 
ATOM     52  N   UNL     1      16.222  -6.875  -1.049  1.00  0.00    -0.248 NA
ATOM     53  C   UNL     1      17.295  -6.361  -3.059  1.00  0.00     0.031 C 
ATOM     54  C   UNL     1      18.334  -7.754   2.758  1.00  0.00     0.029 A 
ATOM     55  C   UNL     1      17.698  -7.472   1.559  1.00  0.00     0.049 A 
ATOM     56  H   UNL     1      15.633  -7.341   1.147  1.00  0.00     0.167 HD
ATOM     57  C   UNL     1      17.596  -6.921  -0.857  1.00  0.00     0.074 A 
ATOM     58  C   UNL     1      18.208  -6.625  -2.136  1.00  0.00     0.031 C 
ATOM     59  C   UNL     1      18.289  -7.186   0.277  1.00  0.00     0.037 A 
BRANCH  46  60
ATOM     60  C   UNL     1      14.734  -8.209   5.227  1.00  0.00     0.057 A 
ATOM     61  C   UNL     1      14.301  -9.444   5.730  1.00  0.00     0.134 A 
ATOM     62  C   UNL     1      15.113  -7.232   6.156  1.00  0.00     0.134 A 
ATOM     63  F   UNL     1      13.912 -10.419   4.895  1.00  0.00    -0.206 F 
ATOM     64  C   UNL     1      14.217  -9.685   7.103  1.00  0.00     0.040 A 
ATOM     65  C   UNL     1      15.060  -7.471   7.530  1.00  0.00     0.040 A 
ATOM     66  F   UNL     1      15.544  -6.030   5.744  1.00  0.00    -0.206 F 
ATOM     67  C   UNL     1      14.603  -8.698   8.007  1.00  0.00     0.006 A 
ENDBRANCH  46  60
BRANCH  47  68
ATOM     68  C   UNL     1      14.781  -6.060  -4.520  1.00  0.00     0.057 A 
ATOM     69  C   UNL     1      15.219  -6.984  -5.477  1.00  0.00     0.134 A 
ATOM     70  C   UNL     1      14.369  -4.803  -4.979  1.00  0.00     0.134 A 
ATOM     71  F   UNL     1      15.644  -8.198  -5.096  1.00  0.00    -0.206 F 
ATOM     72  C   UNL     1      15.263  -6.667  -6.835  1.00  0.00     0.040 A 
ATOM     73  C   UNL     1      14.386  -4.481  -6.338  1.00  0.00     0.040 A 
ATOM     74  F   UNL     1      13.932  -3.876  -4.115  1.00  0.00    -0.206 F 
ATOM     75  C   UNL     1      14.841  -5.413  -7.269  1.00  0.00     0.006 A 
ENDBRANCH  47  68
BRANCH  59  76
ATOM     76  C   UNL     1      19.785  -7.205   0.177  1.00  0.00     0.057 A 
ATOM     77  C   UNL     1      20.532  -6.027   0.053  1.00  0.00     0.134 A 
ATOM     78  C   UNL     1      20.487  -8.414   0.247  1.00  0.00     0.134 A 
ATOM     79  F   UNL     1      19.916  -4.838  -0.033  1.00  0.00    -0.206 F 
ATOM     80  C   UNL     1      21.925  -6.053  -0.017  1.00  0.00     0.040 A 
ATOM     81  C   UNL     1      21.881  -8.451   0.202  1.00  0.00     0.040 A 
ATOM     82  F   UNL     1      19.831  -9.577   0.373  1.00  0.00    -0.206 F 
ATOM     83  C   UNL     1      22.604  -7.268   0.065  1.00  0.00     0.006 A 
ENDBRANCH  59  76
ENDBRANCH  33  34
ENDBRANCH  25  28
ENDBRANCH  23  24
ENDBRANCH   1  23
TORSDOF 13
