REMARK SMILES C[C@@H]1C[C@H](C)C[C@H]([N@H+]2[C@@H](C(=O)NCCCCNC(=O)c3ccc(-c4c5nc(c(-c6c(F)cccc6F)c6ccc([nH]6)c(-c6c(F)cccc6F)c6nc(c(-c7c(F)cccc7F)c7ccc4[nH]7)C=C6)C=C5)cc3)CC[C@@H]3CCCC[C@@H]32)C1
REMARK SMILES IDX 15 1 14 2 13 3 12 4 10 5 11 6 9 8 8 9 81 10 74 12 76 13
REMARK SMILES IDX 80 14 75 15 77 16 79 17 78 18 7 19 5 20 4 21 6 22 3 23 2 24
REMARK SMILES IDX 82 25 1 26 16 27 17 28 18 29 19 31 20 32 21 33 73 34 22 35
REMARK SMILES IDX 72 36 23 37 24 38 25 39 66 40 26 41 71 42 65 43 67 44 27 45
REMARK SMILES IDX 70 46 64 47 63 48 28 50 54 51 37 52 53 53 38 54 41 55 52 56
REMARK SMILES IDX 68 57 39 58 40 59 51 61 69 62 42 63 29 64 30 65 35 66 31 67
REMARK SMILES IDX 32 68 34 69 36 70 33 71 55 72 56 73 61 74 57 75 58 76 60 77
REMARK SMILES IDX 62 78 59 79 43 80 44 81 49 82 45 83 46 84 48 85 50 86 47 87
REMARK H PARENT 12 7 8 11 17 30 67 49 41 60
REMARK Flexibility Score: inf
ROOT
ATOM      1  C   UNL     1       8.584  -1.560  -0.635  1.00  0.00     0.023 C 
ENDROOT
BRANCH   1   2
ATOM      2  C   UNL     1       7.109  -1.837  -0.907  1.00  0.00     0.023 C 
BRANCH   2   3
ATOM      3  C   UNL     1       6.205  -1.629   0.298  1.00  0.00     0.116 C 
BRANCH   3   4
ATOM      4  N   UNL     1       5.873  -0.246   0.529  1.00  0.00    -0.351 N 
ATOM      5  C   UNL     1       4.873   0.555   0.077  1.00  0.00     0.278 C 
ATOM      6  O   UNL     1       4.907   1.709   0.530  1.00  0.00    -0.268 OA
ATOM      7  H   UNL     1       6.497   0.211   1.138  1.00  0.00     0.163 HD
BRANCH   5   8
ATOM      8  C   UNL     1       3.795   0.146  -0.993  1.00  0.00     0.274 C 
ATOM      9  N   UNL     1       2.433   0.747  -0.665  1.00  0.00    -0.320 N 
ATOM     10  C   UNL     1       1.910   0.095   0.569  1.00  0.00     0.188 C 
ATOM     11  H   UNL     1       1.515   0.584  -1.080  1.00  0.00     0.349 HD
ATOM     12  C   UNL     1       3.543  -1.287  -1.424  1.00  0.00     0.076 C 
ATOM     13  C   UNL     1       1.676  -1.435   0.302  1.00  0.00     0.048 C 
ATOM     14  C   UNL     1       0.717   0.471   1.482  1.00  0.00     0.065 C 
ATOM     15  C   UNL     1       2.835  -2.138  -0.389  1.00  0.00     0.016 C 
ATOM     16  C   UNL     1       0.382  -1.734  -0.455  1.00  0.00     0.010 C 
ATOM     17  C   UNL     1      -0.688  -0.111   1.260  1.00  0.00     0.006 C 
ATOM     18  C   UNL     1      -0.870  -1.233   0.244  1.00  0.00     0.001 C 
BRANCH   9  19
ATOM     19  C   UNL     1       2.373   2.122  -1.240  1.00  0.00     0.185 C 
ATOM     20  C   UNL     1      -0.690   1.409  -1.647  1.00  0.00     0.008 C 
ATOM     21  C   UNL     1       0.064   2.518  -2.331  1.00  0.00    -0.008 C 
ATOM     22  C   UNL     1       1.524   2.126  -2.532  1.00  0.00     0.068 C 
ATOM     23  C   UNL     1      -0.111   3.836  -1.563  1.00  0.00     0.007 C 
ATOM     24  C   UNL     1       0.880   4.136  -0.419  1.00  0.00    -0.008 C 
ATOM     25  C   UNL     1       2.261   3.500  -0.570  1.00  0.00     0.068 C 
ATOM     26  C   UNL     1       0.354   3.933   0.996  1.00  0.00     0.008 C 
ENDBRANCH   9  19
ENDBRANCH   5   8
ENDBRANCH   3   4
ENDBRANCH   2   3
ENDBRANCH   1   2
BRANCH   1  27
ATOM     27  C   UNL     1       9.159  -2.267   0.589  1.00  0.00     0.116 C 
BRANCH  27  28
ATOM     28  N   UNL     1       8.890  -3.698   0.614  1.00  0.00    -0.352 N 
ATOM     29  C   UNL     1       9.690  -4.709   1.079  1.00  0.00     0.251 C 
ATOM     30  H   UNL     1       8.019  -3.976   0.250  1.00  0.00     0.163 HD
ATOM     31  O   UNL     1       9.358  -5.885   0.927  1.00  0.00    -0.269 OA
BRANCH  29  32
ATOM     32  C   UNL     1      10.973  -4.378   1.726  1.00  0.00     0.039 A 
ATOM     33  C   UNL     1      12.123  -5.056   1.319  1.00  0.00     0.014 A 
ATOM     34  C   UNL     1      11.046  -3.377   2.699  1.00  0.00     0.014 A 
ATOM     35  C   UNL     1      13.358  -4.686   1.848  1.00  0.00     0.010 A 
ATOM     36  C   UNL     1      12.287  -2.953   3.159  1.00  0.00     0.010 A 
ATOM     37  C   UNL     1      13.455  -3.607   2.744  1.00  0.00    -0.014 A 
BRANCH  37  38
ATOM     38  C   UNL     1      14.779  -3.158   3.240  1.00  0.00     0.031 A 
ATOM     39  C   UNL     1      15.115  -3.248   4.702  1.00  0.00     0.074 A 
ATOM     40  C   UNL     1      15.668  -2.642   2.370  1.00  0.00     0.049 A 
ATOM     41  N   UNL     1      16.229  -2.932   5.313  1.00  0.00    -0.248 NA
ATOM     42  C   UNL     1      14.056  -3.732   5.602  1.00  0.00     0.031 C 
ATOM     43  C   UNL     1      15.434  -2.443   0.938  1.00  0.00     0.029 A 
ATOM     44  N   UNL     1      16.952  -2.197   2.561  1.00  0.00    -0.354 N 
ATOM     45  C   UNL     1      16.003  -3.177   6.662  1.00  0.00     0.074 A 
ATOM     46  C   UNL     1      14.627  -3.602   6.789  1.00  0.00     0.031 C 
ATOM     47  C   UNL     1      16.550  -1.958   0.373  1.00  0.00     0.029 A 
ATOM     48  C   UNL     1      17.566  -1.778   1.406  1.00  0.00     0.049 A 
ATOM     49  H   UNL     1      17.391  -2.180   3.442  1.00  0.00     0.167 HD
ATOM     50  C   UNL     1      16.873  -3.087   7.696  1.00  0.00     0.037 A 
ATOM     51  C   UNL     1      18.810  -1.308   1.202  1.00  0.00     0.037 A 
ATOM     52  C   UNL     1      18.245  -2.672   7.562  1.00  0.00     0.049 A 
ATOM     53  C   UNL     1      19.754  -1.213   2.368  1.00  0.00     0.074 A 
ATOM     54  C   UNL     1      19.223  -2.595   8.539  1.00  0.00     0.029 A 
ATOM     55  N   UNL     1      18.832  -2.256   6.376  1.00  0.00    -0.354 N 
ATOM     56  N   UNL     1      19.554  -1.528   3.625  1.00  0.00    -0.248 NA
ATOM     57  C   UNL     1      21.104  -0.708   2.083  1.00  0.00     0.031 C 
ATOM     58  C   UNL     1      20.386  -2.082   7.954  1.00  0.00     0.029 A 
ATOM     59  C   UNL     1      20.152  -1.897   6.601  1.00  0.00     0.049 A 
ATOM     60  H   UNL     1      18.379  -2.221   5.503  1.00  0.00     0.167 HD
ATOM     61  C   UNL     1      20.757  -1.286   4.275  1.00  0.00     0.074 A 
ATOM     62  C   UNL     1      21.688  -0.822   3.266  1.00  0.00     0.031 C 
ATOM     63  C   UNL     1      21.065  -1.432   5.587  1.00  0.00     0.037 A 
BRANCH  50  64
ATOM     64  C   UNL     1      16.362  -3.446   9.063  1.00  0.00     0.057 A 
ATOM     65  C   UNL     1      16.024  -4.764   9.403  1.00  0.00     0.134 A 
ATOM     66  C   UNL     1      16.234  -2.471  10.060  1.00  0.00     0.134 A 
ATOM     67  F   UNL     1      16.109  -5.745   8.492  1.00  0.00    -0.206 F 
ATOM     68  C   UNL     1      15.550  -5.093  10.675  1.00  0.00     0.040 A 
ATOM     69  C   UNL     1      15.791  -2.793  11.344  1.00  0.00     0.040 A 
ATOM     70  F   UNL     1      16.545  -1.191   9.806  1.00  0.00    -0.206 F 
ATOM     71  C   UNL     1      15.440  -4.106  11.652  1.00  0.00     0.006 A 
ENDBRANCH  50  64
BRANCH  51  72
ATOM     72  C   UNL     1      19.248  -0.922  -0.164  1.00  0.00     0.057 A 
ATOM     73  C   UNL     1      20.221  -1.660  -0.849  1.00  0.00     0.134 A 
ATOM     74  C   UNL     1      18.716   0.200  -0.812  1.00  0.00     0.134 A 
ATOM     75  F   UNL     1      20.780  -2.735  -0.276  1.00  0.00    -0.206 F 
ATOM     76  C   UNL     1      20.669  -1.282  -2.116  1.00  0.00     0.040 A 
ATOM     77  C   UNL     1      19.134   0.572  -2.091  1.00  0.00     0.040 A 
ATOM     78  F   UNL     1      17.773   0.943  -0.216  1.00  0.00    -0.206 F 
ATOM     79  C   UNL     1      20.121  -0.165  -2.742  1.00  0.00     0.006 A 
ENDBRANCH  51  72
BRANCH  63  80
ATOM     80  C   UNL     1      22.476  -1.115   5.995  1.00  0.00     0.057 A 
ATOM     81  C   UNL     1      22.977   0.193   5.985  1.00  0.00     0.134 A 
ATOM     82  C   UNL     1      23.343  -2.135   6.410  1.00  0.00     0.134 A 
ATOM     83  F   UNL     1      22.203   1.215   5.588  1.00  0.00    -0.206 F 
ATOM     84  C   UNL     1      24.300   0.471   6.332  1.00  0.00     0.040 A 
ATOM     85  C   UNL     1      24.658  -1.865   6.792  1.00  0.00     0.040 A 
ATOM     86  F   UNL     1      22.927  -3.409   6.456  1.00  0.00    -0.206 F 
ATOM     87  C   UNL     1      25.143  -0.560   6.742  1.00  0.00     0.006 A 
ENDBRANCH  63  80
ENDBRANCH  37  38
ENDBRANCH  29  32
ENDBRANCH  27  28
ENDBRANCH   1  27
TORSDOF 12
