REMARK SMILES O=C(NCCCCNC(=O)c1ccc2c(c1)[C@@H](C1CCOCC1)C(=O)N2)c1ccc(-c2c3nc(c(-c4c(F)cccc4F)c4ccc([nH]4)c(-c4c(F)cccc4F)c4nc(c(-c5c(F)cccc5F)c5ccc2[nH]5)C=C4)C=C3)cc1
REMARK SMILES IDX 5 1 4 2 3 3 1 4 2 5 27 7 28 8 80 9 29 10 79 11 30 12 31 13
REMARK SMILES IDX 32 14 73 15 33 16 78 17 72 18 74 19 34 20 77 21 71 22 70 23
REMARK SMILES IDX 35 25 61 26 44 27 60 28 45 29 48 30 59 31 75 32 46 33 47 34
REMARK SMILES IDX 58 36 76 37 49 38 36 39 37 40 42 41 38 42 39 43 41 44 43 45
REMARK SMILES IDX 40 46 62 47 63 48 68 49 64 50 65 51 67 52 69 53 66 54 50 55
REMARK SMILES IDX 51 56 56 57 52 58 53 59 55 60 57 61 54 62 6 63 7 64 8 65
REMARK SMILES IDX 9 66 10 68 11 69 12 70 16 71 13 72 15 73 14 74 17 75 26 76
REMARK SMILES IDX 24 77 25 79 18 80 19 81 23 82 20 83 22 84 21 85
REMARK H PARENT 3 6 74 24 48 35 8 67 26 78
REMARK Flexibility Score: inf
ROOT
ATOM      1  C   UNL     1       4.934  -2.330  -0.800  1.00  0.00     0.023 C 
ENDROOT
BRANCH   1   2
ATOM      2  C   UNL     1       4.588  -0.849  -0.854  1.00  0.00     0.116 C 
BRANCH   2   3
ATOM      3  N   UNL     1       3.154  -0.589  -0.872  1.00  0.00    -0.352 N 
ATOM      4  O   UNL     1       1.167   0.166  -0.104  1.00  0.00    -0.269 OA
ATOM      5  C   UNL     1       2.389   0.151   0.001  1.00  0.00     0.251 C 
ATOM      6  H   UNL     1       2.661  -1.002  -1.617  1.00  0.00     0.163 HD
BRANCH   5   7
ATOM      7  C   UNL     1       3.049   0.896   1.094  1.00  0.00     0.039 A 
ATOM      8  C   UNL     1       4.205   1.634   0.843  1.00  0.00     0.014 A 
ATOM      9  C   UNL     1       2.542   0.806   2.393  1.00  0.00     0.014 A 
ATOM     10  C   UNL     1       4.967   2.093   1.907  1.00  0.00     0.010 A 
ATOM     11  C   UNL     1       3.250   1.380   3.453  1.00  0.00     0.010 A 
ATOM     12  C   UNL     1       4.498   1.980   3.227  1.00  0.00    -0.014 A 
BRANCH  12  13
ATOM     13  C   UNL     1       5.323   2.533   4.333  1.00  0.00     0.031 A 
ATOM     14  C   UNL     1       5.862   1.651   5.428  1.00  0.00     0.074 A 
ATOM     15  C   UNL     1       5.632   3.844   4.312  1.00  0.00     0.049 A 
ATOM     16  N   UNL     1       6.641   1.970   6.433  1.00  0.00    -0.248 NA
ATOM     17  C   UNL     1       5.474   0.233   5.402  1.00  0.00     0.031 C 
ATOM     18  C   UNL     1       5.164   4.803   3.307  1.00  0.00     0.029 A 
ATOM     19  N   UNL     1       6.431   4.594   5.136  1.00  0.00    -0.354 N 
ATOM     20  C   UNL     1       6.813   0.804   7.170  1.00  0.00     0.074 A 
ATOM     21  C   UNL     1       6.036  -0.225   6.513  1.00  0.00     0.031 C 
ATOM     22  C   UNL     1       5.736   5.993   3.534  1.00  0.00     0.029 A 
ATOM     23  C   UNL     1       6.547   5.904   4.741  1.00  0.00     0.049 A 
ATOM     24  H   UNL     1       6.878   4.228   5.933  1.00  0.00     0.167 HD
ATOM     25  C   UNL     1       7.555   0.609   8.288  1.00  0.00     0.037 A 
ATOM     26  C   UNL     1       7.219   6.929   5.295  1.00  0.00     0.037 A 
ATOM     27  C   UNL     1       8.341   1.635   8.929  1.00  0.00     0.049 A 
ATOM     28  C   UNL     1       8.007   6.689   6.548  1.00  0.00     0.074 A 
ATOM     29  C   UNL     1       9.162   1.525  10.038  1.00  0.00     0.029 A 
ATOM     30  N   UNL     1       8.396   2.961   8.524  1.00  0.00    -0.354 N 
ATOM     31  N   UNL     1       8.194   5.572   7.208  1.00  0.00    -0.248 NA
ATOM     32  C   UNL     1       8.678   7.856   7.135  1.00  0.00     0.031 C 
ATOM     33  C   UNL     1       9.665   2.795  10.341  1.00  0.00     0.029 A 
ATOM     34  C   UNL     1       9.213   3.685   9.380  1.00  0.00     0.049 A 
ATOM     35  H   UNL     1       7.926   3.333   7.743  1.00  0.00     0.167 HD
ATOM     36  C   UNL     1       9.027   5.894   8.270  1.00  0.00     0.074 A 
ATOM     37  C   UNL     1       9.322   7.308   8.154  1.00  0.00     0.031 C 
ATOM     38  C   UNL     1       9.504   5.091   9.252  1.00  0.00     0.037 A 
BRANCH  25  39
ATOM     39  C   UNL     1       7.532  -0.758   8.914  1.00  0.00     0.057 A 
ATOM     40  C   UNL     1       8.136  -1.869   8.310  1.00  0.00     0.134 A 
ATOM     41  C   UNL     1       6.932  -0.957  10.165  1.00  0.00     0.134 A 
ATOM     42  F   UNL     1       8.723  -1.755   7.108  1.00  0.00    -0.206 F 
ATOM     43  C   UNL     1       8.119  -3.130   8.912  1.00  0.00     0.040 A 
ATOM     44  C   UNL     1       6.934  -2.205  10.791  1.00  0.00     0.040 A 
ATOM     45  F   UNL     1       6.343   0.064  10.808  1.00  0.00    -0.206 F 
ATOM     46  C   UNL     1       7.522  -3.298  10.160  1.00  0.00     0.006 A 
ENDBRANCH  25  39
BRANCH  26  47
ATOM     47  C   UNL     1       7.173   8.272   4.665  1.00  0.00     0.057 A 
ATOM     48  C   UNL     1       8.314   8.840   4.088  1.00  0.00     0.134 A 
ATOM     49  C   UNL     1       5.989   9.020   4.625  1.00  0.00     0.134 A 
ATOM     50  F   UNL     1       9.480   8.179   4.107  1.00  0.00    -0.206 F 
ATOM     51  C   UNL     1       8.286  10.111   3.513  1.00  0.00     0.040 A 
ATOM     52  C   UNL     1       5.939  10.278   4.025  1.00  0.00     0.040 A 
ATOM     53  F   UNL     1       4.858   8.528   5.151  1.00  0.00    -0.206 F 
ATOM     54  C   UNL     1       7.093  10.832   3.475  1.00  0.00     0.006 A 
ENDBRANCH  26  47
BRANCH  38  55
ATOM     55  C   UNL     1      10.438   5.716  10.250  1.00  0.00     0.057 A 
ATOM     56  C   UNL     1      10.001   6.652  11.196  1.00  0.00     0.134 A 
ATOM     57  C   UNL     1      11.794   5.366  10.267  1.00  0.00     0.134 A 
ATOM     58  F   UNL     1       8.718   7.043  11.225  1.00  0.00    -0.206 F 
ATOM     59  C   UNL     1      10.887   7.244  12.099  1.00  0.00     0.040 A 
ATOM     60  C   UNL     1      12.682   5.925  11.186  1.00  0.00     0.040 A 
ATOM     61  F   UNL     1      12.278   4.469   9.394  1.00  0.00    -0.206 F 
ATOM     62  C   UNL     1      12.231   6.875  12.099  1.00  0.00     0.006 A 
ENDBRANCH  38  55
ENDBRANCH  12  13
ENDBRANCH   5   7
ENDBRANCH   2   3
ENDBRANCH   1   2
BRANCH   1  63
ATOM     63  C   UNL     1       4.470  -3.142  -2.003  1.00  0.00     0.023 C 
BRANCH  63  64
ATOM     64  C   UNL     1       4.893  -2.583  -3.357  1.00  0.00     0.116 C 
BRANCH  64  65
ATOM     65  N   UNL     1       6.338  -2.547  -3.524  1.00  0.00    -0.352 N 
ATOM     66  C   UNL     1       7.097  -3.138  -4.505  1.00  0.00     0.251 C 
ATOM     67  H   UNL     1       6.836  -2.033  -2.848  1.00  0.00     0.163 HD
ATOM     68  O   UNL     1       8.321  -3.139  -4.446  1.00  0.00    -0.269 OA
BRANCH  66  69
ATOM     69  C   UNL     1       6.409  -3.808  -5.626  1.00  0.00     0.040 A 
ATOM     70  C   UNL     1       5.477  -3.086  -6.405  1.00  0.00     0.016 A 
ATOM     71  C   UNL     1       6.651  -5.170  -5.844  1.00  0.00     0.020 A 
ATOM     72  C   UNL     1       4.701  -3.742  -7.357  1.00  0.00     0.027 A 
ATOM     73  C   UNL     1       5.879  -5.808  -6.798  1.00  0.00    -0.011 A 
ATOM     74  C   UNL     1       4.918  -5.093  -7.519  1.00  0.00     0.045 A 
ATOM     75  C   UNL     1       5.864  -7.253  -7.243  1.00  0.00     0.114 C 
ATOM     76  N   UNL     1       4.243  -5.941  -8.376  1.00  0.00    -0.325 N 
ATOM     77  C   UNL     1       4.725  -7.238  -8.293  1.00  0.00     0.232 C 
ATOM     78  H   UNL     1       3.511  -5.659  -8.971  1.00  0.00     0.169 HD
ATOM     79  O   UNL     1       4.321  -8.171  -8.971  1.00  0.00    -0.274 OA
BRANCH  75  80
ATOM     80  C   UNL     1       5.689  -8.279  -6.103  1.00  0.00     0.010 C 
ATOM     81  C   UNL     1       5.701  -9.727  -6.625  1.00  0.00     0.033 C 
ATOM     82  C   UNL     1       4.438  -8.052  -5.237  1.00  0.00     0.033 C 
ATOM     83  C   UNL     1       5.470 -10.729  -5.501  1.00  0.00     0.160 C 
ATOM     84  C   UNL     1       4.298  -9.150  -4.188  1.00  0.00     0.160 C 
ATOM     85  O   UNL     1       4.263 -10.435  -4.801  1.00  0.00    -0.381 OA
ENDBRANCH  75  80
ENDBRANCH  66  69
ENDBRANCH  64  65
ENDBRANCH  63  64
ENDBRANCH   1  63
TORSDOF 12
