REMARK SMILES CC(C)(C)N(CC(=O)NCCCCNC(=O)c1ccc(-c2c3nc(c(-c4c(F)cccc4F)c4ccc([nH]4)c(-c4c(F)cccc4F)c4nc(c(-c5c(F)cccc5F)c5ccc2[nH]5)C=C4)C=C3)cc1)C(=O)NC[C@H]1CCOC1
REMARK SMILES IDX 10 1 9 2 7 3 8 4 6 6 5 7 2 8 1 9 3 10 4 11 71 12 72 13 73 14
REMARK SMILES IDX 74 16 75 17 76 18 79 19 77 20 78 21 11 22 12 23 13 24 14 25
REMARK SMILES IDX 15 26 16 28 17 29 18 30 70 31 19 32 69 33 20 34 21 35 22 36
REMARK SMILES IDX 63 37 23 38 68 39 62 40 64 41 24 42 67 43 61 44 60 45 25 47
REMARK SMILES IDX 51 48 34 49 50 50 35 51 38 52 49 53 65 54 36 55 37 56 48 58
REMARK SMILES IDX 66 59 39 60 26 61 27 62 32 63 28 64 29 65 31 66 33 67 30 68
REMARK SMILES IDX 52 69 53 70 58 71 54 72 55 73 57 74 59 75 56 76 40 77 41 78
REMARK SMILES IDX 46 79 42 80 43 81 45 82 47 83 44 84
REMARK H PARENT 9 5 73 15 14 27 64 46 38 57
REMARK Flexibility Score: inf
ROOT
ATOM      1  C   UNL     1       0.524  -1.133   1.725  1.00  0.00     0.116 C 
ENDROOT
BRANCH   1   2
ATOM      2  N   UNL     1       1.242  -0.213   2.571  1.00  0.00    -0.355 N 
ATOM      3  C   UNL     1       2.565   0.107   2.525  1.00  0.00     0.239 C 
ATOM      4  O   UNL     1       2.903   1.170   3.057  1.00  0.00    -0.273 OA
ATOM      5  H   UNL     1       0.712   0.239   3.266  1.00  0.00     0.163 HD
BRANCH   3   6
ATOM      6  C   UNL     1       3.580  -0.700   1.692  1.00  0.00     0.221 C 
BRANCH   6   7
ATOM      7  N   UNL     1       3.524  -2.170   1.744  1.00  0.00    -0.311 N 
BRANCH   7   8
ATOM      8  C   UNL     1       3.529  -2.961   0.433  1.00  0.00     0.037 C 
ATOM      9  C   UNL     1       3.384  -2.094  -0.849  1.00  0.00     0.034 C 
ATOM     10  C   UNL     1       2.373  -3.991   0.355  1.00  0.00     0.034 C 
ATOM     11  C   UNL     1       4.876  -3.705   0.274  1.00  0.00     0.034 C 
ENDBRANCH   7   8
BRANCH   7  12
ATOM     12  C   UNL     1       3.739  -2.877   2.908  1.00  0.00     0.318 C 
ATOM     13  O   UNL     1       3.639  -4.107   2.962  1.00  0.00    -0.249 OA
ATOM     14  N   UNL     1       4.075  -2.338   4.090  1.00  0.00    -0.338 N 
ATOM     15  H   UNL     1       4.026  -3.027   4.792  1.00  0.00     0.165 HD
BRANCH  14  16
ATOM     16  C   UNL     1       4.491  -1.069   4.679  1.00  0.00     0.123 C 
BRANCH  16  17
ATOM     17  C   UNL     1       3.485  -0.594   5.725  1.00  0.00     0.036 C 
ATOM     18  C   UNL     1       3.557  -1.344   7.043  1.00  0.00     0.036 C 
ATOM     19  C   UNL     1       3.713   0.840   6.181  1.00  0.00     0.165 C 
ATOM     20  C   UNL     1       2.880  -0.375   7.986  1.00  0.00     0.160 C 
ATOM     21  O   UNL     1       3.223   0.938   7.529  1.00  0.00    -0.381 OA
ENDBRANCH  16  17
ENDBRANCH  14  16
ENDBRANCH   7  12
ENDBRANCH   6   7
ENDBRANCH   3   6
ENDBRANCH   1   2
BRANCH   1  22
ATOM     22  C   UNL     1       0.052  -2.383   2.459  1.00  0.00     0.023 C 
BRANCH  22  23
ATOM     23  C   UNL     1      -1.113  -2.169   3.422  1.00  0.00     0.023 C 
BRANCH  23  24
ATOM     24  C   UNL     1      -2.315  -1.431   2.844  1.00  0.00     0.116 C 
BRANCH  24  25
ATOM     25  N   UNL     1      -2.802  -1.975   1.583  1.00  0.00    -0.352 N 
ATOM     26  C   UNL     1      -4.094  -2.033   1.116  1.00  0.00     0.251 C 
ATOM     27  H   UNL     1      -2.115  -2.351   0.987  1.00  0.00     0.163 HD
ATOM     28  O   UNL     1      -4.346  -2.568   0.041  1.00  0.00    -0.269 OA
BRANCH  26  29
ATOM     29  C   UNL     1      -5.185  -1.493   1.952  1.00  0.00     0.039 A 
ATOM     30  C   UNL     1      -6.286  -2.308   2.224  1.00  0.00     0.014 A 
ATOM     31  C   UNL     1      -5.086  -0.220   2.518  1.00  0.00     0.014 A 
ATOM     32  C   UNL     1      -7.248  -1.880   3.139  1.00  0.00     0.010 A 
ATOM     33  C   UNL     1      -6.006   0.173   3.484  1.00  0.00     0.010 A 
ATOM     34  C   UNL     1      -7.090  -0.657   3.811  1.00  0.00    -0.014 A 
BRANCH  34  35
ATOM     35  C   UNL     1      -8.040  -0.226   4.865  1.00  0.00     0.031 A 
ATOM     36  C   UNL     1      -8.866   1.014   4.667  1.00  0.00     0.074 A 
ATOM     37  C   UNL     1      -8.104  -0.906   6.027  1.00  0.00     0.049 A 
ATOM     38  N   UNL     1      -9.669   1.615   5.507  1.00  0.00    -0.248 NA
ATOM     39  C   UNL     1      -8.751   1.683   3.361  1.00  0.00     0.031 C 
ATOM     40  C   UNL     1      -7.320  -2.098   6.359  1.00  0.00     0.029 A 
ATOM     41  N   UNL     1      -8.858  -0.683   7.151  1.00  0.00    -0.354 N 
ATOM     42  C   UNL     1     -10.141   2.736   4.839  1.00  0.00     0.074 A 
ATOM     43  C   UNL     1      -9.496   2.763   3.544  1.00  0.00     0.031 C 
ATOM     44  C   UNL     1      -7.652  -2.514   7.592  1.00  0.00     0.029 A 
ATOM     45  C   UNL     1      -8.642  -1.600   8.152  1.00  0.00     0.049 A 
ATOM     46  H   UNL     1      -9.494   0.064   7.234  1.00  0.00     0.167 HD
ATOM     47  C   UNL     1     -11.050   3.649   5.256  1.00  0.00     0.037 A 
ATOM     48  C   UNL     1      -9.179  -1.688   9.383  1.00  0.00     0.037 A 
ATOM     49  C   UNL     1     -11.716   3.606   6.530  1.00  0.00     0.049 A 
ATOM     50  C   UNL     1     -10.191  -0.663   9.817  1.00  0.00     0.074 A 
ATOM     51  C   UNL     1     -12.676   4.466   7.031  1.00  0.00     0.029 A 
ATOM     52  N   UNL     1     -11.496   2.640   7.499  1.00  0.00    -0.354 N 
ATOM     53  N   UNL     1     -10.658   0.369   9.157  1.00  0.00    -0.248 NA
ATOM     54  C   UNL     1     -10.754  -0.820  11.166  1.00  0.00     0.031 C 
ATOM     55  C   UNL     1     -13.024   4.031   8.315  1.00  0.00     0.029 A 
ATOM     56  C   UNL     1     -12.303   2.883   8.597  1.00  0.00     0.049 A 
ATOM     57  H   UNL     1     -10.860   1.892   7.419  1.00  0.00     0.167 HD
ATOM     58  C   UNL     1     -11.592   0.964   9.996  1.00  0.00     0.074 A 
ATOM     59  C   UNL     1     -11.632   0.172  11.207  1.00  0.00     0.031 C 
ATOM     60  C   UNL     1     -12.347   2.068   9.783  1.00  0.00     0.037 A 
BRANCH  47  61
ATOM     61  C   UNL     1     -11.393   4.761   4.311  1.00  0.00     0.057 A 
ATOM     62  C   UNL     1     -12.166   4.534   3.164  1.00  0.00     0.134 A 
ATOM     63  C   UNL     1     -10.980   6.074   4.564  1.00  0.00     0.134 A 
ATOM     64  F   UNL     1     -12.579   3.295   2.858  1.00  0.00    -0.206 F 
ATOM     65  C   UNL     1     -12.500   5.571   2.293  1.00  0.00     0.040 A 
ATOM     66  C   UNL     1     -11.328   7.124   3.712  1.00  0.00     0.040 A 
ATOM     67  F   UNL     1     -10.240   6.359   5.646  1.00  0.00    -0.206 F 
ATOM     68  C   UNL     1     -12.087   6.872   2.570  1.00  0.00     0.006 A 
ENDBRANCH  47  61
BRANCH  48  69
ATOM     69  C   UNL     1      -8.798  -2.797  10.292  1.00  0.00     0.057 A 
ATOM     70  C   UNL     1      -9.706  -3.818  10.599  1.00  0.00     0.134 A 
ATOM     71  C   UNL     1      -7.540  -2.848  10.901  1.00  0.00     0.134 A 
ATOM     72  F   UNL     1     -10.935  -3.811  10.060  1.00  0.00    -0.206 F 
ATOM     73  C   UNL     1      -9.387  -4.834  11.500  1.00  0.00     0.040 A 
ATOM     74  C   UNL     1      -7.199  -3.871  11.787  1.00  0.00     0.040 A 
ATOM     75  F   UNL     1      -6.623  -1.903  10.643  1.00  0.00    -0.206 F 
ATOM     76  C   UNL     1      -8.128  -4.863  12.096  1.00  0.00     0.006 A 
ENDBRANCH  48  69
BRANCH  60  77
ATOM     77  C   UNL     1     -13.314   2.453  10.861  1.00  0.00     0.057 A 
ATOM     78  C   UNL     1     -12.890   3.047  12.055  1.00  0.00     0.134 A 
ATOM     79  C   UNL     1     -14.689   2.260  10.682  1.00  0.00     0.134 A 
ATOM     80  F   UNL     1     -11.584   3.246  12.290  1.00  0.00    -0.206 F 
ATOM     81  C   UNL     1     -13.801   3.418  13.045  1.00  0.00     0.040 A 
ATOM     82  C   UNL     1     -15.611   2.646  11.655  1.00  0.00     0.040 A 
ATOM     83  F   UNL     1     -15.158   1.702   9.556  1.00  0.00    -0.206 F 
ATOM     84  C   UNL     1     -15.166   3.223  12.844  1.00  0.00     0.006 A 
ENDBRANCH  60  77
ENDBRANCH  34  35
ENDBRANCH  26  29
ENDBRANCH  24  25
ENDBRANCH  23  24
ENDBRANCH  22  23
ENDBRANCH   1  22
TORSDOF 16
