REMARK SMILES O=C(NCCCCNC(=O)[C@@H]1C=C[C@@H](NS(=O)(=O)c2ccc(F)c(F)c2F)C1)c1ccc(-c2c3nc(c(-c4c(F)cccc4F)c4ccc([nH]4)c(-c4c(F)cccc4F)c4nc(c(-c5c(F)cccc5F)c5ccc2[nH]5)C=C4)C=C3)cc1
REMARK SMILES IDX 6 1 5 2 4 3 3 4 1 5 2 6 29 8 30 9 82 10 31 11 81 12 32 13
REMARK SMILES IDX 33 14 34 15 75 16 35 17 80 18 74 19 76 20 36 21 79 22 73 23
REMARK SMILES IDX 72 24 37 26 63 27 46 28 62 29 47 30 50 31 61 32 77 33 48 34
REMARK SMILES IDX 49 35 60 37 78 38 51 39 38 40 39 41 44 42 40 43 41 44 43 45
REMARK SMILES IDX 45 46 42 47 64 48 65 49 70 50 66 51 67 52 69 53 71 54 68 55
REMARK SMILES IDX 52 56 53 57 58 58 54 59 55 60 57 61 59 62 56 63 7 64 8 65
REMARK SMILES IDX 9 66 10 68 11 69 12 70 28 71 13 72 14 73 15 74 16 76 17 77
REMARK SMILES IDX 18 78 19 79 20 80 26 81 21 82 24 83 27 84 22 85 25 86 23 87
REMARK H PARENT 3 7 76 25 50 36 8 67 15 75
REMARK Flexibility Score: inf
ROOT
ATOM      1  C   UNL     1       4.626  -3.992   3.637  1.00  0.00     0.023 C 
ENDROOT
BRANCH   1   2
ATOM      2  C   UNL     1       3.159  -4.003   3.212  1.00  0.00     0.023 C 
BRANCH   2   3
ATOM      3  C   UNL     1       2.853  -3.192   1.962  1.00  0.00     0.116 C 
BRANCH   3   4
ATOM      4  N   UNL     1       3.559  -3.680   0.787  1.00  0.00    -0.352 N 
ATOM      5  O   UNL     1       3.763  -4.567  -1.280  1.00  0.00    -0.269 OA
ATOM      6  C   UNL     1       3.050  -4.026  -0.442  1.00  0.00     0.251 C 
ATOM      7  H   UNL     1       4.534  -3.777   0.886  1.00  0.00     0.163 HD
BRANCH   6   8
ATOM      8  C   UNL     1       1.627  -3.761  -0.734  1.00  0.00     0.039 A 
ATOM      9  C   UNL     1       1.054  -2.531  -0.404  1.00  0.00     0.014 A 
ATOM     10  C   UNL     1       0.856  -4.763  -1.329  1.00  0.00     0.014 A 
ATOM     11  C   UNL     1      -0.317  -2.353  -0.532  1.00  0.00     0.010 A 
ATOM     12  C   UNL     1      -0.506  -4.545  -1.548  1.00  0.00     0.010 A 
ATOM     13  C   UNL     1      -1.108  -3.348  -1.126  1.00  0.00    -0.014 A 
BRANCH  13  14
ATOM     14  C   UNL     1      -2.546  -3.083  -1.373  1.00  0.00     0.031 A 
ATOM     15  C   UNL     1      -3.617  -3.905  -0.718  1.00  0.00     0.074 A 
ATOM     16  C   UNL     1      -2.878  -2.083  -2.213  1.00  0.00     0.049 A 
ATOM     17  N   UNL     1      -4.916  -3.823  -0.853  1.00  0.00    -0.248 NA
ATOM     18  C   UNL     1      -3.174  -4.965   0.199  1.00  0.00     0.031 C 
ATOM     19  C   UNL     1      -1.921  -1.228  -2.920  1.00  0.00     0.029 A 
ATOM     20  N   UNL     1      -4.102  -1.618  -2.617  1.00  0.00    -0.354 N 
ATOM     21  C   UNL     1      -5.447  -4.829  -0.057  1.00  0.00     0.074 A 
ATOM     22  C   UNL     1      -4.326  -5.528   0.536  1.00  0.00     0.031 C 
ATOM     23  C   UNL     1      -2.593  -0.329  -3.652  1.00  0.00     0.029 A 
ATOM     24  C   UNL     1      -4.021  -0.590  -3.523  1.00  0.00     0.049 A 
ATOM     25  H   UNL     1      -4.955  -1.984  -2.289  1.00  0.00     0.167 HD
ATOM     26  C   UNL     1      -6.750  -5.135   0.160  1.00  0.00     0.037 A 
ATOM     27  C   UNL     1      -4.985   0.051  -4.208  1.00  0.00     0.037 A 
ATOM     28  C   UNL     1      -7.856  -4.431  -0.439  1.00  0.00     0.049 A 
ATOM     29  C   UNL     1      -6.417  -0.332  -3.981  1.00  0.00     0.074 A 
ATOM     30  C   UNL     1      -9.212  -4.632  -0.246  1.00  0.00     0.029 A 
ATOM     31  N   UNL     1      -7.735  -3.402  -1.364  1.00  0.00    -0.354 N 
ATOM     32  N   UNL     1      -6.908  -1.248  -3.183  1.00  0.00    -0.248 NA
ATOM     33  C   UNL     1      -7.428   0.407  -4.747  1.00  0.00     0.031 C 
ATOM     34  C   UNL     1      -9.909  -3.772  -1.102  1.00  0.00     0.029 A 
ATOM     35  C   UNL     1      -8.990  -2.986  -1.779  1.00  0.00     0.049 A 
ATOM     36  H   UNL     1      -6.882  -3.025  -1.679  1.00  0.00     0.167 HD
ATOM     37  C   UNL     1      -8.286  -1.186  -3.335  1.00  0.00     0.074 A 
ATOM     38  C   UNL     1      -8.552  -0.129  -4.290  1.00  0.00     0.031 C 
ATOM     39  C   UNL     1      -9.243  -1.935  -2.735  1.00  0.00     0.037 A 
BRANCH  26  40
ATOM     40  C   UNL     1      -7.049  -6.305   1.056  1.00  0.00     0.057 A 
ATOM     41  C   UNL     1      -6.791  -6.279   2.433  1.00  0.00     0.134 A 
ATOM     42  C   UNL     1      -7.627  -7.471   0.534  1.00  0.00     0.134 A 
ATOM     43  F   UNL     1      -6.232  -5.198   3.000  1.00  0.00    -0.206 F 
ATOM     44  C   UNL     1      -7.062  -7.379   3.251  1.00  0.00     0.040 A 
ATOM     45  C   UNL     1      -7.931  -8.565   1.346  1.00  0.00     0.040 A 
ATOM     46  F   UNL     1      -7.913  -7.564  -0.773  1.00  0.00    -0.206 F 
ATOM     47  C   UNL     1      -7.639  -8.525   2.707  1.00  0.00     0.006 A 
ENDBRANCH  26  40
BRANCH  27  48
ATOM     48  C   UNL     1      -4.606   1.099  -5.187  1.00  0.00     0.057 A 
ATOM     49  C   UNL     1      -4.884   2.449  -4.952  1.00  0.00     0.134 A 
ATOM     50  C   UNL     1      -3.918   0.775  -6.364  1.00  0.00     0.134 A 
ATOM     51  F   UNL     1      -5.549   2.820  -3.849  1.00  0.00    -0.206 F 
ATOM     52  C   UNL     1      -4.501   3.440  -5.858  1.00  0.00     0.040 A 
ATOM     53  C   UNL     1      -3.503   1.757  -7.263  1.00  0.00     0.040 A 
ATOM     54  F   UNL     1      -3.609  -0.501  -6.638  1.00  0.00    -0.206 F 
ATOM     55  C   UNL     1      -3.800   3.095  -7.013  1.00  0.00     0.006 A 
ENDBRANCH  27  48
BRANCH  39  56
ATOM     56  C   UNL     1     -10.672  -1.620  -3.070  1.00  0.00     0.057 A 
ATOM     57  C   UNL     1     -11.227  -1.926  -4.319  1.00  0.00     0.134 A 
ATOM     58  C   UNL     1     -11.515  -1.042  -2.112  1.00  0.00     0.134 A 
ATOM     59  F   UNL     1     -10.470  -2.465  -5.287  1.00  0.00    -0.206 F 
ATOM     60  C   UNL     1     -12.565  -1.651  -4.609  1.00  0.00     0.040 A 
ATOM     61  C   UNL     1     -12.861  -0.791  -2.380  1.00  0.00     0.040 A 
ATOM     62  F   UNL     1     -11.049  -0.730  -0.893  1.00  0.00    -0.206 F 
ATOM     63  C   UNL     1     -13.388  -1.091  -3.634  1.00  0.00     0.006 A 
ENDBRANCH  39  56
ENDBRANCH  13  14
ENDBRANCH   6   8
ENDBRANCH   3   4
ENDBRANCH   2   3
ENDBRANCH   1   2
BRANCH   1  64
ATOM     64  C   UNL     1       5.211  -2.594   3.841  1.00  0.00     0.116 C 
BRANCH  64  65
ATOM     65  N   UNL     1       4.567  -1.906   4.944  1.00  0.00    -0.356 N 
ATOM     66  C   UNL     1       5.069  -1.634   6.187  1.00  0.00     0.226 C 
ATOM     67  H   UNL     1       3.649  -1.594   4.776  1.00  0.00     0.163 HD
ATOM     68  O   UNL     1       4.319  -1.138   7.028  1.00  0.00    -0.274 OA
BRANCH  66  69
ATOM     69  C   UNL     1       6.539  -1.947   6.464  1.00  0.00     0.103 C 
ATOM     70  C   UNL     1       6.739  -3.417   6.673  1.00  0.00    -0.016 C 
ATOM     71  C   UNL     1       7.036  -1.354   7.792  1.00  0.00     0.042 C 
ATOM     72  C   UNL     1       6.996  -3.712   7.948  1.00  0.00    -0.011 C 
ATOM     73  C   UNL     1       7.021  -2.505   8.814  1.00  0.00     0.093 C 
BRANCH  73  74
ATOM     74  N   UNL     1       8.230  -2.458   9.615  1.00  0.00    -0.204 NA
ATOM     75  H   UNL     1       8.261  -1.521  10.016  1.00  0.00     0.142 HD
BRANCH  74  76
ATOM     76  S   UNL     1       8.545  -3.499  10.874  1.00  0.00     0.244 S 
ATOM     77  O   UNL     1       8.490  -4.850  10.361  1.00  0.00    -0.207 OA
ATOM     78  O   UNL     1       9.737  -3.011  11.533  1.00  0.00    -0.207 OA
BRANCH  76  79
ATOM     79  C   UNL     1       7.204  -3.299  11.991  1.00  0.00     0.121 A 
ATOM     80  C   UNL     1       6.510  -4.432  12.441  1.00  0.00     0.028 A 
ATOM     81  C   UNL     1       6.825  -2.028  12.401  1.00  0.00     0.181 A 
ATOM     82  C   UNL     1       5.431  -4.280  13.311  1.00  0.00     0.044 A 
ATOM     83  C   UNL     1       5.744  -1.881  13.263  1.00  0.00     0.195 A 
ATOM     84  F   UNL     1       7.468  -0.936  11.964  1.00  0.00    -0.202 F 
ATOM     85  C   UNL     1       5.054  -3.002  13.715  1.00  0.00     0.161 A 
ATOM     86  F   UNL     1       5.359  -0.658  13.651  1.00  0.00    -0.200 F 
ATOM     87  F   UNL     1       4.013  -2.862  14.546  1.00  0.00    -0.204 F 
ENDBRANCH  76  79
ENDBRANCH  74  76
ENDBRANCH  73  74
ENDBRANCH  66  69
ENDBRANCH  64  65
ENDBRANCH   1  64
TORSDOF 14
