REMARK SMILES O=C(Cn1nc(C(=O)NCCCCNC(=O)c2ccc(-c3c4nc(c(-c5c(F)cccc5F)c5ccc([nH]5)c(-c5c(F)cccc5F)c5nc(c(-c6c(F)cccc6F)c6ccc3[nH]6)C=C5)C=C4)cc2)c2ccccc2c1=O)NCc1ccc(F)cc1
REMARK SMILES IDX 10 1 9 2 7 3 8 4 6 6 4 7 5 8 77 9 76 10 78 11 71 12 75 13
REMARK SMILES IDX 72 14 74 15 73 16 3 17 2 18 1 19 79 20 80 22 81 23 82 24
REMARK SMILES IDX 87 25 83 26 86 27 84 28 85 29 11 30 12 31 13 32 14 33 15 34
REMARK SMILES IDX 16 36 17 37 18 38 70 39 19 40 69 41 20 42 21 43 22 44 63 45
REMARK SMILES IDX 23 46 68 47 62 48 64 49 24 50 67 51 61 52 60 53 25 55 51 56
REMARK SMILES IDX 34 57 50 58 35 59 38 60 49 61 65 62 36 63 37 64 48 66 66 67
REMARK SMILES IDX 39 68 26 69 27 70 32 71 28 72 29 73 31 74 33 75 30 76 52 77
REMARK SMILES IDX 53 78 58 79 54 80 55 81 57 82 59 83 56 84 40 85 41 86 46 87
REMARK SMILES IDX 42 88 43 89 45 90 47 91 44 92
REMARK H PARENT 9 5 79 21 14 35 64 54 38 65
REMARK Flexibility Score: inf
ROOT
ATOM      1  C   UNL     1       4.134  -2.552   1.830  1.00  0.00     0.116 C 
ENDROOT
BRANCH   1   2
ATOM      2  N   UNL     1       5.006  -2.297   2.955  1.00  0.00    -0.351 N 
ATOM      3  C   UNL     1       5.458  -1.131   3.527  1.00  0.00     0.272 C 
ATOM      4  O   UNL     1       6.165  -1.260   4.521  1.00  0.00    -0.267 OA
ATOM      5  H   UNL     1       5.338  -3.112   3.395  1.00  0.00     0.163 HD
BRANCH   3   6
ATOM      6  C   UNL     1       5.097   0.275   2.978  1.00  0.00     0.156 A 
ATOM      7  N   UNL     1       3.892   1.540   1.442  1.00  0.00    -0.219 N 
ATOM      8  N   UNL     1       4.335   0.334   1.923  1.00  0.00    -0.163 NA
ATOM      9  C   UNL     1       4.261   2.766   1.976  1.00  0.00     0.275 A 
ATOM     10  C   UNL     1       5.165   2.731   3.135  1.00  0.00     0.051 A 
ATOM     11  O   UNL     1       3.908   3.849   1.515  1.00  0.00    -0.267 OA
ATOM     12  C   UNL     1       5.605   1.510   3.646  1.00  0.00     0.020 A 
ATOM     13  C   UNL     1       5.604   3.948   3.682  1.00  0.00     0.014 A 
ATOM     14  C   UNL     1       6.513   1.534   4.714  1.00  0.00     0.011 A 
ATOM     15  C   UNL     1       6.500   3.954   4.745  1.00  0.00     0.001 A 
ATOM     16  C   UNL     1       6.955   2.747   5.258  1.00  0.00     0.001 A 
BRANCH   7  17
ATOM     17  C   UNL     1       3.087   1.541   0.226  1.00  0.00     0.248 C 
BRANCH  17  18
ATOM     18  C   UNL     1       2.069   0.411   0.109  1.00  0.00     0.242 C 
ATOM     19  O   UNL     1       0.988   0.409   0.691  1.00  0.00    -0.273 OA
ATOM     20  N   UNL     1       2.488  -0.630  -0.693  1.00  0.00    -0.350 N 
ATOM     21  H   UNL     1       3.401  -0.616  -1.060  1.00  0.00     0.163 HD
BRANCH  20  22
ATOM     22  C   UNL     1       1.621  -1.740  -1.008  1.00  0.00     0.151 C 
BRANCH  22  23
ATOM     23  C   UNL     1       2.059  -2.481  -2.249  1.00  0.00    -0.029 A 
ATOM     24  C   UNL     1       2.757  -1.869  -3.300  1.00  0.00     0.008 A 
ATOM     25  C   UNL     1       1.708  -3.830  -2.385  1.00  0.00     0.008 A 
ATOM     26  C   UNL     1       3.157  -2.612  -4.415  1.00  0.00     0.039 A 
ATOM     27  C   UNL     1       2.127  -4.583  -3.482  1.00  0.00     0.039 A 
ATOM     28  C   UNL     1       2.855  -3.966  -4.487  1.00  0.00     0.123 A 
ATOM     29  F   UNL     1       3.256  -4.679  -5.547  1.00  0.00    -0.207 F 
ENDBRANCH  22  23
ENDBRANCH  20  22
ENDBRANCH  17  18
ENDBRANCH   7  17
ENDBRANCH   3   6
ENDBRANCH   1   2
BRANCH   1  30
ATOM     30  C   UNL     1       4.905  -3.102   0.633  1.00  0.00     0.023 C 
BRANCH  30  31
ATOM     31  C   UNL     1       5.356  -4.554   0.783  1.00  0.00     0.023 C 
BRANCH  31  32
ATOM     32  C   UNL     1       4.274  -5.535   1.213  1.00  0.00     0.116 C 
BRANCH  32  33
ATOM     33  N   UNL     1       3.057  -5.480   0.411  1.00  0.00    -0.352 N 
ATOM     34  C   UNL     1       2.284  -6.527  -0.043  1.00  0.00     0.251 C 
ATOM     35  H   UNL     1       2.748  -4.579   0.162  1.00  0.00     0.163 HD
ATOM     36  O   UNL     1       1.252  -6.366  -0.670  1.00  0.00    -0.269 OA
BRANCH  34  37
ATOM     37  C   UNL     1       2.735  -7.888   0.241  1.00  0.00     0.039 A 
ATOM     38  C   UNL     1       2.973  -8.242   1.566  1.00  0.00     0.014 A 
ATOM     39  C   UNL     1       2.966  -8.771  -0.816  1.00  0.00     0.014 A 
ATOM     40  C   UNL     1       3.602  -9.440   1.825  1.00  0.00     0.010 A 
ATOM     41  C   UNL     1       3.494 -10.027  -0.539  1.00  0.00     0.010 A 
ATOM     42  C   UNL     1       3.841 -10.351   0.780  1.00  0.00    -0.014 A 
BRANCH  42  43
ATOM     43  C   UNL     1       4.398 -11.665   1.148  1.00  0.00     0.031 A 
ATOM     44  C   UNL     1       5.787 -12.050   0.750  1.00  0.00     0.074 A 
ATOM     45  C   UNL     1       3.650 -12.433   1.961  1.00  0.00     0.049 A 
ATOM     46  N   UNL     1       6.487 -13.086   1.129  1.00  0.00    -0.248 NA
ATOM     47  C   UNL     1       6.482 -11.164  -0.197  1.00  0.00     0.031 C 
ATOM     48  C   UNL     1       2.282 -12.114   2.390  1.00  0.00     0.029 A 
ATOM     49  N   UNL     1       3.944 -13.589   2.625  1.00  0.00    -0.354 N 
ATOM     50  C   UNL     1       7.704 -12.981   0.468  1.00  0.00     0.074 A 
ATOM     51  C   UNL     1       7.632 -11.802  -0.367  1.00  0.00     0.031 C 
ATOM     52  C   UNL     1       1.894 -12.999   3.316  1.00  0.00     0.029 A 
ATOM     53  C   UNL     1       2.950 -13.987   3.485  1.00  0.00     0.049 A 
ATOM     54  H   UNL     1       4.785 -14.087   2.501  1.00  0.00     0.167 HD
ATOM     55  C   UNL     1       8.780 -13.797   0.565  1.00  0.00     0.037 A 
ATOM     56  C   UNL     1       2.901 -15.042   4.315  1.00  0.00     0.037 A 
ATOM     57  C   UNL     1       8.811 -14.974   1.397  1.00  0.00     0.049 A 
ATOM     58  C   UNL     1       4.093 -15.950   4.361  1.00  0.00     0.074 A 
ATOM     59  C   UNL     1       9.837 -15.884   1.574  1.00  0.00     0.029 A 
ATOM     60  N   UNL     1       7.753 -15.406   2.188  1.00  0.00    -0.354 N 
ATOM     61  N   UNL     1       5.246 -15.832   3.747  1.00  0.00    -0.248 NA
ATOM     62  C   UNL     1       3.972 -17.140   5.207  1.00  0.00     0.031 C 
ATOM     63  C   UNL     1       9.381 -16.894   2.430  1.00  0.00     0.029 A 
ATOM     64  C   UNL     1       8.091 -16.584   2.835  1.00  0.00     0.049 A 
ATOM     65  H   UNL     1       6.889 -14.943   2.276  1.00  0.00     0.167 HD
ATOM     66  C   UNL     1       5.994 -16.933   4.134  1.00  0.00     0.074 A 
ATOM     67  C   UNL     1       5.175 -17.678   5.072  1.00  0.00     0.031 C 
ATOM     68  C   UNL     1       7.239 -17.308   3.745  1.00  0.00     0.037 A 
BRANCH  55  69
ATOM     69  C   UNL     1       9.979 -13.460  -0.275  1.00  0.00     0.057 A 
ATOM     70  C   UNL     1      10.344 -14.271  -1.357  1.00  0.00     0.134 A 
ATOM     71  C   UNL     1      10.772 -12.332  -0.023  1.00  0.00     0.134 A 
ATOM     72  F   UNL     1       9.632 -15.367  -1.658  1.00  0.00    -0.206 F 
ATOM     73  C   UNL     1      11.449 -13.972  -2.158  1.00  0.00     0.040 A 
ATOM     74  C   UNL     1      11.864 -12.007  -0.833  1.00  0.00     0.040 A 
ATOM     75  F   UNL     1      10.470 -11.500   0.986  1.00  0.00    -0.206 F 
ATOM     76  C   UNL     1      12.207 -12.832  -1.901  1.00  0.00     0.006 A 
ENDBRANCH  55  69
BRANCH  56  77
ATOM     77  C   UNL     1       1.690 -15.298   5.134  1.00  0.00     0.057 A 
ATOM     78  C   UNL     1       0.463 -15.612   4.537  1.00  0.00     0.134 A 
ATOM     79  C   UNL     1       1.730 -15.247   6.532  1.00  0.00     0.134 A 
ATOM     80  F   UNL     1       0.352 -15.665   3.201  1.00  0.00    -0.206 F 
ATOM     81  C   UNL     1      -0.680 -15.861   5.296  1.00  0.00     0.040 A 
ATOM     82  C   UNL     1       0.603 -15.527   7.306  1.00  0.00     0.040 A 
ATOM     83  F   UNL     1       2.877 -14.960   7.165  1.00  0.00    -0.206 F 
ATOM     84  C   UNL     1      -0.609 -15.831   6.687  1.00  0.00     0.006 A 
ENDBRANCH  56  77
BRANCH  68  85
ATOM     85  C   UNL     1       7.765 -18.573   4.357  1.00  0.00     0.057 A 
ATOM     86  C   UNL     1       8.799 -18.532   5.299  1.00  0.00     0.134 A 
ATOM     87  C   UNL     1       7.227 -19.827   4.036  1.00  0.00     0.134 A 
ATOM     88  F   UNL     1       9.363 -17.365   5.644  1.00  0.00    -0.206 F 
ATOM     89  C   UNL     1       9.270 -19.692   5.912  1.00  0.00     0.040 A 
ATOM     90  C   UNL     1       7.665 -20.990   4.669  1.00  0.00     0.040 A 
ATOM     91  F   UNL     1       6.221 -19.930   3.154  1.00  0.00    -0.206 F 
ATOM     92  C   UNL     1       8.692 -20.924   5.609  1.00  0.00     0.006 A 
ENDBRANCH  68  85
ENDBRANCH  42  43
ENDBRANCH  34  37
ENDBRANCH  32  33
ENDBRANCH  31  32
ENDBRANCH  30  31
ENDBRANCH   1  30
TORSDOF 15
