REMARK SMILES O=C(COc1ccccc1/C=C1\N=C(c2ccccc2OC(F)F)OC1=O)NCCCCNC(=O)c1ccc(-c2c3nc(c(-c4c(F)cccc4F)c4ccc([nH]4)c(-c4c(F)cccc4F)c4nc(c(-c5c(F)cccc5F)c5ccc2[nH]5)C=C4)C=C3)cc1
REMARK SMILES IDX 1 1 2 2 28 3 3 5 4 6 5 7 6 8 10 9 7 10 9 11 8 12 11 13 12 14
REMARK SMILES IDX 13 15 26 16 14 17 25 18 27 19 15 20 16 21 20 22 17 23 19 24
REMARK SMILES IDX 18 25 21 26 22 27 23 28 24 29 29 30 30 31 31 32 32 33 33 34
REMARK SMILES IDX 34 35 35 37 36 38 37 39 89 40 38 41 88 42 39 43 40 44 41 45
REMARK SMILES IDX 82 46 42 47 87 48 81 49 83 50 43 51 86 52 80 53 79 54 44 56
REMARK SMILES IDX 70 57 53 58 69 59 54 60 57 61 68 62 84 63 55 64 56 65 67 67
REMARK SMILES IDX 85 68 58 69 45 70 46 71 51 72 47 73 48 74 50 75 52 76 49 77
REMARK SMILES IDX 71 78 72 79 77 80 73 81 74 82 76 83 78 84 75 85 59 86 60 87
REMARK SMILES IDX 65 88 61 89 62 90 64 91 66 92 63 93
REMARK H PARENT 28 4 33 36 83 55 57 66
REMARK Flexibility Score: inf
ROOT
ATOM      1  O   UNL     1       2.022  -0.096   1.872  1.00  0.00    -0.271 OA
ATOM      2  C   UNL     1       2.639  -0.271   0.829  1.00  0.00     0.257 C 
ATOM      3  N   UNL     1       2.954   0.724  -0.155  1.00  0.00    -0.353 N 
ATOM      4  H   UNL     1       3.691   0.332  -0.678  1.00  0.00     0.163 HD
ENDROOT
BRANCH   2   5
ATOM      5  C   UNL     1       3.030  -1.685   0.327  1.00  0.00     0.329 C 
BRANCH   5   6
ATOM      6  O   UNL     1       3.771  -1.663  -0.898  1.00  0.00    -0.483 OA
BRANCH   6   7
ATOM      7  C   UNL     1       3.121  -2.077  -2.040  1.00  0.00     0.127 A 
ATOM      8  C   UNL     1       3.730  -3.163  -2.678  1.00  0.00     0.047 A 
ATOM      9  C   UNL     1       2.046  -1.405  -2.672  1.00  0.00     0.019 A 
ATOM     10  C   UNL     1       3.266  -3.614  -3.913  1.00  0.00     0.004 A 
ATOM     11  C   UNL     1       1.589  -1.876  -3.912  1.00  0.00     0.012 A 
ATOM     12  C   UNL     1       2.198  -2.970  -4.531  1.00  0.00     0.001 A 
BRANCH   9  13
ATOM     13  C   UNL     1       1.332  -0.252  -2.109  1.00  0.00     0.048 C 
ATOM     14  C   UNL     1       1.965   0.872  -1.728  1.00  0.00     0.153 C 
ATOM     15  N   UNL     1       3.751   1.141  -1.852  1.00  0.00    -0.205 NA
ATOM     16  C   UNL     1       1.410   1.671   0.042  1.00  0.00     0.363 C 
ATOM     17  C   UNL     1       4.334   1.876  -0.540  1.00  0.00     0.235 C 
ATOM     18  O   UNL     1       3.058   2.267   0.708  1.00  0.00    -0.402 OA
ATOM     19  O   UNL     1       0.312   1.969   0.481  1.00  0.00    -0.244 OA
BRANCH  17  20
ATOM     20  C   UNL     1       5.761   2.186  -0.311  1.00  0.00     0.080 A 
ATOM     21  C   UNL     1       6.527   2.047  -1.489  1.00  0.00     0.017 A 
ATOM     22  C   UNL     1       6.393   2.639   0.854  1.00  0.00     0.138 A 
ATOM     23  C   UNL     1       7.877   2.386  -1.532  1.00  0.00     0.001 A 
ATOM     24  C   UNL     1       7.760   2.977   0.797  1.00  0.00     0.047 A 
ATOM     25  C   UNL     1       8.497   2.855  -0.385  1.00  0.00     0.004 A 
BRANCH  22  26
ATOM     26  O   UNL     1       5.799   2.990   2.030  1.00  0.00    -0.434 OA
BRANCH  26  27
ATOM     27  C   UNL     1       5.128   1.985   2.784  1.00  0.00     0.542 C 
ATOM     28  F   UNL     1       3.904   2.473   3.089  1.00  0.00    -0.167 F 
ATOM     29  F   UNL     1       4.986   0.842   2.078  1.00  0.00    -0.167 F 
ENDBRANCH  26  27
ENDBRANCH  22  26
ENDBRANCH  17  20
ENDBRANCH   9  13
ENDBRANCH   6   7
ENDBRANCH   5   6
ENDBRANCH   2   5
BRANCH   3  30
ATOM     30  C   UNL     1       2.613   2.646  -1.052  1.00  0.00     0.116 C 
BRANCH  30  31
ATOM     31  C   UNL     1       2.405   4.160  -0.260  1.00  0.00     0.023 C 
BRANCH  31  32
ATOM     32  C   UNL     1       3.655   4.980   0.067  1.00  0.00     0.023 C 
BRANCH  32  33
ATOM     33  C   UNL     1       4.537   5.324  -1.123  1.00  0.00     0.116 C 
BRANCH  33  34
ATOM     34  N   UNL     1       3.971   6.357  -1.969  1.00  0.00    -0.352 N 
ATOM     35  C   UNL     1       4.667   7.312  -2.672  1.00  0.00     0.251 C 
ATOM     36  H   UNL     1       2.989   6.377  -2.048  1.00  0.00     0.163 HD
ATOM     37  O   UNL     1       4.093   8.220  -3.260  1.00  0.00    -0.269 OA
BRANCH  35  38
ATOM     38  C   UNL     1       6.142   7.236  -2.674  1.00  0.00     0.039 A 
ATOM     39  C   UNL     1       6.877   8.320  -2.192  1.00  0.00     0.014 A 
ATOM     40  C   UNL     1       6.784   6.065  -3.089  1.00  0.00     0.014 A 
ATOM     41  C   UNL     1       8.266   8.218  -2.099  1.00  0.00     0.010 A 
ATOM     42  C   UNL     1       8.162   5.946  -2.937  1.00  0.00     0.010 A 
ATOM     43  C   UNL     1       8.919   7.025  -2.455  1.00  0.00    -0.014 A 
BRANCH  43  44
ATOM     44  C   UNL     1      10.397   6.916  -2.373  1.00  0.00     0.031 A 
ATOM     45  C   UNL     1      11.206   6.752  -3.631  1.00  0.00     0.074 A 
ATOM     46  C   UNL     1      11.011   6.939  -1.174  1.00  0.00     0.049 A 
ATOM     47  N   UNL     1      12.502   6.638  -3.772  1.00  0.00    -0.248 NA
ATOM     48  C   UNL     1      10.457   6.678  -4.896  1.00  0.00     0.031 C 
ATOM     49  C   UNL     1      10.337   7.039   0.121  1.00  0.00     0.029 A 
ATOM     50  N   UNL     1      12.344   6.884  -0.852  1.00  0.00    -0.354 N 
ATOM     51  C   UNL     1      12.719   6.470  -5.134  1.00  0.00     0.074 A 
ATOM     52  C   UNL     1      11.421   6.429  -5.769  1.00  0.00     0.031 C 
ATOM     53  C   UNL     1      11.262   7.077   1.095  1.00  0.00     0.029 A 
ATOM     54  C   UNL     1      12.590   6.976   0.497  1.00  0.00     0.049 A 
ATOM     55  H   UNL     1      13.057   6.789  -1.524  1.00  0.00     0.167 HD
ATOM     56  C   UNL     1      13.894   6.389  -5.803  1.00  0.00     0.037 A 
ATOM     57  C   UNL     1      13.757   6.986   1.171  1.00  0.00     0.037 A 
ATOM     58  C   UNL     1      15.186   6.466  -5.176  1.00  0.00     0.049 A 
ATOM     59  C   UNL     1      15.050   6.909   0.405  1.00  0.00     0.074 A 
ATOM     60  C   UNL     1      16.436   6.454  -5.771  1.00  0.00     0.029 A 
ATOM     61  N   UNL     1      15.393   6.575  -3.809  1.00  0.00    -0.354 N 
ATOM     62  N   UNL     1      15.241   6.822  -0.889  1.00  0.00    -0.248 NA
ATOM     63  C   UNL     1      16.291   6.941   1.193  1.00  0.00     0.031 C 
ATOM     64  C   UNL     1      17.400   6.514  -4.760  1.00  0.00     0.029 A 
ATOM     65  C   UNL     1      16.751   6.612  -3.540  1.00  0.00     0.049 A 
ATOM     66  H   UNL     1      14.681   6.620  -3.131  1.00  0.00     0.167 HD
ATOM     67  C   UNL     1      16.618   6.818  -1.072  1.00  0.00     0.074 A 
ATOM     68  C   UNL     1      17.215   6.926   0.243  1.00  0.00     0.031 C 
ATOM     69  C   UNL     1      17.326   6.730  -2.224  1.00  0.00     0.037 A 
BRANCH  56  70
ATOM     70  C   UNL     1      13.831   6.222  -7.293  1.00  0.00     0.057 A 
ATOM     71  C   UNL     1      13.397   7.256  -8.134  1.00  0.00     0.134 A 
ATOM     72  C   UNL     1      14.233   5.024  -7.898  1.00  0.00     0.134 A 
ATOM     73  F   UNL     1      12.985   8.424  -7.618  1.00  0.00    -0.206 F 
ATOM     74  C   UNL     1      13.336   7.094  -9.519  1.00  0.00     0.040 A 
ATOM     75  C   UNL     1      14.204   4.861  -9.284  1.00  0.00     0.040 A 
ATOM     76  F   UNL     1      14.664   3.996  -7.152  1.00  0.00    -0.206 F 
ATOM     77  C   UNL     1      13.747   5.896 -10.098  1.00  0.00     0.006 A 
ENDBRANCH  56  70
BRANCH  57  78
ATOM     78  C   UNL     1      13.762   7.105   2.652  1.00  0.00     0.057 A 
ATOM     79  C   UNL     1      14.227   8.265   3.283  1.00  0.00     0.134 A 
ATOM     80  C   UNL     1      13.320   6.059   3.471  1.00  0.00     0.134 A 
ATOM     81  F   UNL     1      14.681   9.295   2.553  1.00  0.00    -0.206 F 
ATOM     82  C   UNL     1      14.277   8.373   4.674  1.00  0.00     0.040 A 
ATOM     83  C   UNL     1      13.341   6.163   4.863  1.00  0.00     0.040 A 
ATOM     84  F   UNL     1      12.854   4.925   2.929  1.00  0.00    -0.206 F 
ATOM     85  C   UNL     1      13.828   7.319   5.468  1.00  0.00     0.006 A 
ENDBRANCH  57  78
BRANCH  69  86
ATOM     86  C   UNL     1      18.822   6.779  -2.119  1.00  0.00     0.057 A 
ATOM     87  C   UNL     1      19.563   5.704  -1.613  1.00  0.00     0.134 A 
ATOM     88  C   UNL     1      19.532   7.898  -2.575  1.00  0.00     0.134 A 
ATOM     89  F   UNL     1      18.942   4.608  -1.151  1.00  0.00    -0.206 F 
ATOM     90  C   UNL     1      20.956   5.748  -1.544  1.00  0.00     0.040 A 
ATOM     91  C   UNL     1      20.926   7.943  -2.535  1.00  0.00     0.040 A 
ATOM     92  F   UNL     1      18.883   8.957  -3.080  1.00  0.00    -0.206 F 
ATOM     93  C   UNL     1      21.642   6.867  -2.013  1.00  0.00     0.006 A 
ENDBRANCH  69  86
ENDBRANCH  43  44
ENDBRANCH  35  38
ENDBRANCH  33  34
ENDBRANCH  32  33
ENDBRANCH  31  32
ENDBRANCH  30  31
ENDBRANCH   3  30
TORSDOF 17
