REMARK SMILES CC[C@@](C)([NH3+])C(=O)N1CC[NH+]([C@H](C)C(=O)NCCCCNC(=O)c2ccc(-c3c4nc(c(-c5c(F)cccc5F)c5ccc([nH]5)c(-c5c(F)cccc5F)c5nc(c(-c6c(F)cccc6F)c6ccc3[nH]6)C=C5)C=C4)cc2)CC1
REMARK SMILES IDX 18 1 17 2 16 3 14 4 15 5 12 7 13 8 11 9 6 10 7 11 8 12 9 13
REMARK SMILES IDX 79 14 10 15 78 16 3 18 4 19 2 20 1 21 5 22 19 26 20 27 21 28
REMARK SMILES IDX 22 29 23 31 24 32 25 33 77 34 26 35 76 36 27 37 28 38 29 39
REMARK SMILES IDX 70 40 30 41 75 42 69 43 71 44 31 45 74 46 68 47 67 48 32 50
REMARK SMILES IDX 58 51 41 52 57 53 42 54 45 55 56 56 72 57 43 58 44 59 55 61
REMARK SMILES IDX 73 62 46 63 33 64 34 65 39 66 35 67 36 68 38 69 40 70 37 71
REMARK SMILES IDX 59 72 60 73 65 74 61 75 62 76 64 77 66 78 63 79 47 80 48 81
REMARK SMILES IDX 53 82 49 83 50 84 52 85 54 86 51 87
REMARK H PARENT 16 6 11 17 5 23 5 24 5 25 21 30 71 49 45 60
REMARK Flexibility Score: inf
ROOT
ATOM      1  C   UNL     1       5.168   4.568   2.881  1.00  0.00     0.023 C 
ENDROOT
BRANCH   1   2
ATOM      2  C   UNL     1       5.410   3.260   3.622  1.00  0.00     0.116 C 
BRANCH   2   3
ATOM      3  N   UNL     1       6.070   3.417   4.902  1.00  0.00    -0.351 N 
ATOM      4  C   UNL     1       5.969   2.676   6.048  1.00  0.00     0.278 C 
ATOM      5  O   UNL     1       6.825   2.888   6.915  1.00  0.00    -0.268 OA
ATOM      6  H   UNL     1       6.690   4.179   4.956  1.00  0.00     0.163 HD
BRANCH   4   7
ATOM      7  C   UNL     1       4.842   1.636   6.284  1.00  0.00     0.271 C 
ATOM      8  C   UNL     1       3.444   2.193   5.984  1.00  0.00     0.086 C 
BRANCH   7   9
ATOM      9  N   UNL     1       5.165   0.264   5.787  1.00  0.00    -0.322 N 
ATOM     10  C   UNL     1       4.060  -2.270   2.784  1.00  0.00     0.283 C 
ATOM     11  O   UNL     1       4.757  -2.446   1.774  1.00  0.00    -0.268 OA
ATOM     12  N   UNL     1       4.694  -1.948   3.974  1.00  0.00    -0.326 N 
ATOM     13  C   UNL     1       5.962  -1.233   3.905  1.00  0.00     0.181 C 
ATOM     14  C   UNL     1       4.235  -2.075   5.354  1.00  0.00     0.181 C 
ATOM     15  C   UNL     1       5.714   0.198   4.421  1.00  0.00     0.284 C 
ATOM     16  C   UNL     1       4.049  -0.688   6.004  1.00  0.00     0.284 C 
ATOM     17  H   UNL     1       5.944  -0.037   6.373  1.00  0.00     0.348 HD
BRANCH  10  18
ATOM     18  C   UNL     1       2.493  -2.173   2.627  1.00  0.00     0.171 C 
ATOM     19  C   UNL     1       2.081  -0.693   2.690  1.00  0.00     0.090 C 
BRANCH  18  20
ATOM     20  C   UNL     1       2.043  -2.804   1.272  1.00  0.00     0.075 C 
ATOM     21  C   UNL     1       2.352  -2.000   0.008  1.00  0.00     0.011 C 
ENDBRANCH  18  20
BRANCH  18  22
ATOM     22  N   UNL     1       1.783  -2.920   3.694  1.00  0.00    -0.345 N 
ATOM     23  H   UNL     1       0.776  -2.833   3.558  1.00  0.00     0.345 HD
ATOM     24  H   UNL     1       2.037  -2.536   4.604  1.00  0.00     0.345 HD
ATOM     25  H   UNL     1       2.047  -3.904   3.654  1.00  0.00     0.345 HD
ENDBRANCH  18  22
ENDBRANCH  10  18
ENDBRANCH   7   9
ENDBRANCH   4   7
ENDBRANCH   2   3
ENDBRANCH   1   2
BRANCH   1  26
ATOM     26  C   UNL     1       6.427   5.320   2.457  1.00  0.00     0.023 C 
BRANCH  26  27
ATOM     27  C   UNL     1       7.497   4.485   1.759  1.00  0.00     0.116 C 
BRANCH  27  28
ATOM     28  N   UNL     1       7.023   3.815   0.556  1.00  0.00    -0.352 N 
ATOM     29  C   UNL     1       7.496   3.886  -0.734  1.00  0.00     0.251 C 
ATOM     30  H   UNL     1       6.247   3.222   0.686  1.00  0.00     0.163 HD
ATOM     31  O   UNL     1       6.898   3.325  -1.643  1.00  0.00    -0.269 OA
BRANCH  29  32
ATOM     32  C   UNL     1       8.702   4.688  -1.026  1.00  0.00     0.039 A 
ATOM     33  C   UNL     1       8.658   5.612  -2.072  1.00  0.00     0.014 A 
ATOM     34  C   UNL     1       9.851   4.564  -0.241  1.00  0.00     0.014 A 
ATOM     35  C   UNL     1       9.731   6.484  -2.267  1.00  0.00     0.010 A 
ATOM     36  C   UNL     1      10.881   5.488  -0.382  1.00  0.00     0.010 A 
ATOM     37  C   UNL     1      10.827   6.464  -1.389  1.00  0.00    -0.014 A 
BRANCH  37  38
ATOM     38  C   UNL     1      11.919   7.466  -1.493  1.00  0.00     0.031 A 
ATOM     39  C   UNL     1      13.324   7.023  -1.791  1.00  0.00     0.074 A 
ATOM     40  C   UNL     1      11.659   8.764  -1.241  1.00  0.00     0.049 A 
ATOM     41  N   UNL     1      14.423   7.732  -1.832  1.00  0.00    -0.248 NA
ATOM     42  C   UNL     1      13.524   5.588  -2.045  1.00  0.00     0.031 C 
ATOM     43  C   UNL     1      10.350   9.316  -0.888  1.00  0.00     0.029 A 
ATOM     44  N   UNL     1      12.491   9.856  -1.232  1.00  0.00    -0.354 N 
ATOM     45  C   UNL     1      15.444   6.829  -2.099  1.00  0.00     0.074 A 
ATOM     46  C   UNL     1      14.842   5.515  -2.155  1.00  0.00     0.031 C 
ATOM     47  C   UNL     1      10.461  10.644  -0.723  1.00  0.00     0.029 A 
ATOM     48  C   UNL     1      11.853  11.033  -0.920  1.00  0.00     0.049 A 
ATOM     49  H   UNL     1      13.454   9.802  -1.431  1.00  0.00     0.167 HD
ATOM     50  C   UNL     1      16.759   7.075  -2.303  1.00  0.00     0.037 A 
ATOM     51  C   UNL     1      12.338  12.284  -0.801  1.00  0.00     0.037 A 
ATOM     52  C   UNL     1      17.352   8.386  -2.277  1.00  0.00     0.049 A 
ATOM     53  C   UNL     1      13.802  12.530  -1.037  1.00  0.00     0.074 A 
ATOM     54  C   UNL     1      18.665   8.743  -2.530  1.00  0.00     0.029 A 
ATOM     55  N   UNL     1      16.668   9.555  -1.983  1.00  0.00    -0.354 N 
ATOM     56  N   UNL     1      14.745  11.675  -1.350  1.00  0.00    -0.248 NA
ATOM     57  C   UNL     1      14.269  13.918  -0.906  1.00  0.00     0.031 C 
ATOM     58  C   UNL     1      18.782  10.126  -2.355  1.00  0.00     0.029 A 
ATOM     59  C   UNL     1      17.534  10.634  -2.033  1.00  0.00     0.049 A 
ATOM     60  H   UNL     1      15.708   9.610  -1.769  1.00  0.00     0.167 HD
ATOM     61  C   UNL     1      15.908  12.422  -1.482  1.00  0.00     0.074 A 
ATOM     62  C   UNL     1      15.550  13.802  -1.226  1.00  0.00     0.031 C 
ATOM     63  C   UNL     1      17.160  12.003  -1.787  1.00  0.00     0.037 A 
BRANCH  50  64
ATOM     64  C   UNL     1      17.644   5.896  -2.584  1.00  0.00     0.057 A 
ATOM     65  C   UNL     1      17.574   5.196  -3.796  1.00  0.00     0.134 A 
ATOM     66  C   UNL     1      18.591   5.470  -1.645  1.00  0.00     0.134 A 
ATOM     67  F   UNL     1      16.678   5.545  -4.732  1.00  0.00    -0.206 F 
ATOM     68  C   UNL     1      18.396   4.098  -4.054  1.00  0.00     0.040 A 
ATOM     69  C   UNL     1      19.437   4.390  -1.902  1.00  0.00     0.040 A 
ATOM     70  F   UNL     1      18.714   6.099  -0.467  1.00  0.00    -0.206 F 
ATOM     71  C   UNL     1      19.335   3.696  -3.107  1.00  0.00     0.006 A 
ENDBRANCH  50  64
BRANCH  51  72
ATOM     72  C   UNL     1      11.427  13.408  -0.470  1.00  0.00     0.057 A 
ATOM     73  C   UNL     1      11.102  14.376  -1.427  1.00  0.00     0.134 A 
ATOM     74  C   UNL     1      10.872  13.550   0.807  1.00  0.00     0.134 A 
ATOM     75  F   UNL     1      11.620  14.302  -2.662  1.00  0.00    -0.206 F 
ATOM     76  C   UNL     1      10.274  15.457  -1.123  1.00  0.00     0.040 A 
ATOM     77  C   UNL     1      10.023  14.614   1.119  1.00  0.00     0.040 A 
ATOM     78  F   UNL     1      11.138  12.652   1.766  1.00  0.00    -0.206 F 
ATOM     79  C   UNL     1       9.729  15.576   0.154  1.00  0.00     0.006 A 
ENDBRANCH  51  72
BRANCH  63  80
ATOM     80  C   UNL     1      18.226  13.051  -1.897  1.00  0.00     0.057 A 
ATOM     81  C   UNL     1      18.759  13.684  -0.768  1.00  0.00     0.134 A 
ATOM     82  C   UNL     1      18.751  13.403  -3.147  1.00  0.00     0.134 A 
ATOM     83  F   UNL     1      18.288  13.402   0.456  1.00  0.00    -0.206 F 
ATOM     84  C   UNL     1      19.765  14.646  -0.879  1.00  0.00     0.040 A 
ATOM     85  C   UNL     1      19.774  14.344  -3.269  1.00  0.00     0.040 A 
ATOM     86  F   UNL     1      18.289  12.827  -4.267  1.00  0.00    -0.206 F 
ATOM     87  C   UNL     1      20.280  14.972  -2.133  1.00  0.00     0.006 A 
ENDBRANCH  63  80
ENDBRANCH  37  38
ENDBRANCH  29  32
ENDBRANCH  27  28
ENDBRANCH  26  27
ENDBRANCH   1  26
TORSDOF 15
