REMARK SMILES O=C1NC(=S)S/C1=C\c1ccc(OCc2cn(-c3ccc(C(=O)NCCCCNC(=O)c4ccc(-c5c6nc(c(-c7c(F)cccc7F)c7ccc([nH]7)c(-c7c(F)cccc7F)c7nc(c(-c8c(F)cccc8F)c8ccc5[nH]8)C=C7)C=C6)cc4)cc3)nn2)cc1
REMARK SMILES IDX 25 1 24 2 22 3 23 4 21 6 18 7 19 8 87 9 20 10 86 11 17 12
REMARK SMILES IDX 15 13 16 14 89 15 88 16 14 17 13 18 12 19 9 20 10 21 91 22
REMARK SMILES IDX 11 23 90 24 8 25 1 26 2 27 3 28 7 29 4 30 6 32 5 33 26 34
REMARK SMILES IDX 27 35 28 36 29 37 30 38 31 40 32 41 33 42 85 43 34 44 84 45
REMARK SMILES IDX 35 46 36 47 37 48 78 49 38 50 83 51 77 52 79 53 39 54 82 55
REMARK SMILES IDX 76 56 75 57 40 59 66 60 49 61 65 62 50 63 53 64 64 65 80 66
REMARK SMILES IDX 51 67 52 68 63 70 81 71 54 72 41 73 42 74 47 75 43 76 44 77
REMARK SMILES IDX 46 78 48 79 45 80 67 81 68 82 73 83 69 84 70 85 72 86 74 87
REMARK SMILES IDX 71 88 55 89 56 90 61 91 57 92 58 93 60 94 62 95 59 96
REMARK H PARENT 24 5 3 31 29 39 79 58 53 69
REMARK Flexibility Score: inf
ROOT
ATOM      1  C   UNL     1       6.391  10.867   0.909  1.00  0.00     0.116 C 
ENDROOT
BRANCH   1   2
ATOM      2  N   UNL     1       7.013  10.091  -0.145  1.00  0.00    -0.352 N 
ATOM      3  C   UNL     1       6.553   9.107  -0.984  1.00  0.00     0.251 C 
ATOM      4  O   UNL     1       7.360   8.644  -1.791  1.00  0.00    -0.269 OA
ATOM      5  H   UNL     1       7.960  10.317  -0.290  1.00  0.00     0.163 HD
BRANCH   3   6
ATOM      6  C   UNL     1       5.140   8.624  -1.012  1.00  0.00     0.039 A 
ATOM      7  C   UNL     1       2.464   7.822  -1.319  1.00  0.00     0.066 A 
ATOM      8  C   UNL     1       3.401   7.503  -2.306  1.00  0.00     0.029 A 
ATOM      9  C   UNL     1       2.868   8.471  -0.153  1.00  0.00     0.029 A 
ATOM     10  C   UNL     1       4.723   7.935  -2.164  1.00  0.00     0.016 A 
ATOM     11  C   UNL     1       4.212   8.807   0.017  1.00  0.00     0.016 A 
BRANCH   7  12
ATOM     12  N   UNL     1       1.114   7.463  -1.485  1.00  0.00    -0.220 N 
ATOM     13  C   UNL     1      -1.057   7.292  -1.372  1.00  0.00     0.120 A 
ATOM     14  C   UNL     1      -0.004   8.087  -0.977  1.00  0.00     0.144 A 
ATOM     15  N   UNL     1      -0.560   6.266  -2.135  1.00  0.00    -0.131 NA
ATOM     16  N   UNL     1       0.750   6.403  -2.232  1.00  0.00    -0.062 NA
BRANCH  13  17
ATOM     17  C   UNL     1      -2.532   7.464  -1.193  1.00  0.00     0.289 C 
BRANCH  17  18
ATOM     18  O   UNL     1      -3.122   6.723  -0.111  1.00  0.00    -0.487 OA
BRANCH  18  19
ATOM     19  C   UNL     1      -3.149   5.357  -0.192  1.00  0.00     0.119 A 
ATOM     20  C   UNL     1      -2.924   2.563  -0.009  1.00  0.00    -0.024 A 
ATOM     21  C   UNL     1      -3.383   3.301   1.084  1.00  0.00     0.012 A 
ATOM     22  C   UNL     1      -2.685   3.217  -1.219  1.00  0.00     0.012 A 
ATOM     23  C   UNL     1      -3.487   4.695   0.991  1.00  0.00     0.047 A 
ATOM     24  C   UNL     1      -2.832   4.601  -1.317  1.00  0.00     0.047 A 
BRANCH  20  25
ATOM     25  C   UNL     1      -2.680   1.123   0.097  1.00  0.00     0.029 C 
ATOM     26  O   UNL     1      -2.190  -1.744   0.142  1.00  0.00    -0.268 OA
ATOM     27  C   UNL     1      -1.294  -0.926   0.108  1.00  0.00     0.263 C 
ATOM     28  N   UNL     1       0.041  -1.229   0.060  1.00  0.00    -0.307 N 
ATOM     29  C   UNL     1      -1.467   0.553   0.090  1.00  0.00     0.080 C 
ATOM     30  C   UNL     1       0.934  -0.203   0.021  1.00  0.00     0.145 C 
ATOM     31  H   UNL     1       0.347  -2.165   0.055  1.00  0.00     0.171 HD
ATOM     32  S   UNL     1       0.081   1.322   0.036  1.00  0.00    -0.055 SA
ATOM     33  S   UNL     1       2.575  -0.419  -0.031  1.00  0.00    -0.052 S 
ENDBRANCH  20  25
ENDBRANCH  18  19
ENDBRANCH  17  18
ENDBRANCH  13  17
ENDBRANCH   7  12
ENDBRANCH   3   6
ENDBRANCH   1   2
BRANCH   1  34
ATOM     34  C   UNL     1       6.624  10.225   2.283  1.00  0.00     0.023 C 
BRANCH  34  35
ATOM     35  C   UNL     1       8.037  10.418   2.853  1.00  0.00     0.023 C 
BRANCH  35  36
ATOM     36  C   UNL     1       8.398  11.862   3.185  1.00  0.00     0.116 C 
BRANCH  36  37
ATOM     37  N   UNL     1       7.525  12.453   4.202  1.00  0.00    -0.352 N 
ATOM     38  C   UNL     1       7.407  13.787   4.550  1.00  0.00     0.251 C 
ATOM     39  H   UNL     1       6.952  11.824   4.699  1.00  0.00     0.163 HD
ATOM     40  O   UNL     1       6.979  14.127   5.646  1.00  0.00    -0.269 OA
BRANCH  38  41
ATOM     41  C   UNL     1       7.779  14.799   3.550  1.00  0.00     0.039 A 
ATOM     42  C   UNL     1       8.521  15.937   3.875  1.00  0.00     0.014 A 
ATOM     43  C   UNL     1       7.398  14.544   2.237  1.00  0.00     0.014 A 
ATOM     44  C   UNL     1       8.945  16.771   2.842  1.00  0.00     0.010 A 
ATOM     45  C   UNL     1       7.970  15.252   1.217  1.00  0.00     0.010 A 
ATOM     46  C   UNL     1       8.681  16.407   1.511  1.00  0.00    -0.014 A 
BRANCH  46  47
ATOM     47  C   UNL     1       9.235  17.152   0.389  1.00  0.00     0.031 A 
ATOM     48  C   UNL     1      10.711  17.326   0.437  1.00  0.00     0.074 A 
ATOM     49  C   UNL     1       8.512  17.464  -0.709  1.00  0.00     0.049 A 
ATOM     50  N   UNL     1      11.358  18.426   0.624  1.00  0.00    -0.248 NA
ATOM     51  C   UNL     1      11.568  16.128   0.428  1.00  0.00     0.031 C 
ATOM     52  C   UNL     1       7.126  17.108  -1.038  1.00  0.00     0.029 A 
ATOM     53  N   UNL     1       8.918  18.112  -1.833  1.00  0.00    -0.354 N 
ATOM     54  C   UNL     1      12.709  18.101   0.541  1.00  0.00     0.074 A 
ATOM     55  C   UNL     1      12.777  16.665   0.608  1.00  0.00     0.031 C 
ATOM     56  C   UNL     1       6.893  17.334  -2.350  1.00  0.00     0.029 A 
ATOM     57  C   UNL     1       8.046  18.011  -2.913  1.00  0.00     0.049 A 
ATOM     58  H   UNL     1       9.764  18.613  -1.880  1.00  0.00     0.167 HD
ATOM     59  C   UNL     1      13.629  19.040   0.181  1.00  0.00     0.037 A 
ATOM     60  C   UNL     1       8.276  18.447  -4.178  1.00  0.00     0.037 A 
ATOM     61  C   UNL     1      13.072  20.369   0.285  1.00  0.00     0.049 A 
ATOM     62  C   UNL     1       9.359  19.460  -4.094  1.00  0.00     0.074 A 
ATOM     63  C   UNL     1      12.516  21.107   1.313  1.00  0.00     0.029 A 
ATOM     64  N   UNL     1      12.661  20.982  -0.874  1.00  0.00    -0.354 N 
ATOM     65  N   UNL     1       9.206  20.625  -3.528  1.00  0.00    -0.248 NA
ATOM     66  C   UNL     1      10.732  18.983  -4.185  1.00  0.00     0.031 C 
ATOM     67  C   UNL     1      11.403  21.776   0.720  1.00  0.00     0.029 A 
ATOM     68  C   UNL     1      11.404  21.482  -0.644  1.00  0.00     0.049 A 
ATOM     69  H   UNL     1      13.172  21.049  -1.713  1.00  0.00     0.167 HD
ATOM     70  C   UNL     1      10.372  20.818  -2.803  1.00  0.00     0.074 A 
ATOM     71  C   UNL     1      11.305  19.807  -3.303  1.00  0.00     0.031 C 
ATOM     72  C   UNL     1      10.381  21.566  -1.660  1.00  0.00     0.037 A 
BRANCH  59  73
ATOM     73  C   UNL     1      14.872  18.762  -0.630  1.00  0.00     0.057 A 
ATOM     74  C   UNL     1      15.779  19.814  -0.863  1.00  0.00     0.134 A 
ATOM     75  C   UNL     1      15.062  17.622  -1.436  1.00  0.00     0.134 A 
ATOM     76  F   UNL     1      15.709  20.954  -0.160  1.00  0.00    -0.206 F 
ATOM     77  C   UNL     1      16.731  19.772  -1.889  1.00  0.00     0.040 A 
ATOM     78  C   UNL     1      16.043  17.552  -2.429  1.00  0.00     0.040 A 
ATOM     79  F   UNL     1      14.254  16.558  -1.384  1.00  0.00    -0.206 F 
ATOM     80  C   UNL     1      16.856  18.642  -2.685  1.00  0.00     0.006 A 
ENDBRANCH  59  73
BRANCH  60  81
ATOM     81  C   UNL     1       7.839  17.863  -5.469  1.00  0.00     0.057 A 
ATOM     82  C   UNL     1       7.959  18.581  -6.669  1.00  0.00     0.134 A 
ATOM     83  C   UNL     1       7.568  16.489  -5.601  1.00  0.00     0.134 A 
ATOM     84  F   UNL     1       8.251  19.890  -6.653  1.00  0.00    -0.206 F 
ATOM     85  C   UNL     1       7.854  17.964  -7.924  1.00  0.00     0.040 A 
ATOM     86  C   UNL     1       7.458  15.862  -6.847  1.00  0.00     0.040 A 
ATOM     87  F   UNL     1       7.492  15.693  -4.525  1.00  0.00    -0.206 F 
ATOM     88  C   UNL     1       7.618  16.596  -8.016  1.00  0.00     0.006 A 
ENDBRANCH  60  81
BRANCH  72  89
ATOM     89  C   UNL     1       9.145  22.354  -1.315  1.00  0.00     0.057 A 
ATOM     90  C   UNL     1       7.891  21.784  -1.044  1.00  0.00     0.134 A 
ATOM     91  C   UNL     1       9.268  23.730  -1.093  1.00  0.00     0.134 A 
ATOM     92  F   UNL     1       7.695  20.463  -1.125  1.00  0.00    -0.206 F 
ATOM     93  C   UNL     1       6.803  22.553  -0.618  1.00  0.00     0.040 A 
ATOM     94  C   UNL     1       8.199  24.504  -0.636  1.00  0.00     0.040 A 
ATOM     95  F   UNL     1      10.451  24.339  -1.273  1.00  0.00    -0.206 F 
ATOM     96  C   UNL     1       6.957  23.918  -0.406  1.00  0.00     0.006 A 
ENDBRANCH  72  89
ENDBRANCH  46  47
ENDBRANCH  38  41
ENDBRANCH  36  37
ENDBRANCH  35  36
ENDBRANCH  34  35
ENDBRANCH   1  34
TORSDOF 16
