REMARK SMILES CCCc1cc(S(F)(F)(F)(F)F)cc2c1O[C@@H](C(F)(F)F)C(C(=O)NCCCCNC(=O)c1ccc(-c3c4nc(c(-c5c(F)cccc5F)c5ccc([nH]5)c(-c5c(F)cccc5F)c5nc(c(-c6c(F)cccc6F)c6ccc3[nH]6)C=C5)C=C4)cc1)=C2
REMARK SMILES IDX 27 1 26 2 25 3 23 4 24 5 22 7 4 8 5 9 15 10 6 11 14 12 16 13
REMARK SMILES IDX 13 14 87 15 17 16 3 17 2 18 1 19 7 20 8 21 9 22 10 23 11 24
REMARK SMILES IDX 12 25 18 26 19 27 20 28 21 29 28 30 29 31 30 32 31 33 32 35
REMARK SMILES IDX 33 36 34 37 86 38 35 39 85 40 36 41 37 42 38 43 79 44 39 45
REMARK SMILES IDX 84 46 78 47 80 48 40 49 83 50 77 51 76 52 41 54 67 55 50 56
REMARK SMILES IDX 66 57 51 58 54 59 65 60 81 61 52 62 53 63 64 65 82 66 55 67
REMARK SMILES IDX 42 68 43 69 48 70 44 71 45 72 47 73 49 74 46 75 68 76 69 77
REMARK SMILES IDX 74 78 70 79 71 80 73 81 75 82 72 83 56 84 57 85 62 86 58 87
REMARK SMILES IDX 59 88 61 89 63 90 60 91
REMARK H PARENT 25 6 30 34 80 53 54 64
REMARK Flexibility Score: inf
ROOT
ATOM      1  C   UNL     1      -0.728  -1.963  -7.178  1.00  0.00     0.023 C 
ENDROOT
BRANCH   1   2
ATOM      2  C   UNL     1      -1.321  -1.944  -5.779  1.00  0.00     0.116 C 
BRANCH   2   3
ATOM      3  N   UNL     1      -0.803  -3.085  -5.011  1.00  0.00    -0.352 N 
ATOM      4  C   UNL     1      -0.043  -2.854  -3.774  1.00  0.00     0.251 C 
ATOM      5  O   UNL     1       0.405  -3.841  -3.110  1.00  0.00    -0.270 OA
ATOM      6  H   UNL     1      -0.965  -4.004  -5.325  1.00  0.00     0.163 HD
BRANCH   4   7
ATOM      7  C   UNL     1       0.206  -1.436  -3.288  1.00  0.00     0.067 C 
ATOM      8  C   UNL     1       0.500   2.388  -1.634  1.00  0.00    -0.004 A 
ATOM      9  C   UNL     1       0.206   3.498  -2.405  1.00  0.00     0.032 A 
ATOM     10  C   UNL     1       0.344   1.141  -2.187  1.00  0.00     0.131 A 
ATOM     11  C   UNL     1      -0.237   3.363  -3.694  1.00  0.00     0.108 A 
ATOM     12  C   UNL     1      -0.084   0.966  -3.491  1.00  0.00     0.019 A 
ATOM     13  O   UNL     1       0.530   0.048  -1.375  1.00  0.00    -0.475 OA
ATOM     14  C   UNL     1      -0.375   2.103  -4.237  1.00  0.00     0.036 A 
ATOM     15  C   UNL     1      -0.255  -0.395  -3.971  1.00  0.00     0.025 C 
ATOM     16  C   UNL     1       0.991  -1.178  -2.009  1.00  0.00     0.314 C 
BRANCH   8  17
ATOM     17  C   UNL     1       1.007   2.545  -0.209  1.00  0.00     0.039 C 
BRANCH  17  18
ATOM     18  C   UNL     1       0.500   1.390   0.639  1.00  0.00     0.001 C 
ATOM     19  C   UNL     1       1.007   0.078   0.062  1.00  0.00     0.004 C 
ENDBRANCH  17  18
ENDBRANCH   8  17
BRANCH  11  20
ATOM     20  S   UNL     1      -0.639   4.828  -4.678  1.00  0.00     0.310 S 
ATOM     21  F   UNL     1      -2.167   4.984  -4.282  1.00  0.00    -0.094 F 
ATOM     22  F   UNL     1      -1.114   3.928  -5.881  1.00  0.00    -0.094 F 
ATOM     23  F   UNL     1      -0.796   6.112  -5.541  1.00  0.00    -0.094 F 
ATOM     24  F   UNL     1      -0.297   5.723  -3.422  1.00  0.00    -0.094 F 
ATOM     25  F   UNL     1      -0.585   3.543  -3.759  1.00  0.00    -0.094 F 
ENDBRANCH  11  20
BRANCH  16  26
ATOM     26  C   UNL     1       0.778  -2.341  -1.054  1.00  0.00     0.429 C 
ATOM     27  F   UNL     1       1.200  -3.466  -1.623  1.00  0.00    -0.167 F 
ATOM     28  F   UNL     1       1.463  -2.126   0.066  1.00  0.00    -0.167 F 
ATOM     29  F   UNL     1      -0.516  -2.447  -0.767  1.00  0.00    -0.167 F 
ENDBRANCH  16  26
ENDBRANCH   4   7
ENDBRANCH   2   3
ENDBRANCH   1   2
BRANCH   1  30
ATOM     30  C   UNL     1      -1.113  -3.258  -7.874  1.00  0.00     0.023 C 
BRANCH  30  31
ATOM     31  C   UNL     1      -2.627  -3.354  -7.965  1.00  0.00     0.116 C 
BRANCH  31  32
ATOM     32  N   UNL     1      -3.146  -2.213  -8.732  1.00  0.00    -0.352 N 
ATOM     33  C   UNL     1      -3.905  -2.443  -9.969  1.00  0.00     0.251 C 
ATOM     34  H   UNL     1      -2.984  -1.294  -8.418  1.00  0.00     0.163 HD
ATOM     35  O   UNL     1      -4.353  -1.456 -10.633  1.00  0.00    -0.269 OA
BRANCH  33  36
ATOM     36  C   UNL     1      -4.155  -3.862 -10.455  1.00  0.00     0.039 A 
ATOM     37  C   UNL     1      -3.943  -4.254 -11.766  1.00  0.00     0.014 A 
ATOM     38  C   UNL     1      -4.543  -4.732  -9.530  1.00  0.00     0.014 A 
ATOM     39  C   UNL     1      -4.451  -5.540 -12.069  1.00  0.00     0.010 A 
ATOM     40  C   UNL     1      -4.895  -6.013  -9.879  1.00  0.00     0.010 A 
ATOM     41  C   UNL     1      -4.768  -6.451 -11.168  1.00  0.00    -0.014 A 
BRANCH  41  42
ATOM     42  C   UNL     1      -4.980  -7.909 -11.543  1.00  0.00     0.031 A 
ATOM     43  C   UNL     1      -6.244  -8.431 -11.264  1.00  0.00     0.074 A 
ATOM     44  C   UNL     1      -3.930  -8.653 -12.055  1.00  0.00     0.049 A 
ATOM     45  N   UNL     1      -6.670  -9.680 -11.461  1.00  0.00    -0.248 NA
ATOM     46  C   UNL     1      -7.349  -7.651 -10.688  1.00  0.00     0.031 C 
ATOM     47  C   UNL     1      -2.655  -8.131 -12.347  1.00  0.00     0.029 A 
ATOM     48  N   UNL     1      -3.919  -9.994 -12.369  1.00  0.00    -0.354 N 
ATOM     49  C   UNL     1      -7.946  -9.796 -11.090  1.00  0.00     0.074 A 
ATOM     50  C   UNL     1      -8.400  -8.494 -10.581  1.00  0.00     0.031 C 
ATOM     51  C   UNL     1      -1.883  -9.145 -12.819  1.00  0.00     0.029 A 
ATOM     52  C   UNL     1      -2.662 -10.317 -12.831  1.00  0.00     0.049 A 
ATOM     53  H   UNL     1      -4.678 -10.614 -12.279  1.00  0.00     0.167 HD
ATOM     54  C   UNL     1      -8.750 -10.935 -11.157  1.00  0.00     0.037 A 
ATOM     55  C   UNL     1      -2.202 -11.558 -13.241  1.00  0.00     0.037 A 
ATOM     56  C   UNL     1      -8.302 -12.166 -11.609  1.00  0.00     0.049 A 
ATOM     57  C   UNL     1      -2.990 -12.711 -13.254  1.00  0.00     0.074 A 
ATOM     58  C   UNL     1      -9.101 -13.322 -11.690  1.00  0.00     0.029 A 
ATOM     59  N   UNL     1      -7.038 -12.495 -12.047  1.00  0.00    -0.354 N 
ATOM     60  N   UNL     1      -4.277 -12.818 -12.919  1.00  0.00    -0.248 NA
ATOM     61  C   UNL     1      -2.504 -14.038 -13.656  1.00  0.00     0.031 C 
ATOM     62  C   UNL     1      -8.329 -14.337 -12.162  1.00  0.00     0.029 A 
ATOM     63  C   UNL     1      -7.034 -13.831 -12.382  1.00  0.00     0.049 A 
ATOM     64  H   UNL     1      -6.271 -11.881 -12.110  1.00  0.00     0.167 HD
ATOM     65  C   UNL     1      -4.691 -14.076 -13.078  1.00  0.00     0.074 A 
ATOM     66  C   UNL     1      -3.554 -14.881 -13.547  1.00  0.00     0.031 C 
ATOM     67  C   UNL     1      -5.971 -14.586 -12.854  1.00  0.00     0.037 A 
BRANCH  54  68
ATOM     68  C   UNL     1     -10.198 -10.818 -10.710  1.00  0.00     0.057 A 
ATOM     69  C   UNL     1     -11.039  -9.927 -11.355  1.00  0.00     0.134 A 
ATOM     70  C   UNL     1     -10.633 -11.572  -9.707  1.00  0.00     0.134 A 
ATOM     71  F   UNL     1     -10.729  -9.343 -12.509  1.00  0.00    -0.206 F 
ATOM     72  C   UNL     1     -12.257  -9.693 -10.675  1.00  0.00     0.040 A 
ATOM     73  C   UNL     1     -11.887 -11.380  -9.180  1.00  0.00     0.040 A 
ATOM     74  F   UNL     1      -9.847 -12.523  -9.208  1.00  0.00    -0.206 F 
ATOM     75  C   UNL     1     -12.750 -10.473  -9.730  1.00  0.00     0.006 A 
ENDBRANCH  54  68
BRANCH  55  76
ATOM     76  C   UNL     1      -0.759 -11.670 -13.704  1.00  0.00     0.057 A 
ATOM     77  C   UNL     1      -0.491 -12.095 -14.995  1.00  0.00     0.134 A 
ATOM     78  C   UNL     1       0.221 -11.358 -12.864  1.00  0.00     0.134 A 
ATOM     79  F   UNL     1      -1.423 -12.174 -15.941  1.00  0.00    -0.206 F 
ATOM     80  C   UNL     1       0.864 -12.438 -15.216  1.00  0.00     0.040 A 
ATOM     81  C   UNL     1       1.532 -11.595 -13.200  1.00  0.00     0.040 A 
ATOM     82  F   UNL     1      -0.069 -10.812 -11.687  1.00  0.00    -0.206 F 
ATOM     83  C   UNL     1       1.866 -12.070 -14.438  1.00  0.00     0.006 A 
ENDBRANCH  55  76
BRANCH  67  84
ATOM     84  C   UNL     1      -6.215 -16.058 -13.146  1.00  0.00     0.057 A 
ATOM     85  C   UNL     1      -5.515 -17.049 -12.477  1.00  0.00     0.134 A 
ATOM     86  C   UNL     1      -7.135 -16.357 -14.055  1.00  0.00     0.134 A 
ATOM     87  F   UNL     1      -4.779 -16.813 -11.395  1.00  0.00    -0.206 F 
ATOM     88  C   UNL     1      -5.655 -18.335 -13.050  1.00  0.00     0.040 A 
ATOM     89  C   UNL     1      -7.311 -17.655 -14.470  1.00  0.00     0.040 A 
ATOM     90  F   UNL     1      -7.893 -15.393 -14.568  1.00  0.00    -0.206 F 
ATOM     91  C   UNL     1      -6.611 -18.679 -13.894  1.00  0.00     0.006 A 
ENDBRANCH  67  84
ENDBRANCH  41  42
ENDBRANCH  33  36
ENDBRANCH  31  32
ENDBRANCH  30  31
ENDBRANCH   1  30
TORSDOF 15
