REMARK SMILES CC[C@H]1CC[C@](O)([C@H](F)C(=O)NCCCCNC(=O)c2ccc(-c3c4nc(c(-c5c(F)cccc5F)c5ccc([nH]5)c(-c5c(F)cccc5F)c5nc(c(-c6c(F)cccc6F)c6ccc3[nH]6)C=C5)C=C4)cc2)CC1
REMARK SMILES IDX 14 1 13 2 12 3 10 4 11 5 8 7 9 8 6 9 3 10 4 11 75 12 5 13
REMARK SMILES IDX 74 14 2 15 1 16 7 17 15 19 16 20 17 21 18 22 19 24 20 25
REMARK SMILES IDX 21 26 73 27 22 28 72 29 23 30 24 31 25 32 66 33 26 34 71 35
REMARK SMILES IDX 65 36 67 37 27 38 70 39 64 40 63 41 28 43 54 44 37 45 53 46
REMARK SMILES IDX 38 47 41 48 52 49 68 50 39 51 40 52 51 54 69 55 42 56 29 57
REMARK SMILES IDX 30 58 35 59 31 60 32 61 34 62 36 63 33 64 55 65 56 66 61 67
REMARK SMILES IDX 57 68 58 69 60 70 62 71 59 72 43 73 44 74 49 75 45 76 46 77
REMARK SMILES IDX 48 78 50 79 47 80
REMARK H PARENT 12 6 7 18 17 23 67 42 41 53
REMARK Flexibility Score: inf
ROOT
ATOM      1  C   UNL     1      -3.204  -4.345   2.216  1.00  0.00     0.023 C 
ENDROOT
BRANCH   1   2
ATOM      2  C   UNL     1      -1.762  -4.470   2.676  1.00  0.00     0.116 C 
BRANCH   2   3
ATOM      3  N   UNL     1      -1.287  -5.808   2.908  1.00  0.00    -0.353 N 
ATOM      4  C   UNL     1       0.027  -6.194   2.965  1.00  0.00     0.257 C 
ATOM      5  O   UNL     1       0.277  -7.274   3.510  1.00  0.00    -0.272 OA
ATOM      6  H   UNL     1      -1.967  -6.509   3.036  1.00  0.00     0.163 HD
BRANCH   4   7
ATOM      7  C   UNL     1       1.143  -5.316   2.382  1.00  0.00     0.286 C 
ATOM      8  F   UNL     1       0.760  -4.693   1.221  1.00  0.00    -0.234 F 
BRANCH   7   9
ATOM      9  C   UNL     1       1.898  -4.296   3.295  1.00  0.00     0.105 C 
ATOM     10  C   UNL     1       0.233  -2.927   5.466  1.00  0.00    -0.011 C 
ATOM     11  C   UNL     1       0.719  -4.383   5.569  1.00  0.00     0.006 C 
ATOM     12  C   UNL     1       0.382  -2.288   4.074  1.00  0.00     0.006 C 
ATOM     13  C   UNL     1       1.986  -4.680   4.776  1.00  0.00     0.039 C 
ATOM     14  C   UNL     1       1.471  -2.821   3.152  1.00  0.00     0.039 C 
BRANCH  10  15
ATOM     15  C   UNL     1       0.861  -2.045   6.568  1.00  0.00    -0.000 C 
ATOM     16  C   UNL     1       0.041  -2.098   7.856  1.00  0.00     0.004 C 
ENDBRANCH  10  15
BRANCH   9  17
ATOM     17  O   UNL     1       3.273  -4.337   2.804  1.00  0.00    -0.386 OA
ATOM     18  H   UNL     1       3.820  -3.725   3.322  1.00  0.00     0.211 HD
ENDBRANCH   9  17
ENDBRANCH   7   9
ENDBRANCH   4   7
ENDBRANCH   2   3
ENDBRANCH   1   2
BRANCH   1  19
ATOM     19  C   UNL     1      -4.249  -4.624   3.296  1.00  0.00     0.023 C 
BRANCH  19  20
ATOM     20  C   UNL     1      -4.124  -3.818   4.589  1.00  0.00     0.116 C 
BRANCH  20  21
ATOM     21  N   UNL     1      -4.232  -2.379   4.403  1.00  0.00    -0.352 N 
ATOM     22  C   UNL     1      -5.102  -1.481   4.986  1.00  0.00     0.251 C 
ATOM     23  H   UNL     1      -3.590  -1.988   3.768  1.00  0.00     0.163 HD
ATOM     24  O   UNL     1      -5.110  -0.311   4.630  1.00  0.00    -0.269 OA
BRANCH  22  25
ATOM     25  C   UNL     1      -6.056  -1.943   6.020  1.00  0.00     0.039 A 
ATOM     26  C   UNL     1      -7.398  -1.568   5.917  1.00  0.00     0.014 A 
ATOM     27  C   UNL     1      -5.635  -2.756   7.074  1.00  0.00     0.014 A 
ATOM     28  C   UNL     1      -8.331  -2.075   6.827  1.00  0.00     0.010 A 
ATOM     29  C   UNL     1      -6.578  -3.331   7.923  1.00  0.00     0.010 A 
ATOM     30  C   UNL     1      -7.936  -2.994   7.813  1.00  0.00    -0.014 A 
BRANCH  30  31
ATOM     31  C   UNL     1      -8.927  -3.605   8.738  1.00  0.00     0.031 A 
ATOM     32  C   UNL     1      -8.824  -3.375  10.222  1.00  0.00     0.074 A 
ATOM     33  C   UNL     1      -9.882  -4.423   8.255  1.00  0.00     0.049 A 
ATOM     34  N   UNL     1      -9.565  -3.856  11.188  1.00  0.00    -0.248 NA
ATOM     35  C   UNL     1      -7.723  -2.516  10.682  1.00  0.00     0.031 C 
ATOM     36  C   UNL     1     -10.056  -4.784   6.847  1.00  0.00     0.029 A 
ATOM     37  N   UNL     1     -10.882  -5.110   8.899  1.00  0.00    -0.354 N 
ATOM     38  C   UNL     1      -9.007  -3.376  12.367  1.00  0.00     0.074 A 
ATOM     39  C   UNL     1      -7.831  -2.619  11.997  1.00  0.00     0.031 C 
ATOM     40  C   UNL     1     -11.112  -5.604   6.731  1.00  0.00     0.029 A 
ATOM     41  C   UNL     1     -11.670  -5.856   8.056  1.00  0.00     0.049 A 
ATOM     42  H   UNL     1     -11.021  -5.071   9.873  1.00  0.00     0.167 HD
ATOM     43  C   UNL     1      -9.446  -3.529  13.639  1.00  0.00     0.037 A 
ATOM     44  C   UNL     1     -12.721  -6.657   8.319  1.00  0.00     0.037 A 
ATOM     45  C   UNL     1     -10.629  -4.265  14.004  1.00  0.00     0.049 A 
ATOM     46  C   UNL     1     -13.202  -6.802   9.736  1.00  0.00     0.074 A 
ATOM     47  C   UNL     1     -11.198  -4.415  15.257  1.00  0.00     0.029 A 
ATOM     48  N   UNL     1     -11.418  -4.983  13.118  1.00  0.00    -0.354 N 
ATOM     49  N   UNL     1     -12.718  -6.270  10.832  1.00  0.00    -0.248 NA
ATOM     50  C   UNL     1     -14.385  -7.647   9.951  1.00  0.00     0.031 C 
ATOM     51  C   UNL     1     -12.300  -5.269  15.136  1.00  0.00     0.029 A 
ATOM     52  C   UNL     1     -12.454  -5.601  13.800  1.00  0.00     0.049 A 
ATOM     53  H   UNL     1     -11.264  -5.044  12.147  1.00  0.00     0.167 HD
ATOM     54  C   UNL     1     -13.550  -6.692  11.862  1.00  0.00     0.074 A 
ATOM     55  C   UNL     1     -14.578  -7.513  11.255  1.00  0.00     0.031 C 
ATOM     56  C   UNL     1     -13.472  -6.419  13.188  1.00  0.00     0.037 A 
BRANCH  43  57
ATOM     57  C   UNL     1      -8.630  -2.890  14.729  1.00  0.00     0.057 A 
ATOM     58  C   UNL     1      -8.528  -1.498  14.864  1.00  0.00     0.134 A 
ATOM     59  C   UNL     1      -7.938  -3.678  15.657  1.00  0.00     0.134 A 
ATOM     60  F   UNL     1      -9.156  -0.683  14.003  1.00  0.00    -0.206 F 
ATOM     61  C   UNL     1      -7.733  -0.915  15.852  1.00  0.00     0.040 A 
ATOM     62  C   UNL     1      -7.166  -3.106  16.671  1.00  0.00     0.040 A 
ATOM     63  F   UNL     1      -7.997  -5.017  15.594  1.00  0.00    -0.206 F 
ATOM     64  C   UNL     1      -7.052  -1.721  16.762  1.00  0.00     0.006 A 
ENDBRANCH  43  57
BRANCH  44  65
ATOM     65  C   UNL     1     -13.409  -7.356   7.205  1.00  0.00     0.057 A 
ATOM     66  C   UNL     1     -14.688  -6.970   6.787  1.00  0.00     0.134 A 
ATOM     67  C   UNL     1     -12.798  -8.413   6.519  1.00  0.00     0.134 A 
ATOM     68  F   UNL     1     -15.332  -5.977   7.417  1.00  0.00    -0.206 F 
ATOM     69  C   UNL     1     -15.341  -7.617   5.737  1.00  0.00     0.040 A 
ATOM     70  C   UNL     1     -13.429  -9.052   5.450  1.00  0.00     0.040 A 
ATOM     71  F   UNL     1     -11.569  -8.824   6.864  1.00  0.00    -0.206 F 
ATOM     72  C   UNL     1     -14.707  -8.657   5.059  1.00  0.00     0.006 A 
ENDBRANCH  44  65
BRANCH  56  73
ATOM     73  C   UNL     1     -14.547  -6.984  14.072  1.00  0.00     0.057 A 
ATOM     74  C   UNL     1     -14.636  -8.352  14.357  1.00  0.00     0.134 A 
ATOM     75  C   UNL     1     -15.487  -6.137  14.676  1.00  0.00     0.134 A 
ATOM     76  F   UNL     1     -13.775  -9.220  13.803  1.00  0.00    -0.206 F 
ATOM     77  C   UNL     1     -15.638  -8.862  15.186  1.00  0.00     0.040 A 
ATOM     78  C   UNL     1     -16.474  -6.631  15.530  1.00  0.00     0.040 A 
ATOM     79  F   UNL     1     -15.454  -4.814  14.455  1.00  0.00    -0.206 F 
ATOM     80  C   UNL     1     -16.556  -7.999  15.781  1.00  0.00     0.006 A 
ENDBRANCH  56  73
ENDBRANCH  30  31
ENDBRANCH  22  25
ENDBRANCH  20  21
ENDBRANCH  19  20
ENDBRANCH   1  19
TORSDOF 14
