REMARK SMILES COc1ccc2[nH]cc([C@H](C(=O)NCCCCNC(=O)c3ccc(-c4c5nc(c(-c6c(F)cccc6F)c6ccc([nH]6)c(-c6c(F)cccc6F)c6nc(c(-c7c(F)cccc7F)c7ccc4[nH]7)C=C6)C=C5)cc3)[NH+]3CC[NH+](Cc4cccc5ccccc45)CC3)c2c1
REMARK SMILES IDX 15 1 14 2 13 3 11 4 12 5 10 7 9 8 3 9 4 10 93 11 5 12 92 13
REMARK SMILES IDX 6 14 7 15 8 16 2 18 1 19 75 20 76 21 91 22 77 24 90 25 78 26
REMARK SMILES IDX 79 28 80 29 81 30 89 31 82 32 84 33 88 34 83 35 85 36 87 37
REMARK SMILES IDX 86 38 16 39 17 40 18 41 19 42 20 44 21 45 22 46 74 47 23 48
REMARK SMILES IDX 73 49 24 50 25 51 26 52 67 53 27 54 72 55 66 56 68 57 28 58
REMARK SMILES IDX 71 59 65 60 64 61 29 63 55 64 38 65 54 66 39 67 42 68 53 69
REMARK SMILES IDX 69 70 40 71 41 72 52 74 70 75 43 76 30 77 31 78 36 79 32 80
REMARK SMILES IDX 33 81 35 82 37 83 34 84 56 85 57 86 62 87 58 88 59 89 61 90
REMARK SMILES IDX 63 91 60 92 44 93 45 94 50 95 46 96 47 97 49 98 51 99 48 100
REMARK H PARENT 13 6 7 17 75 23 78 27 18 43 68 62 42 73
REMARK Flexibility Score: inf
ROOT
ATOM      1  C   UNL     1      -1.075  -3.317  -1.093  1.00  0.00     0.023 C 
ENDROOT
BRANCH   1   2
ATOM      2  C   UNL     1      -1.379  -4.384  -0.047  1.00  0.00     0.116 C 
BRANCH   2   3
ATOM      3  N   UNL     1      -0.355  -4.421   0.975  1.00  0.00    -0.351 N 
ATOM      4  C   UNL     1      -0.423  -4.867   2.261  1.00  0.00     0.283 C 
ATOM      5  O   UNL     1       0.641  -4.809   2.882  1.00  0.00    -0.268 OA
ATOM      6  H   UNL     1       0.523  -4.072   0.700  1.00  0.00     0.163 HD
BRANCH   4   7
ATOM      7  C   UNL     1      -1.768  -5.341   2.861  1.00  0.00     0.308 C 
BRANCH   7   8
ATOM      8  C   UNL     1      -2.436  -6.457   2.062  1.00  0.00     0.045 A 
ATOM      9  C   UNL     1      -0.153  -8.822   0.097  1.00  0.00     0.119 A 
ATOM     10  C   UNL     1      -1.168  -9.561  -0.502  1.00  0.00     0.048 A 
ATOM     11  C   UNL     1      -0.449  -7.808   1.004  1.00  0.00     0.057 A 
ATOM     12  C   UNL     1      -2.512  -9.296  -0.210  1.00  0.00     0.030 A 
ATOM     13  C   UNL     1      -1.794  -7.477   1.270  1.00  0.00     0.013 A 
ATOM     14  C   UNL     1      -2.793  -8.249   0.678  1.00  0.00     0.046 A 
ATOM     15  N   UNL     1      -3.995  -7.788   1.162  1.00  0.00    -0.361 N 
ATOM     16  C   UNL     1      -3.796  -6.707   1.979  1.00  0.00     0.094 A 
ATOM     17  H   UNL     1      -4.873  -8.180   0.951  1.00  0.00     0.166 HD
BRANCH   9  18
ATOM     18  O   UNL     1       1.176  -9.061  -0.125  1.00  0.00    -0.497 OA
ATOM     19  C   UNL     1       1.506  -8.989  -1.508  1.00  0.00     0.278 C 
ENDBRANCH   9  18
ENDBRANCH   7   8
BRANCH   7  20
ATOM     20  N   UNL     1      -1.672  -5.747   4.273  1.00  0.00    -0.312 N 
ATOM     21  C   UNL     1      -1.065  -7.045   4.547  1.00  0.00     0.325 C 
ATOM     22  C   UNL     1      -1.277  -4.705   5.231  1.00  0.00     0.325 C 
ATOM     23  H   UNL     1      -2.662  -5.899   4.463  1.00  0.00     0.349 HD
ATOM     24  C   UNL     1       0.359  -7.070   5.117  1.00  0.00     0.324 C 
ATOM     25  C   UNL     1       0.113  -4.829   5.933  1.00  0.00     0.324 C 
ATOM     26  N   UNL     1       0.596  -6.181   6.252  1.00  0.00    -0.322 N 
ATOM     27  H   UNL     1       1.602  -6.083   6.387  1.00  0.00     0.348 HD
BRANCH  26  28
ATOM     28  C   UNL     1       0.265  -6.740   7.574  1.00  0.00     0.300 C 
BRANCH  28  29
ATOM     29  C   UNL     1      -1.161  -6.569   8.069  1.00  0.00     0.014 A 
ATOM     30  C   UNL     1      -1.456  -5.377   8.760  1.00  0.00     0.010 A 
ATOM     31  C   UNL     1      -2.216  -7.466   7.740  1.00  0.00    -0.010 A 
ATOM     32  C   UNL     1      -2.769  -4.985   8.975  1.00  0.00     0.001 A 
ATOM     33  C   UNL     1      -3.546  -6.994   7.849  1.00  0.00    -0.018 A 
ATOM     34  C   UNL     1      -2.029  -8.786   7.254  1.00  0.00     0.009 A 
ATOM     35  C   UNL     1      -3.805  -5.761   8.466  1.00  0.00     0.009 A 
ATOM     36  C   UNL     1      -4.601  -7.748   7.309  1.00  0.00     0.009 A 
ATOM     37  C   UNL     1      -3.096  -9.542   6.760  1.00  0.00     0.001 A 
ATOM     38  C   UNL     1      -4.375  -9.004   6.747  1.00  0.00     0.001 A 
ENDBRANCH  28  29
ENDBRANCH  26  28
ENDBRANCH   7  20
ENDBRANCH   4   7
ENDBRANCH   2   3
ENDBRANCH   1   2
BRANCH   1  39
ATOM     39  C   UNL     1       0.322  -3.418  -1.714  1.00  0.00     0.023 C 
BRANCH  39  40
ATOM     40  C   UNL     1       0.695  -4.807  -2.222  1.00  0.00     0.116 C 
BRANCH  40  41
ATOM     41  N   UNL     1      -0.155  -5.221  -3.329  1.00  0.00    -0.352 N 
ATOM     42  C   UNL     1       0.193  -5.406  -4.644  1.00  0.00     0.251 C 
ATOM     43  H   UNL     1      -1.099  -5.391  -3.106  1.00  0.00     0.163 HD
ATOM     44  O   UNL     1      -0.661  -5.528  -5.516  1.00  0.00    -0.269 OA
BRANCH  42  45
ATOM     45  C   UNL     1       1.625  -5.458  -4.992  1.00  0.00     0.039 A 
ATOM     46  C   UNL     1       2.132  -4.634  -5.996  1.00  0.00     0.014 A 
ATOM     47  C   UNL     1       2.471  -6.303  -4.270  1.00  0.00     0.014 A 
ATOM     48  C   UNL     1       3.508  -4.615  -6.234  1.00  0.00     0.010 A 
ATOM     49  C   UNL     1       3.843  -6.222  -4.449  1.00  0.00     0.010 A 
ATOM     50  C   UNL     1       4.376  -5.385  -5.440  1.00  0.00    -0.014 A 
BRANCH  50  51
ATOM     51  C   UNL     1       5.847  -5.363  -5.626  1.00  0.00     0.031 A 
ATOM     52  C   UNL     1       6.561  -6.628  -6.014  1.00  0.00     0.074 A 
ATOM     53  C   UNL     1       6.545  -4.246  -5.345  1.00  0.00     0.049 A 
ATOM     54  N   UNL     1       7.844  -6.869  -6.083  1.00  0.00    -0.248 NA
ATOM     55  C   UNL     1       5.714  -7.790  -6.332  1.00  0.00     0.031 C 
ATOM     56  C   UNL     1       5.970  -2.970  -4.917  1.00  0.00     0.029 A 
ATOM     57  N   UNL     1       7.897  -4.014  -5.356  1.00  0.00    -0.354 N 
ATOM     58  C   UNL     1       7.957  -8.209  -6.429  1.00  0.00     0.074 A 
ATOM     59  C   UNL     1       6.616  -8.745  -6.497  1.00  0.00     0.031 C 
ATOM     60  C   UNL     1       6.961  -2.085  -4.721  1.00  0.00     0.029 A 
ATOM     61  C   UNL     1       8.241  -2.743  -4.965  1.00  0.00     0.049 A 
ATOM     62  H   UNL     1       8.558  -4.694  -5.620  1.00  0.00     0.167 HD
ATOM     63  C   UNL     1       9.077  -8.923  -6.691  1.00  0.00     0.037 A 
ATOM     64  C   UNL     1       9.454  -2.179  -4.805  1.00  0.00     0.037 A 
ATOM     65  C   UNL     1      10.406  -8.376  -6.645  1.00  0.00     0.049 A 
ATOM     66  C   UNL     1      10.685  -2.998  -5.086  1.00  0.00     0.074 A 
ATOM     67  C   UNL     1      11.605  -8.999  -6.942  1.00  0.00     0.029 A 
ATOM     68  N   UNL     1      10.711  -7.074  -6.276  1.00  0.00    -0.354 N 
ATOM     69  N   UNL     1      10.777  -4.248  -5.472  1.00  0.00    -0.248 NA
ATOM     70  C   UNL     1      11.981  -2.326  -4.915  1.00  0.00     0.031 C 
ATOM     71  C   UNL     1      12.639  -8.088  -6.709  1.00  0.00     0.029 A 
ATOM     72  C   UNL     1      12.081  -6.880  -6.323  1.00  0.00     0.049 A 
ATOM     73  H   UNL     1      10.051  -6.391  -6.019  1.00  0.00     0.167 HD
ATOM     74  C   UNL     1      12.134  -4.498  -5.631  1.00  0.00     0.074 A 
ATOM     75  C   UNL     1      12.828  -3.270  -5.302  1.00  0.00     0.031 C 
ATOM     76  C   UNL     1      12.751  -5.641  -6.020  1.00  0.00     0.037 A 
BRANCH  63  77
ATOM     77  C   UNL     1       8.907 -10.369  -7.057  1.00  0.00     0.057 A 
ATOM     78  C   UNL     1       8.318 -10.762  -8.267  1.00  0.00     0.134 A 
ATOM     79  C   UNL     1       9.363 -11.383  -6.204  1.00  0.00     0.134 A 
ATOM     80  F   UNL     1       7.848  -9.843  -9.125  1.00  0.00    -0.206 F 
ATOM     81  C   UNL     1       8.161 -12.108  -8.601  1.00  0.00     0.040 A 
ATOM     82  C   UNL     1       9.240 -12.732  -6.542  1.00  0.00     0.040 A 
ATOM     83  F   UNL     1       9.943 -11.079  -5.033  1.00  0.00    -0.206 F 
ATOM     84  C   UNL     1       8.629 -13.098  -7.739  1.00  0.00     0.006 A 
ENDBRANCH  63  77
BRANCH  64  85
ATOM     85  C   UNL     1       9.568  -0.760  -4.380  1.00  0.00     0.057 A 
ATOM     86  C   UNL     1      10.043   0.219  -5.261  1.00  0.00     0.134 A 
ATOM     87  C   UNL     1       9.224  -0.349  -3.087  1.00  0.00     0.134 A 
ATOM     88  F   UNL     1      10.404  -0.115  -6.509  1.00  0.00    -0.206 F 
ATOM     89  C   UNL     1      10.195   1.549  -4.866  1.00  0.00     0.040 A 
ATOM     90  C   UNL     1       9.346   0.982  -2.686  1.00  0.00     0.040 A 
ATOM     91  F   UNL     1       8.754  -1.235  -2.197  1.00  0.00    -0.206 F 
ATOM     92  C   UNL     1       9.842   1.934  -3.575  1.00  0.00     0.006 A 
ENDBRANCH  64  85
BRANCH  76  93
ATOM     93  C   UNL     1      14.243  -5.605  -6.181  1.00  0.00     0.057 A 
ATOM     94  C   UNL     1      15.111  -5.556  -5.084  1.00  0.00     0.134 A 
ATOM     95  C   UNL     1      14.816  -5.689  -7.457  1.00  0.00     0.134 A 
ATOM     96  F   UNL     1      14.626  -5.463  -3.836  1.00  0.00    -0.206 F 
ATOM     97  C   UNL     1      16.497  -5.574  -5.252  1.00  0.00     0.040 A 
ATOM     98  C   UNL     1      16.198  -5.737  -7.636  1.00  0.00     0.040 A 
ATOM     99  F   UNL     1      14.039  -5.749  -8.550  1.00  0.00    -0.206 F 
ATOM    100  C   UNL     1      17.043  -5.676  -6.530  1.00  0.00     0.006 A 
ENDBRANCH  76  93
ENDBRANCH  50  51
ENDBRANCH  42  45
ENDBRANCH  40  41
ENDBRANCH  39  40
ENDBRANCH   1  39
TORSDOF 16
