REMARK SMILES O=C(NCCCCNC(=O)c1ccc(-c2c3nc(c(-c4c(F)cccc4F)c4ccc([nH]4)c(-c4c(F)cccc4F)c4nc(c(-c5c(F)cccc5F)c5ccc2[nH]5)C=C4)C=C3)cc1)C1=Cc2cc(S(F)(F)(F)(F)F)ccc2O[C@@H]1C(F)(F)F
REMARK SMILES IDX 6 1 5 2 4 3 3 4 1 5 2 6 65 8 66 9 80 10 67 11 79 12 68 13
REMARK SMILES IDX 78 14 69 15 77 16 76 17 81 18 82 19 83 20 84 21 70 22 71 23
REMARK SMILES IDX 72 24 73 25 74 26 75 27 7 28 8 29 9 30 10 32 11 33 12 34
REMARK SMILES IDX 64 35 13 36 63 37 14 38 15 39 16 40 57 41 17 42 62 43 56 44
REMARK SMILES IDX 58 45 18 46 61 47 55 48 54 49 19 51 45 52 28 53 44 54 29 55
REMARK SMILES IDX 32 56 43 57 59 58 30 59 31 60 42 62 60 63 33 64 20 65 21 66
REMARK SMILES IDX 26 67 22 68 23 69 25 70 27 71 24 72 46 73 47 74 52 75 48 76
REMARK SMILES IDX 49 77 51 78 53 79 50 80 34 81 35 82 40 83 36 84 37 85 39 86
REMARK SMILES IDX 41 87 38 88
REMARK H PARENT 3 7 8 31 58 50 32 61
REMARK Flexibility Score: inf
ROOT
ATOM      1  C   UNL     1       4.553  -3.660  -0.314  1.00  0.00     0.023 C 
ENDROOT
BRANCH   1   2
ATOM      2  C   UNL     1       5.060  -2.369   0.307  1.00  0.00     0.023 C 
BRANCH   2   3
ATOM      3  C   UNL     1       4.553  -1.185  -0.501  1.00  0.00     0.116 C 
BRANCH   3   4
ATOM      4  N   UNL     1       3.083  -1.185  -0.501  1.00  0.00    -0.352 N 
ATOM      5  O   UNL     1       1.077  -0.038   0.051  1.00  0.00    -0.270 OA
ATOM      6  C   UNL     1       2.348  -0.038   0.051  1.00  0.00     0.251 C 
ATOM      7  H   UNL     1       2.591  -1.954  -0.871  1.00  0.00     0.163 HD
BRANCH   6   8
ATOM      8  C   UNL     1       3.108   1.148   0.621  1.00  0.00     0.067 C 
ATOM      9  C   UNL     1       4.469   1.148   0.621  1.00  0.00     0.025 C 
ATOM     10  C   UNL     1       2.348   2.335   1.191  1.00  0.00     0.314 C 
ATOM     11  C   UNL     1       5.229  -0.038   0.051  1.00  0.00     0.019 A 
ATOM     12  O   UNL     1       3.743  -0.190  -1.798  1.00  0.00    -0.475 OA
ATOM     13  C   UNL     1       6.262  -0.526   0.833  1.00  0.00     0.036 A 
ATOM     14  C   UNL     1       4.905  -0.614  -1.102  1.00  0.00     0.128 A 
ATOM     15  C   UNL     1       7.091  -1.462   0.169  1.00  0.00     0.107 A 
ATOM     16  C   UNL     1       5.686  -1.616  -1.626  1.00  0.00     0.048 A 
ATOM     17  C   UNL     1       6.758  -2.107  -0.934  1.00  0.00     0.028 A 
BRANCH  10  18
ATOM     18  C   UNL     1       2.716   3.591   0.418  1.00  0.00     0.429 C 
ATOM     19  F   UNL     1       2.394   3.433  -0.863  1.00  0.00    -0.167 F 
ATOM     20  F   UNL     1       2.050   4.629   0.917  1.00  0.00    -0.167 F 
ATOM     21  F   UNL     1       4.023   3.810   0.524  1.00  0.00    -0.167 F 
ENDBRANCH  10  18
BRANCH  15  22
ATOM     22  S   UNL     1       8.721  -1.797   0.881  1.00  0.00     0.310 S 
ATOM     23  F   UNL     1       8.145  -1.749   2.357  1.00  0.00    -0.094 F 
ATOM     24  F   UNL     1       8.962  -0.244   0.998  1.00  0.00    -0.094 F 
ATOM     25  F   UNL     1      10.117  -2.088   1.501  1.00  0.00    -0.094 F 
ATOM     26  F   UNL     1       8.405  -3.344   0.885  1.00  0.00    -0.094 F 
ATOM     27  F   UNL     1       7.257  -1.514   0.355  1.00  0.00    -0.094 F 
ENDBRANCH  15  22
ENDBRANCH   6   8
ENDBRANCH   3   4
ENDBRANCH   2   3
ENDBRANCH   1   2
BRANCH   1  28
ATOM     28  C   UNL     1       5.060  -3.768  -1.743  1.00  0.00     0.116 C 
BRANCH  28  29
ATOM     29  N   UNL     1       6.530  -3.768  -1.743  1.00  0.00    -0.352 N 
ATOM     30  C   UNL     1       7.265  -4.916  -2.295  1.00  0.00     0.251 C 
ATOM     31  H   UNL     1       7.022  -3.000  -1.374  1.00  0.00     0.163 HD
ATOM     32  O   UNL     1       8.536  -4.916  -2.295  1.00  0.00    -0.269 OA
BRANCH  30  33
ATOM     33  C   UNL     1       6.505  -6.102  -2.865  1.00  0.00     0.039 A 
ATOM     34  C   UNL     1       6.812  -7.413  -2.542  1.00  0.00     0.014 A 
ATOM     35  C   UNL     1       5.483  -5.810  -3.661  1.00  0.00     0.014 A 
ATOM     36  C   UNL     1       6.152  -8.372  -3.346  1.00  0.00     0.010 A 
ATOM     37  C   UNL     1       4.795  -6.807  -4.310  1.00  0.00     0.010 A 
ATOM     38  C   UNL     1       5.085  -8.124  -4.083  1.00  0.00    -0.014 A 
BRANCH  38  39
ATOM     39  C   UNL     1       4.224  -9.242  -4.649  1.00  0.00     0.031 A 
ATOM     40  C   UNL     1       4.131  -9.266  -6.042  1.00  0.00     0.074 A 
ATOM     41  C   UNL     1       3.554 -10.118  -3.813  1.00  0.00     0.049 A 
ATOM     42  N   UNL     1       3.438 -10.120  -6.796  1.00  0.00    -0.248 NA
ATOM     43  C   UNL     1       4.815  -8.315  -6.930  1.00  0.00     0.031 C 
ATOM     44  C   UNL     1       3.649 -10.106  -2.408  1.00  0.00     0.029 A 
ATOM     45  N   UNL     1       2.695 -11.135  -4.168  1.00  0.00    -0.354 N 
ATOM     46  C   UNL     1       3.610  -9.838  -8.089  1.00  0.00     0.074 A 
ATOM     47  C   UNL     1       4.493  -8.669  -8.194  1.00  0.00     0.031 C 
ATOM     48  C   UNL     1       2.851 -11.092  -1.922  1.00  0.00     0.029 A 
ATOM     49  C   UNL     1       2.243 -11.739  -3.015  1.00  0.00     0.049 A 
ATOM     50  H   UNL     1       2.446 -11.386  -5.087  1.00  0.00     0.167 HD
ATOM     51  C   UNL     1       3.066 -10.511  -9.185  1.00  0.00     0.037 A 
ATOM     52  C   UNL     1       1.351 -12.793  -2.903  1.00  0.00     0.037 A 
ATOM     53  C   UNL     1       2.208 -11.593  -9.073  1.00  0.00     0.049 A 
ATOM     54  C   UNL     1       0.761 -13.429  -3.998  1.00  0.00     0.074 A 
ATOM     55  C   UNL     1       1.657 -12.287 -10.168  1.00  0.00     0.029 A 
ATOM     56  N   UNL     1       1.737 -12.181  -7.920  1.00  0.00    -0.354 N 
ATOM     57  N   UNL     1       0.964 -13.172  -5.291  1.00  0.00    -0.248 NA
ATOM     58  C   UNL     1      -0.210 -14.526  -3.890  1.00  0.00     0.031 C 
ATOM     59  C   UNL     1       0.858 -13.274  -9.682  1.00  0.00     0.029 A 
ATOM     60  C   UNL     1       0.896 -13.212  -8.276  1.00  0.00     0.049 A 
ATOM     61  H   UNL     1       1.963 -11.911  -7.001  1.00  0.00     0.167 HD
ATOM     62  C   UNL     1       0.238 -14.000  -6.044  1.00  0.00     0.074 A 
ATOM     63  C   UNL     1      -0.534 -14.879  -5.154  1.00  0.00     0.031 C 
ATOM     64  C   UNL     1       0.190 -14.062  -7.438  1.00  0.00     0.037 A 
BRANCH  51  65
ATOM     65  C   UNL     1       3.437 -10.029 -10.578  1.00  0.00     0.057 A 
ATOM     66  C   UNL     1       4.740 -10.121 -11.038  1.00  0.00     0.134 A 
ATOM     67  C   UNL     1       2.453  -9.622 -11.372  1.00  0.00     0.134 A 
ATOM     68  F   UNL     1       5.701 -10.755 -10.372  1.00  0.00    -0.206 F 
ATOM     69  C   UNL     1       4.956  -9.480 -12.280  1.00  0.00     0.040 A 
ATOM     70  C   UNL     1       2.725  -9.133 -12.627  1.00  0.00     0.040 A 
ATOM     71  F   UNL     1       1.194  -9.688 -10.948  1.00  0.00    -0.206 F 
ATOM     72  C   UNL     1       3.999  -9.138 -13.123  1.00  0.00     0.006 A 
ENDBRANCH  51  65
BRANCH  52  73
ATOM     73  C   UNL     1       0.994 -13.285  -1.510  1.00  0.00     0.057 A 
ATOM     74  C   UNL     1       1.152 -14.624  -1.195  1.00  0.00     0.134 A 
ATOM     75  C   UNL     1       0.428 -12.438  -0.658  1.00  0.00     0.134 A 
ATOM     76  F   UNL     1       1.927 -15.448  -1.895  1.00  0.00    -0.206 F 
ATOM     77  C   UNL     1       0.413 -15.037  -0.060  1.00  0.00     0.040 A 
ATOM     78  C   UNL     1      -0.155 -12.896   0.499  1.00  0.00     0.040 A 
ATOM     79  F   UNL     1       0.427 -11.136  -0.925  1.00  0.00    -0.206 F 
ATOM     80  C   UNL     1      -0.089 -14.217   0.845  1.00  0.00     0.006 A 
ENDBRANCH  52  73
BRANCH  64  81
ATOM     81  C   UNL     1      -0.688 -15.126  -8.076  1.00  0.00     0.057 A 
ATOM     82  C   UNL     1      -2.063 -15.157  -7.905  1.00  0.00     0.134 A 
ATOM     83  C   UNL     1      -0.072 -16.002  -8.861  1.00  0.00     0.134 A 
ATOM     84  F   UNL     1      -2.746 -14.164  -7.343  1.00  0.00    -0.206 F 
ATOM     85  C   UNL     1      -2.673 -16.341  -8.382  1.00  0.00     0.040 A 
ATOM     86  C   UNL     1      -0.760 -17.059  -9.404  1.00  0.00     0.040 A 
ATOM     87  F   UNL     1       1.224 -15.854  -9.123  1.00  0.00    -0.206 F 
ATOM     88  C   UNL     1      -2.110 -17.186  -9.227  1.00  0.00     0.006 A 
ENDBRANCH  64  81
ENDBRANCH  38  39
ENDBRANCH  30  33
ENDBRANCH  28  29
ENDBRANCH   1  28
TORSDOF 13
