REMARK SMILES CC(C)(O)C#Cc1ccc(C(=O)N[C@@H](CCC(N)=O)C(=O)NCCCCNC(=O)c2ccc(-c3c4nc(c(-c5c(F)cccc5F)c5ccc([nH]5)c(-c5c(F)cccc5F)c5nc(c(-c6c(F)cccc6F)c6ccc3[nH]6)C=C5)C=C4)cc2)s1
REMARK SMILES IDX 23 1 22 2 20 3 21 4 14 6 13 7 11 8 12 9 10 11 7 12 8 13
REMARK SMILES IDX 84 14 9 15 6 16 5 17 2 18 1 19 3 20 4 21 15 23 16 24 17 25
REMARK SMILES IDX 18 26 19 27 24 30 25 31 26 32 27 33 28 34 29 36 30 37 31 38
REMARK SMILES IDX 83 39 32 40 82 41 33 42 34 43 35 44 76 45 36 46 81 47 75 48
REMARK SMILES IDX 77 49 37 50 80 51 74 52 73 53 38 55 64 56 47 57 63 58 48 59
REMARK SMILES IDX 51 60 62 61 78 62 49 63 50 64 61 66 79 67 52 68 39 69 40 70
REMARK SMILES IDX 45 71 41 72 42 73 44 74 46 75 43 76 65 77 66 78 71 79 67 80
REMARK SMILES IDX 68 81 70 82 72 83 69 84 53 85 54 86 59 87 55 88 56 89 58 90
REMARK SMILES IDX 60 91 57 92
REMARK H PARENT 22 5 13 10 4 22 18 28 18 29 27 35 77 54 51 65
REMARK Flexibility Score: inf
ROOT
ATOM      1  C   UNL     1       3.498  -1.295   9.603  1.00  0.00     0.116 C 
ENDROOT
BRANCH   1   2
ATOM      2  N   UNL     1       2.381  -1.345   8.688  1.00  0.00    -0.354 N 
ATOM      3  C   UNL     1       2.213  -0.855   7.432  1.00  0.00     0.242 C 
ATOM      4  O   UNL     1       1.159  -1.151   6.857  1.00  0.00    -0.273 OA
ATOM      5  H   UNL     1       1.596  -1.823   9.040  1.00  0.00     0.163 HD
BRANCH   3   6
ATOM      6  C   UNL     1       3.277  -0.000   6.717  1.00  0.00     0.172 C 
BRANCH   6   7
ATOM      7  N   UNL     1       3.699   1.179   7.500  1.00  0.00    -0.340 N 
ATOM      8  C   UNL     1       3.500   2.525   7.280  1.00  0.00     0.262 C 
ATOM      9  O   UNL     1       3.696   3.263   8.248  1.00  0.00    -0.268 OA
ATOM     10  H   UNL     1       4.208   0.968   8.316  1.00  0.00     0.164 HD
BRANCH   8  11
ATOM     11  C   UNL     1       3.006   3.019   6.016  1.00  0.00     0.093 A 
ATOM     12  C   UNL     1       2.017   2.947   3.825  1.00  0.00     0.078 A 
ATOM     13  C   UNL     1       1.612   4.080   4.493  1.00  0.00     0.030 A 
ATOM     14  S   UNL     1       3.451   2.341   4.508  1.00  0.00    -0.121 S 
ATOM     15  C   UNL     1       2.219   4.138   5.786  1.00  0.00     0.027 A 
BRANCH  12  16
ATOM     16  C   UNL     1       1.425   2.380   2.676  1.00  0.00    -0.053 C 
ATOM     17  C   UNL     1       0.990   1.961   1.520  1.00  0.00    -0.063 C 
BRANCH  17  18
ATOM     18  C   UNL     1       0.484   1.472   0.173  1.00  0.00     0.120 C 
ATOM     19  C   UNL     1       0.957   0.041  -0.069  1.00  0.00     0.056 C 
ATOM     20  C   UNL     1       0.968   2.410  -0.931  1.00  0.00     0.056 C 
BRANCH  18  21
ATOM     21  O   UNL     1      -0.940   1.494   0.201  1.00  0.00    -0.378 OA
ATOM     22  H   UNL     1      -1.285   1.185  -0.651  1.00  0.00     0.212 HD
ENDBRANCH  18  21
ENDBRANCH  17  18
ENDBRANCH  12  16
ENDBRANCH   8  11
ENDBRANCH   6   7
BRANCH   6  23
ATOM     23  C   UNL     1       4.467  -0.719   6.042  1.00  0.00     0.045 C 
BRANCH  23  24
ATOM     24  C   UNL     1       5.224  -1.811   6.790  1.00  0.00     0.102 C 
BRANCH  24  25
ATOM     25  C   UNL     1       4.509  -3.142   6.807  1.00  0.00     0.217 C 
ATOM     26  N   UNL     1       5.194  -4.143   7.423  1.00  0.00    -0.370 N 
ATOM     27  O   UNL     1       3.410  -3.355   6.317  1.00  0.00    -0.275 OA
ATOM     28  H   UNL     1       6.079  -3.965   7.815  1.00  0.00     0.159 HD
ATOM     29  H   UNL     1       4.804  -5.045   7.477  1.00  0.00     0.159 HD
ENDBRANCH  24  25
ENDBRANCH  23  24
ENDBRANCH   6  23
ENDBRANCH   3   6
ENDBRANCH   1   2
BRANCH   1  30
ATOM     30  C   UNL     1       3.068  -0.953  11.026  1.00  0.00     0.023 C 
BRANCH  30  31
ATOM     31  C   UNL     1       2.196  -2.009  11.718  1.00  0.00     0.023 C 
BRANCH  31  32
ATOM     32  C   UNL     1       2.788  -3.410  11.717  1.00  0.00     0.116 C 
BRANCH  32  33
ATOM     33  N   UNL     1       4.070  -3.499  12.416  1.00  0.00    -0.352 N 
ATOM     34  C   UNL     1       4.822  -4.639  12.649  1.00  0.00     0.251 C 
ATOM     35  H   UNL     1       4.439  -2.653  12.760  1.00  0.00     0.163 HD
ATOM     36  O   UNL     1       5.667  -4.679  13.526  1.00  0.00    -0.269 OA
BRANCH  34  37
ATOM     37  C   UNL     1       4.593  -5.805  11.777  1.00  0.00     0.039 A 
ATOM     38  C   UNL     1       4.521  -7.106  12.277  1.00  0.00     0.014 A 
ATOM     39  C   UNL     1       4.404  -5.552  10.423  1.00  0.00     0.014 A 
ATOM     40  C   UNL     1       4.192  -8.137  11.399  1.00  0.00     0.010 A 
ATOM     41  C   UNL     1       3.904  -6.531   9.608  1.00  0.00     0.010 A 
ATOM     42  C   UNL     1       3.870  -7.837  10.064  1.00  0.00    -0.014 A 
BRANCH  42  43
ATOM     43  C   UNL     1       3.372  -8.860   9.154  1.00  0.00     0.031 A 
ATOM     44  C   UNL     1       2.227  -9.639   9.691  1.00  0.00     0.074 A 
ATOM     45  C   UNL     1       3.767  -8.981   7.867  1.00  0.00     0.049 A 
ATOM     46  N   UNL     1       2.240 -10.876  10.056  1.00  0.00    -0.248 NA
ATOM     47  C   UNL     1       0.974  -8.935  10.009  1.00  0.00     0.031 C 
ATOM     48  C   UNL     1       4.660  -8.121   7.081  1.00  0.00     0.029 A 
ATOM     49  N   UNL     1       3.366  -9.898   6.946  1.00  0.00    -0.354 N 
ATOM     50  C   UNL     1       0.941 -11.174  10.455  1.00  0.00     0.074 A 
ATOM     51  C   UNL     1       0.258  -9.911  10.573  1.00  0.00     0.031 C 
ATOM     52  C   UNL     1       4.536  -8.413   5.766  1.00  0.00     0.029 A 
ATOM     53  C   UNL     1       3.705  -9.595   5.631  1.00  0.00     0.049 A 
ATOM     54  H   UNL     1       2.874 -10.714   7.191  1.00  0.00     0.167 HD
ATOM     55  C   UNL     1       0.484 -12.455  10.421  1.00  0.00     0.037 A 
ATOM     56  C   UNL     1       3.315 -10.272   4.521  1.00  0.00     0.037 A 
ATOM     57  C   UNL     1       1.578 -13.392  10.325  1.00  0.00     0.049 A 
ATOM     58  C   UNL     1       2.909 -11.632   4.963  1.00  0.00     0.074 A 
ATOM     59  C   UNL     1       2.695 -13.655  11.097  1.00  0.00     0.029 A 
ATOM     60  N   UNL     1       1.845 -13.945   9.094  1.00  0.00    -0.354 N 
ATOM     61  N   UNL     1       3.749 -12.515   5.429  1.00  0.00    -0.248 NA
ATOM     62  C   UNL     1       1.519 -11.820   5.351  1.00  0.00     0.031 C 
ATOM     63  C   UNL     1       3.747 -13.866  10.156  1.00  0.00     0.029 A 
ATOM     64  C   UNL     1       3.193 -13.812   8.877  1.00  0.00     0.049 A 
ATOM     65  H   UNL     1       1.192 -14.358   8.484  1.00  0.00     0.167 HD
ATOM     66  C   UNL     1       3.090 -13.089   6.506  1.00  0.00     0.074 A 
ATOM     67  C   UNL     1       1.694 -12.669   6.367  1.00  0.00     0.031 C 
ATOM     68  C   UNL     1       3.775 -13.596   7.573  1.00  0.00     0.037 A 
BRANCH  55  69
ATOM     69  C   UNL     1      -0.934 -12.845  10.085  1.00  0.00     0.057 A 
ATOM     70  C   UNL     1      -1.313 -14.196  10.188  1.00  0.00     0.134 A 
ATOM     71  C   UNL     1      -1.838 -12.022   9.384  1.00  0.00     0.134 A 
ATOM     72  F   UNL     1      -0.534 -15.083  10.827  1.00  0.00    -0.206 F 
ATOM     73  C   UNL     1      -2.456 -14.705   9.562  1.00  0.00     0.040 A 
ATOM     74  C   UNL     1      -3.008 -12.511   8.797  1.00  0.00     0.040 A 
ATOM     75  F   UNL     1      -1.593 -10.731   9.136  1.00  0.00    -0.206 F 
ATOM     76  C   UNL     1      -3.303 -13.863   8.853  1.00  0.00     0.006 A 
ENDBRANCH  55  69
BRANCH  56  77
ATOM     77  C   UNL     1       2.972  -9.744   3.178  1.00  0.00     0.057 A 
ATOM     78  C   UNL     1       2.806 -10.602   2.080  1.00  0.00     0.134 A 
ATOM     79  C   UNL     1       2.508  -8.429   3.003  1.00  0.00     0.134 A 
ATOM     80  F   UNL     1       3.182 -11.887   2.157  1.00  0.00    -0.206 F 
ATOM     81  C   UNL     1       2.184 -10.188   0.893  1.00  0.00     0.040 A 
ATOM     82  C   UNL     1       1.889  -8.001   1.823  1.00  0.00     0.040 A 
ATOM     83  F   UNL     1       2.558  -7.540   4.005  1.00  0.00    -0.206 F 
ATOM     84  C   UNL     1       1.709  -8.887   0.768  1.00  0.00     0.006 A 
ENDBRANCH  56  77
BRANCH  68  85
ATOM     85  C   UNL     1       5.272 -13.724   7.470  1.00  0.00     0.057 A 
ATOM     86  C   UNL     1       6.152 -12.643   7.296  1.00  0.00     0.134 A 
ATOM     87  C   UNL     1       5.854 -14.970   7.726  1.00  0.00     0.134 A 
ATOM     88  F   UNL     1       5.699 -11.394   7.145  1.00  0.00    -0.206 F 
ATOM     89  C   UNL     1       7.542 -12.805   7.338  1.00  0.00     0.040 A 
ATOM     90  C   UNL     1       7.239 -15.140   7.804  1.00  0.00     0.040 A 
ATOM     91  F   UNL     1       5.080 -16.042   7.957  1.00  0.00    -0.206 F 
ATOM     92  C   UNL     1       8.089 -14.057   7.600  1.00  0.00     0.006 A 
ENDBRANCH  68  85
ENDBRANCH  42  43
ENDBRANCH  34  37
ENDBRANCH  32  33
ENDBRANCH  31  32
ENDBRANCH  30  31
ENDBRANCH   1  30
TORSDOF 19
