REMARK SMILES O=C(CCNC(=O)CSc1nc2[nH]cnc2c(=O)[nH]1)NCCCCNC(=O)c1ccc(-c2c3nc(c(-c4c(F)cccc4F)c4ccc([nH]4)c(-c4c(F)cccc4F)c4nc(c(-c5c(F)cccc5F)c5ccc2[nH]5)C=C4)C=C3)cc1
REMARK SMILES IDX 21 1 20 2 1 3 2 4 3 6 4 7 5 8 6 9 7 11 8 12 9 13 10 14 11 15
REMARK SMILES IDX 19 16 12 17 17 18 13 20 16 21 18 22 14 23 15 25 22 26 23 27
REMARK SMILES IDX 24 28 25 29 26 30 27 32 28 33 29 34 81 35 30 36 80 37 31 38
REMARK SMILES IDX 32 39 33 40 74 41 34 42 79 43 73 44 75 45 35 46 78 47 72 48
REMARK SMILES IDX 71 49 36 51 62 52 45 53 61 54 46 55 49 56 60 57 76 58 47 59
REMARK SMILES IDX 48 60 59 62 77 63 50 64 37 65 38 66 43 67 39 68 40 69 42 70
REMARK SMILES IDX 44 71 41 72 63 73 64 74 69 75 65 76 66 77 68 78 70 79 67 80
REMARK SMILES IDX 51 81 52 82 57 83 53 84 54 85 56 86 58 87 55 88
REMARK H PARENT 20 5 5 10 19 19 13 24 25 31 75 50 49 61
REMARK Flexibility Score: inf
ROOT
ATOM      1  C   UNL     1       2.136   1.193   2.160  1.00  0.00     0.116 C 
ENDROOT
BRANCH   1   2
ATOM      2  N   UNL     1       2.817   0.499   1.085  1.00  0.00    -0.356 N 
ATOM      3  O   UNL     1       0.965   0.225  -0.252  1.00  0.00    -0.275 OA
ATOM      4  C   UNL     1       2.166   0.081  -0.055  1.00  0.00     0.221 C 
ATOM      5  H   UNL     1       3.781   0.319   1.172  1.00  0.00     0.163 HD
BRANCH   4   6
ATOM      6  C   UNL     1       3.077  -0.551  -1.085  1.00  0.00     0.121 C 
BRANCH   6   7
ATOM      7  C   UNL     1       3.857   0.522  -1.839  1.00  0.00     0.125 C 
BRANCH   7   8
ATOM      8  N   UNL     1       4.943   1.062  -1.033  1.00  0.00    -0.355 N 
ATOM      9  C   UNL     1       6.279   0.788  -1.040  1.00  0.00     0.230 C 
ATOM     10  H   UNL     1       4.667   1.737  -0.372  1.00  0.00     0.163 HD
ATOM     11  O   UNL     1       6.963   1.350  -0.179  1.00  0.00    -0.274 OA
BRANCH   9  12
ATOM     12  C   UNL     1       6.911  -0.054  -2.136  1.00  0.00     0.178 C 
BRANCH  12  13
ATOM     13  S   UNL     1       6.343  -1.768  -2.234  1.00  0.00    -0.078 SA
BRANCH  13  14
ATOM     14  C   UNL     1       6.853  -2.422  -0.713  1.00  0.00     0.170 A 
ATOM     15  N   UNL     1       7.377  -1.705   0.232  1.00  0.00    -0.204 NA
ATOM     16  N   UNL     1       6.606  -3.778  -0.645  1.00  0.00    -0.299 N 
ATOM     17  C   UNL     1       7.666  -2.439   1.330  1.00  0.00     0.165 A 
ATOM     18  C   UNL     1       6.882  -4.557   0.466  1.00  0.00     0.279 A 
ATOM     19  H   UNL     1       6.211  -4.217  -1.432  1.00  0.00     0.172 HD
ATOM     20  N   UNL     1       8.232  -1.972   2.478  1.00  0.00    -0.329 N 
ATOM     21  C   UNL     1       7.466  -3.784   1.543  1.00  0.00     0.172 A 
ATOM     22  O   UNL     1       6.639  -5.760   0.493  1.00  0.00    -0.267 OA
ATOM     23  C   UNL     1       8.331  -3.038   3.335  1.00  0.00     0.199 A 
ATOM     24  H   UNL     1       8.515  -1.046   2.657  1.00  0.00     0.169 HD
ATOM     25  N   UNL     1       7.873  -4.152   2.799  1.00  0.00    -0.229 NA
ENDBRANCH  13  14
ENDBRANCH  12  13
ENDBRANCH   9  12
ENDBRANCH   7   8
ENDBRANCH   6   7
ENDBRANCH   4   6
ENDBRANCH   1   2
BRANCH   1  26
ATOM     26  C   UNL     1       2.513   0.641   3.534  1.00  0.00     0.023 C 
BRANCH  26  27
ATOM     27  C   UNL     1       3.996   0.756   3.897  1.00  0.00     0.023 C 
BRANCH  27  28
ATOM     28  C   UNL     1       4.562   2.173   3.894  1.00  0.00     0.116 C 
BRANCH  28  29
ATOM     29  N   UNL     1       3.960   3.022   4.910  1.00  0.00    -0.352 N 
ATOM     30  C   UNL     1       4.559   3.769   5.896  1.00  0.00     0.251 C 
ATOM     31  H   UNL     1       2.977   3.070   4.888  1.00  0.00     0.163 HD
ATOM     32  O   UNL     1       3.872   4.302   6.763  1.00  0.00    -0.269 OA
BRANCH  30  33
ATOM     33  C   UNL     1       6.033   3.910   5.941  1.00  0.00     0.039 A 
ATOM     34  C   UNL     1       6.683   3.794   7.172  1.00  0.00     0.014 A 
ATOM     35  C   UNL     1       6.773   4.160   4.782  1.00  0.00     0.014 A 
ATOM     36  C   UNL     1       8.078   3.856   7.231  1.00  0.00     0.010 A 
ATOM     37  C   UNL     1       8.166   4.142   4.831  1.00  0.00     0.010 A 
ATOM     38  C   UNL     1       8.835   3.988   6.055  1.00  0.00    -0.014 A 
BRANCH  38  39
ATOM     39  C   UNL     1      10.321   3.952   6.086  1.00  0.00     0.031 A 
ATOM     40  C   UNL     1      11.122   5.147   5.647  1.00  0.00     0.074 A 
ATOM     41  C   UNL     1      10.952   2.818   6.451  1.00  0.00     0.049 A 
ATOM     42  N   UNL     1      12.421   5.281   5.547  1.00  0.00    -0.248 NA
ATOM     43  C   UNL     1      10.365   6.342   5.244  1.00  0.00     0.031 C 
ATOM     44  C   UNL     1      10.293   1.577   6.863  1.00  0.00     0.029 A 
ATOM     45  N   UNL     1      12.291   2.522   6.527  1.00  0.00    -0.354 N 
ATOM     46  C   UNL     1      12.634   6.564   5.060  1.00  0.00     0.074 A 
ATOM     47  C   UNL     1      11.331   7.150   4.834  1.00  0.00     0.031 C 
ATOM     48  C   UNL     1      11.228   0.665   7.174  1.00  0.00     0.029 A 
ATOM     49  C   UNL     1      12.550   1.238   6.940  1.00  0.00     0.049 A 
ATOM     50  H   UNL     1      12.999   3.170   6.306  1.00  0.00     0.167 HD
ATOM     51  C   UNL     1      13.808   7.205   4.842  1.00  0.00     0.037 A 
ATOM     52  C   UNL     1      13.719   0.590   7.104  1.00  0.00     0.037 A 
ATOM     53  C   UNL     1      15.104   6.626   5.083  1.00  0.00     0.049 A 
ATOM     54  C   UNL     1      15.008   1.315   6.828  1.00  0.00     0.074 A 
ATOM     55  C   UNL     1      16.349   7.216   4.948  1.00  0.00     0.029 A 
ATOM     56  N   UNL     1      15.324   5.322   5.501  1.00  0.00    -0.354 N 
ATOM     57  N   UNL     1      15.194   2.553   6.436  1.00  0.00    -0.248 NA
ATOM     58  C   UNL     1      16.251   0.554   7.020  1.00  0.00     0.031 C 
ATOM     59  C   UNL     1      17.323   6.252   5.226  1.00  0.00     0.029 A 
ATOM     60  C   UNL     1      16.685   5.080   5.598  1.00  0.00     0.049 A 
ATOM     61  H   UNL     1      14.618   4.666   5.700  1.00  0.00     0.167 HD
ATOM     62  C   UNL     1      16.571   2.728   6.370  1.00  0.00     0.074 A 
ATOM     63  C   UNL     1      17.172   1.475   6.775  1.00  0.00     0.031 C 
ATOM     64  C   UNL     1      17.273   3.830   6.009  1.00  0.00     0.037 A 
BRANCH  51  65
ATOM     65  C   UNL     1      13.746   8.608   4.307  1.00  0.00     0.057 A 
ATOM     66  C   UNL     1      13.273   9.677   5.081  1.00  0.00     0.134 A 
ATOM     67  C   UNL     1      14.206   8.902   3.017  1.00  0.00     0.134 A 
ATOM     68  F   UNL     1      12.809   9.466   6.322  1.00  0.00    -0.206 F 
ATOM     69  C   UNL     1      13.234  10.980   4.581  1.00  0.00     0.040 A 
ATOM     70  C   UNL     1      14.201  10.205   2.517  1.00  0.00     0.040 A 
ATOM     71  F   UNL     1      14.681   7.929   2.224  1.00  0.00    -0.206 F 
ATOM     72  C   UNL     1      13.706  11.248   3.298  1.00  0.00     0.006 A 
ENDBRANCH  51  65
BRANCH  52  73
ATOM     73  C   UNL     1      13.732  -0.822   7.569  1.00  0.00     0.057 A 
ATOM     74  C   UNL     1      14.239  -1.163   8.829  1.00  0.00     0.134 A 
ATOM     75  C   UNL     1      13.260  -1.865   6.761  1.00  0.00     0.134 A 
ATOM     76  F   UNL     1      14.722  -0.212   9.642  1.00  0.00    -0.206 F 
ATOM     77  C   UNL     1      14.301  -2.490   9.259  1.00  0.00     0.040 A 
ATOM     78  C   UNL     1      13.289  -3.193   7.190  1.00  0.00     0.040 A 
ATOM     79  F   UNL     1      12.750  -1.605   5.548  1.00  0.00    -0.206 F 
ATOM     80  C   UNL     1      13.821  -3.509   8.439  1.00  0.00     0.006 A 
ENDBRANCH  52  73
BRANCH  64  81
ATOM     81  C   UNL     1      18.772   3.746   6.075  1.00  0.00     0.057 A 
ATOM     82  C   UNL     1      19.515   2.972   5.175  1.00  0.00     0.134 A 
ATOM     83  C   UNL     1      19.484   4.484   7.031  1.00  0.00     0.134 A 
ATOM     84  F   UNL     1      18.896   2.232   4.242  1.00  0.00    -0.206 F 
ATOM     85  C   UNL     1      20.909   2.913   5.240  1.00  0.00     0.040 A 
ATOM     86  C   UNL     1      20.878   4.457   7.086  1.00  0.00     0.040 A 
ATOM     87  F   UNL     1      18.836   5.254   7.918  1.00  0.00    -0.206 F 
ATOM     88  C   UNL     1      21.594   3.664   6.193  1.00  0.00     0.006 A 
ENDBRANCH  64  81
ENDBRANCH  38  39
ENDBRANCH  30  33
ENDBRANCH  28  29
ENDBRANCH  27  28
ENDBRANCH  26  27
ENDBRANCH   1  26
TORSDOF 16
