REMARK SMILES C[C@@H]1CCC[C@H](S[C@@H]2CCC[C@]([NH2+]C3CC3)(C(=O)NCCCCNC(=O)c3ccc(-c4c5nc(c(-c6c(F)cccc6F)c6ccc([nH]6)c(-c6c(F)cccc6F)c6nc(c(-c7c(F)cccc7F)c7ccc4[nH]7)C=C6)C=C5)cc3)C2)C1
REMARK SMILES IDX 21 1 20 2 19 3 17 4 18 5 12 7 8 8 9 9 81 10 10 11 11 12 7 13
REMARK SMILES IDX 6 14 1 15 2 16 3 17 82 18 4 19 5 20 13 21 14 24 15 25 16 26
REMARK SMILES IDX 22 27 23 28 24 29 25 30 26 32 27 33 28 34 80 35 29 36 79 37
REMARK SMILES IDX 30 38 31 39 32 40 73 41 33 42 78 43 72 44 74 45 34 46 77 47
REMARK SMILES IDX 71 48 70 49 35 51 61 52 44 53 60 54 45 55 48 56 59 57 75 58
REMARK SMILES IDX 46 59 47 60 58 62 76 63 49 64 36 65 37 66 42 67 38 68 39 69
REMARK SMILES IDX 41 70 43 71 40 72 62 73 63 74 68 75 64 76 65 77 67 78 69 79
REMARK SMILES IDX 66 80 50 81 51 82 56 83 52 84 53 85 55 86 57 87 54 88
REMARK H PARENT 19 6 13 22 13 23 24 31 74 50 48 61
REMARK Flexibility Score: inf
ROOT
ATOM      1  C   UNL     1       4.535   3.869   5.036  1.00  0.00     0.023 C 
ENDROOT
BRANCH   1   2
ATOM      2  C   UNL     1       3.557   4.046   3.879  1.00  0.00     0.116 C 
BRANCH   2   3
ATOM      3  N   UNL     1       3.670   3.019   2.862  1.00  0.00    -0.351 N 
ATOM      4  C   UNL     1       2.832   2.011   2.469  1.00  0.00     0.281 C 
ATOM      5  O   UNL     1       3.227   1.338   1.512  1.00  0.00    -0.268 OA
ATOM      6  H   UNL     1       4.513   3.054   2.356  1.00  0.00     0.163 HD
BRANCH   4   7
ATOM      7  C   UNL     1       1.455   1.744   3.160  1.00  0.00     0.176 C 
ATOM      8  C   UNL     1      -0.757   0.384   2.882  1.00  0.00     0.053 C 
ATOM      9  C   UNL     1      -1.595   1.657   2.786  1.00  0.00     0.015 C 
ATOM     10  C   UNL     1       0.716   0.541   2.513  1.00  0.00     0.093 C 
ATOM     11  C   UNL     1      -0.873   2.851   3.400  1.00  0.00     0.008 C 
ATOM     12  C   UNL     1       0.554   2.985   2.879  1.00  0.00     0.079 C 
BRANCH   8  13
ATOM     13  S   UNL     1      -1.558  -1.113   2.143  1.00  0.00    -0.155 SA
BRANCH  13  14
ATOM     14  C   UNL     1      -1.595  -1.010   0.290  1.00  0.00     0.047 C 
ATOM     15  C   UNL     1       1.896  -1.467   0.139  1.00  0.00     0.007 C 
ATOM     16  C   UNL     1       0.764  -1.118  -0.832  1.00  0.00    -0.013 C 
ATOM     17  C   UNL     1       0.620   0.381  -1.168  1.00  0.00     0.003 C 
ATOM     18  C   UNL     1      -0.529  -1.839  -0.441  1.00  0.00     0.017 C 
ATOM     19  C   UNL     1      -0.619   1.139  -0.687  1.00  0.00     0.001 C 
ATOM     20  C   UNL     1      -1.855   0.296  -0.443  1.00  0.00     0.014 C 
ENDBRANCH  13  14
ENDBRANCH   8  13
BRANCH   7  21
ATOM     21  N   UNL     1       1.651   1.509   4.608  1.00  0.00    -0.331 N 
ATOM     22  H   UNL     1       0.718   1.454   5.017  1.00  0.00     0.347 HD
ATOM     23  H   UNL     1       2.263   2.282   4.868  1.00  0.00     0.347 HD
BRANCH  21  24
ATOM     24  C   UNL     1       2.395   0.343   5.122  1.00  0.00     0.183 C 
ATOM     25  C   UNL     1       3.087  -0.732   4.330  1.00  0.00     0.071 C 
ATOM     26  C   UNL     1       3.902   0.281   5.062  1.00  0.00     0.071 C 
ENDBRANCH  21  24
ENDBRANCH   7  21
ENDBRANCH   4   7
ENDBRANCH   2   3
ENDBRANCH   1   2
BRANCH   1  27
ATOM     27  C   UNL     1       6.010   3.951   4.654  1.00  0.00     0.023 C 
BRANCH  27  28
ATOM     28  C   UNL     1       6.391   5.178   3.835  1.00  0.00     0.116 C 
BRANCH  28  29
ATOM     29  N   UNL     1       5.915   6.426   4.416  1.00  0.00    -0.352 N 
ATOM     30  C   UNL     1       6.583   7.609   4.614  1.00  0.00     0.251 C 
ATOM     31  H   UNL     1       4.976   6.420   4.711  1.00  0.00     0.163 HD
ATOM     32  O   UNL     1       6.049   8.530   5.212  1.00  0.00    -0.269 OA
BRANCH  30  33
ATOM     33  C   UNL     1       7.970   7.737   4.128  1.00  0.00     0.039 A 
ATOM     34  C   UNL     1       8.944   8.213   5.008  1.00  0.00     0.014 A 
ATOM     35  C   UNL     1       8.310   7.344   2.832  1.00  0.00     0.014 A 
ATOM     36  C   UNL     1      10.279   8.223   4.609  1.00  0.00     0.010 A 
ATOM     37  C   UNL     1       9.648   7.278   2.466  1.00  0.00     0.010 A 
ATOM     38  C   UNL     1      10.645   7.716   3.351  1.00  0.00    -0.014 A 
BRANCH  38  39
ATOM     39  C   UNL     1      12.067   7.639   2.939  1.00  0.00     0.031 A 
ATOM     40  C   UNL     1      12.549   8.440   1.763  1.00  0.00     0.074 A 
ATOM     41  C   UNL     1      12.905   6.804   3.586  1.00  0.00     0.049 A 
ATOM     42  N   UNL     1      13.727   8.445   1.194  1.00  0.00    -0.248 NA
ATOM     43  C   UNL     1      11.569   9.333   1.123  1.00  0.00     0.031 C 
ATOM     44  C   UNL     1      12.541   5.939   4.711  1.00  0.00     0.029 A 
ATOM     45  N   UNL     1      14.235   6.537   3.381  1.00  0.00    -0.354 N 
ATOM     46  C   UNL     1      13.628   9.334   0.132  1.00  0.00     0.074 A 
ATOM     47  C   UNL     1      12.260   9.801   0.094  1.00  0.00     0.031 C 
ATOM     48  C   UNL     1      13.625   5.252   5.106  1.00  0.00     0.029 A 
ATOM     49  C   UNL     1      14.748   5.598   4.242  1.00  0.00     0.049 A 
ATOM     50  H   UNL     1      14.771   6.978   2.682  1.00  0.00     0.167 HD
ATOM     51  C   UNL     1      14.599   9.750  -0.715  1.00  0.00     0.037 A 
ATOM     52  C   UNL     1      15.984   5.068   4.316  1.00  0.00     0.037 A 
ATOM     53  C   UNL     1      15.963   9.299  -0.662  1.00  0.00     0.049 A 
ATOM     54  C   UNL     1      17.039   5.539   3.353  1.00  0.00     0.074 A 
ATOM     55  C   UNL     1      17.029   9.679  -1.459  1.00  0.00     0.029 A 
ATOM     56  N   UNL     1      16.452   8.371   0.245  1.00  0.00    -0.354 N 
ATOM     57  N   UNL     1      16.944   6.421   2.387  1.00  0.00    -0.248 NA
ATOM     58  C   UNL     1      18.377   4.948   3.494  1.00  0.00     0.031 C 
ATOM     59  C   UNL     1      18.156   8.958  -1.054  1.00  0.00     0.029 A 
ATOM     60  C   UNL     1      17.802   8.161   0.023  1.00  0.00     0.049 A 
ATOM     61  H   UNL     1      15.918   7.927   0.943  1.00  0.00     0.167 HD
ATOM     62  C   UNL     1      18.212   6.514   1.829  1.00  0.00     0.074 A 
ATOM     63  C   UNL     1      19.064   5.611   2.575  1.00  0.00     0.031 C 
ATOM     64  C   UNL     1      18.636   7.274   0.791  1.00  0.00     0.037 A 
BRANCH  51  65
ATOM     65  C   UNL     1      14.222  10.763  -1.755  1.00  0.00     0.057 A 
ATOM     66  C   UNL     1      13.940  12.092  -1.413  1.00  0.00     0.134 A 
ATOM     67  C   UNL     1      14.188  10.423  -3.113  1.00  0.00     0.134 A 
ATOM     68  F   UNL     1      13.941  12.478  -0.128  1.00  0.00    -0.206 F 
ATOM     69  C   UNL     1      13.619  13.043  -2.382  1.00  0.00     0.040 A 
ATOM     70  C   UNL     1      13.894  11.372  -4.094  1.00  0.00     0.040 A 
ATOM     71  F   UNL     1      14.451   9.169  -3.509  1.00  0.00    -0.206 F 
ATOM     72  C   UNL     1      13.605  12.686  -3.728  1.00  0.00     0.006 A 
ENDBRANCH  51  65
BRANCH  52  73
ATOM     73  C   UNL     1      16.302   4.038   5.338  1.00  0.00     0.057 A 
ATOM     74  C   UNL     1      17.183   4.312   6.392  1.00  0.00     0.134 A 
ATOM     75  C   UNL     1      15.769   2.746   5.265  1.00  0.00     0.134 A 
ATOM     76  F   UNL     1      17.741   5.526   6.507  1.00  0.00    -0.206 F 
ATOM     77  C   UNL     1      17.549   3.330   7.314  1.00  0.00     0.040 A 
ATOM     78  C   UNL     1      16.103   1.762   6.196  1.00  0.00     0.040 A 
ATOM     79  F   UNL     1      14.911   2.422   4.286  1.00  0.00    -0.206 F 
ATOM     80  C   UNL     1      17.006   2.050   7.218  1.00  0.00     0.006 A 
ENDBRANCH  52  73
BRANCH  64  81
ATOM     81  C   UNL     1      20.090   7.197   0.432  1.00  0.00     0.057 A 
ATOM     82  C   UNL     1      20.639   6.074  -0.198  1.00  0.00     0.134 A 
ATOM     83  C   UNL     1      20.942   8.278   0.688  1.00  0.00     0.134 A 
ATOM     84  F   UNL     1      19.877   5.000  -0.459  1.00  0.00    -0.206 F 
ATOM     85  C   UNL     1      21.990   6.019  -0.541  1.00  0.00     0.040 A 
ATOM     86  C   UNL     1      22.289   8.247   0.325  1.00  0.00     0.040 A 
ATOM     87  F   UNL     1      20.477   9.388   1.281  1.00  0.00    -0.206 F 
ATOM     88  C   UNL     1      22.818   7.111  -0.285  1.00  0.00     0.006 A 
ENDBRANCH  64  81
ENDBRANCH  38  39
ENDBRANCH  30  33
ENDBRANCH  28  29
ENDBRANCH  27  28
ENDBRANCH   1  27
TORSDOF 15
