REMARK SMILES CC1CCN(C(=O)Nc2nccnc2C(=O)NCCCCNC(=O)c2ccc(-c3c4nc(c(-c5c(F)cccc5F)c5ccc([nH]5)c(-c5c(F)cccc5F)c5nc(c(-c6c(F)cccc6F)c6ccc3[nH]6)C=C5)C=C4)cc2)CC1
REMARK SMILES IDX 20 1 19 2 18 3 17 4 15 5 16 6 14 8 9 9 10 10 11 11 13 12
REMARK SMILES IDX 12 13 8 14 1 15 2 16 3 17 80 18 4 19 79 20 5 21 6 22 7 23
REMARK SMILES IDX 21 25 22 26 23 27 24 29 25 30 26 31 78 32 27 33 77 34 28 35
REMARK SMILES IDX 29 36 30 37 71 38 31 39 76 40 70 41 72 42 32 43 75 44 69 45
REMARK SMILES IDX 68 46 33 48 59 49 42 50 58 51 43 52 46 53 57 54 73 55 44 56
REMARK SMILES IDX 45 57 56 59 74 60 47 61 34 62 35 63 40 64 36 65 37 66 39 67
REMARK SMILES IDX 41 68 38 69 60 70 61 71 66 72 62 73 63 74 65 75 67 76 64 77
REMARK SMILES IDX 48 78 49 79 54 80 50 81 51 82 53 83 55 84 52 85
REMARK H PARENT 17 7 8 24 22 28 72 47 46 58
REMARK Flexibility Score: inf
ROOT
ATOM      1  C   UNL     1       6.939   1.039  -0.824  1.00  0.00     0.023 C 
ENDROOT
BRANCH   1   2
ATOM      2  C   UNL     1       5.649   0.620  -0.123  1.00  0.00     0.023 C 
BRANCH   2   3
ATOM      3  C   UNL     1       4.876  -0.537  -0.741  1.00  0.00     0.116 C 
BRANCH   3   4
ATOM      4  N   UNL     1       5.578  -1.786  -0.901  1.00  0.00    -0.351 N 
ATOM      5  C   UNL     1       5.106  -3.072  -1.089  1.00  0.00     0.273 C 
ATOM      6  O   UNL     1       5.975  -3.927  -1.291  1.00  0.00    -0.267 OA
ATOM      7  H   UNL     1       6.559  -1.711  -0.871  1.00  0.00     0.163 HD
BRANCH   5   8
ATOM      8  C   UNL     1       3.664  -3.519  -1.016  1.00  0.00     0.170 A 
ATOM      9  C   UNL     1       2.521  -2.845  -1.470  1.00  0.00     0.165 A 
ATOM     10  N   UNL     1       1.283  -3.417  -1.414  1.00  0.00    -0.235 NA
ATOM     11  C   UNL     1       1.200  -4.649  -0.872  1.00  0.00     0.133 A 
ATOM     12  N   UNL     1       3.543  -4.762  -0.444  1.00  0.00    -0.246 NA
ATOM     13  C   UNL     1       2.307  -5.303  -0.384  1.00  0.00     0.132 A 
BRANCH   9  14
ATOM     14  N   UNL     1       2.557  -1.610  -2.098  1.00  0.00    -0.290 N 
ATOM     15  C   UNL     1      -2.725   0.100  -0.029  1.00  0.00     0.008 C 
ATOM     16  C   UNL     1      -1.259   0.165   0.393  1.00  0.00    -0.011 C 
ATOM     17  C   UNL     1      -0.527   1.269  -0.403  1.00  0.00     0.025 C 
ATOM     18  C   UNL     1      -0.591  -1.218   0.234  1.00  0.00     0.025 C 
ATOM     19  C   UNL     1       0.991   1.194  -0.250  1.00  0.00     0.121 C 
ATOM     20  C   UNL     1       0.912  -1.102   0.461  1.00  0.00     0.121 C 
ATOM     21  N   UNL     1       1.436  -0.169  -0.533  1.00  0.00    -0.324 N 
ATOM     22  C   UNL     1       1.989  -0.422  -1.768  1.00  0.00     0.323 C 
ATOM     23  O   UNL     1       2.176   0.489  -2.584  1.00  0.00    -0.248 OA
ATOM     24  H   UNL     1       3.086  -1.591  -2.928  1.00  0.00     0.173 HD
ENDBRANCH   9  14
ENDBRANCH   5   8
ENDBRANCH   3   4
ENDBRANCH   2   3
ENDBRANCH   1   2
BRANCH   1  25
ATOM     25  C   UNL     1       6.906   1.127  -2.348  1.00  0.00     0.116 C 
BRANCH  25  26
ATOM     26  N   UNL     1       6.004   2.139  -2.879  1.00  0.00    -0.352 N 
ATOM     27  C   UNL     1       6.263   3.320  -3.543  1.00  0.00     0.251 C 
ATOM     28  H   UNL     1       5.048   1.947  -2.742  1.00  0.00     0.163 HD
ATOM     29  O   UNL     1       5.340   4.063  -3.855  1.00  0.00    -0.269 OA
BRANCH  27  30
ATOM     30  C   UNL     1       7.655   3.736  -3.835  1.00  0.00     0.039 A 
ATOM     31  C   UNL     1       8.027   5.057  -3.565  1.00  0.00     0.014 A 
ATOM     32  C   UNL     1       8.594   2.847  -4.356  1.00  0.00     0.014 A 
ATOM     33  C   UNL     1       9.363   5.447  -3.701  1.00  0.00     0.010 A 
ATOM     34  C   UNL     1       9.940   3.207  -4.398  1.00  0.00     0.010 A 
ATOM     35  C   UNL     1      10.343   4.506  -4.054  1.00  0.00    -0.014 A 
BRANCH  35  36
ATOM     36  C   UNL     1      11.791   4.848  -4.043  1.00  0.00     0.031 A 
ATOM     37  C   UNL     1      12.610   4.737  -5.300  1.00  0.00     0.074 A 
ATOM     38  C   UNL     1      12.391   5.173  -2.880  1.00  0.00     0.049 A 
ATOM     39  N   UNL     1      13.902   4.882  -5.461  1.00  0.00    -0.248 NA
ATOM     40  C   UNL     1      11.887   4.385  -6.532  1.00  0.00     0.031 C 
ATOM     41  C   UNL     1      11.728   5.259  -1.576  1.00  0.00     0.029 A 
ATOM     42  N   UNL     1      13.701   5.476  -2.602  1.00  0.00    -0.354 N 
ATOM     43  C   UNL     1      14.147   4.616  -6.802  1.00  0.00     0.074 A 
ATOM     44  C   UNL     1      12.880   4.252  -7.399  1.00  0.00     0.031 C 
ATOM     45  C   UNL     1      12.627   5.613  -0.645  1.00  0.00     0.029 A 
ATOM     46  C   UNL     1      13.938   5.741  -1.274  1.00  0.00     0.049 A 
ATOM     47  H   UNL     1      14.406   5.502  -3.289  1.00  0.00     0.167 HD
ATOM     48  C   UNL     1      15.316   4.692  -7.483  1.00  0.00     0.037 A 
ATOM     49  C   UNL     1      15.082   6.044  -0.631  1.00  0.00     0.037 A 
ATOM     50  C   UNL     1      16.570   5.091  -6.900  1.00  0.00     0.049 A 
ATOM     51  C   UNL     1      16.363   6.139  -1.412  1.00  0.00     0.074 A 
ATOM     52  C   UNL     1      17.795   5.258  -7.522  1.00  0.00     0.029 A 
ATOM     53  N   UNL     1      16.757   5.391  -5.560  1.00  0.00    -0.354 N 
ATOM     54  N   UNL     1      16.566   5.945  -2.692  1.00  0.00    -0.248 NA
ATOM     55  C   UNL     1      17.573   6.503  -0.660  1.00  0.00     0.031 C 
ATOM     56  C   UNL     1      18.732   5.628  -6.552  1.00  0.00     0.029 A 
ATOM     57  C   UNL     1      18.081   5.730  -5.333  1.00  0.00     0.049 A 
ATOM     58  H   UNL     1      16.054   5.366  -4.871  1.00  0.00     0.167 HD
ATOM     59  C   UNL     1      17.917   6.187  -2.903  1.00  0.00     0.074 A 
ATOM     60  C   UNL     1      18.482   6.556  -1.622  1.00  0.00     0.031 C 
ATOM     61  C   UNL     1      18.626   6.108  -4.055  1.00  0.00     0.037 A 
BRANCH  48  62
ATOM     62  C   UNL     1      15.287   4.350  -8.944  1.00  0.00     0.057 A 
ATOM     63  C   UNL     1      14.676   5.190  -9.884  1.00  0.00     0.134 A 
ATOM     64  C   UNL     1      15.904   3.187  -9.421  1.00  0.00     0.134 A 
ATOM     65  F   UNL     1      14.057   6.314  -9.491  1.00  0.00    -0.206 F 
ATOM     66  C   UNL     1      14.656   4.872 -11.243  1.00  0.00     0.040 A 
ATOM     67  C   UNL     1      15.913   2.872 -10.780  1.00  0.00     0.040 A 
ATOM     68  F   UNL     1      16.514   2.343  -8.575  1.00  0.00    -0.206 F 
ATOM     69  C   UNL     1      15.282   3.712 -11.695  1.00  0.00     0.006 A 
ENDBRANCH  48  62
BRANCH  49  70
ATOM     70  C   UNL     1      15.070   6.301   0.831  1.00  0.00     0.057 A 
ATOM     71  C   UNL     1      15.270   7.591   1.337  1.00  0.00     0.134 A 
ATOM     72  C   UNL     1      14.876   5.269   1.756  1.00  0.00     0.134 A 
ATOM     73  F   UNL     1      15.482   8.618   0.500  1.00  0.00    -0.206 F 
ATOM     74  C   UNL     1      15.299   7.843   2.709  1.00  0.00     0.040 A 
ATOM     75  C   UNL     1      14.878   5.510   3.131  1.00  0.00     0.040 A 
ATOM     76  F   UNL     1      14.671   4.012   1.335  1.00  0.00    -0.206 F 
ATOM     77  C   UNL     1      15.098   6.800   3.611  1.00  0.00     0.006 A 
ENDBRANCH  49  70
BRANCH  61  78
ATOM     78  C   UNL     1      20.081   6.464  -3.991  1.00  0.00     0.057 A 
ATOM     79  C   UNL     1      21.025   5.612  -3.404  1.00  0.00     0.134 A 
ATOM     80  C   UNL     1      20.548   7.656  -4.560  1.00  0.00     0.134 A 
ATOM     81  F   UNL     1      20.639   4.463  -2.829  1.00  0.00    -0.206 F 
ATOM     82  C   UNL     1      22.381   5.942  -3.367  1.00  0.00     0.040 A 
ATOM     83  C   UNL     1      21.904   7.985  -4.551  1.00  0.00     0.040 A 
ATOM     84  F   UNL     1      19.697   8.511  -5.144  1.00  0.00    -0.206 F 
ATOM     85  C   UNL     1      22.824   7.129  -3.949  1.00  0.00     0.006 A 
ENDBRANCH  61  78
ENDBRANCH  35  36
ENDBRANCH  27  30
ENDBRANCH  25  26
ENDBRANCH   1  25
TORSDOF 12
