REMARK SMILES Cc1n[nH]c(C)c1S(=O)(=O)N[C@H](C(=O)NCCCCNC(=O)c1ccc(-c2c3nc(c(-c4c(F)cccc4F)c4ccc([nH]4)c(-c4c(F)cccc4F)c4nc(c(-c5c(F)cccc5F)c5ccc2[nH]5)C=C4)C=C3)cc1)C(C)C
REMARK SMILES IDX 17 1 16 2 15 3 13 4 14 5 12 7 11 8 8 10 9 11 10 12 7 13 1 14
REMARK SMILES IDX 2 15 3 16 4 17 5 18 6 20 77 21 78 22 79 23 18 24 19 25 20 26
REMARK SMILES IDX 21 27 22 29 23 30 24 31 76 32 25 33 75 34 26 35 27 36 28 37
REMARK SMILES IDX 69 38 29 39 74 40 68 41 70 42 30 43 73 44 67 45 66 46 31 48
REMARK SMILES IDX 57 49 40 50 56 51 41 52 44 53 55 54 71 55 42 56 43 57 54 59
REMARK SMILES IDX 72 60 45 61 32 62 33 63 38 64 34 65 35 66 37 67 39 68 36 69
REMARK SMILES IDX 58 70 59 71 64 72 60 73 61 74 63 75 65 76 62 77 46 78 47 79
REMARK SMILES IDX 52 80 48 81 49 82 51 83 53 84 50 85
REMARK H PARENT 15 6 11 9 4 19 20 28 70 47 44 58
REMARK Flexibility Score: inf
ROOT
ATOM      1  C   UNL     1       4.409  -2.901  -2.269  1.00  0.00     0.023 C 
ENDROOT
BRANCH   1   2
ATOM      2  C   UNL     1       3.298  -2.255  -1.437  1.00  0.00     0.116 C 
BRANCH   2   3
ATOM      3  N   UNL     1       2.408  -3.267  -0.908  1.00  0.00    -0.355 N 
ATOM      4  C   UNL     1       2.338  -3.801   0.344  1.00  0.00     0.238 C 
ATOM      5  O   UNL     1       1.664  -4.829   0.482  1.00  0.00    -0.273 OA
ATOM      6  H   UNL     1       1.752  -3.623  -1.550  1.00  0.00     0.163 HD
BRANCH   4   7
ATOM      7  C   UNL     1       3.013  -3.112   1.581  1.00  0.00     0.161 C 
BRANCH   7   8
ATOM      8  N   UNL     1       1.897  -3.269   2.555  1.00  0.00    -0.198 NA
ATOM      9  H   UNL     1       1.065  -2.947   2.061  1.00  0.00     0.142 HD
BRANCH   8  10
ATOM     10  S   UNL     1       1.800  -2.578   4.058  1.00  0.00     0.244 S 
ATOM     11  O   UNL     1       2.818  -3.150   4.896  1.00  0.00    -0.207 OA
ATOM     12  O   UNL     1       0.404  -2.626   4.444  1.00  0.00    -0.207 OA
BRANCH  10  13
ATOM     13  C   UNL     1       2.143  -0.900   3.953  1.00  0.00     0.125 A 
ATOM     14  C   UNL     1       3.682  -0.574   6.051  1.00  0.00     0.070 C 
ATOM     15  C   UNL     1       2.947  -0.141   4.835  1.00  0.00     0.079 A 
ATOM     16  N   UNL     1       3.008   1.141   4.445  1.00  0.00    -0.179 NA
ATOM     17  N   UNL     1       2.205   1.203   3.373  1.00  0.00    -0.281 N 
ATOM     18  C   UNL     1       1.664  -0.001   3.017  1.00  0.00     0.052 A 
ATOM     19  H   UNL     1       2.022   2.039   2.887  1.00  0.00     0.190 HD
ATOM     20  C   UNL     1       0.748  -0.148   1.864  1.00  0.00     0.067 C 
ENDBRANCH  10  13
ENDBRANCH   8  10
ENDBRANCH   7   8
BRANCH   7  21
ATOM     21  C   UNL     1       4.329  -3.813   1.993  1.00  0.00     0.010 C 
ATOM     22  C   UNL     1       5.277  -4.012   0.807  1.00  0.00     0.009 C 
ATOM     23  C   UNL     1       5.119  -3.034   3.055  1.00  0.00     0.009 C 
ENDBRANCH   7  21
ENDBRANCH   4   7
ENDBRANCH   2   3
ENDBRANCH   1   2
BRANCH   1  24
ATOM     24  C   UNL     1       3.992  -3.345  -3.666  1.00  0.00     0.023 C 
BRANCH  24  25
ATOM     25  C   UNL     1       3.681  -2.205  -4.620  1.00  0.00     0.116 C 
BRANCH  25  26
ATOM     26  N   UNL     1       4.794  -1.279  -4.785  1.00  0.00    -0.352 N 
ATOM     27  C   UNL     1       5.359  -0.789  -5.937  1.00  0.00     0.251 C 
ATOM     28  H   UNL     1       5.200  -0.957  -3.948  1.00  0.00     0.163 HD
ATOM     29  O   UNL     1       6.382  -0.115  -5.883  1.00  0.00    -0.269 OA
BRANCH  27  30
ATOM     30  C   UNL     1       4.743  -1.106  -7.240  1.00  0.00     0.039 A 
ATOM     31  C   UNL     1       5.562  -1.482  -8.306  1.00  0.00     0.014 A 
ATOM     32  C   UNL     1       3.356  -1.061  -7.396  1.00  0.00     0.014 A 
ATOM     33  C   UNL     1       4.982  -1.878  -9.512  1.00  0.00     0.010 A 
ATOM     34  C   UNL     1       2.779  -1.559  -8.554  1.00  0.00     0.010 A 
ATOM     35  C   UNL     1       3.585  -1.952  -9.632  1.00  0.00    -0.014 A 
BRANCH  35  36
ATOM     36  C   UNL     1       2.938  -2.397 -10.889  1.00  0.00     0.031 A 
ATOM     37  C   UNL     1       2.029  -1.456 -11.630  1.00  0.00     0.074 A 
ATOM     38  C   UNL     1       3.100  -3.663 -11.316  1.00  0.00     0.049 A 
ATOM     39  N   UNL     1       1.302  -1.673 -12.696  1.00  0.00    -0.248 NA
ATOM     40  C   UNL     1       1.879  -0.102 -11.069  1.00  0.00     0.031 C 
ATOM     41  C   UNL     1       3.891  -4.693 -10.639  1.00  0.00     0.029 A 
ATOM     42  N   UNL     1       2.594  -4.303 -12.418  1.00  0.00    -0.354 N 
ATOM     43  C   UNL     1       0.595  -0.497 -12.913  1.00  0.00     0.074 A 
ATOM     44  C   UNL     1       0.921   0.402 -11.830  1.00  0.00     0.031 C 
ATOM     45  C   UNL     1       3.836  -5.829 -11.353  1.00  0.00     0.029 A 
ATOM     46  C   UNL     1       2.986  -5.615 -12.520  1.00  0.00     0.049 A 
ATOM     47  H   UNL     1       2.006  -3.864 -13.073  1.00  0.00     0.167 HD
ATOM     48  C   UNL     1      -0.225  -0.180 -13.942  1.00  0.00     0.037 A 
ATOM     49  C   UNL     1       2.692  -6.540 -13.452  1.00  0.00     0.037 A 
ATOM     50  C   UNL     1      -0.511  -1.063 -15.040  1.00  0.00     0.049 A 
ATOM     51  C   UNL     1       1.825  -6.152 -14.616  1.00  0.00     0.074 A 
ATOM     52  C   UNL     1      -1.266  -0.819 -16.172  1.00  0.00     0.029 A 
ATOM     53  N   UNL     1      -0.042  -2.365 -15.142  1.00  0.00    -0.354 N 
ATOM     54  N   UNL     1       1.225  -5.010 -14.854  1.00  0.00    -0.248 NA
ATOM     55  C   UNL     1       1.606  -7.173 -15.649  1.00  0.00     0.031 C 
ATOM     56  C   UNL     1      -1.282  -1.986 -16.945  1.00  0.00     0.029 A 
ATOM     57  C   UNL     1      -0.502  -2.942 -16.314  1.00  0.00     0.049 A 
ATOM     58  H   UNL     1       0.532  -2.812 -14.480  1.00  0.00     0.167 HD
ATOM     59  C   UNL     1       0.576  -5.167 -16.071  1.00  0.00     0.074 A 
ATOM     60  C   UNL     1       0.870  -6.510 -16.530  1.00  0.00     0.031 C 
ATOM     61  C   UNL     1      -0.196  -4.281 -16.749  1.00  0.00     0.037 A 
BRANCH  48  62
ATOM     62  C   UNL     1      -0.853   1.184 -13.921  1.00  0.00     0.057 A 
ATOM     63  C   UNL     1      -0.093   2.351 -14.089  1.00  0.00     0.134 A 
ATOM     64  C   UNL     1      -2.229   1.337 -13.714  1.00  0.00     0.134 A 
ATOM     65  F   UNL     1       1.234   2.276 -14.274  1.00  0.00    -0.206 F 
ATOM     66  C   UNL     1      -0.671   3.619 -14.010  1.00  0.00     0.040 A 
ATOM     67  C   UNL     1      -2.824   2.599 -13.664  1.00  0.00     0.040 A 
ATOM     68  F   UNL     1      -3.017   0.264 -13.549  1.00  0.00    -0.206 F 
ATOM     69  C   UNL     1      -2.042   3.745 -13.800  1.00  0.00     0.006 A 
ENDBRANCH  48  62
BRANCH  49  70
ATOM     70  C   UNL     1       3.262  -7.905 -13.340  1.00  0.00     0.057 A 
ATOM     71  C   UNL     1       4.290  -8.330 -14.189  1.00  0.00     0.134 A 
ATOM     72  C   UNL     1       2.812  -8.806 -12.368  1.00  0.00     0.134 A 
ATOM     73  F   UNL     1       4.754  -7.515 -15.148  1.00  0.00    -0.206 F 
ATOM     74  C   UNL     1       4.842  -9.608 -14.086  1.00  0.00     0.040 A 
ATOM     75  C   UNL     1       3.370 -10.080 -12.239  1.00  0.00     0.040 A 
ATOM     76  F   UNL     1       1.839  -8.454 -11.517  1.00  0.00    -0.206 F 
ATOM     77  C   UNL     1       4.385 -10.485 -13.104  1.00  0.00     0.006 A 
ENDBRANCH  49  70
BRANCH  61  78
ATOM     78  C   UNL     1      -0.753  -4.730 -18.067  1.00  0.00     0.057 A 
ATOM     79  C   UNL     1      -1.801  -5.656 -18.147  1.00  0.00     0.134 A 
ATOM     80  C   UNL     1      -0.262  -4.199 -19.266  1.00  0.00     0.134 A 
ATOM     81  F   UNL     1      -2.307  -6.209 -17.035  1.00  0.00    -0.206 F 
ATOM     82  C   UNL     1      -2.325  -6.055 -19.377  1.00  0.00     0.040 A 
ATOM     83  C   UNL     1      -0.795  -4.572 -20.500  1.00  0.00     0.040 A 
ATOM     84  F   UNL     1       0.735  -3.301 -19.256  1.00  0.00    -0.206 F 
ATOM     85  C   UNL     1      -1.826  -5.507 -20.558  1.00  0.00     0.006 A 
ENDBRANCH  61  78
ENDBRANCH  35  36
ENDBRANCH  27  30
ENDBRANCH  25  26
ENDBRANCH  24  25
ENDBRANCH   1  24
TORSDOF 15
