REMARK SMILES Cc1nn(C(C)C)c(C)c1S(=O)(=O)Nc1cccc(C(=O)NCCCCNC(=O)c2ccc(-c3c4nc(c(-c5c(F)cccc5F)c5ccc([nH]5)c(-c5c(F)cccc5F)c5nc(c(-c6c(F)cccc6F)c6ccc3[nH]6)C=C5)C=C4)cc2)c1C
REMARK SMILES IDX 23 1 22 2 20 3 21 4 19 6 15 7 16 8 84 9 17 10 85 11 18 12
REMARK SMILES IDX 14 13 11 15 12 16 13 17 10 18 1 19 2 20 3 21 4 22 8 23 9 24
REMARK SMILES IDX 5 25 6 26 7 27 24 28 25 29 26 30 27 31 28 32 29 34 30 35
REMARK SMILES IDX 31 36 83 37 32 38 82 39 33 40 34 41 35 42 76 43 36 44 81 45
REMARK SMILES IDX 75 46 77 47 37 48 80 49 74 50 73 51 38 53 64 54 47 55 63 56
REMARK SMILES IDX 48 57 51 58 62 59 78 60 49 61 50 62 61 64 79 65 52 66 39 67
REMARK SMILES IDX 40 68 45 69 41 70 42 71 44 72 46 73 43 74 65 75 66 76 71 77
REMARK SMILES IDX 67 78 68 79 70 80 72 81 69 82 53 83 54 84 59 85 55 86 56 87
REMARK SMILES IDX 58 88 60 89 57 90
REMARK H PARENT 22 5 14 14 27 33 77 52 51 63
REMARK Flexibility Score: inf
ROOT
ATOM      1  C   UNL     1      -0.009  -4.651   0.849  1.00  0.00     0.116 C 
ENDROOT
BRANCH   1   2
ATOM      2  N   UNL     1       1.290  -4.409   1.450  1.00  0.00    -0.352 N 
ATOM      3  C   UNL     1       2.306  -3.509   1.249  1.00  0.00     0.251 C 
ATOM      4  O   UNL     1       3.242  -3.634   2.039  1.00  0.00    -0.269 OA
ATOM      5  H   UNL     1       1.490  -5.043   2.175  1.00  0.00     0.163 HD
BRANCH   3   6
ATOM      6  C   UNL     1       2.301  -2.406   0.216  1.00  0.00     0.044 A 
ATOM      7  C   UNL     1       2.876  -0.117  -0.433  1.00  0.00     0.053 A 
ATOM      8  C   UNL     1       2.017  -0.190  -1.526  1.00  0.00     0.027 A 
ATOM      9  C   UNL     1       3.140  -1.268   0.359  1.00  0.00    -0.014 A 
ATOM     10  C   UNL     1       1.320  -1.362  -1.770  1.00  0.00     0.003 A 
ATOM     11  C   UNL     1       4.256  -1.191   1.378  1.00  0.00     0.047 C 
ATOM     12  C   UNL     1       1.438  -2.437  -0.888  1.00  0.00     0.014 A 
BRANCH   7  13
ATOM     13  N   UNL     1       3.440   1.115   0.006  1.00  0.00    -0.279 N 
ATOM     14  H   UNL     1       4.263   1.061   0.543  1.00  0.00     0.180 HD
BRANCH  13  15
ATOM     15  S   UNL     1       2.842   2.634  -0.302  1.00  0.00     0.265 S 
ATOM     16  O   UNL     1       2.789   2.834  -1.729  1.00  0.00    -0.201 OA
ATOM     17  O   UNL     1       3.640   3.521   0.532  1.00  0.00    -0.201 OA
BRANCH  15  18
ATOM     18  C   UNL     1       1.228   2.938   0.222  1.00  0.00     0.131 A 
ATOM     19  C   UNL     1       0.323   0.687   1.301  1.00  0.00     0.070 C 
ATOM     20  C   UNL     1       0.266   2.083   0.811  1.00  0.00     0.080 A 
ATOM     21  N   UNL     1      -0.913   2.705   0.944  1.00  0.00    -0.176 NA
ATOM     22  N   UNL     1      -0.685   3.970   0.558  1.00  0.00    -0.266 N 
ATOM     23  C   UNL     1       0.605   4.181   0.149  1.00  0.00     0.056 A 
ATOM     24  C   UNL     1       1.130   5.513  -0.249  1.00  0.00     0.068 C 
BRANCH  22  25
ATOM     25  C   UNL     1      -1.783   4.934   0.618  1.00  0.00     0.101 C 
ATOM     26  C   UNL     1      -2.762   4.719  -0.535  1.00  0.00     0.033 C 
ATOM     27  C   UNL     1      -2.498   4.893   1.970  1.00  0.00     0.033 C 
ENDBRANCH  22  25
ENDBRANCH  15  18
ENDBRANCH  13  15
ENDBRANCH   7  13
ENDBRANCH   3   6
ENDBRANCH   1   2
BRANCH   1  28
ATOM     28  C   UNL     1       0.069  -5.664  -0.304  1.00  0.00     0.023 C 
BRANCH  28  29
ATOM     29  C   UNL     1       0.518  -7.072   0.093  1.00  0.00     0.023 C 
BRANCH  29  30
ATOM     30  C   UNL     1      -0.489  -7.823   0.944  1.00  0.00     0.116 C 
BRANCH  30  31
ATOM     31  N   UNL     1      -1.631  -8.353   0.212  1.00  0.00    -0.352 N 
ATOM     32  C   UNL     1      -2.805  -8.918   0.677  1.00  0.00     0.251 C 
ATOM     33  H   UNL     1      -1.556  -8.301  -0.768  1.00  0.00     0.163 HD
ATOM     34  O   UNL     1      -3.599  -9.393  -0.133  1.00  0.00    -0.269 OA
BRANCH  32  35
ATOM     35  C   UNL     1      -3.191  -8.825   2.111  1.00  0.00     0.039 A 
ATOM     36  C   UNL     1      -4.551  -8.665   2.420  1.00  0.00     0.014 A 
ATOM     37  C   UNL     1      -2.244  -8.676   3.117  1.00  0.00     0.014 A 
ATOM     38  C   UNL     1      -4.922  -8.093   3.634  1.00  0.00     0.010 A 
ATOM     39  C   UNL     1      -2.590  -7.988   4.258  1.00  0.00     0.010 A 
ATOM     40  C   UNL     1      -3.923  -7.636   4.484  1.00  0.00    -0.014 A 
BRANCH  40  41
ATOM     41  C   UNL     1      -4.127  -6.698   5.578  1.00  0.00     0.031 A 
ATOM     42  C   UNL     1      -3.905  -7.135   6.972  1.00  0.00     0.074 A 
ATOM     43  C   UNL     1      -4.297  -5.391   5.277  1.00  0.00     0.049 A 
ATOM     44  N   UNL     1      -4.170  -6.414   8.005  1.00  0.00    -0.248 NA
ATOM     45  C   UNL     1      -3.419  -8.468   7.321  1.00  0.00     0.031 C 
ATOM     46  C   UNL     1      -4.082  -4.239   6.148  1.00  0.00     0.029 A 
ATOM     47  N   UNL     1      -4.914  -4.851   4.137  1.00  0.00    -0.354 N 
ATOM     48  C   UNL     1      -3.635  -7.039   9.106  1.00  0.00     0.074 A 
ATOM     49  C   UNL     1      -3.297  -8.361   8.648  1.00  0.00     0.031 C 
ATOM     50  C   UNL     1      -4.786  -3.198   5.676  1.00  0.00     0.029 A 
ATOM     51  C   UNL     1      -5.605  -3.703   4.590  1.00  0.00     0.049 A 
ATOM     52  H   UNL     1      -4.873  -5.198   3.217  1.00  0.00     0.167 HD
ATOM     53  C   UNL     1      -3.435  -6.299  10.232  1.00  0.00     0.037 A 
ATOM     54  C   UNL     1      -6.969  -3.643   4.564  1.00  0.00     0.037 A 
ATOM     55  C   UNL     1      -4.167  -5.033  10.139  1.00  0.00     0.049 A 
ATOM     56  C   UNL     1      -7.599  -3.443   5.924  1.00  0.00     0.074 A 
ATOM     57  C   UNL     1      -3.789  -3.725   9.891  1.00  0.00     0.029 A 
ATOM     58  N   UNL     1      -5.555  -5.071  10.030  1.00  0.00    -0.354 N 
ATOM     59  N   UNL     1      -6.998  -3.709   7.051  1.00  0.00    -0.248 NA
ATOM     60  C   UNL     1      -8.954  -2.935   6.122  1.00  0.00     0.031 C 
ATOM     61  C   UNL     1      -4.958  -2.998   9.533  1.00  0.00     0.029 A 
ATOM     62  C   UNL     1      -6.045  -3.853   9.610  1.00  0.00     0.049 A 
ATOM     63  H   UNL     1      -6.110  -5.860  10.227  1.00  0.00     0.167 HD
ATOM     64  C   UNL     1      -7.842  -3.441   8.098  1.00  0.00     0.074 A 
ATOM     65  C   UNL     1      -9.048  -2.942   7.464  1.00  0.00     0.031 C 
ATOM     66  C   UNL     1      -7.475  -3.664   9.395  1.00  0.00     0.037 A 
BRANCH  53  67
ATOM     67  C   UNL     1      -2.440  -6.604  11.339  1.00  0.00     0.057 A 
ATOM     68  C   UNL     1      -2.248  -5.678  12.388  1.00  0.00     0.134 A 
ATOM     69  C   UNL     1      -1.554  -7.699  11.383  1.00  0.00     0.134 A 
ATOM     70  F   UNL     1      -3.006  -4.579  12.502  1.00  0.00    -0.206 F 
ATOM     71  C   UNL     1      -1.250  -5.817  13.366  1.00  0.00     0.040 A 
ATOM     72  C   UNL     1      -0.576  -7.868  12.376  1.00  0.00     0.040 A 
ATOM     73  F   UNL     1      -1.536  -8.655  10.452  1.00  0.00    -0.206 F 
ATOM     74  C   UNL     1      -0.409  -6.918  13.366  1.00  0.00     0.006 A 
ENDBRANCH  53  67
BRANCH  54  75
ATOM     75  C   UNL     1      -7.563  -4.413   3.440  1.00  0.00     0.057 A 
ATOM     76  C   UNL     1      -7.308  -3.975   2.128  1.00  0.00     0.134 A 
ATOM     77  C   UNL     1      -7.986  -5.735   3.598  1.00  0.00     0.134 A 
ATOM     78  F   UNL     1      -6.900  -2.715   1.907  1.00  0.00    -0.206 F 
ATOM     79  C   UNL     1      -7.346  -4.847   1.037  1.00  0.00     0.040 A 
ATOM     80  C   UNL     1      -8.043  -6.614   2.509  1.00  0.00     0.040 A 
ATOM     81  F   UNL     1      -8.226  -6.234   4.819  1.00  0.00    -0.206 F 
ATOM     82  C   UNL     1      -7.679  -6.183   1.233  1.00  0.00     0.006 A 
ENDBRANCH  54  75
BRANCH  66  83
ATOM     83  C   UNL     1      -8.397  -3.666  10.595  1.00  0.00     0.057 A 
ATOM     84  C   UNL     1      -9.770  -3.949  10.543  1.00  0.00     0.134 A 
ATOM     85  C   UNL     1      -7.869  -3.532  11.902  1.00  0.00     0.134 A 
ATOM     86  F   UNL     1     -10.390  -4.215   9.386  1.00  0.00    -0.206 F 
ATOM     87  C   UNL     1     -10.568  -4.035  11.694  1.00  0.00     0.040 A 
ATOM     88  C   UNL     1      -8.644  -3.673  13.057  1.00  0.00     0.040 A 
ATOM     89  F   UNL     1      -6.568  -3.287  12.116  1.00  0.00    -0.206 F 
ATOM     90  C   UNL     1     -10.004  -3.911  12.956  1.00  0.00     0.006 A 
ENDBRANCH  66  83
ENDBRANCH  40  41
ENDBRANCH  32  35
ENDBRANCH  30  31
ENDBRANCH  29  30
ENDBRANCH  28  29
ENDBRANCH   1  28
TORSDOF 15
