REMARK SMILES C[C@H](Oc1cc2oc(=O)cc(-c3ccccc3)c2cc1Cl)C(=O)NCCCCNC(=O)c1ccc(-c2c3nc(c(-c4c(F)cccc4F)c4ccc([nH]4)c(-c4c(F)cccc4F)c4nc(c(-c5c(F)cccc5F)c5ccc2[nH]5)C=C4)C=C3)cc1
REMARK SMILES IDX 26 1 25 2 24 3 22 4 23 5 2 7 1 8 3 9 4 10 5 11 20 12 6 13
REMARK SMILES IDX 19 14 21 15 7 16 18 17 8 18 11 19 9 20 10 21 12 22 13 23
REMARK SMILES IDX 17 24 14 25 16 26 15 27 27 28 28 29 29 30 30 31 31 33 32 34
REMARK SMILES IDX 33 35 85 36 34 37 84 38 35 39 36 40 37 41 78 42 38 43 83 44
REMARK SMILES IDX 77 45 79 46 39 47 82 48 76 49 75 50 40 52 66 53 49 54 65 55
REMARK SMILES IDX 50 56 53 57 64 58 80 59 51 60 52 61 63 63 81 64 54 65 41 66
REMARK SMILES IDX 42 67 47 68 43 69 44 70 46 71 48 72 45 73 67 74 68 75 73 76
REMARK SMILES IDX 69 77 70 78 72 79 74 80 71 81 55 82 56 83 61 84 57 85 58 86
REMARK SMILES IDX 60 87 62 88 59 89
REMARK H PARENT 24 6 29 32 79 51 53 62
REMARK Flexibility Score: inf
ROOT
ATOM      1  C   UNL     1      -1.434  -0.217   2.515  1.00  0.00     0.023 C 
ENDROOT
BRANCH   1   2
ATOM      2  C   UNL     1      -1.056  -1.382   1.607  1.00  0.00     0.116 C 
BRANCH   2   3
ATOM      3  N   UNL     1      -1.632  -1.257   0.279  1.00  0.00    -0.353 N 
ATOM      4  C   UNL     1      -0.995  -1.206  -0.936  1.00  0.00     0.260 C 
ATOM      5  O   UNL     1      -1.685  -1.106  -1.953  1.00  0.00    -0.271 OA
ATOM      6  H   UNL     1      -2.614  -1.201   0.245  1.00  0.00     0.163 HD
BRANCH   4   7
ATOM      7  C   UNL     1       0.534  -1.346  -1.012  1.00  0.00     0.258 C 
ATOM      8  C   UNL     1       0.901  -2.764  -0.556  1.00  0.00     0.064 C 
BRANCH   7   9
ATOM      9  O   UNL     1       1.034  -0.246  -0.246  1.00  0.00    -0.479 OA
BRANCH   9  10
ATOM     10  C   UNL     1       2.340  -0.098   0.105  1.00  0.00     0.142 A 
ATOM     11  C   UNL     1       3.376  -0.934  -0.290  1.00  0.00     0.096 A 
ATOM     12  C   UNL     1       2.635   0.964   0.979  1.00  0.00     0.084 A 
ATOM     13  C   UNL     1       4.639  -0.785   0.289  1.00  0.00     0.142 A 
ATOM     14  C   UNL     1       3.918   1.132   1.512  1.00  0.00     0.037 A 
ATOM     15  Cl  UNL     1       1.421   2.101   1.458  1.00  0.00    -0.080 Cl
ATOM     16  O   UNL     1       5.602  -1.743  -0.075  1.00  0.00    -0.423 OA
ATOM     17  C   UNL     1       4.932   0.224   1.205  1.00  0.00     0.027 A 
ATOM     18  C   UNL     1       6.848  -1.760   0.524  1.00  0.00     0.336 A 
ATOM     19  C   UNL     1       6.273   0.285   1.810  1.00  0.00    -0.000 A 
ATOM     20  O   UNL     1       7.681  -2.623   0.275  1.00  0.00    -0.246 OA
ATOM     21  C   UNL     1       7.145  -0.682   1.478  1.00  0.00     0.103 A 
BRANCH  19  22
ATOM     22  C   UNL     1       6.747   1.286   2.791  1.00  0.00    -0.017 A 
ATOM     23  C   UNL     1       7.795   2.159   2.464  1.00  0.00     0.009 A 
ATOM     24  C   UNL     1       6.155   1.379   4.059  1.00  0.00     0.009 A 
ATOM     25  C   UNL     1       8.241   3.106   3.387  1.00  0.00     0.001 A 
ATOM     26  C   UNL     1       6.596   2.334   4.977  1.00  0.00     0.001 A 
ATOM     27  C   UNL     1       7.640   3.195   4.641  1.00  0.00     0.000 A 
ENDBRANCH  19  22
ENDBRANCH   9  10
ENDBRANCH   7   9
ENDBRANCH   4   7
ENDBRANCH   2   3
ENDBRANCH   1   2
BRANCH   1  28
ATOM     28  C   UNL     1      -2.913  -0.146   2.885  1.00  0.00     0.023 C 
BRANCH  28  29
ATOM     29  C   UNL     1      -3.486  -1.411   3.512  1.00  0.00     0.116 C 
BRANCH  29  30
ATOM     30  N   UNL     1      -2.817  -1.792   4.747  1.00  0.00    -0.352 N 
ATOM     31  C   UNL     1      -3.368  -2.138   5.958  1.00  0.00     0.251 C 
ATOM     32  H   UNL     1      -1.833  -1.803   4.711  1.00  0.00     0.163 HD
ATOM     33  O   UNL     1      -2.652  -2.309   6.939  1.00  0.00    -0.269 OA
BRANCH  31  34
ATOM     34  C   UNL     1      -4.836  -2.266   6.082  1.00  0.00     0.039 A 
ATOM     35  C   UNL     1      -5.480  -1.641   7.152  1.00  0.00     0.014 A 
ATOM     36  C   UNL     1      -5.575  -2.970   5.128  1.00  0.00     0.014 A 
ATOM     37  C   UNL     1      -6.874  -1.658   7.223  1.00  0.00     0.010 A 
ATOM     38  C   UNL     1      -6.965  -2.919   5.158  1.00  0.00     0.010 A 
ATOM     39  C   UNL     1      -7.630  -2.262   6.204  1.00  0.00    -0.014 A 
BRANCH  39  40
ATOM     40  C   UNL     1      -9.114  -2.208   6.210  1.00  0.00     0.031 A 
ATOM     41  C   UNL     1      -9.916  -3.476   6.310  1.00  0.00     0.074 A 
ATOM     42  C   UNL     1      -9.740  -1.025   6.057  1.00  0.00     0.049 A 
ATOM     43  N   UNL     1     -11.214  -3.640   6.260  1.00  0.00    -0.248 NA
ATOM     44  C   UNL     1      -9.158  -4.729   6.457  1.00  0.00     0.031 C 
ATOM     45  C   UNL     1      -9.077   0.271   5.900  1.00  0.00     0.029 A 
ATOM     46  N   UNL     1     -11.078  -0.722   5.996  1.00  0.00    -0.354 N 
ATOM     47  C   UNL     1     -11.425  -5.009   6.355  1.00  0.00     0.074 A 
ATOM     48  C   UNL     1     -10.123  -5.636   6.410  1.00  0.00     0.031 C 
ATOM     49  C   UNL     1     -10.009   1.231   5.785  1.00  0.00     0.029 A 
ATOM     50  C   UNL     1     -11.332   0.617   5.820  1.00  0.00     0.049 A 
ATOM     51  H   UNL     1     -11.787  -1.400   6.071  1.00  0.00     0.167 HD
ATOM     52  C   UNL     1     -12.599  -5.683   6.416  1.00  0.00     0.037 A 
ATOM     53  C   UNL     1     -12.500   1.274   5.692  1.00  0.00     0.037 A 
ATOM     54  C   UNL     1     -13.894  -5.056   6.384  1.00  0.00     0.049 A 
ATOM     55  C   UNL     1     -13.789   0.502   5.752  1.00  0.00     0.074 A 
ATOM     56  C   UNL     1     -15.140  -5.647   6.500  1.00  0.00     0.029 A 
ATOM     57  N   UNL     1     -14.110  -3.696   6.220  1.00  0.00    -0.354 N 
ATOM     58  N   UNL     1     -13.976  -0.785   5.914  1.00  0.00    -0.248 NA
ATOM     59  C   UNL     1     -15.032   1.276   5.616  1.00  0.00     0.031 C 
ATOM     60  C   UNL     1     -16.112  -4.651   6.359  1.00  0.00     0.029 A 
ATOM     61  C   UNL     1     -15.470  -3.432   6.208  1.00  0.00     0.049 A 
ATOM     62  H   UNL     1     -13.402  -3.019   6.126  1.00  0.00     0.167 HD
ATOM     63  C   UNL     1     -15.352  -0.972   5.930  1.00  0.00     0.074 A 
ATOM     64  C   UNL     1     -15.953   0.337   5.775  1.00  0.00     0.031 C 
ATOM     65  C   UNL     1     -16.055  -2.123   6.062  1.00  0.00     0.037 A 
BRANCH  52  66
ATOM     66  C   UNL     1     -12.533  -7.179   6.527  1.00  0.00     0.057 A 
ATOM     67  C   UNL     1     -12.081  -7.814   7.692  1.00  0.00     0.134 A 
ATOM     68  C   UNL     1     -12.958  -7.995   5.471  1.00  0.00     0.134 A 
ATOM     69  F   UNL     1     -11.648  -7.092   8.736  1.00  0.00    -0.206 F 
ATOM     70  C   UNL     1     -12.028  -9.205   7.792  1.00  0.00     0.040 A 
ATOM     71  C   UNL     1     -12.937  -9.387   5.570  1.00  0.00     0.040 A 
ATOM     72  F   UNL     1     -13.409  -7.453   4.330  1.00  0.00    -0.206 F 
ATOM     73  C   UNL     1     -12.464  -9.996   6.730  1.00  0.00     0.006 A 
ENDBRANCH  52  66
BRANCH  53  74
ATOM     74  C   UNL     1     -12.510   2.749   5.515  1.00  0.00     0.057 A 
ATOM     75  C   UNL     1     -12.979   3.594   6.528  1.00  0.00     0.134 A 
ATOM     76  C   UNL     1     -12.064   3.348   4.331  1.00  0.00     0.134 A 
ATOM     77  F   UNL     1     -13.437   3.078   7.678  1.00  0.00    -0.206 F 
ATOM     78  C   UNL     1     -13.024   4.979   6.363  1.00  0.00     0.040 A 
ATOM     79  C   UNL     1     -12.079   4.734   4.162  1.00  0.00     0.040 A 
ATOM     80  F   UNL     1     -11.595   2.595   3.325  1.00  0.00    -0.206 F 
ATOM     81  C   UNL     1     -12.569   5.553   5.178  1.00  0.00     0.006 A 
ENDBRANCH  53  74
BRANCH  65  82
ATOM     82  C   UNL     1     -17.552  -2.017   6.084  1.00  0.00     0.057 A 
ATOM     83  C   UNL     1     -18.291  -1.718   4.933  1.00  0.00     0.134 A 
ATOM     84  C   UNL     1     -18.264  -2.256   7.267  1.00  0.00     0.134 A 
ATOM     85  F   UNL     1     -17.669  -1.466   3.772  1.00  0.00    -0.206 F 
ATOM     86  C   UNL     1     -19.684  -1.638   4.963  1.00  0.00     0.040 A 
ATOM     87  C   UNL     1     -19.658  -2.207   7.302  1.00  0.00     0.040 A 
ATOM     88  F   UNL     1     -17.617  -2.557   8.403  1.00  0.00    -0.206 F 
ATOM     89  C   UNL     1     -20.372  -1.890   6.149  1.00  0.00     0.006 A 
ENDBRANCH  65  82
ENDBRANCH  39  40
ENDBRANCH  31  34
ENDBRANCH  29  30
ENDBRANCH  28  29
ENDBRANCH   1  28
TORSDOF 14
