REMARK SMILES Cc1ccc(C(=O)NCCCCNC(=O)c2ccc(-c3c4nc(c(-c5c(F)cccc5F)c5ccc([nH]5)c(-c5c(F)cccc5F)c5nc(c(-c6c(F)cccc6F)c6ccc3[nH]6)C=C5)C=C4)cc2)cc1S(=O)(=O)N(CC1CC1)C(C)C
REMARK SMILES IDX 9 1 8 2 6 3 7 4 5 6 1 7 2 8 3 9 71 10 4 11 70 12 72 13 73 14
REMARK SMILES IDX 74 15 75 16 76 17 77 18 78 19 79 20 80 21 81 22 82 23 10 24
REMARK SMILES IDX 11 25 12 26 13 27 14 28 15 30 16 31 17 32 69 33 18 34 68 35
REMARK SMILES IDX 19 36 20 37 21 38 62 39 22 40 67 41 61 42 63 43 23 44 66 45
REMARK SMILES IDX 60 46 59 47 24 49 50 50 33 51 49 52 34 53 37 54 48 55 64 56
REMARK SMILES IDX 35 57 36 58 47 60 65 61 38 62 25 63 26 64 31 65 27 66 28 67
REMARK SMILES IDX 30 68 32 69 29 70 51 71 52 72 57 73 53 74 54 75 56 76 58 77
REMARK SMILES IDX 55 78 39 79 40 80 45 81 41 82 42 83 44 84 46 85 43 86
REMARK H PARENT 8 5 13 29 63 48 37 59
REMARK Flexibility Score: inf
ROOT
ATOM      1  C   UNL     1      -3.528   2.500  -0.034  1.00  0.00     0.116 C 
ENDROOT
BRANCH   1   2
ATOM      2  N   UNL     1      -3.829   1.103  -0.316  1.00  0.00    -0.352 N 
ATOM      3  C   UNL     1      -3.051  -0.019  -0.463  1.00  0.00     0.251 C 
ATOM      4  O   UNL     1      -3.636  -1.087  -0.658  1.00  0.00    -0.269 OA
ATOM      5  H   UNL     1      -4.792   0.927  -0.425  1.00  0.00     0.163 HD
BRANCH   3   6
ATOM      6  C   UNL     1      -1.563  -0.029  -0.336  1.00  0.00     0.041 A 
ATOM      7  C   UNL     1       2.630  -0.267   0.758  1.00  0.00     0.046 C 
ATOM      8  C   UNL     1       1.217  -0.118   0.280  1.00  0.00    -0.031 A 
ATOM      9  C   UNL     1       0.426  -1.285   0.277  1.00  0.00     0.005 A 
ATOM     10  C   UNL     1       0.618   1.075  -0.148  1.00  0.00     0.086 A 
ATOM     11  C   UNL     1      -0.946  -1.236   0.001  1.00  0.00     0.014 A 
ATOM     12  C   UNL     1      -0.750   1.089  -0.493  1.00  0.00     0.035 A 
BRANCH  10  13
ATOM     13  S   UNL     1       1.312   2.724   0.021  1.00  0.00     0.243 S 
ATOM     14  O   UNL     1       0.667   3.563  -0.954  1.00  0.00    -0.207 OA
ATOM     15  O   UNL     1       1.120   3.003   1.438  1.00  0.00    -0.207 OA
BRANCH  13  16
ATOM     16  N   UNL     1       2.965   2.694  -0.326  1.00  0.00    -0.195 NA
BRANCH  16  17
ATOM     17  C   UNL     1       3.474   2.102  -1.588  1.00  0.00     0.106 C 
BRANCH  17  18
ATOM     18  C   UNL     1       2.743   2.379  -2.868  1.00  0.00     0.004 C 
ATOM     19  C   UNL     1       2.306   3.721  -3.412  1.00  0.00     0.005 C 
ATOM     20  C   UNL     1       3.525   3.064  -3.975  1.00  0.00     0.005 C 
ENDBRANCH  17  18
ENDBRANCH  16  17
BRANCH  16  21
ATOM     21  C   UNL     1       3.864   3.776   0.229  1.00  0.00     0.067 C 
ATOM     22  C   UNL     1       3.844   5.048  -0.610  1.00  0.00     0.025 C 
ATOM     23  C   UNL     1       3.611   4.131   1.693  1.00  0.00     0.025 C 
ENDBRANCH  16  21
ENDBRANCH  13  16
ENDBRANCH  10  13
ENDBRANCH   3   6
ENDBRANCH   1   2
BRANCH   1  24
ATOM     24  C   UNL     1      -3.377   3.324  -1.325  1.00  0.00     0.023 C 
BRANCH  24  25
ATOM     25  C   UNL     1      -4.682   3.539  -2.098  1.00  0.00     0.023 C 
BRANCH  25  26
ATOM     26  C   UNL     1      -5.634   4.509  -1.416  1.00  0.00     0.116 C 
BRANCH  26  27
ATOM     27  N   UNL     1      -5.383   5.917  -1.692  1.00  0.00    -0.352 N 
ATOM     28  C   UNL     1      -5.894   7.047  -1.080  1.00  0.00     0.251 C 
ATOM     29  H   UNL     1      -4.752   6.090  -2.428  1.00  0.00     0.163 HD
ATOM     30  O   UNL     1      -5.633   8.154  -1.546  1.00  0.00    -0.269 OA
BRANCH  28  31
ATOM     31  C   UNL     1      -6.625   6.952   0.213  1.00  0.00     0.039 A 
ATOM     32  C   UNL     1      -6.398   7.954   1.169  1.00  0.00     0.014 A 
ATOM     33  C   UNL     1      -7.343   5.817   0.571  1.00  0.00     0.014 A 
ATOM     34  C   UNL     1      -6.639   7.692   2.515  1.00  0.00     0.010 A 
ATOM     35  C   UNL     1      -7.468   5.503   1.908  1.00  0.00     0.010 A 
ATOM     36  C   UNL     1      -7.048   6.415   2.880  1.00  0.00    -0.014 A 
BRANCH  36  37
ATOM     37  C   UNL     1      -6.962   5.885   4.233  1.00  0.00     0.031 A 
ATOM     38  C   UNL     1      -8.191   5.607   5.001  1.00  0.00     0.074 A 
ATOM     39  C   UNL     1      -5.755   5.469   4.683  1.00  0.00     0.049 A 
ATOM     40  N   UNL     1      -8.203   5.291   6.250  1.00  0.00    -0.248 NA
ATOM     41  C   UNL     1      -9.534   5.724   4.431  1.00  0.00     0.031 C 
ATOM     42  C   UNL     1      -5.478   4.543   5.778  1.00  0.00     0.029 A 
ATOM     43  N   UNL     1      -4.498   6.003   4.356  1.00  0.00    -0.354 N 
ATOM     44  C   UNL     1      -9.466   4.839   6.542  1.00  0.00     0.074 A 
ATOM     45  C   UNL     1     -10.284   5.271   5.440  1.00  0.00     0.031 C 
ATOM     46  C   UNL     1      -4.232   4.763   6.228  1.00  0.00     0.029 A 
ATOM     47  C   UNL     1      -3.747   5.954   5.553  1.00  0.00     0.049 A 
ATOM     48  H   UNL     1      -4.202   6.339   3.479  1.00  0.00     0.167 HD
ATOM     49  C   UNL     1      -9.626   4.003   7.602  1.00  0.00     0.037 A 
ATOM     50  C   UNL     1      -3.356   7.095   6.193  1.00  0.00     0.037 A 
ATOM     51  C   UNL     1      -8.457   4.044   8.480  1.00  0.00     0.049 A 
ATOM     52  C   UNL     1      -3.869   7.213   7.610  1.00  0.00     0.074 A 
ATOM     53  C   UNL     1      -7.430   3.158   8.748  1.00  0.00     0.029 A 
ATOM     54  N   UNL     1      -8.086   5.263   9.043  1.00  0.00    -0.354 N 
ATOM     55  N   UNL     1      -4.889   6.544   8.073  1.00  0.00    -0.248 NA
ATOM     56  C   UNL     1      -3.288   8.106   8.610  1.00  0.00     0.031 C 
ATOM     57  C   UNL     1      -6.378   3.893   9.363  1.00  0.00     0.029 A 
ATOM     58  C   UNL     1      -6.793   5.206   9.521  1.00  0.00     0.049 A 
ATOM     59  H   UNL     1      -8.666   6.057   9.093  1.00  0.00     0.167 HD
ATOM     60  C   UNL     1      -5.123   6.907   9.373  1.00  0.00     0.074 A 
ATOM     61  C   UNL     1      -4.083   7.874   9.669  1.00  0.00     0.031 C 
ATOM     62  C   UNL     1      -6.163   6.390  10.092  1.00  0.00     0.037 A 
BRANCH  49  63
ATOM     63  C   UNL     1     -10.746   2.994   7.742  1.00  0.00     0.057 A 
ATOM     64  C   UNL     1     -10.871   2.237   8.923  1.00  0.00     0.134 A 
ATOM     65  C   UNL     1     -11.633   2.610   6.714  1.00  0.00     0.134 A 
ATOM     66  F   UNL     1     -10.083   2.465   9.984  1.00  0.00    -0.206 F 
ATOM     67  C   UNL     1     -11.796   1.189   9.065  1.00  0.00     0.040 A 
ATOM     68  C   UNL     1     -12.597   1.603   6.862  1.00  0.00     0.040 A 
ATOM     69  F   UNL     1     -11.580   3.133   5.484  1.00  0.00    -0.206 F 
ATOM     70  C   UNL     1     -12.672   0.876   8.036  1.00  0.00     0.006 A 
ENDBRANCH  49  63
BRANCH  50  71
ATOM     71  C   UNL     1      -3.132   8.236   5.265  1.00  0.00     0.057 A 
ATOM     72  C   UNL     1      -2.104   8.129   4.311  1.00  0.00     0.134 A 
ATOM     73  C   UNL     1      -4.119   9.198   5.033  1.00  0.00     0.134 A 
ATOM     74  F   UNL     1      -1.122   7.230   4.479  1.00  0.00    -0.206 F 
ATOM     75  C   UNL     1      -2.128   8.852   3.116  1.00  0.00     0.040 A 
ATOM     76  C   UNL     1      -4.142   9.943   3.847  1.00  0.00     0.040 A 
ATOM     77  F   UNL     1      -5.142   9.347   5.887  1.00  0.00    -0.206 F 
ATOM     78  C   UNL     1      -3.172   9.738   2.866  1.00  0.00     0.006 A 
ENDBRANCH  50  71
BRANCH  62  79
ATOM     79  C   UNL     1      -6.642   6.906  11.426  1.00  0.00     0.057 A 
ATOM     80  C   UNL     1      -6.544   8.245  11.835  1.00  0.00     0.134 A 
ATOM     81  C   UNL     1      -7.372   6.067  12.297  1.00  0.00     0.134 A 
ATOM     82  F   UNL     1      -5.982   9.178  11.054  1.00  0.00    -0.206 F 
ATOM     83  C   UNL     1      -7.074   8.702  13.050  1.00  0.00     0.040 A 
ATOM     84  C   UNL     1      -7.950   6.524  13.485  1.00  0.00     0.040 A 
ATOM     85  F   UNL     1      -7.575   4.771  12.018  1.00  0.00    -0.206 F 
ATOM     86  C   UNL     1      -7.788   7.844  13.875  1.00  0.00     0.006 A 
ENDBRANCH  62  79
ENDBRANCH  36  37
ENDBRANCH  28  31
ENDBRANCH  26  27
ENDBRANCH  25  26
ENDBRANCH  24  25
ENDBRANCH   1  24
TORSDOF 16
