REMARK SMILES O=C(NCCCCNC(=O)c1ccc(-c2c3nc(c(-c4c(F)cccc4F)c4ccc([nH]4)c(-c4c(F)cccc4F)c4nc(c(-c5c(F)cccc5F)c5ccc2[nH]5)C=C4)C=C3)cc1)C1=Cc2c(ccc(Cl)c2Cl)O[C@H]1C(F)(F)F
REMARK SMILES IDX 6 1 5 2 4 3 3 4 1 5 2 6 65 8 66 9 76 10 67 11 75 12 68 13
REMARK SMILES IDX 73 14 69 15 71 16 74 17 70 18 72 19 77 20 78 21 79 22 80 23
REMARK SMILES IDX 7 24 8 25 9 26 10 28 11 29 12 30 64 31 13 32 63 33 14 34
REMARK SMILES IDX 15 35 16 36 57 37 17 38 62 39 56 40 58 41 18 42 61 43 55 44
REMARK SMILES IDX 54 45 19 47 45 48 28 49 44 50 29 51 32 52 43 53 59 54 30 55
REMARK SMILES IDX 31 56 42 58 60 59 33 60 20 61 21 62 26 63 22 64 23 65 25 66
REMARK SMILES IDX 27 67 24 68 46 69 47 70 52 71 48 72 49 73 51 74 53 75 50 76
REMARK SMILES IDX 34 77 35 78 40 79 36 80 37 81 39 82 41 83 38 84
REMARK H PARENT 3 7 8 27 58 46 32 57
REMARK Flexibility Score: inf
ROOT
ATOM      1  C   UNL     1       3.785   2.832  -3.087  1.00  0.00     0.023 C 
ENDROOT
BRANCH   1   2
ATOM      2  C   UNL     1       4.132   1.372  -2.813  1.00  0.00     0.023 C 
BRANCH   2   3
ATOM      3  C   UNL     1       3.911   0.892  -1.385  1.00  0.00     0.116 C 
BRANCH   3   4
ATOM      4  N   UNL     1       2.539   0.561  -1.044  1.00  0.00    -0.352 N 
ATOM      5  O   UNL     1       0.879  -0.423   0.130  1.00  0.00    -0.270 OA
ATOM      6  C   UNL     1       2.077  -0.199   0.002  1.00  0.00     0.251 C 
ATOM      7  H   UNL     1       1.849   0.930  -1.642  1.00  0.00     0.163 HD
BRANCH   6   8
ATOM      8  C   UNL     1       3.041  -0.775   0.981  1.00  0.00     0.067 C 
ATOM      9  C   UNL     1       3.536   0.114   1.857  1.00  0.00     0.027 C 
ATOM     10  C   UNL     1       3.842  -1.951   0.491  1.00  0.00     0.314 C 
ATOM     11  C   UNL     1       4.975   0.386   1.688  1.00  0.00     0.037 A 
ATOM     12  O   UNL     1       5.285  -1.768   0.583  1.00  0.00    -0.475 OA
ATOM     13  C   UNL     1       5.755  -0.549   0.993  1.00  0.00     0.129 A 
ATOM     14  C   UNL     1       5.518   1.644   2.022  1.00  0.00     0.070 A 
ATOM     15  C   UNL     1       7.053  -0.229   0.604  1.00  0.00     0.049 A 
ATOM     16  C   UNL     1       6.813   1.968   1.598  1.00  0.00     0.060 A 
ATOM     17  Cl  UNL     1       4.543   2.809   2.866  1.00  0.00    -0.082 Cl
ATOM     18  C   UNL     1       7.571   1.037   0.881  1.00  0.00     0.026 A 
ATOM     19  Cl  UNL     1       7.511   3.526   1.868  1.00  0.00    -0.083 Cl
BRANCH  10  20
ATOM     20  C   UNL     1       3.418  -3.256   1.201  1.00  0.00     0.429 C 
ATOM     21  F   UNL     1       2.533  -3.051   2.204  1.00  0.00    -0.167 F 
ATOM     22  F   UNL     1       2.841  -4.114   0.325  1.00  0.00    -0.167 F 
ATOM     23  F   UNL     1       4.476  -3.904   1.746  1.00  0.00    -0.167 F 
ENDBRANCH  10  20
ENDBRANCH   6   8
ENDBRANCH   3   4
ENDBRANCH   2   3
ENDBRANCH   1   2
BRANCH   1  24
ATOM     24  C   UNL     1       4.418   3.877  -2.167  1.00  0.00     0.116 C 
BRANCH  24  25
ATOM     25  N   UNL     1       5.867   3.796  -2.053  1.00  0.00    -0.352 N 
ATOM     26  C   UNL     1       6.817   4.802  -2.080  1.00  0.00     0.251 C 
ATOM     27  H   UNL     1       6.227   2.887  -1.938  1.00  0.00     0.163 HD
ATOM     28  O   UNL     1       7.998   4.528  -1.991  1.00  0.00    -0.269 OA
BRANCH  26  29
ATOM     29  C   UNL     1       6.391   6.207  -2.305  1.00  0.00     0.039 A 
ATOM     30  C   UNL     1       7.026   6.938  -3.314  1.00  0.00     0.014 A 
ATOM     31  C   UNL     1       5.323   6.767  -1.601  1.00  0.00     0.014 A 
ATOM     32  C   UNL     1       6.495   8.165  -3.718  1.00  0.00     0.010 A 
ATOM     33  C   UNL     1       4.751   7.955  -2.052  1.00  0.00     0.010 A 
ATOM     34  C   UNL     1       5.304   8.641  -3.145  1.00  0.00    -0.014 A 
BRANCH  34  35
ATOM     35  C   UNL     1       4.560   9.774  -3.753  1.00  0.00     0.031 A 
ATOM     36  C   UNL     1       4.327  11.048  -2.996  1.00  0.00     0.074 A 
ATOM     37  C   UNL     1       3.991   9.605  -4.965  1.00  0.00     0.049 A 
ATOM     38  N   UNL     1       3.628  12.098  -3.346  1.00  0.00    -0.248 NA
ATOM     39  C   UNL     1       4.935  11.144  -1.662  1.00  0.00     0.031 C 
ATOM     40  C   UNL     1       4.074   8.387  -5.776  1.00  0.00     0.029 A 
ATOM     41  N   UNL     1       3.213  10.450  -5.717  1.00  0.00    -0.354 N 
ATOM     42  C   UNL     1       3.700  12.975  -2.273  1.00  0.00     0.074 A 
ATOM     43  C   UNL     1       4.477  12.315  -1.243  1.00  0.00     0.031 C 
ATOM     44  C   UNL     1       3.389   8.569  -6.915  1.00  0.00     0.029 A 
ATOM     45  C   UNL     1       2.791   9.899  -6.902  1.00  0.00     0.049 A 
ATOM     46  H   UNL     1       2.980  11.363  -5.433  1.00  0.00     0.167 HD
ATOM     47  C   UNL     1       3.182  14.221  -2.161  1.00  0.00     0.037 A 
ATOM     48  C   UNL     1       2.002  10.401  -7.870  1.00  0.00     0.037 A 
ATOM     49  C   UNL     1       2.425  14.887  -3.189  1.00  0.00     0.049 A 
ATOM     50  C   UNL     1       1.447  11.788  -7.730  1.00  0.00     0.074 A 
ATOM     51  C   UNL     1       1.939  16.184  -3.200  1.00  0.00     0.029 A 
ATOM     52  N   UNL     1       2.036  14.305  -4.386  1.00  0.00    -0.354 N 
ATOM     53  N   UNL     1       1.597  12.638  -6.745  1.00  0.00    -0.248 NA
ATOM     54  C   UNL     1       0.614  12.284  -8.834  1.00  0.00     0.031 C 
ATOM     55  C   UNL     1       1.224  16.374  -4.389  1.00  0.00     0.029 A 
ATOM     56  C   UNL     1       1.292  15.206  -5.131  1.00  0.00     0.049 A 
ATOM     57  H   UNL     1       2.255  13.387  -4.665  1.00  0.00     0.167 HD
ATOM     58  C   UNL     1       0.885  13.771  -7.110  1.00  0.00     0.074 A 
ATOM     59  C   UNL     1       0.318  13.508  -8.417  1.00  0.00     0.031 C 
ATOM     60  C   UNL     1       0.717  14.926  -6.422  1.00  0.00     0.037 A 
BRANCH  47  61
ATOM     61  C   UNL     1       3.426  14.948  -0.873  1.00  0.00     0.057 A 
ATOM     62  C   UNL     1       4.689  15.458  -0.546  1.00  0.00     0.134 A 
ATOM     63  C   UNL     1       2.388  15.149   0.044  1.00  0.00     0.134 A 
ATOM     64  F   UNL     1       5.727  15.287  -1.378  1.00  0.00    -0.206 F 
ATOM     65  C   UNL     1       4.918  16.119   0.662  1.00  0.00     0.040 A 
ATOM     66  C   UNL     1       2.600  15.827   1.246  1.00  0.00     0.040 A 
ATOM     67  F   UNL     1       1.154  14.690  -0.211  1.00  0.00    -0.206 F 
ATOM     68  C   UNL     1       3.870  16.307   1.561  1.00  0.00     0.006 A 
ENDBRANCH  47  61
BRANCH  48  69
ATOM     69  C   UNL     1       1.704   9.582  -9.069  1.00  0.00     0.057 A 
ATOM     70  C   UNL     1       2.323   9.850 -10.294  1.00  0.00     0.134 A 
ATOM     71  C   UNL     1       0.816   8.502  -9.013  1.00  0.00     0.134 A 
ATOM     72  F   UNL     1       3.170  10.883 -10.410  1.00  0.00    -0.206 F 
ATOM     73  C   UNL     1       2.067   9.075 -11.426  1.00  0.00     0.040 A 
ATOM     74  C   UNL     1       0.563   7.707 -10.132  1.00  0.00     0.040 A 
ATOM     75  F   UNL     1       0.198   8.192  -7.864  1.00  0.00    -0.206 F 
ATOM     76  C   UNL     1       1.188   7.996 -11.344  1.00  0.00     0.006 A 
ENDBRANCH  48  69
BRANCH  60  77
ATOM     77  C   UNL     1      -0.119  15.989  -7.069  1.00  0.00     0.057 A 
ATOM     78  C   UNL     1      -1.515  15.894  -7.112  1.00  0.00     0.134 A 
ATOM     79  C   UNL     1       0.473  17.128  -7.627  1.00  0.00     0.134 A 
ATOM     80  F   UNL     1      -2.140  14.818  -6.610  1.00  0.00    -0.206 F 
ATOM     81  C   UNL     1      -2.294  16.891  -7.701  1.00  0.00     0.040 A 
ATOM     82  C   UNL     1      -0.296  18.141  -8.201  1.00  0.00     0.040 A 
ATOM     83  F   UNL     1       1.806  17.278  -7.614  1.00  0.00    -0.206 F 
ATOM     84  C   UNL     1      -1.685  18.022  -8.242  1.00  0.00     0.006 A 
ENDBRANCH  60  77
ENDBRANCH  34  35
ENDBRANCH  26  29
ENDBRANCH  24  25
ENDBRANCH   1  24
TORSDOF 12
