REMARK SMILES CC[C@@](C)(NS(=O)(=O)c1ccc(F)c(Cl)c1)C(=O)NCCCCNC(=O)c1ccc(-c2c3nc(c(-c4c(F)cccc4F)c4ccc([nH]4)c(-c4c(F)cccc4F)c4nc(c(-c5c(F)cccc5F)c5ccc2[nH]5)C=C4)C=C3)cc1
REMARK SMILES IDX 21 1 20 2 19 3 17 4 18 5 3 7 4 8 2 9 1 10 5 11 6 13 7 14
REMARK SMILES IDX 8 15 9 16 10 17 16 18 11 19 14 20 12 21 15 22 13 23 22 24
REMARK SMILES IDX 23 25 24 26 25 27 26 29 27 30 28 31 80 32 29 33 79 34 30 35
REMARK SMILES IDX 31 36 32 37 73 38 33 39 78 40 72 41 74 42 34 43 77 44 71 45
REMARK SMILES IDX 70 46 35 48 61 49 44 50 60 51 45 52 48 53 59 54 75 55 46 56
REMARK SMILES IDX 47 57 58 59 76 60 49 61 36 62 37 63 42 64 38 65 39 66 41 67
REMARK SMILES IDX 43 68 40 69 62 70 63 71 68 72 64 73 65 74 67 75 69 76 66 77
REMARK SMILES IDX 50 78 51 79 56 80 52 81 53 82 55 83 57 84 54 85
REMARK H PARENT 19 6 5 12 24 28 74 47 48 58
REMARK Flexibility Score: inf
ROOT
ATOM      1  C   UNL     1       1.945  -1.570   6.308  1.00  0.00     0.023 C 
ENDROOT
BRANCH   1   2
ATOM      2  C   UNL     1       1.621  -0.466   5.288  1.00  0.00     0.116 C 
BRANCH   2   3
ATOM      3  N   UNL     1       2.354  -0.461   4.026  1.00  0.00    -0.354 N 
ATOM      4  C   UNL     1       2.020  -0.519   2.703  1.00  0.00     0.241 C 
ATOM      5  O   UNL     1       2.870   0.007   1.968  1.00  0.00    -0.273 OA
ATOM      6  H   UNL     1       3.328  -0.400   4.162  1.00  0.00     0.163 HD
BRANCH   4   7
ATOM      7  C   UNL     1       0.827  -1.286   2.076  1.00  0.00     0.108 C 
ATOM      8  C   UNL     1      -0.495  -0.944   2.764  1.00  0.00     0.040 C 
BRANCH   7   9
ATOM      9  C   UNL     1       0.668  -0.923   0.536  1.00  0.00     0.030 C 
ATOM     10  C   UNL     1       0.728   0.519   0.069  1.00  0.00     0.006 C 
ENDBRANCH   7   9
BRANCH   7  11
ATOM     11  N   UNL     1       1.014  -2.762   1.934  1.00  0.00    -0.196 NA
ATOM     12  H   UNL     1       1.682  -2.846   1.168  1.00  0.00     0.142 HD
BRANCH  11  13
ATOM     13  S   UNL     1       1.502  -3.920   2.998  1.00  0.00     0.241 S 
ATOM     14  O   UNL     1       1.009  -3.583   4.304  1.00  0.00    -0.207 OA
ATOM     15  O   UNL     1       1.069  -5.146   2.354  1.00  0.00    -0.207 OA
BRANCH  13  16
ATOM     16  C   UNL     1       3.278  -4.034   3.057  1.00  0.00     0.084 A 
ATOM     17  C   UNL     1       3.837  -5.276   3.394  1.00  0.00     0.025 A 
ATOM     18  C   UNL     1       4.128  -2.952   2.853  1.00  0.00     0.045 A 
ATOM     19  C   UNL     1       5.216  -5.400   3.597  1.00  0.00     0.042 A 
ATOM     20  C   UNL     1       5.493  -3.054   3.132  1.00  0.00     0.078 A 
ATOM     21  C   UNL     1       6.033  -4.279   3.500  1.00  0.00     0.141 A 
ATOM     22  Cl  UNL     1       6.467  -1.634   3.094  1.00  0.00    -0.081 Cl
ATOM     23  F   UNL     1       7.339  -4.398   3.775  1.00  0.00    -0.205 F 
ENDBRANCH  13  16
ENDBRANCH  11  13
ENDBRANCH   7  11
ENDBRANCH   4   7
ENDBRANCH   2   3
ENDBRANCH   1   2
BRANCH   1  24
ATOM     24  C   UNL     1       3.389  -2.059   6.411  1.00  0.00     0.023 C 
BRANCH  24  25
ATOM     25  C   UNL     1       4.338  -1.098   7.110  1.00  0.00     0.116 C 
BRANCH  25  26
ATOM     26  N   UNL     1       4.018  -0.972   8.524  1.00  0.00    -0.352 N 
ATOM     27  C   UNL     1       4.788  -1.238   9.628  1.00  0.00     0.251 C 
ATOM     28  H   UNL     1       3.109  -0.646   8.719  1.00  0.00     0.163 HD
ATOM     29  O   UNL     1       4.255  -1.333  10.730  1.00  0.00    -0.269 OA
BRANCH  27  30
ATOM     30  C   UNL     1       6.254  -1.396   9.507  1.00  0.00     0.039 A 
ATOM     31  C   UNL     1       6.913  -2.301  10.346  1.00  0.00     0.014 A 
ATOM     32  C   UNL     1       6.992  -0.602   8.624  1.00  0.00     0.014 A 
ATOM     33  C   UNL     1       8.303  -2.421  10.285  1.00  0.00     0.010 A 
ATOM     34  C   UNL     1       8.364  -0.786   8.501  1.00  0.00     0.010 A 
ATOM     35  C   UNL     1       9.038  -1.669   9.356  1.00  0.00    -0.014 A 
BRANCH  35  36
ATOM     36  C   UNL     1      10.519  -1.728   9.312  1.00  0.00     0.031 A 
ATOM     37  C   UNL     1      11.321  -0.497   9.643  1.00  0.00     0.074 A 
ATOM     38  C   UNL     1      11.136  -2.859   8.925  1.00  0.00     0.049 A 
ATOM     39  N   UNL     1      12.616  -0.313   9.598  1.00  0.00    -0.248 NA
ATOM     40  C   UNL     1      10.562   0.699  10.048  1.00  0.00     0.031 C 
ATOM     41  C   UNL     1      10.464  -4.098   8.532  1.00  0.00     0.029 A 
ATOM     42  N   UNL     1      12.470  -3.147   8.791  1.00  0.00    -0.354 N 
ATOM     43  C   UNL     1      12.820   1.017   9.946  1.00  0.00     0.074 A 
ATOM     44  C   UNL     1      11.517   1.611  10.138  1.00  0.00     0.031 C 
ATOM     45  C   UNL     1      11.390  -5.020   8.222  1.00  0.00     0.029 A 
ATOM     46  C   UNL     1      12.716  -4.428   8.362  1.00  0.00     0.049 A 
ATOM     47  H   UNL     1      13.184  -2.496   8.983  1.00  0.00     0.167 HD
ATOM     48  C   UNL     1      13.990   1.676  10.121  1.00  0.00     0.037 A 
ATOM     49  C   UNL     1      13.883  -5.050   8.109  1.00  0.00     0.037 A 
ATOM     50  C   UNL     1      15.284   1.069   9.962  1.00  0.00     0.049 A 
ATOM     51  C   UNL     1      15.170  -4.301   8.320  1.00  0.00     0.074 A 
ATOM     52  C   UNL     1      16.532   1.627  10.171  1.00  0.00     0.029 A 
ATOM     53  N   UNL     1      15.492  -0.241   9.555  1.00  0.00    -0.354 N 
ATOM     54  N   UNL     1      15.351  -3.063   8.714  1.00  0.00    -0.248 NA
ATOM     55  C   UNL     1      16.414  -5.037   8.061  1.00  0.00     0.031 C 
ATOM     56  C   UNL     1      17.497   0.666   9.852  1.00  0.00     0.029 A 
ATOM     57  C   UNL     1      16.849  -0.505   9.490  1.00  0.00     0.049 A 
ATOM     58  H   UNL     1      14.779  -0.887   9.343  1.00  0.00     0.167 HD
ATOM     59  C   UNL     1      16.726  -2.880   8.775  1.00  0.00     0.074 A 
ATOM     60  C   UNL     1      17.331  -4.140   8.393  1.00  0.00     0.031 C 
ATOM     61  C   UNL     1      17.427  -1.770   9.114  1.00  0.00     0.037 A 
BRANCH  48  62
ATOM     62  C   UNL     1      13.916   3.124  10.514  1.00  0.00     0.057 A 
ATOM     63  C   UNL     1      13.459   3.526  11.777  1.00  0.00     0.134 A 
ATOM     64  C   UNL     1      14.323   4.130   9.627  1.00  0.00     0.134 A 
ATOM     65  F   UNL     1      13.041   2.615  12.669  1.00  0.00    -0.206 F 
ATOM     66  C   UNL     1      13.379   4.873  12.132  1.00  0.00     0.040 A 
ATOM     67  C   UNL     1      14.275   5.479   9.982  1.00  0.00     0.040 A 
ATOM     68  F   UNL     1      14.776   3.818   8.404  1.00  0.00    -0.206 F 
ATOM     69  C   UNL     1      13.795   5.855  11.235  1.00  0.00     0.006 A 
ENDBRANCH  48  62
BRANCH  49  70
ATOM     70  C   UNL     1      13.887  -6.465   7.658  1.00  0.00     0.057 A 
ATOM     71  C   UNL     1      14.339  -7.489   8.498  1.00  0.00     0.134 A 
ATOM     72  C   UNL     1      13.437  -6.828   6.383  1.00  0.00     0.134 A 
ATOM     73  F   UNL     1      14.797  -7.202   9.725  1.00  0.00    -0.206 F 
ATOM     74  C   UNL     1      14.362  -8.821   8.081  1.00  0.00     0.040 A 
ATOM     75  C   UNL     1      13.431  -8.159   5.962  1.00  0.00     0.040 A 
ATOM     76  F   UNL     1      12.984  -5.895   5.533  1.00  0.00    -0.206 F 
ATOM     77  C   UNL     1      13.901  -9.159   6.811  1.00  0.00     0.006 A 
ENDBRANCH  49  70
BRANCH  61  78
ATOM     78  C   UNL     1      18.923  -1.880   9.120  1.00  0.00     0.057 A 
ATOM     79  C   UNL     1      19.662  -1.954   7.933  1.00  0.00     0.134 A 
ATOM     80  C   UNL     1      19.633  -1.868  10.327  1.00  0.00     0.134 A 
ATOM     81  F   UNL     1      19.040  -1.981   6.744  1.00  0.00    -0.206 F 
ATOM     82  C   UNL     1      21.055  -2.034   7.948  1.00  0.00     0.040 A 
ATOM     83  C   UNL     1      21.026  -1.921  10.354  1.00  0.00     0.040 A 
ATOM     84  F   UNL     1      18.984  -1.789  11.499  1.00  0.00    -0.206 F 
ATOM     85  C   UNL     1      21.741  -2.010   9.161  1.00  0.00     0.006 A 
ENDBRANCH  61  78
ENDBRANCH  35  36
ENDBRANCH  27  30
ENDBRANCH  25  26
ENDBRANCH  24  25
ENDBRANCH   1  24
TORSDOF 15
