REMARK SMILES Cc1ccc([C@@H](CC(=O)NCCCCNC(=O)c2ccc(-c3c4nc(c(-c5c(F)cccc5F)c5ccc([nH]5)c(-c5c(F)cccc5F)c5nc(c(-c6c(F)cccc6F)c6ccc3[nH]6)C=C5)C=C4)cc2)NC(=O)c2ccc(OC(F)F)cc2)cc1
REMARK SMILES IDX 11 1 10 2 8 3 9 4 7 6 6 7 5 8 1 9 2 10 3 11 86 12 4 13 85 14
REMARK SMILES IDX 72 15 73 16 74 18 75 19 76 20 84 21 77 22 83 23 78 24 79 25
REMARK SMILES IDX 80 26 81 27 82 28 12 29 13 30 14 31 15 32 16 33 17 35 18 36
REMARK SMILES IDX 19 37 71 38 20 39 70 40 21 41 22 42 23 43 64 44 24 45 69 46
REMARK SMILES IDX 63 47 65 48 25 49 68 50 62 51 61 52 26 54 52 55 35 56 51 57
REMARK SMILES IDX 36 58 39 59 50 60 66 61 37 62 38 63 49 65 67 66 40 67 27 68
REMARK SMILES IDX 28 69 33 70 29 71 30 72 32 73 34 74 31 75 53 76 54 77 59 78
REMARK SMILES IDX 55 79 56 80 58 81 60 82 57 83 41 84 42 85 47 86 43 87 44 88
REMARK SMILES IDX 46 89 48 90 45 91
REMARK H PARENT 10 5 72 17 15 34 65 53 39 64
REMARK Flexibility Score: inf
ROOT
ATOM      1  C   UNL     1      -0.915  -2.654  -0.943  1.00  0.00     0.116 C 
ENDROOT
BRANCH   1   2
ATOM      2  N   UNL     1      -2.344  -2.815  -1.186  1.00  0.00    -0.356 N 
ATOM      3  C   UNL     1      -3.378  -1.931  -1.203  1.00  0.00     0.222 C 
ATOM      4  O   UNL     1      -4.521  -2.397  -1.253  1.00  0.00    -0.275 OA
ATOM      5  H   UNL     1      -2.612  -3.744  -1.373  1.00  0.00     0.163 HD
BRANCH   3   6
ATOM      6  C   UNL     1      -3.171  -0.432  -1.250  1.00  0.00     0.129 C 
BRANCH   6   7
ATOM      7  C   UNL     1      -3.183   0.343   0.088  1.00  0.00     0.122 C 
BRANCH   7   8
ATOM      8  C   UNL     1      -1.761   0.796   0.419  1.00  0.00    -0.025 A 
ATOM      9  C   UNL     1       2.505   1.434   0.480  1.00  0.00     0.044 C 
ATOM     10  C   UNL     1       1.013   1.319   0.559  1.00  0.00    -0.051 A 
ATOM     11  C   UNL     1       0.420   0.386   1.410  1.00  0.00     0.004 A 
ATOM     12  C   UNL     1       0.195   2.079  -0.280  1.00  0.00     0.004 A 
ATOM     13  C   UNL     1      -0.957   0.149   1.360  1.00  0.00     0.006 A 
ATOM     14  C   UNL     1      -1.178   1.823  -0.346  1.00  0.00     0.006 A 
ENDBRANCH   7   8
BRANCH   7  15
ATOM     15  N   UNL     1      -3.825  -0.361   1.195  1.00  0.00    -0.345 N 
ATOM     16  C   UNL     1      -4.939  -0.026   1.922  1.00  0.00     0.251 C 
ATOM     17  H   UNL     1      -3.392  -1.205   1.460  1.00  0.00     0.164 HD
ATOM     18  O   UNL     1      -5.094  -0.506   3.043  1.00  0.00    -0.269 OA
BRANCH  16  19
ATOM     19  C   UNL     1      -5.973   0.876   1.368  1.00  0.00     0.040 A 
ATOM     20  C   UNL     1      -6.598   1.803   2.208  1.00  0.00     0.017 A 
ATOM     21  C   UNL     1      -6.425   0.724   0.056  1.00  0.00     0.017 A 
ATOM     22  C   UNL     1      -7.631   2.606   1.713  1.00  0.00     0.047 A 
ATOM     23  C   UNL     1      -7.447   1.540  -0.440  1.00  0.00     0.047 A 
ATOM     24  C   UNL     1      -8.053   2.490   0.384  1.00  0.00     0.126 A 
BRANCH  24  25
ATOM     25  O   UNL     1      -9.069   3.331   0.029  1.00  0.00    -0.435 OA
BRANCH  25  26
ATOM     26  C   UNL     1      -9.469   3.361  -1.335  1.00  0.00     0.542 C 
ATOM     27  F   UNL     1      -8.409   3.669  -2.122  1.00  0.00    -0.167 F 
ATOM     28  F   UNL     1      -9.939   2.147  -1.710  1.00  0.00    -0.167 F 
ENDBRANCH  25  26
ENDBRANCH  24  25
ENDBRANCH  16  19
ENDBRANCH   7  15
ENDBRANCH   6   7
ENDBRANCH   3   6
ENDBRANCH   1   2
BRANCH   1  29
ATOM     29  C   UNL     1      -0.561  -3.068   0.494  1.00  0.00     0.023 C 
BRANCH  29  30
ATOM     30  C   UNL     1       0.411  -4.228   0.742  1.00  0.00     0.023 C 
BRANCH  30  31
ATOM     31  C   UNL     1       1.816  -4.148   0.151  1.00  0.00     0.116 C 
BRANCH  31  32
ATOM     32  N   UNL     1       2.551  -2.904   0.424  1.00  0.00    -0.352 N 
ATOM     33  C   UNL     1       3.633  -2.377  -0.270  1.00  0.00     0.251 C 
ATOM     34  H   UNL     1       2.238  -2.379   1.196  1.00  0.00     0.163 HD
ATOM     35  O   UNL     1       4.399  -1.566   0.251  1.00  0.00    -0.269 OA
BRANCH  33  36
ATOM     36  C   UNL     1       3.820  -2.752  -1.683  1.00  0.00     0.039 A 
ATOM     37  C   UNL     1       5.060  -2.868  -2.330  1.00  0.00     0.014 A 
ATOM     38  C   UNL     1       2.648  -2.946  -2.391  1.00  0.00     0.014 A 
ATOM     39  C   UNL     1       5.089  -3.193  -3.694  1.00  0.00     0.010 A 
ATOM     40  C   UNL     1       2.685  -3.541  -3.610  1.00  0.00     0.010 A 
ATOM     41  C   UNL     1       3.884  -3.510  -4.323  1.00  0.00    -0.014 A 
BRANCH  41  42
ATOM     42  C   UNL     1       3.613  -3.586  -5.753  1.00  0.00     0.031 A 
ATOM     43  C   UNL     1       3.765  -4.821  -6.521  1.00  0.00     0.074 A 
ATOM     44  C   UNL     1       2.772  -2.608  -6.165  1.00  0.00     0.049 A 
ATOM     45  N   UNL     1       3.546  -4.904  -7.786  1.00  0.00    -0.248 NA
ATOM     46  C   UNL     1       4.145  -6.084  -5.911  1.00  0.00     0.031 C 
ATOM     47  C   UNL     1       1.784  -2.606  -7.231  1.00  0.00     0.029 A 
ATOM     48  N   UNL     1       2.649  -1.334  -5.601  1.00  0.00    -0.354 N 
ATOM     49  C   UNL     1       3.456  -6.238  -8.108  1.00  0.00     0.074 A 
ATOM     50  C   UNL     1       3.924  -6.929  -6.925  1.00  0.00     0.031 C 
ATOM     51  C   UNL     1       1.377  -1.337  -7.432  1.00  0.00     0.029 A 
ATOM     52  C   UNL     1       2.231  -0.475  -6.627  1.00  0.00     0.049 A 
ATOM     53  H   UNL     1       2.823  -1.087  -4.664  1.00  0.00     0.167 HD
ATOM     54  C   UNL     1       2.872  -6.587  -9.295  1.00  0.00     0.037 A 
ATOM     55  C   UNL     1       3.174   0.398  -7.101  1.00  0.00     0.037 A 
ATOM     56  C   UNL     1       2.460  -5.387 -10.041  1.00  0.00     0.049 A 
ATOM     57  C   UNL     1       3.680   0.018  -8.480  1.00  0.00     0.074 A 
ATOM     58  C   UNL     1       1.265  -4.702 -10.197  1.00  0.00     0.029 A 
ATOM     59  N   UNL     1       3.443  -4.527 -10.495  1.00  0.00    -0.354 N 
ATOM     60  N   UNL     1       3.253  -1.008  -9.167  1.00  0.00    -0.248 NA
ATOM     61  C   UNL     1       4.761   0.726  -9.162  1.00  0.00     0.031 C 
ATOM     62  C   UNL     1       1.569  -3.381 -10.660  1.00  0.00     0.029 A 
ATOM     63  C   UNL     1       2.942  -3.277 -10.810  1.00  0.00     0.049 A 
ATOM     64  H   UNL     1       4.391  -4.776 -10.585  1.00  0.00     0.167 HD
ATOM     65  C   UNL     1       4.014  -1.162 -10.287  1.00  0.00     0.074 A 
ATOM     66  C   UNL     1       4.932  -0.035 -10.257  1.00  0.00     0.031 C 
ATOM     67  C   UNL     1       3.884  -2.215 -11.144  1.00  0.00     0.037 A 
BRANCH  54  68
ATOM     68  C   UNL     1       2.486  -7.992  -9.712  1.00  0.00     0.057 A 
ATOM     69  C   UNL     1       1.521  -8.202 -10.719  1.00  0.00     0.134 A 
ATOM     70  C   UNL     1       3.016  -9.180  -9.176  1.00  0.00     0.134 A 
ATOM     71  F   UNL     1       0.979  -7.183 -11.398  1.00  0.00    -0.206 F 
ATOM     72  C   UNL     1       1.065  -9.476 -11.094  1.00  0.00     0.040 A 
ATOM     73  C   UNL     1       2.534 -10.458  -9.503  1.00  0.00     0.040 A 
ATOM     74  F   UNL     1       4.076  -9.181  -8.363  1.00  0.00    -0.206 F 
ATOM     75  C   UNL     1       1.550 -10.610 -10.464  1.00  0.00     0.006 A 
ENDBRANCH  54  68
BRANCH  55  76
ATOM     76  C   UNL     1       4.020   0.920  -5.970  1.00  0.00     0.057 A 
ATOM     77  C   UNL     1       3.368   1.632  -4.940  1.00  0.00     0.134 A 
ATOM     78  C   UNL     1       5.246   0.325  -5.642  1.00  0.00     0.134 A 
ATOM     79  F   UNL     1       2.183   2.219  -5.174  1.00  0.00    -0.206 F 
ATOM     80  C   UNL     1       3.828   1.613  -3.619  1.00  0.00     0.040 A 
ATOM     81  C   UNL     1       5.724   0.318  -4.324  1.00  0.00     0.040 A 
ATOM     82  F   UNL     1       5.931  -0.379  -6.555  1.00  0.00    -0.206 F 
ATOM     83  C   UNL     1       4.990   0.918  -3.302  1.00  0.00     0.006 A 
ENDBRANCH  55  76
BRANCH  67  84
ATOM     84  C   UNL     1       4.697  -2.296 -12.396  1.00  0.00     0.057 A 
ATOM     85  C   UNL     1       4.758  -1.221 -13.292  1.00  0.00     0.134 A 
ATOM     86  C   UNL     1       5.345  -3.476 -12.797  1.00  0.00     0.134 A 
ATOM     87  F   UNL     1       4.133  -0.064 -13.023  1.00  0.00    -0.206 F 
ATOM     88  C   UNL     1       5.457  -1.301 -14.498  1.00  0.00     0.040 A 
ATOM     89  C   UNL     1       5.998  -3.588 -14.025  1.00  0.00     0.040 A 
ATOM     90  F   UNL     1       5.393  -4.558 -12.006  1.00  0.00    -0.206 F 
ATOM     91  C   UNL     1       6.067  -2.492 -14.875  1.00  0.00     0.006 A 
ENDBRANCH  67  84
ENDBRANCH  41  42
ENDBRANCH  33  36
ENDBRANCH  31  32
ENDBRANCH  30  31
ENDBRANCH  29  30
ENDBRANCH   1  29
TORSDOF 17
