REMARK SMILES Cc1c(CC(=O)NCCCCNC(=O)c2ccc(-c3c4nc(c(-c5c(F)cccc5F)c5ccc([nH]5)c(-c5c(F)cccc5F)c5nc(c(-c6c(F)cccc6F)c6ccc3[nH]6)C=C5)C=C4)cc2)c2ccccc2n1C(=O)c1ccc(Cl)cc1
REMARK SMILES IDX 9 1 8 2 7 3 5 4 6 5 4 7 3 8 1 9 2 10 75 11 69 12 74 13 70 14
REMARK SMILES IDX 73 15 71 16 72 17 76 18 77 19 78 20 79 21 84 22 80 23 83 24
REMARK SMILES IDX 81 25 82 26 10 27 11 28 12 29 13 30 14 32 15 33 16 34 68 35
REMARK SMILES IDX 17 36 67 37 18 38 19 39 20 40 61 41 21 42 66 43 60 44 62 45
REMARK SMILES IDX 22 46 65 47 59 48 58 49 23 51 49 52 32 53 48 54 33 55 36 56
REMARK SMILES IDX 47 57 63 58 34 59 35 60 46 62 64 63 37 64 24 65 25 66 30 67
REMARK SMILES IDX 26 68 27 69 29 70 31 71 28 72 50 73 51 74 56 75 52 76 53 77
REMARK SMILES IDX 55 78 57 79 54 80 38 81 39 82 44 83 40 84 41 85 43 86 45 87
REMARK SMILES IDX 42 88
REMARK H PARENT 7 6 12 31 62 50 36 61
REMARK Flexibility Score: inf
ROOT
ATOM      1  C   UNL     1       3.968  -0.834   2.240  1.00  0.00     0.023 C 
ENDROOT
BRANCH   1   2
ATOM      2  C   UNL     1       3.812  -1.394   0.828  1.00  0.00     0.116 C 
BRANCH   2   3
ATOM      3  N   UNL     1       3.688  -2.836   0.825  1.00  0.00    -0.356 N 
ATOM      4  C   UNL     1       2.596  -3.586   0.491  1.00  0.00     0.224 C 
ATOM      5  O   UNL     1       2.690  -4.814   0.544  1.00  0.00    -0.275 OA
ATOM      6  H   UNL     1       4.490  -3.338   1.098  1.00  0.00     0.163 HD
BRANCH   4   7
ATOM      7  C   UNL     1       1.321  -2.902   0.017  1.00  0.00     0.138 C 
BRANCH   7   8
ATOM      8  C   UNL     1       0.658  -2.079   1.087  1.00  0.00    -0.010 A 
ATOM      9  C   UNL     1       0.480   0.211  -0.123  1.00  0.00     0.065 C 
ATOM     10  C   UNL     1       0.314  -0.734   1.028  1.00  0.00     0.028 A 
ATOM     11  N   UNL     1      -0.176  -0.339   2.283  1.00  0.00    -0.280 N 
ATOM     12  C   UNL     1       0.240  -2.564   2.357  1.00  0.00     0.004 A 
ATOM     13  C   UNL     1      -0.353  -1.502   3.049  1.00  0.00     0.056 A 
ATOM     14  C   UNL     1       0.303  -3.840   2.963  1.00  0.00     0.010 A 
ATOM     15  C   UNL     1      -0.959  -1.738   4.303  1.00  0.00     0.027 A 
ATOM     16  C   UNL     1      -0.228  -4.042   4.235  1.00  0.00     0.001 A 
ATOM     17  C   UNL     1      -0.865  -3.003   4.891  1.00  0.00     0.002 A 
BRANCH  11  18
ATOM     18  C   UNL     1      -0.424   1.010   2.684  1.00  0.00     0.262 C 
ATOM     19  O   UNL     1      -0.197   1.918   1.898  1.00  0.00    -0.268 OA
BRANCH  18  20
ATOM     20  C   UNL     1      -0.946   1.423   4.000  1.00  0.00     0.040 A 
ATOM     21  C   UNL     1      -0.190   1.252   5.163  1.00  0.00     0.015 A 
ATOM     22  C   UNL     1      -2.227   1.983   4.053  1.00  0.00     0.015 A 
ATOM     23  C   UNL     1      -0.763   1.555   6.401  1.00  0.00     0.021 A 
ATOM     24  C   UNL     1      -2.790   2.296   5.290  1.00  0.00     0.021 A 
ATOM     25  C   UNL     1      -2.064   2.061   6.459  1.00  0.00     0.041 A 
ATOM     26  Cl  UNL     1      -2.788   2.378   7.987  1.00  0.00    -0.084 Cl
ENDBRANCH  18  20
ENDBRANCH  11  18
ENDBRANCH   7   8
ENDBRANCH   4   7
ENDBRANCH   2   3
ENDBRANCH   1   2
BRANCH   1  27
ATOM     27  C   UNL     1       5.333  -1.119   2.882  1.00  0.00     0.023 C 
BRANCH  27  28
ATOM     28  C   UNL     1       6.530  -0.743   2.005  1.00  0.00     0.116 C 
BRANCH  28  29
ATOM     29  N   UNL     1       6.527   0.645   1.592  1.00  0.00    -0.352 N 
ATOM     30  C   UNL     1       7.084   1.792   2.081  1.00  0.00     0.251 C 
ATOM     31  H   UNL     1       6.004   0.796   0.772  1.00  0.00     0.163 HD
ATOM     32  O   UNL     1       7.004   2.787   1.357  1.00  0.00    -0.269 OA
BRANCH  30  33
ATOM     33  C   UNL     1       7.691   1.937   3.429  1.00  0.00     0.039 A 
ATOM     34  C   UNL     1       7.873   0.908   4.353  1.00  0.00     0.014 A 
ATOM     35  C   UNL     1       8.021   3.252   3.810  1.00  0.00     0.014 A 
ATOM     36  C   UNL     1       8.252   1.194   5.655  1.00  0.00     0.010 A 
ATOM     37  C   UNL     1       8.419   3.544   5.106  1.00  0.00     0.010 A 
ATOM     38  C   UNL     1       8.472   2.517   6.040  1.00  0.00    -0.014 A 
BRANCH  38  39
ATOM     39  C   UNL     1       8.869   2.761   7.421  1.00  0.00     0.031 A 
ATOM     40  C   UNL     1      10.150   2.100   7.802  1.00  0.00     0.074 A 
ATOM     41  C   UNL     1       8.182   3.584   8.239  1.00  0.00     0.049 A 
ATOM     42  N   UNL     1      10.349   1.206   8.714  1.00  0.00    -0.248 NA
ATOM     43  C   UNL     1      11.328   2.361   6.957  1.00  0.00     0.031 C 
ATOM     44  C   UNL     1       7.061   4.464   7.898  1.00  0.00     0.029 A 
ATOM     45  N   UNL     1       8.405   3.877   9.550  1.00  0.00    -0.354 N 
ATOM     46  C   UNL     1      11.717   0.936   8.693  1.00  0.00     0.074 A 
ATOM     47  C   UNL     1      12.234   1.546   7.498  1.00  0.00     0.031 C 
ATOM     48  C   UNL     1       6.864   5.351   8.900  1.00  0.00     0.029 A 
ATOM     49  C   UNL     1       7.747   5.016  10.004  1.00  0.00     0.049 A 
ATOM     50  H   UNL     1       8.983   3.329  10.128  1.00  0.00     0.167 HD
ATOM     51  C   UNL     1      12.355   0.445   9.790  1.00  0.00     0.037 A 
ATOM     52  C   UNL     1       7.961   5.662  11.178  1.00  0.00     0.037 A 
ATOM     53  C   UNL     1      11.425  -0.193  10.687  1.00  0.00     0.049 A 
ATOM     54  C   UNL     1       8.675   4.728  12.080  1.00  0.00     0.074 A 
ATOM     55  C   UNL     1      10.578  -1.281  10.612  1.00  0.00     0.029 A 
ATOM     56  N   UNL     1      11.021   0.517  11.789  1.00  0.00    -0.354 N 
ATOM     57  N   UNL     1       8.129   3.668  12.603  1.00  0.00    -0.248 NA
ATOM     58  C   UNL     1      10.129   4.726  12.034  1.00  0.00     0.031 C 
ATOM     59  C   UNL     1       9.431  -0.910  11.376  1.00  0.00     0.029 A 
ATOM     60  C   UNL     1       9.669   0.353  11.918  1.00  0.00     0.049 A 
ATOM     61  H   UNL     1      11.601   1.050  12.381  1.00  0.00     0.167 HD
ATOM     62  C   UNL     1       9.117   2.697  12.539  1.00  0.00     0.074 A 
ATOM     63  C   UNL     1      10.353   3.429  12.263  1.00  0.00     0.031 C 
ATOM     64  C   UNL     1       8.792   1.376  12.430  1.00  0.00     0.037 A 
BRANCH  51  65
ATOM     65  C   UNL     1      13.710   0.935  10.261  1.00  0.00     0.057 A 
ATOM     66  C   UNL     1      14.314   2.138   9.840  1.00  0.00     0.134 A 
ATOM     67  C   UNL     1      14.266   0.370  11.426  1.00  0.00     0.134 A 
ATOM     68  F   UNL     1      13.903   2.820   8.767  1.00  0.00    -0.206 F 
ATOM     69  C   UNL     1      15.328   2.772  10.564  1.00  0.00     0.040 A 
ATOM     70  C   UNL     1      15.249   1.020  12.182  1.00  0.00     0.040 A 
ATOM     71  F   UNL     1      13.798  -0.785  11.923  1.00  0.00    -0.206 F 
ATOM     72  C   UNL     1      15.768   2.237  11.762  1.00  0.00     0.006 A 
ENDBRANCH  51  65
BRANCH  52  73
ATOM     73  C   UNL     1       7.863   7.109  11.477  1.00  0.00     0.057 A 
ATOM     74  C   UNL     1       8.130   8.076  10.493  1.00  0.00     0.134 A 
ATOM     75  C   UNL     1       7.784   7.579  12.796  1.00  0.00     0.134 A 
ATOM     76  F   UNL     1       8.306   7.727   9.211  1.00  0.00    -0.206 F 
ATOM     77  C   UNL     1       8.321   9.428  10.802  1.00  0.00     0.040 A 
ATOM     78  C   UNL     1       7.978   8.930  13.120  1.00  0.00     0.040 A 
ATOM     79  F   UNL     1       7.579   6.728  13.811  1.00  0.00    -0.206 F 
ATOM     80  C   UNL     1       8.258   9.857  12.121  1.00  0.00     0.006 A 
ENDBRANCH  52  73
BRANCH  64  81
ATOM     81  C   UNL     1       7.352   1.000  12.642  1.00  0.00     0.057 A 
ATOM     82  C   UNL     1       7.040   0.084  13.651  1.00  0.00     0.134 A 
ATOM     83  C   UNL     1       6.298   1.421  11.817  1.00  0.00     0.134 A 
ATOM     84  F   UNL     1       8.008  -0.407  14.441  1.00  0.00    -0.206 F 
ATOM     85  C   UNL     1       5.738  -0.381  13.846  1.00  0.00     0.040 A 
ATOM     86  C   UNL     1       4.984   0.990  12.024  1.00  0.00     0.040 A 
ATOM     87  F   UNL     1       6.516   2.216  10.762  1.00  0.00    -0.206 F 
ATOM     88  C   UNL     1       4.702   0.083  13.040  1.00  0.00     0.006 A 
ENDBRANCH  64  81
ENDBRANCH  38  39
ENDBRANCH  30  33
ENDBRANCH  28  29
ENDBRANCH  27  28
ENDBRANCH   1  27
TORSDOF 14
