REMARK SMILES O=C(NCCCCNC(=O)c1ccccc1C(=O)N1CCS[C@H]1c1ccccc1)c1ccc(-c2c3nc(c(-c4c(F)cccc4F)c4ccc([nH]4)c(-c4c(F)cccc4F)c4nc(c(-c5c(F)cccc5F)c5ccc2[nH]5)C=C4)C=C3)cc1
REMARK SMILES IDX 6 1 5 2 4 3 3 4 1 5 2 6 30 8 31 9 83 10 32 11 82 12 33 13
REMARK SMILES IDX 34 14 35 15 76 16 36 17 81 18 75 19 77 20 37 21 80 22 74 23
REMARK SMILES IDX 73 24 38 26 64 27 47 28 63 29 48 30 51 31 62 32 78 33 49 34
REMARK SMILES IDX 50 35 61 37 79 38 52 39 39 40 40 41 45 42 41 43 42 44 44 45
REMARK SMILES IDX 46 46 43 47 65 48 66 49 71 50 67 51 68 52 70 53 72 54 69 55
REMARK SMILES IDX 53 56 54 57 59 58 55 59 56 60 58 61 60 62 57 63 7 64 8 65
REMARK SMILES IDX 9 66 10 68 11 69 12 70 16 71 13 72 15 73 14 74 17 75 18 76
REMARK SMILES IDX 19 77 20 78 23 79 21 80 22 81 24 82 25 83 29 84 26 85 28 86
REMARK SMILES IDX 27 87
REMARK H PARENT 3 7 77 25 51 36 8 67
REMARK Flexibility Score: inf
ROOT
ATOM      1  C   UNL     1       3.786  -3.826   1.658  1.00  0.00     0.023 C 
ENDROOT
BRANCH   1   2
ATOM      2  C   UNL     1       4.248  -2.385   1.902  1.00  0.00     0.023 C 
BRANCH   2   3
ATOM      3  C   UNL     1       4.073  -1.416   0.739  1.00  0.00     0.116 C 
BRANCH   3   4
ATOM      4  N   UNL     1       2.687  -1.185   0.374  1.00  0.00    -0.352 N 
ATOM      5  O   UNL     1       0.824   0.036  -0.010  1.00  0.00    -0.269 OA
ATOM      6  C   UNL     1       2.026   0.012   0.209  1.00  0.00     0.251 C 
ATOM      7  H   UNL     1       2.146  -1.994   0.226  1.00  0.00     0.163 HD
BRANCH   6   8
ATOM      8  C   UNL     1       2.776   1.281   0.337  1.00  0.00     0.039 A 
ATOM      9  C   UNL     1       3.947   1.502  -0.394  1.00  0.00     0.014 A 
ATOM     10  C   UNL     1       2.300   2.254   1.218  1.00  0.00     0.014 A 
ATOM     11  C   UNL     1       4.709   2.642  -0.147  1.00  0.00     0.010 A 
ATOM     12  C   UNL     1       3.036   3.425   1.420  1.00  0.00     0.010 A 
ATOM     13  C   UNL     1       4.264   3.613   0.766  1.00  0.00    -0.014 A 
BRANCH  13  14
ATOM     14  C   UNL     1       5.070   4.836   1.015  1.00  0.00     0.031 A 
ATOM     15  C   UNL     1       5.699   5.089   2.358  1.00  0.00     0.074 A 
ATOM     16  C   UNL     1       5.224   5.734   0.024  1.00  0.00     0.049 A 
ATOM     17  N   UNL     1       6.398   6.120   2.762  1.00  0.00    -0.248 NA
ATOM     18  C   UNL     1       5.511   4.052   3.384  1.00  0.00     0.031 C 
ATOM     19  C   UNL     1       4.660   5.610  -1.320  1.00  0.00     0.029 A 
ATOM     20  N   UNL     1       5.899   6.927  -0.005  1.00  0.00    -0.354 N 
ATOM     21  C   UNL     1       6.716   5.869   4.091  1.00  0.00     0.074 A 
ATOM     22  C   UNL     1       6.111   4.598   4.433  1.00  0.00     0.031 C 
ATOM     23  C   UNL     1       5.032   6.671  -2.051  1.00  0.00     0.029 A 
ATOM     24  C   UNL     1       5.816   7.574  -1.213  1.00  0.00     0.049 A 
ATOM     25  H   UNL     1       6.396   7.286   0.766  1.00  0.00     0.167 HD
ATOM     26  C   UNL     1       7.449   6.624   4.945  1.00  0.00     0.037 A 
ATOM     27  C   UNL     1       6.298   8.768  -1.600  1.00  0.00     0.037 A 
ATOM     28  C   UNL     1       8.060   7.883   4.601  1.00  0.00     0.049 A 
ATOM     29  C   UNL     1       7.076   9.603  -0.626  1.00  0.00     0.074 A 
ATOM     30  C   UNL     1       8.860   8.698   5.385  1.00  0.00     0.029 A 
ATOM     31  N   UNL     1       7.932   8.516   3.373  1.00  0.00    -0.354 N 
ATOM     32  N   UNL     1       7.399   9.336   0.616  1.00  0.00    -0.248 NA
ATOM     33  C   UNL     1       7.553  10.907  -1.107  1.00  0.00     0.031 C 
ATOM     34  C   UNL     1       9.178   9.844   4.647  1.00  0.00     0.029 A 
ATOM     35  C   UNL     1       8.616   9.722   3.387  1.00  0.00     0.049 A 
ATOM     36  H   UNL     1       7.429   8.161   2.605  1.00  0.00     0.167 HD
ATOM     37  C   UNL     1       8.135  10.427   1.059  1.00  0.00     0.074 A 
ATOM     38  C   UNL     1       8.220  11.353  -0.051  1.00  0.00     0.031 C 
ATOM     39  C   UNL     1       8.692  10.638   2.277  1.00  0.00     0.037 A 
BRANCH  26  40
ATOM     40  C   UNL     1       7.614   6.118   6.350  1.00  0.00     0.057 A 
ATOM     41  C   UNL     1       8.422   5.014   6.652  1.00  0.00     0.134 A 
ATOM     42  C   UNL     1       6.982   6.766   7.420  1.00  0.00     0.134 A 
ATOM     43  F   UNL     1       9.047   4.342   5.674  1.00  0.00    -0.206 F 
ATOM     44  C   UNL     1       8.573   4.556   7.963  1.00  0.00     0.040 A 
ATOM     45  C   UNL     1       7.146   6.333   8.737  1.00  0.00     0.040 A 
ATOM     46  F   UNL     1       6.201   7.835   7.204  1.00  0.00    -0.206 F 
ATOM     47  C   UNL     1       7.938   5.220   9.011  1.00  0.00     0.006 A 
ENDBRANCH  26  40
BRANCH  27  48
ATOM     48  C   UNL     1       6.060   9.236  -2.987  1.00  0.00     0.057 A 
ATOM     49  C   UNL     1       7.101   9.278  -3.920  1.00  0.00     0.134 A 
ATOM     50  C   UNL     1       4.786   9.624  -3.418  1.00  0.00     0.134 A 
ATOM     51  F   UNL     1       8.345   8.935  -3.558  1.00  0.00    -0.206 F 
ATOM     52  C   UNL     1       6.885   9.694  -5.234  1.00  0.00     0.040 A 
ATOM     53  C   UNL     1       4.551  10.020  -4.735  1.00  0.00     0.040 A 
ATOM     54  F   UNL     1       3.747   9.599  -2.570  1.00  0.00    -0.206 F 
ATOM     55  C   UNL     1       5.604  10.059  -5.646  1.00  0.00     0.006 A 
ENDBRANCH  27  48
BRANCH  39  56
ATOM     56  C   UNL     1       9.469  11.909   2.460  1.00  0.00     0.057 A 
ATOM     57  C   UNL     1       8.836  13.154   2.569  1.00  0.00     0.134 A 
ATOM     58  C   UNL     1      10.866  11.883   2.552  1.00  0.00     0.134 A 
ATOM     59  F   UNL     1       7.501  13.248   2.473  1.00  0.00    -0.206 F 
ATOM     60  C   UNL     1       9.567  14.331   2.738  1.00  0.00     0.040 A 
ATOM     61  C   UNL     1      11.606  13.050   2.746  1.00  0.00     0.040 A 
ATOM     62  F   UNL     1      11.533  10.723   2.462  1.00  0.00    -0.206 F 
ATOM     63  C   UNL     1      10.957  14.279   2.833  1.00  0.00     0.006 A 
ENDBRANCH  39  56
ENDBRANCH  13  14
ENDBRANCH   6   8
ENDBRANCH   3   4
ENDBRANCH   2   3
ENDBRANCH   1   2
BRANCH   1  64
ATOM     64  C   UNL     1       4.362  -4.513   0.421  1.00  0.00     0.116 C 
BRANCH  64  65
ATOM     65  N   UNL     1       5.812  -4.523   0.415  1.00  0.00    -0.352 N 
ATOM     66  C   UNL     1       6.675  -5.425  -0.146  1.00  0.00     0.252 C 
ATOM     67  H   UNL     1       6.239  -3.769   0.885  1.00  0.00     0.163 HD
ATOM     68  O   UNL     1       7.867  -5.350   0.140  1.00  0.00    -0.269 OA
BRANCH  66  69
ATOM     69  C   UNL     1       6.184  -6.539  -0.985  1.00  0.00     0.052 A 
ATOM     70  C   UNL     1       6.506  -7.830  -0.531  1.00  0.00     0.014 A 
ATOM     71  C   UNL     1       5.435  -6.386  -2.159  1.00  0.00     0.052 A 
ATOM     72  C   UNL     1       6.016  -8.957  -1.192  1.00  0.00     0.001 A 
ATOM     73  C   UNL     1       4.914  -7.527  -2.794  1.00  0.00     0.014 A 
ATOM     74  C   UNL     1       5.204  -8.806  -2.312  1.00  0.00     0.001 A 
BRANCH  71  75
ATOM     75  C   UNL     1       5.043  -5.076  -2.723  1.00  0.00     0.255 C 
ATOM     76  O   UNL     1       3.844  -4.905  -2.946  1.00  0.00    -0.269 OA
BRANCH  75  77
ATOM     77  N   UNL     1       5.968  -4.056  -2.854  1.00  0.00    -0.322 N 
ATOM     78  C   UNL     1       5.461  -2.695  -2.837  1.00  0.00     0.132 C 
ATOM     79  C   UNL     1       7.225  -4.105  -3.601  1.00  0.00     0.174 C 
ATOM     80  C   UNL     1       6.601  -1.808  -2.379  1.00  0.00     0.093 C 
ATOM     81  S   UNL     1       8.048  -2.505  -3.221  1.00  0.00    -0.130 SA
BRANCH  79  82
ATOM     82  C   UNL     1       8.100  -5.329  -3.508  1.00  0.00    -0.015 A 
ATOM     83  C   UNL     1       9.147  -5.477  -2.588  1.00  0.00     0.007 A 
ATOM     84  C   UNL     1       7.854  -6.392  -4.399  1.00  0.00     0.007 A 
ATOM     85  C   UNL     1       9.902  -6.652  -2.542  1.00  0.00     0.000 A 
ATOM     86  C   UNL     1       8.604  -7.568  -4.351  1.00  0.00     0.000 A 
ATOM     87  C   UNL     1       9.627  -7.698  -3.418  1.00  0.00     0.000 A 
ENDBRANCH  79  82
ENDBRANCH  75  77
ENDBRANCH  71  75
ENDBRANCH  66  69
ENDBRANCH  64  65
ENDBRANCH   1  64
TORSDOF 14
