REMARK SMILES CC(C)C[C@H](NC(=O)CNC(=O)[C@@H]([NH3+])C(C)C)C(=O)NCCCCNC(=O)c1ccc(-c2c3nc(c(-c4c(F)cccc4F)c4ccc([nH]4)c(-c4c(F)cccc4F)c4nc(c(-c5c(F)cccc5F)c5ccc2[nH]5)C=C4)C=C3)cc1
REMARK SMILES IDX 21 1 20 2 18 3 19 4 5 6 4 7 2 8 1 9 3 10 6 11 7 12 8 14 9 15
REMARK SMILES IDX 10 16 11 17 12 19 13 20 14 21 15 25 16 26 17 27 22 28 23 29
REMARK SMILES IDX 24 30 25 31 26 32 27 34 28 35 29 36 81 37 30 38 80 39 31 40
REMARK SMILES IDX 32 41 33 42 74 43 34 44 79 45 73 46 75 47 35 48 78 49 72 50
REMARK SMILES IDX 71 51 36 53 62 54 45 55 61 56 46 57 49 58 60 59 76 60 47 61
REMARK SMILES IDX 48 62 59 64 77 65 50 66 37 67 38 68 43 69 39 70 40 71 42 72
REMARK SMILES IDX 44 73 41 74 63 75 64 76 69 77 65 78 66 79 68 80 70 81 67 82
REMARK SMILES IDX 51 83 52 84 57 85 53 86 54 87 56 88 58 89 55 90
REMARK H PARENT 20 5 6 13 10 18 14 22 14 23 14 24 25 33 75 52 49 63
REMARK Flexibility Score: inf
ROOT
ATOM      1  C   UNL     1      -3.337  -0.836   3.319  1.00  0.00     0.116 C 
ENDROOT
BRANCH   1   2
ATOM      2  N   UNL     1      -3.917  -0.611   2.004  1.00  0.00    -0.354 N 
ATOM      3  C   UNL     1      -3.371  -0.867   0.774  1.00  0.00     0.242 C 
ATOM      4  O   UNL     1      -4.077  -0.731  -0.225  1.00  0.00    -0.273 OA
ATOM      5  H   UNL     1      -4.822  -0.223   1.997  1.00  0.00     0.163 HD
BRANCH   3   6
ATOM      6  C   UNL     1      -1.919  -1.377   0.687  1.00  0.00     0.171 C 
BRANCH   6   7
ATOM      7  C   UNL     1      -1.831  -2.786   1.285  1.00  0.00     0.038 C 
BRANCH   7   8
ATOM      8  C   UNL     1      -2.938  -3.816   0.987  1.00  0.00    -0.015 C 
ATOM      9  C   UNL     1      -3.131  -4.059  -0.510  1.00  0.00     0.007 C 
ATOM     10  C   UNL     1      -2.563  -5.142   1.665  1.00  0.00     0.007 C 
ENDBRANCH   7   8
ENDBRANCH   6   7
BRANCH   6  11
ATOM     11  N   UNL     1      -1.108  -0.334   1.357  1.00  0.00    -0.343 N 
ATOM     12  C   UNL     1       0.170  -0.155   1.760  1.00  0.00     0.240 C 
ATOM     13  H   UNL     1      -1.657   0.455   1.571  1.00  0.00     0.164 HD
ATOM     14  O   UNL     1       0.412   0.939   2.285  1.00  0.00    -0.273 OA
BRANCH  12  15
ATOM     15  C   UNL     1       1.308  -1.148   1.536  1.00  0.00     0.216 C 
BRANCH  15  16
ATOM     16  N   UNL     1       1.103  -2.463   2.109  1.00  0.00    -0.342 N 
ATOM     17  C   UNL     1       1.212  -3.692   1.530  1.00  0.00     0.278 C 
ATOM     18  H   UNL     1       0.846  -2.470   3.059  1.00  0.00     0.164 HD
ATOM     19  O   UNL     1       0.958  -4.674   2.235  1.00  0.00    -0.268 OA
BRANCH  17  20
ATOM     20  C   UNL     1       1.641  -3.874   0.050  1.00  0.00     0.273 C 
BRANCH  20  21
ATOM     21  N   UNL     1       0.913  -2.950  -0.853  1.00  0.00    -0.347 N 
ATOM     22  H   UNL     1       1.128  -1.986  -0.599  1.00  0.00     0.345 HD
ATOM     23  H   UNL     1      -0.091  -3.109  -0.765  1.00  0.00     0.345 HD
ATOM     24  H   UNL     1       1.201  -3.119  -1.817  1.00  0.00     0.345 HD
ENDBRANCH  20  21
BRANCH  20  25
ATOM     25  C   UNL     1       3.177  -3.780  -0.064  1.00  0.00     0.051 C 
ATOM     26  C   UNL     1       3.822  -4.948   0.697  1.00  0.00     0.014 C 
ATOM     27  C   UNL     1       3.658  -3.809  -1.517  1.00  0.00     0.014 C 
ENDBRANCH  20  25
ENDBRANCH  17  20
ENDBRANCH  15  16
ENDBRANCH  12  15
ENDBRANCH   6  11
ENDBRANCH   3   6
ENDBRANCH   1   2
BRANCH   1  28
ATOM     28  C   UNL     1      -3.782   0.210   4.327  1.00  0.00     0.023 C 
BRANCH  28  29
ATOM     29  C   UNL     1      -5.257   0.118   4.694  1.00  0.00     0.023 C 
BRANCH  29  30
ATOM     30  C   UNL     1      -5.703  -1.267   5.143  1.00  0.00     0.116 C 
BRANCH  30  31
ATOM     31  N   UNL     1      -4.958  -1.749   6.299  1.00  0.00    -0.352 N 
ATOM     32  C   UNL     1      -5.446  -2.159   7.515  1.00  0.00     0.251 C 
ATOM     33  H   UNL     1      -3.979  -1.786   6.194  1.00  0.00     0.163 HD
ATOM     34  O   UNL     1      -4.695  -2.380   8.459  1.00  0.00    -0.269 OA
BRANCH  32  35
ATOM     35  C   UNL     1      -6.904  -2.298   7.669  1.00  0.00     0.039 A 
ATOM     36  C   UNL     1      -7.547  -1.620   8.704  1.00  0.00     0.014 A 
ATOM     37  C   UNL     1      -7.633  -3.024   6.723  1.00  0.00     0.014 A 
ATOM     38  C   UNL     1      -8.941  -1.610   8.747  1.00  0.00     0.010 A 
ATOM     39  C   UNL     1      -9.017  -2.936   6.716  1.00  0.00     0.010 A 
ATOM     40  C   UNL     1      -9.685  -2.232   7.730  1.00  0.00    -0.014 A 
BRANCH  40  41
ATOM     41  C   UNL     1     -11.166  -2.167   7.710  1.00  0.00     0.031 A 
ATOM     42  C   UNL     1     -11.969  -3.432   7.823  1.00  0.00     0.074 A 
ATOM     43  C   UNL     1     -11.783  -0.984   7.521  1.00  0.00     0.049 A 
ATOM     44  N   UNL     1     -13.265  -3.597   7.755  1.00  0.00    -0.248 NA
ATOM     45  C   UNL     1     -11.213  -4.682   8.002  1.00  0.00     0.031 C 
ATOM     46  C   UNL     1     -11.111   0.305   7.341  1.00  0.00     0.029 A 
ATOM     47  N   UNL     1     -13.117  -0.677   7.439  1.00  0.00    -0.354 N 
ATOM     48  C   UNL     1     -13.475  -4.965   7.868  1.00  0.00     0.074 A 
ATOM     49  C   UNL     1     -12.174  -5.591   7.944  1.00  0.00     0.031 C 
ATOM     50  C   UNL     1     -12.038   1.267   7.198  1.00  0.00     0.029 A 
ATOM     51  C   UNL     1     -13.364   0.660   7.238  1.00  0.00     0.049 A 
ATOM     52  H   UNL     1     -13.831  -1.350   7.516  1.00  0.00     0.167 HD
ATOM     53  C   UNL     1     -14.648  -5.638   7.931  1.00  0.00     0.037 A 
ATOM     54  C   UNL     1     -14.530   1.319   7.097  1.00  0.00     0.037 A 
ATOM     55  C   UNL     1     -15.940  -5.009   7.884  1.00  0.00     0.049 A 
ATOM     56  C   UNL     1     -15.819   0.549   7.171  1.00  0.00     0.074 A 
ATOM     57  C   UNL     1     -17.188  -5.594   8.004  1.00  0.00     0.029 A 
ATOM     58  N   UNL     1     -16.149  -3.650   7.702  1.00  0.00    -0.354 N 
ATOM     59  N   UNL     1     -16.006  -0.737   7.351  1.00  0.00    -0.248 NA
ATOM     60  C   UNL     1     -17.061   1.322   7.029  1.00  0.00     0.031 C 
ATOM     61  C   UNL     1     -18.154  -4.595   7.850  1.00  0.00     0.029 A 
ATOM     62  C   UNL     1     -17.507  -3.380   7.685  1.00  0.00     0.049 A 
ATOM     63  H   UNL     1     -15.438  -2.978   7.600  1.00  0.00     0.167 HD
ATOM     64  C   UNL     1     -17.382  -0.922   7.374  1.00  0.00     0.074 A 
ATOM     65  C   UNL     1     -17.983   0.385   7.203  1.00  0.00     0.031 C 
ATOM     66  C   UNL     1     -18.086  -2.071   7.522  1.00  0.00     0.037 A 
BRANCH  53  67
ATOM     67  C   UNL     1     -14.580  -7.131   8.066  1.00  0.00     0.057 A 
ATOM     68  C   UNL     1     -14.129  -7.747   9.242  1.00  0.00     0.134 A 
ATOM     69  C   UNL     1     -14.993  -7.964   7.019  1.00  0.00     0.134 A 
ATOM     70  F   UNL     1     -13.704  -7.007  10.277  1.00  0.00    -0.206 F 
ATOM     71  C   UNL     1     -14.063  -9.136   9.361  1.00  0.00     0.040 A 
ATOM     72  C   UNL     1     -14.959  -9.355   7.137  1.00  0.00     0.040 A 
ATOM     73  F   UNL     1     -15.439  -7.441   5.867  1.00  0.00    -0.206 F 
ATOM     74  C   UNL     1     -14.487  -9.944   8.308  1.00  0.00     0.006 A 
ENDBRANCH  53  67
BRANCH  54  75
ATOM     75  C   UNL     1     -14.535   2.790   6.899  1.00  0.00     0.057 A 
ATOM     76  C   UNL     1     -14.998   3.651   7.901  1.00  0.00     0.134 A 
ATOM     77  C   UNL     1     -14.090   3.371   5.706  1.00  0.00     0.134 A 
ATOM     78  F   UNL     1     -15.455   3.154   9.060  1.00  0.00    -0.206 F 
ATOM     79  C   UNL     1     -15.039   5.034   7.717  1.00  0.00     0.040 A 
ATOM     80  C   UNL     1     -14.101   4.754   5.517  1.00  0.00     0.040 A 
ATOM     81  F   UNL     1     -13.626   2.602   4.710  1.00  0.00    -0.206 F 
ATOM     82  C   UNL     1     -14.585   5.590   6.522  1.00  0.00     0.006 A 
ENDBRANCH  54  75
BRANCH  66  83
ATOM     83  C   UNL     1     -19.582  -1.962   7.544  1.00  0.00     0.057 A 
ATOM     84  C   UNL     1     -20.321  -1.685   6.387  1.00  0.00     0.134 A 
ATOM     85  C   UNL     1     -20.294  -2.178   8.731  1.00  0.00     0.134 A 
ATOM     86  F   UNL     1     -19.698  -1.456   5.221  1.00  0.00    -0.206 F 
ATOM     87  C   UNL     1     -21.714  -1.606   6.415  1.00  0.00     0.040 A 
ATOM     88  C   UNL     1     -21.687  -2.129   8.766  1.00  0.00     0.040 A 
ATOM     89  F   UNL     1     -19.646  -2.457   9.873  1.00  0.00    -0.206 F 
ATOM     90  C   UNL     1     -22.401  -1.836   7.606  1.00  0.00     0.006 A 
ENDBRANCH  66  83
ENDBRANCH  40  41
ENDBRANCH  32  35
ENDBRANCH  30  31
ENDBRANCH  29  30
ENDBRANCH  28  29
ENDBRANCH   1  28
TORSDOF 19
