REMARK SMILES COCCS(=O)(=O)Cc1c(C(=O)NCCCCNC(=O)c2ccc(-c3c4nc(c(-c5c(F)cccc5F)c5ccc([nH]5)c(-c5c(F)cccc5F)c5nc(c(-c6c(F)cccc6F)c6ccc3[nH]6)C=C5)C=C4)cc2)oc2ccccc12
REMARK SMILES IDX 14 1 13 2 11 3 12 4 10 6 9 7 81 8 75 9 76 10 80 11 77 12
REMARK SMILES IDX 79 13 78 14 8 15 5 16 6 17 7 18 4 19 3 20 2 21 1 22 15 23
REMARK SMILES IDX 16 24 17 25 18 26 19 27 20 29 21 30 22 31 74 32 23 33 73 34
REMARK SMILES IDX 24 35 25 36 26 37 67 38 27 39 72 40 66 41 68 42 28 43 71 44
REMARK SMILES IDX 65 45 64 46 29 48 55 49 38 50 54 51 39 52 42 53 53 54 69 55
REMARK SMILES IDX 40 56 41 57 52 59 70 60 43 61 30 62 31 63 36 64 32 65 33 66
REMARK SMILES IDX 35 67 37 68 34 69 56 70 57 71 62 72 58 73 59 74 61 75 63 76
REMARK SMILES IDX 60 77 44 78 45 79 50 80 46 81 47 82 49 83 51 84 48 85
REMARK H PARENT 13 5 18 28 68 47 42 58
REMARK Flexibility Score: inf
ROOT
ATOM      1  C   UNL     1      -3.804  -2.493   1.467  1.00  0.00     0.116 C 
ENDROOT
BRANCH   1   2
ATOM      2  N   UNL     1      -2.352  -2.500   1.500  1.00  0.00    -0.349 N 
ATOM      3  C   UNL     1      -1.424  -1.485   1.564  1.00  0.00     0.287 C 
ATOM      4  O   UNL     1      -0.252  -1.851   1.681  1.00  0.00    -0.266 OA
ATOM      5  H   UNL     1      -1.956  -3.401   1.471  1.00  0.00     0.163 HD
BRANCH   3   6
ATOM      6  C   UNL     1      -1.795  -0.076   1.515  1.00  0.00     0.196 A 
ATOM      7  C   UNL     1      -1.031   1.089   1.663  1.00  0.00     0.027 A 
ATOM      8  C   UNL     1      -1.962   2.182   1.608  1.00  0.00     0.025 A 
ATOM      9  O   UNL     1      -3.093   0.270   1.284  1.00  0.00    -0.451 OA
ATOM     10  C   UNL     1      -3.202   1.613   1.365  1.00  0.00     0.135 A 
ATOM     11  C   UNL     1      -1.900   3.584   1.728  1.00  0.00     0.012 A 
ATOM     12  C   UNL     1      -4.392   2.324   1.231  1.00  0.00     0.048 A 
ATOM     13  C   UNL     1      -3.077   4.334   1.585  1.00  0.00     0.001 A 
ATOM     14  C   UNL     1      -4.303   3.712   1.344  1.00  0.00     0.004 A 
BRANCH   7  15
ATOM     15  C   UNL     1       0.444   1.177   1.901  1.00  0.00     0.177 C 
BRANCH  15  16
ATOM     16  S   UNL     1       1.405   2.204   0.772  1.00  0.00     0.156 S 
ATOM     17  O   UNL     1       2.713   1.587   0.632  1.00  0.00    -0.228 OA
ATOM     18  O   UNL     1       1.336   3.570   1.271  1.00  0.00    -0.228 OA
BRANCH  16  19
ATOM     19  C   UNL     1       0.598   2.205  -0.828  1.00  0.00     0.165 C 
BRANCH  19  20
ATOM     20  C   UNL     1       1.312   1.396  -1.893  1.00  0.00     0.176 C 
BRANCH  20  21
ATOM     21  O   UNL     1       0.763   0.085  -2.034  1.00  0.00    -0.384 OA
ATOM     22  C   UNL     1       1.356  -0.871  -1.167  1.00  0.00     0.194 C 
ENDBRANCH  20  21
ENDBRANCH  19  20
ENDBRANCH  16  19
ENDBRANCH  15  16
ENDBRANCH   7  15
ENDBRANCH   3   6
ENDBRANCH   1   2
BRANCH   1  23
ATOM     23  C   UNL     1      -4.351  -2.977   0.125  1.00  0.00     0.023 C 
BRANCH  23  24
ATOM     24  C   UNL     1      -4.164  -4.475  -0.142  1.00  0.00     0.023 C 
BRANCH  24  25
ATOM     25  C   UNL     1      -4.727  -5.415   0.922  1.00  0.00     0.116 C 
BRANCH  25  26
ATOM     26  N   UNL     1      -6.148  -5.229   1.169  1.00  0.00    -0.352 N 
ATOM     27  C   UNL     1      -7.131  -6.173   1.367  1.00  0.00     0.251 C 
ATOM     28  H   UNL     1      -6.451  -4.293   1.200  1.00  0.00     0.163 HD
ATOM     29  O   UNL     1      -8.300  -5.832   1.462  1.00  0.00    -0.269 OA
BRANCH  27  30
ATOM     30  C   UNL     1      -6.773  -7.609   1.423  1.00  0.00     0.039 A 
ATOM     31  C   UNL     1      -7.537  -8.520   0.687  1.00  0.00     0.014 A 
ATOM     32  C   UNL     1      -5.689  -8.057   2.182  1.00  0.00     0.014 A 
ATOM     33  C   UNL     1      -7.166  -9.866   0.650  1.00  0.00     0.010 A 
ATOM     34  C   UNL     1      -5.279  -9.384   2.087  1.00  0.00     0.010 A 
ATOM     35  C   UNL     1      -6.009 -10.302   1.316  1.00  0.00    -0.014 A 
BRANCH  35  36
ATOM     36  C   UNL     1      -5.536 -11.706   1.203  1.00  0.00     0.031 A 
ATOM     37  C   UNL     1      -5.475 -12.588   2.418  1.00  0.00     0.074 A 
ATOM     38  C   UNL     1      -5.090 -12.164   0.017  1.00  0.00     0.049 A 
ATOM     39  N   UNL     1      -5.019 -13.810   2.531  1.00  0.00    -0.248 NA
ATOM     40  C   UNL     1      -5.965 -12.010   3.679  1.00  0.00     0.031 C 
ATOM     41  C   UNL     1      -5.049 -11.394  -1.228  1.00  0.00     0.029 A 
ATOM     42  N   UNL     1      -4.570 -13.386  -0.332  1.00  0.00    -0.354 N 
ATOM     43  C   UNL     1      -5.152 -14.140   3.874  1.00  0.00     0.074 A 
ATOM     44  C   UNL     1      -5.682 -12.973   4.544  1.00  0.00     0.031 C 
ATOM     45  C   UNL     1      -4.553 -12.167  -2.207  1.00  0.00     0.029 A 
ATOM     46  C   UNL     1      -4.204 -13.472  -1.654  1.00  0.00     0.049 A 
ATOM     47  H   UNL     1      -4.470 -14.130   0.304  1.00  0.00     0.167 HD
ATOM     48  C   UNL     1      -4.879 -15.316   4.489  1.00  0.00     0.037 A 
ATOM     49  C   UNL     1      -3.643 -14.484  -2.342  1.00  0.00     0.037 A 
ATOM     50  C   UNL     1      -4.371 -16.483   3.816  1.00  0.00     0.049 A 
ATOM     51  C   UNL     1      -3.344 -15.778  -1.637  1.00  0.00     0.074 A 
ATOM     52  C   UNL     1      -4.121 -17.740   4.341  1.00  0.00     0.029 A 
ATOM     53  N   UNL     1      -4.032 -16.537   2.472  1.00  0.00    -0.354 N 
ATOM     54  N   UNL     1      -3.540 -16.099  -0.381  1.00  0.00    -0.248 NA
ATOM     55  C   UNL     1      -2.751 -16.852  -2.446  1.00  0.00     0.031 C 
ATOM     56  C   UNL     1      -3.588 -18.540   3.325  1.00  0.00     0.029 A 
ATOM     57  C   UNL     1      -3.554 -17.798   2.155  1.00  0.00     0.049 A 
ATOM     58  H   UNL     1      -4.119 -15.789   1.838  1.00  0.00     0.167 HD
ATOM     59  C   UNL     1      -3.123 -17.418  -0.256  1.00  0.00     0.074 A 
ATOM     60  C   UNL     1      -2.674 -17.840  -1.567  1.00  0.00     0.031 C 
ATOM     61  C   UNL     1      -3.116 -18.208   0.845  1.00  0.00     0.037 A 
BRANCH  48  62
ATOM     62  C   UNL     1      -5.124 -15.394   5.968  1.00  0.00     0.057 A 
ATOM     63  C   UNL     1      -6.419 -15.385   6.504  1.00  0.00     0.134 A 
ATOM     64  C   UNL     1      -4.056 -15.506   6.866  1.00  0.00     0.134 A 
ATOM     65  F   UNL     1      -7.487 -15.269   5.700  1.00  0.00    -0.206 F 
ATOM     66  C   UNL     1      -6.641 -15.452   7.881  1.00  0.00     0.040 A 
ATOM     67  C   UNL     1      -4.266 -15.603   8.243  1.00  0.00     0.040 A 
ATOM     68  F   UNL     1      -2.790 -15.529   6.421  1.00  0.00    -0.206 F 
ATOM     69  C   UNL     1      -5.562 -15.567   8.754  1.00  0.00     0.006 A 
ENDBRANCH  48  62
BRANCH  49  70
ATOM     70  C   UNL     1      -3.350 -14.323  -3.788  1.00  0.00     0.057 A 
ATOM     71  C   UNL     1      -4.095 -15.009  -4.755  1.00  0.00     0.134 A 
ATOM     72  C   UNL     1      -2.325 -13.483  -4.239  1.00  0.00     0.134 A 
ATOM     73  F   UNL     1      -5.078 -15.842  -4.383  1.00  0.00    -0.206 F 
ATOM     74  C   UNL     1      -3.822 -14.878  -6.117  1.00  0.00     0.040 A 
ATOM     75  C   UNL     1      -2.057 -13.324  -5.600  1.00  0.00     0.040 A 
ATOM     76  F   UNL     1      -1.581 -12.793  -3.364  1.00  0.00    -0.206 F 
ATOM     77  C   UNL     1      -2.803 -14.028  -6.543  1.00  0.00     0.006 A 
ENDBRANCH  49  70
BRANCH  61  78
ATOM     78  C   UNL     1      -2.643 -19.622   0.674  1.00  0.00     0.057 A 
ATOM     79  C   UNL     1      -1.292 -19.933   0.476  1.00  0.00     0.134 A 
ATOM     80  C   UNL     1      -3.547 -20.689   0.752  1.00  0.00     0.134 A 
ATOM     81  F   UNL     1      -0.376 -18.957   0.379  1.00  0.00    -0.206 F 
ATOM     82  C   UNL     1      -0.860 -21.254   0.339  1.00  0.00     0.040 A 
ATOM     83  C   UNL     1      -3.125 -22.014   0.643  1.00  0.00     0.040 A 
ATOM     84  F   UNL     1      -4.855 -20.461   0.949  1.00  0.00    -0.206 F 
ATOM     85  C   UNL     1      -1.778 -22.299   0.431  1.00  0.00     0.006 A 
ENDBRANCH  61  78
ENDBRANCH  35  36
ENDBRANCH  27  30
ENDBRANCH  25  26
ENDBRANCH  24  25
ENDBRANCH  23  24
ENDBRANCH   1  23
TORSDOF 16
