REMARK SMILES C[NH2+][C@]1(C(=O)NCCCCNC(=O)c2ccc(-c3c4nc(c(-c5c(F)cccc5F)c5ccc([nH]5)c(-c5c(F)cccc5F)c5nc(c(-c6c(F)cccc6F)c6ccc3[nH]6)C=C5)C=C4)cc2)CCC[C@@H](Sc2nncs2)C1
REMARK SMILES IDX 8 1 7 2 6 3 4 4 5 5 3 7 68 8 78 9 69 10 71 11 70 12 2 13
REMARK SMILES IDX 1 14 72 17 73 18 74 19 77 20 75 21 76 22 9 23 10 24 11 25
REMARK SMILES IDX 12 26 13 28 14 29 15 30 67 31 16 32 66 33 17 34 18 35 19 36
REMARK SMILES IDX 60 37 20 38 65 39 59 40 61 41 21 42 64 43 58 44 57 45 22 47
REMARK SMILES IDX 48 48 31 49 47 50 32 51 35 52 46 53 62 54 33 55 34 56 45 58
REMARK SMILES IDX 63 59 36 60 23 61 24 62 29 63 25 64 26 65 28 66 30 67 27 68
REMARK SMILES IDX 49 69 50 70 55 71 51 72 52 73 54 74 56 75 53 76 37 77 38 78
REMARK SMILES IDX 43 79 39 80 40 81 42 82 44 83 41 84
REMARK H PARENT 6 6 2 15 2 16 11 27 61 46 35 57
REMARK Flexibility Score: inf
ROOT
ATOM      1  C   UNL     1       1.101   0.140   5.161  1.00  0.00     0.023 C 
ENDROOT
BRANCH   1   2
ATOM      2  C   UNL     1       0.545   0.897   3.962  1.00  0.00     0.116 C 
BRANCH   2   3
ATOM      3  N   UNL     1       1.162   0.507   2.708  1.00  0.00    -0.351 N 
ATOM      4  C   UNL     1       0.628   0.264   1.472  1.00  0.00     0.281 C 
ATOM      5  O   UNL     1       1.460   0.002   0.599  1.00  0.00    -0.268 OA
ATOM      6  H   UNL     1       2.139   0.398   2.755  1.00  0.00     0.163 HD
BRANCH   4   7
ATOM      7  C   UNL     1      -0.931   0.281   1.230  1.00  0.00     0.176 C 
ATOM      8  C   UNL     1      -1.497  -0.945   2.001  1.00  0.00     0.079 C 
ATOM      9  C   UNL     1      -1.562   1.644   1.651  1.00  0.00     0.094 C 
ATOM     10  C   UNL     1      -3.004  -0.917   2.210  1.00  0.00     0.008 C 
ATOM     11  C   UNL     1      -3.041   1.588   2.074  1.00  0.00     0.061 C 
ATOM     12  C   UNL     1      -3.417   0.366   2.914  1.00  0.00     0.015 C 
BRANCH   7  13
ATOM     13  N   UNL     1      -1.320   0.009  -0.194  1.00  0.00    -0.336 N 
ATOM     14  C   UNL     1      -0.512   0.652  -1.222  1.00  0.00     0.331 C 
ATOM     15  H   UNL     1      -1.268  -0.999  -0.343  1.00  0.00     0.346 HD
ATOM     16  H   UNL     1      -2.255   0.404  -0.299  1.00  0.00     0.346 HD
ENDBRANCH   7  13
BRANCH  11  17
ATOM     17  S   UNL     1      -3.614   3.148   2.864  1.00  0.00    -0.090 SA
BRANCH  17  18
ATOM     18  C   UNL     1      -2.930   3.059   4.472  1.00  0.00     0.174 A 
ATOM     19  N   UNL     1      -1.639   2.935   4.685  1.00  0.00    -0.132 NA
ATOM     20  S   UNL     1      -3.870   3.140   5.905  1.00  0.00    -0.094 S 
ATOM     21  N   UNL     1      -1.327   2.857   6.029  1.00  0.00    -0.146 NA
ATOM     22  C   UNL     1      -2.402   2.967   6.780  1.00  0.00     0.203 A 
ENDBRANCH  17  18
ENDBRANCH  11  17
ENDBRANCH   4   7
ENDBRANCH   2   3
ENDBRANCH   1   2
BRANCH   1  23
ATOM     23  C   UNL     1       2.586   0.367   5.425  1.00  0.00     0.023 C 
BRANCH  23  24
ATOM     24  C   UNL     1       3.012   1.829   5.500  1.00  0.00     0.116 C 
BRANCH  24  25
ATOM     25  N   UNL     1       2.347   2.563   6.566  1.00  0.00    -0.352 N 
ATOM     26  C   UNL     1       2.896   3.208   7.652  1.00  0.00     0.251 C 
ATOM     27  H   UNL     1       1.366   2.603   6.503  1.00  0.00     0.163 HD
ATOM     28  O   UNL     1       2.185   3.632   8.553  1.00  0.00    -0.269 OA
BRANCH  26  29
ATOM     29  C   UNL     1       4.367   3.363   7.737  1.00  0.00     0.039 A 
ATOM     30  C   UNL     1       5.014   3.059   8.937  1.00  0.00     0.014 A 
ATOM     31  C   UNL     1       5.106   3.785   6.629  1.00  0.00     0.014 A 
ATOM     32  C   UNL     1       6.410   3.098   8.998  1.00  0.00     0.010 A 
ATOM     33  C   UNL     1       6.497   3.737   6.665  1.00  0.00     0.010 A 
ATOM     34  C   UNL     1       7.165   3.393   7.850  1.00  0.00    -0.014 A 
BRANCH  34  35
ATOM     35  C   UNL     1       8.651   3.340   7.865  1.00  0.00     0.031 A 
ATOM     36  C   UNL     1       9.457   4.578   7.580  1.00  0.00     0.074 A 
ATOM     37  C   UNL     1       9.277   2.163   8.068  1.00  0.00     0.049 A 
ATOM     38  N   UNL     1      10.755   4.716   7.480  1.00  0.00    -0.248 NA
ATOM     39  C   UNL     1       8.703   5.821   7.351  1.00  0.00     0.031 C 
ATOM     40  C   UNL     1       8.615   0.879   8.306  1.00  0.00     0.029 A 
ATOM     41  N   UNL     1      10.615   1.855   8.096  1.00  0.00    -0.354 N 
ATOM     42  C   UNL     1      10.970   6.052   7.163  1.00  0.00     0.074 A 
ATOM     43  C   UNL     1       9.668   6.669   7.031  1.00  0.00     0.031 C 
ATOM     44  C   UNL     1       9.546  -0.071   8.482  1.00  0.00     0.029 A 
ATOM     45  C   UNL     1      10.870   0.524   8.329  1.00  0.00     0.049 A 
ATOM     46  H   UNL     1      11.325   2.523   7.963  1.00  0.00     0.167 HD
ATOM     47  C   UNL     1      12.144   6.711   7.020  1.00  0.00     0.037 A 
ATOM     48  C   UNL     1      12.038  -0.143   8.403  1.00  0.00     0.037 A 
ATOM     49  C   UNL     1      13.439   6.102   7.173  1.00  0.00     0.049 A 
ATOM     50  C   UNL     1      13.328   0.610   8.225  1.00  0.00     0.074 A 
ATOM     51  C   UNL     1      14.686   6.699   7.104  1.00  0.00     0.029 A 
ATOM     52  N   UNL     1      13.654   4.754   7.420  1.00  0.00    -0.354 N 
ATOM     53  N   UNL     1      13.516   1.887   7.996  1.00  0.00    -0.248 NA
ATOM     54  C   UNL     1      14.569  -0.172   8.321  1.00  0.00     0.031 C 
ATOM     55  C   UNL     1      15.656   5.705   7.261  1.00  0.00     0.029 A 
ATOM     56  C   UNL     1      15.014   4.497   7.484  1.00  0.00     0.049 A 
ATOM     57  H   UNL     1      12.945   4.080   7.534  1.00  0.00     0.167 HD
ATOM     58  C   UNL     1      14.893   2.067   7.952  1.00  0.00     0.074 A 
ATOM     59  C   UNL     1      15.492   0.770   8.192  1.00  0.00     0.031 C 
ATOM     60  C   UNL     1      15.598   3.204   7.733  1.00  0.00     0.037 A 
BRANCH  47  61
ATOM     61  C   UNL     1      12.080   8.174   6.687  1.00  0.00     0.057 A 
ATOM     62  C   UNL     1      11.625   9.124   7.611  1.00  0.00     0.134 A 
ATOM     63  C   UNL     1      12.511   8.644   5.439  1.00  0.00     0.134 A 
ATOM     64  F   UNL     1      11.187   8.741   8.820  1.00  0.00    -0.206 F 
ATOM     65  C   UNL     1      11.574  10.484   7.298  1.00  0.00     0.040 A 
ATOM     66  C   UNL     1      12.493  10.004   5.125  1.00  0.00     0.040 A 
ATOM     67  F   UNL     1      12.966   7.791   4.509  1.00  0.00    -0.206 F 
ATOM     68  C   UNL     1      12.017  10.928   6.054  1.00  0.00     0.006 A 
ENDBRANCH  47  61
BRANCH  48  69
ATOM     69  C   UNL     1      12.047  -1.602   8.680  1.00  0.00     0.057 A 
ATOM     70  C   UNL     1      12.528  -2.103   9.895  1.00  0.00     0.134 A 
ATOM     71  C   UNL     1      11.593  -2.531   7.736  1.00  0.00     0.134 A 
ATOM     72  F   UNL     1      12.996  -1.265  10.832  1.00  0.00    -0.206 F 
ATOM     73  C   UNL     1      12.578  -3.474  10.155  1.00  0.00     0.040 A 
ATOM     74  C   UNL     1      11.612  -3.903   7.992  1.00  0.00     0.040 A 
ATOM     75  F   UNL     1      11.113  -2.116   6.554  1.00  0.00    -0.206 F 
ATOM     76  C   UNL     1      12.114  -4.378   9.202  1.00  0.00     0.006 A 
ENDBRANCH  48  69
BRANCH  60  77
ATOM     77  C   UNL     1      17.095   3.108   7.784  1.00  0.00     0.057 A 
ATOM     78  C   UNL     1      17.833   2.471   6.779  1.00  0.00     0.134 A 
ATOM     79  C   UNL     1      17.809   3.696   8.836  1.00  0.00     0.134 A 
ATOM     80  F   UNL     1      17.210   1.876   5.750  1.00  0.00    -0.206 F 
ATOM     81  C   UNL     1      19.227   2.403   6.830  1.00  0.00     0.040 A 
ATOM     82  C   UNL     1      19.203   3.659   8.883  1.00  0.00     0.040 A 
ATOM     83  F   UNL     1      17.165   4.330   9.828  1.00  0.00    -0.206 F 
ATOM     84  C   UNL     1      19.916   3.005   7.881  1.00  0.00     0.006 A 
ENDBRANCH  60  77
ENDBRANCH  34  35
ENDBRANCH  26  29
ENDBRANCH  24  25
ENDBRANCH  23  24
ENDBRANCH   1  23
TORSDOF 14
