REMARK SMILES CCn1nc(C(C)C)cc1C(=O)N[C@@H](CC(N)=O)C(=O)NCCCCNC(=O)c1ccc(-c2c3nc(c(-c4c(F)cccc4F)c4ccc([nH]4)c(-c4c(F)cccc4F)c4nc(c(-c5c(F)cccc5F)c5ccc2[nH]5)C=C4)C=C3)cc1
REMARK SMILES IDX 23 1 22 2 21 3 19 4 20 5 14 7 13 8 11 9 12 10 10 12 3 13
REMARK SMILES IDX 4 14 5 15 9 16 2 17 1 18 6 19 7 20 8 21 15 22 16 23 17 24
REMARK SMILES IDX 18 25 24 28 25 29 26 30 27 31 28 33 29 34 30 35 82 36 31 37
REMARK SMILES IDX 81 38 32 39 33 40 34 41 75 42 35 43 80 44 74 45 76 46 36 47
REMARK SMILES IDX 79 48 73 49 72 50 37 52 63 53 46 54 62 55 47 56 50 57 61 58
REMARK SMILES IDX 77 59 48 60 49 61 60 63 78 64 51 65 38 66 39 67 44 68 40 69
REMARK SMILES IDX 41 70 43 71 45 72 42 73 64 74 65 75 70 76 66 77 67 78 69 79
REMARK SMILES IDX 71 80 68 81 52 82 53 83 58 84 54 85 55 86 57 87 59 88 56 89
REMARK H PARENT 21 6 13 11 17 26 17 27 26 32 76 51 50 62
REMARK Flexibility Score: inf
ROOT
ATOM      1  C   UNL     1       4.809  -5.210   5.609  1.00  0.00     0.023 C 
ENDROOT
BRANCH   1   2
ATOM      2  C   UNL     1       4.045  -4.317   6.581  1.00  0.00     0.116 C 
BRANCH   2   3
ATOM      3  N   UNL     1       4.532  -2.952   6.644  1.00  0.00    -0.354 N 
ATOM      4  C   UNL     1       3.859  -1.766   6.647  1.00  0.00     0.243 C 
ATOM      5  O   UNL     1       4.492  -0.769   7.017  1.00  0.00    -0.273 OA
ATOM      6  H   UNL     1       5.512  -2.868   6.692  1.00  0.00     0.163 HD
BRANCH   4   7
ATOM      7  C   UNL     1       2.354  -1.634   6.322  1.00  0.00     0.181 C 
BRANCH   7   8
ATOM      8  N   UNL     1       1.989  -2.271   5.059  1.00  0.00    -0.338 N 
ATOM      9  C   UNL     1       1.747  -1.780   3.797  1.00  0.00     0.270 C 
ATOM     10  O   UNL     1       1.676  -2.644   2.922  1.00  0.00    -0.268 OA
ATOM     11  H   UNL     1       1.898  -3.249   5.124  1.00  0.00     0.164 HD
BRANCH   9  12
ATOM     12  C   UNL     1       1.504  -0.372   3.534  1.00  0.00     0.126 A 
ATOM     13  N   UNL     1       0.806   0.121   2.440  1.00  0.00    -0.260 N 
ATOM     14  N   UNL     1       0.458   1.424   2.571  1.00  0.00    -0.177 NA
ATOM     15  C   UNL     1       1.117   1.834   3.653  1.00  0.00     0.066 A 
ATOM     16  C   UNL     1       1.877   0.783   4.203  1.00  0.00     0.059 A 
BRANCH  13  17
ATOM     17  C   UNL     1       0.361  -0.558   1.232  1.00  0.00     0.142 C 
ATOM     18  C   UNL     1       0.932   0.069  -0.036  1.00  0.00     0.029 C 
ENDBRANCH  13  17
BRANCH  15  19
ATOM     19  C   UNL     1       1.012   3.237   4.177  1.00  0.00     0.034 C 
ATOM     20  C   UNL     1       1.894   4.201   3.388  1.00  0.00     0.014 C 
ATOM     21  C   UNL     1      -0.433   3.736   4.244  1.00  0.00     0.014 C 
ENDBRANCH  15  19
ENDBRANCH   9  12
ENDBRANCH   7   8
BRANCH   7  22
ATOM     22  C   UNL     1       1.414  -1.885   7.499  1.00  0.00     0.134 C 
BRANCH  22  23
ATOM     23  C   UNL     1       1.497  -3.248   8.123  1.00  0.00     0.220 C 
ATOM     24  N   UNL     1       2.183  -3.321   9.298  1.00  0.00    -0.370 N 
ATOM     25  O   UNL     1       1.004  -4.249   7.618  1.00  0.00    -0.275 OA
ATOM     26  H   UNL     1       2.574  -2.508   9.692  1.00  0.00     0.159 HD
ATOM     27  H   UNL     1       2.287  -4.188   9.754  1.00  0.00     0.159 HD
ENDBRANCH  22  23
ENDBRANCH   7  22
ENDBRANCH   4   7
ENDBRANCH   2   3
ENDBRANCH   1   2
BRANCH   1  28
ATOM     28  C   UNL     1       6.263  -5.528   5.972  1.00  0.00     0.023 C 
BRANCH  28  29
ATOM     29  C   UNL     1       6.473  -6.116   7.362  1.00  0.00     0.116 C 
BRANCH  29  30
ATOM     30  N   UNL     1       5.773  -7.379   7.571  1.00  0.00    -0.352 N 
ATOM     31  C   UNL     1       5.771  -8.161   8.712  1.00  0.00     0.251 C 
ATOM     32  H   UNL     1       5.242  -7.713   6.812  1.00  0.00     0.163 HD
ATOM     33  O   UNL     1       5.467  -9.340   8.674  1.00  0.00    -0.269 OA
BRANCH  31  34
ATOM     34  C   UNL     1       6.146  -7.532   9.992  1.00  0.00     0.039 A 
ATOM     35  C   UNL     1       7.048  -8.157  10.858  1.00  0.00     0.014 A 
ATOM     36  C   UNL     1       5.602  -6.287  10.300  1.00  0.00     0.014 A 
ATOM     37  C   UNL     1       7.470  -7.477  11.999  1.00  0.00     0.010 A 
ATOM     38  C   UNL     1       6.096  -5.575  11.369  1.00  0.00     0.010 A 
ATOM     39  C   UNL     1       7.010  -6.173  12.238  1.00  0.00    -0.014 A 
BRANCH  39  40
ATOM     40  C   UNL     1       7.618  -5.357  13.293  1.00  0.00     0.031 A 
ATOM     41  C   UNL     1       9.099  -5.178  13.162  1.00  0.00     0.074 A 
ATOM     42  C   UNL     1       6.880  -4.600  14.136  1.00  0.00     0.049 A 
ATOM     43  N   UNL     1      10.021  -5.428  14.034  1.00  0.00    -0.248 NA
ATOM     44  C   UNL     1       9.630  -4.756  11.851  1.00  0.00     0.031 C 
ATOM     45  C   UNL     1       5.421  -4.433  14.142  1.00  0.00     0.029 A 
ATOM     46  N   UNL     1       7.280  -3.700  15.078  1.00  0.00    -0.354 N 
ATOM     47  C   UNL     1      11.223  -5.010  13.459  1.00  0.00     0.074 A 
ATOM     48  C   UNL     1      10.945  -4.768  12.069  1.00  0.00     0.031 C 
ATOM     49  C   UNL     1       5.095  -3.323  14.840  1.00  0.00     0.029 A 
ATOM     50  C   UNL     1       6.294  -2.793  15.461  1.00  0.00     0.049 A 
ATOM     51  H   UNL     1       8.189  -3.692  15.457  1.00  0.00     0.167 HD
ATOM     52  C   UNL     1      12.291  -4.655  14.226  1.00  0.00     0.037 A 
ATOM     53  C   UNL     1       6.459  -1.661  16.193  1.00  0.00     0.037 A 
ATOM     54  C   UNL     1      12.177  -5.197  15.556  1.00  0.00     0.049 A 
ATOM     55  C   UNL     1       7.779  -1.748  16.860  1.00  0.00     0.074 A 
ATOM     56  C   UNL     1      12.046  -6.466  16.086  1.00  0.00     0.029 A 
ATOM     57  N   UNL     1      11.829  -4.339  16.570  1.00  0.00    -0.354 N 
ATOM     58  N   UNL     1       8.057  -2.574  17.827  1.00  0.00    -0.248 NA
ATOM     59  C   UNL     1       8.925  -1.206  16.148  1.00  0.00     0.031 C 
ATOM     60  C   UNL     1      11.150  -6.313  17.185  1.00  0.00     0.029 A 
ATOM     61  C   UNL     1      10.851  -4.956  17.303  1.00  0.00     0.049 A 
ATOM     62  H   UNL     1      12.212  -3.448  16.738  1.00  0.00     0.167 HD
ATOM     63  C   UNL     1       9.346  -3.004  17.554  1.00  0.00     0.074 A 
ATOM     64  C   UNL     1       9.864  -2.058  16.568  1.00  0.00     0.031 C 
ATOM     65  C   UNL     1       9.764  -4.247  17.931  1.00  0.00     0.037 A 
BRANCH  52  66
ATOM     66  C   UNL     1      13.218  -3.498  13.911  1.00  0.00     0.057 A 
ATOM     67  C   UNL     1      14.325  -3.260  14.749  1.00  0.00     0.134 A 
ATOM     68  C   UNL     1      12.901  -2.440  13.034  1.00  0.00     0.134 A 
ATOM     69  F   UNL     1      14.731  -4.183  15.634  1.00  0.00    -0.206 F 
ATOM     70  C   UNL     1      14.994  -2.030  14.784  1.00  0.00     0.040 A 
ATOM     71  C   UNL     1      13.597  -1.227  13.024  1.00  0.00     0.040 A 
ATOM     72  F   UNL     1      11.846  -2.472  12.213  1.00  0.00    -0.206 F 
ATOM     73  C   UNL     1      14.622  -1.003  13.927  1.00  0.00     0.006 A 
ENDBRANCH  52  66
BRANCH  53  74
ATOM     74  C   UNL     1       5.701  -0.388  16.161  1.00  0.00     0.057 A 
ATOM     75  C   UNL     1       5.821   0.546  17.202  1.00  0.00     0.134 A 
ATOM     76  C   UNL     1       5.078   0.074  14.989  1.00  0.00     0.134 A 
ATOM     77  F   UNL     1       6.427   0.212  18.350  1.00  0.00    -0.206 F 
ATOM     78  C   UNL     1       5.388   1.872  17.071  1.00  0.00     0.040 A 
ATOM     79  C   UNL     1       4.633   1.394  14.848  1.00  0.00     0.040 A 
ATOM     80  F   UNL     1       4.963  -0.712  13.909  1.00  0.00    -0.206 F 
ATOM     81  C   UNL     1       4.804   2.304  15.885  1.00  0.00     0.006 A 
ENDBRANCH  53  74
BRANCH  65  82
ATOM     82  C   UNL     1       8.906  -5.021  18.893  1.00  0.00     0.057 A 
ATOM     83  C   UNL     1       7.578  -5.405  18.649  1.00  0.00     0.134 A 
ATOM     84  C   UNL     1       9.496  -5.503  20.067  1.00  0.00     0.134 A 
ATOM     85  F   UNL     1       6.958  -5.085  17.506  1.00  0.00    -0.206 F 
ATOM     86  C   UNL     1       6.857  -6.182  19.561  1.00  0.00     0.040 A 
ATOM     87  C   UNL     1       8.799  -6.312  20.966  1.00  0.00     0.040 A 
ATOM     88  F   UNL     1      10.780  -5.225  20.342  1.00  0.00    -0.206 F 
ATOM     89  C   UNL     1       7.469  -6.642  20.722  1.00  0.00     0.006 A 
ENDBRANCH  65  82
ENDBRANCH  39  40
ENDBRANCH  31  34
ENDBRANCH  29  30
ENDBRANCH  28  29
ENDBRANCH   1  28
TORSDOF 17
