REMARK SMILES O=C1C[C@@H](c2cccc(O)c2)c2c(c(C(=O)NCCCCNC(=O)c3ccc(-c4c5nc(c(-c6c(F)cccc6F)c6ccc([nH]6)c(-c6c(F)cccc6F)c6nc(c(-c7c(F)cccc7F)c7ccc4[nH]7)C=C6)C=C5)cc3)cn2-c2cccc(C(F)(F)F)c2)N1
REMARK SMILES IDX 19 1 18 2 17 3 15 4 16 5 14 7 1 8 2 9 3 10 91 11 4 12 13 13
REMARK SMILES IDX 12 15 80 16 79 17 5 18 6 19 11 20 7 21 9 22 8 23 10 24 81 26
REMARK SMILES IDX 82 27 90 28 83 29 85 30 84 31 86 32 87 33 88 34 89 35 20 36
REMARK SMILES IDX 21 37 22 38 23 39 24 41 25 42 26 43 78 44 27 45 77 46 28 47
REMARK SMILES IDX 29 48 30 49 71 50 31 51 76 52 70 53 72 54 32 55 75 56 69 57
REMARK SMILES IDX 68 58 33 60 59 61 42 62 58 63 43 64 46 65 57 66 73 67 44 68
REMARK SMILES IDX 45 69 56 71 74 72 47 73 34 74 35 75 40 76 36 77 37 78 39 79
REMARK SMILES IDX 41 80 38 81 60 82 61 83 66 84 62 85 63 86 65 87 67 88 64 89
REMARK SMILES IDX 48 90 49 91 54 92 50 93 51 94 53 95 55 96 52 97
REMARK H PARENT 17 6 91 14 10 25 22 40 72 59 46 70
REMARK Flexibility Score: inf
ROOT
ATOM      1  C   UNL     1       6.194  -3.869   4.983  1.00  0.00     0.023 C 
ENDROOT
BRANCH   1   2
ATOM      2  C   UNL     1       6.736  -3.687   3.563  1.00  0.00     0.116 C 
BRANCH   2   3
ATOM      3  N   UNL     1       5.733  -3.912   2.543  1.00  0.00    -0.352 N 
ATOM      4  C   UNL     1       4.937  -3.084   1.792  1.00  0.00     0.254 C 
ATOM      5  O   UNL     1       4.168  -3.643   1.004  1.00  0.00    -0.269 OA
ATOM      6  H   UNL     1       5.591  -4.866   2.346  1.00  0.00     0.163 HD
BRANCH   4   7
ATOM      7  C   UNL     1       4.950  -1.626   1.895  1.00  0.00     0.081 A 
ATOM      8  O   UNL     1       1.466  -0.366  -1.150  1.00  0.00    -0.275 OA
ATOM      9  C   UNL     1       2.419  -0.076  -0.428  1.00  0.00     0.225 C 
ATOM     10  C   UNL     1       2.988   1.338  -0.380  1.00  0.00     0.115 C 
ATOM     11  N   UNL     1       3.096  -1.044   0.273  1.00  0.00    -0.324 N 
ATOM     12  C   UNL     1       3.593   1.737   0.981  1.00  0.00     0.078 C 
ATOM     13  C   UNL     1       4.081  -0.746   1.187  1.00  0.00     0.076 A 
ATOM     14  H   UNL     1       2.868  -1.989   0.115  1.00  0.00     0.170 HD
ATOM     15  C   UNL     1       4.317   0.557   1.563  1.00  0.00     0.055 A 
ATOM     16  N   UNL     1       5.346   0.542   2.477  1.00  0.00    -0.317 N 
ATOM     17  C   UNL     1       5.755  -0.775   2.629  1.00  0.00     0.107 A 
BRANCH  12  18
ATOM     18  C   UNL     1       2.533   2.308   1.908  1.00  0.00    -0.035 A 
ATOM     19  C   UNL     1       1.502   1.518   2.442  1.00  0.00     0.005 A 
ATOM     20  C   UNL     1       2.619   3.654   2.302  1.00  0.00     0.050 A 
ATOM     21  C   UNL     1       0.615   2.046   3.382  1.00  0.00     0.004 A 
ATOM     22  C   UNL     1       1.752   4.158   3.265  1.00  0.00     0.115 A 
ATOM     23  C   UNL     1       0.749   3.365   3.809  1.00  0.00     0.046 A 
BRANCH  22  24
ATOM     24  O   UNL     1       1.958   5.436   3.691  1.00  0.00    -0.508 OA
ATOM     25  H   UNL     1       1.395   5.811   4.339  1.00  0.00     0.293 HD
ENDBRANCH  22  24
ENDBRANCH  12  18
BRANCH  16  26
ATOM     26  C   UNL     1       5.890   1.581   3.267  1.00  0.00     0.046 A 
ATOM     27  C   UNL     1       7.281   1.709   3.365  1.00  0.00     0.026 A 
ATOM     28  C   UNL     1       5.058   2.325   4.105  1.00  0.00     0.039 A 
ATOM     29  C   UNL     1       7.833   2.617   4.267  1.00  0.00     0.003 A 
ATOM     30  C   UNL     1       5.605   3.234   5.024  1.00  0.00     0.058 A 
ATOM     31  C   UNL     1       7.000   3.378   5.088  1.00  0.00     0.013 A 
BRANCH  30  32
ATOM     32  C   UNL     1       4.723   4.020   5.964  1.00  0.00     0.416 C 
ATOM     33  F   UNL     1       5.118   3.897   7.264  1.00  0.00    -0.166 F 
ATOM     34  F   UNL     1       4.734   5.355   5.700  1.00  0.00    -0.166 F 
ATOM     35  F   UNL     1       3.415   3.642   5.947  1.00  0.00    -0.166 F 
ENDBRANCH  30  32
ENDBRANCH  16  26
ENDBRANCH   4   7
ENDBRANCH   2   3
ENDBRANCH   1   2
BRANCH   1  36
ATOM     36  C   UNL     1       6.052  -5.330   5.443  1.00  0.00     0.023 C 
BRANCH  36  37
ATOM     37  C   UNL     1       7.352  -6.132   5.479  1.00  0.00     0.116 C 
BRANCH  37  38
ATOM     38  N   UNL     1       8.362  -5.566   6.376  1.00  0.00    -0.352 N 
ATOM     39  C   UNL     1       9.703  -5.909   6.472  1.00  0.00     0.251 C 
ATOM     40  H   UNL     1       8.052  -4.857   6.984  1.00  0.00     0.163 HD
ATOM     41  O   UNL     1      10.349  -5.684   7.479  1.00  0.00    -0.269 OA
BRANCH  39  42
ATOM     42  C   UNL     1      10.343  -6.528   5.299  1.00  0.00     0.039 A 
ATOM     43  C   UNL     1      11.197  -7.628   5.405  1.00  0.00     0.014 A 
ATOM     44  C   UNL     1      10.018  -5.992   4.059  1.00  0.00     0.014 A 
ATOM     45  C   UNL     1      11.652  -8.234   4.236  1.00  0.00     0.010 A 
ATOM     46  C   UNL     1      10.312  -6.691   2.922  1.00  0.00     0.010 A 
ATOM     47  C   UNL     1      11.186  -7.768   2.995  1.00  0.00    -0.014 A 
BRANCH  47  48
ATOM     48  C   UNL     1      11.512  -8.455   1.753  1.00  0.00     0.031 A 
ATOM     49  C   UNL     1      11.151  -9.899   1.726  1.00  0.00     0.074 A 
ATOM     50  C   UNL     1      11.875  -7.786   0.635  1.00  0.00     0.049 A 
ATOM     51  N   UNL     1      11.950 -10.909   1.638  1.00  0.00    -0.248 NA
ATOM     52  C   UNL     1       9.744 -10.272   1.955  1.00  0.00     0.031 C 
ATOM     53  C   UNL     1      11.957  -6.336   0.417  1.00  0.00     0.029 A 
ATOM     54  N   UNL     1      12.143  -8.281  -0.601  1.00  0.00    -0.354 N 
ATOM     55  C   UNL     1      11.137 -12.038   1.587  1.00  0.00     0.074 A 
ATOM     56  C   UNL     1       9.818 -11.605   1.966  1.00  0.00     0.031 C 
ATOM     57  C   UNL     1      12.008  -6.076  -0.908  1.00  0.00     0.029 A 
ATOM     58  C   UNL     1      12.144  -7.333  -1.618  1.00  0.00     0.049 A 
ATOM     59  H   UNL     1      12.323  -9.235  -0.764  1.00  0.00     0.167 HD
ATOM     60  C   UNL     1      11.566 -13.192   1.003  1.00  0.00     0.037 A 
ATOM     61  C   UNL     1      12.217  -7.581  -2.950  1.00  0.00     0.037 A 
ATOM     62  C   UNL     1      12.998 -13.196   0.842  1.00  0.00     0.049 A 
ATOM     63  C   UNL     1      12.768  -8.953  -3.107  1.00  0.00     0.074 A 
ATOM     64  C   UNL     1      14.063 -13.068   1.715  1.00  0.00     0.029 A 
ATOM     65  N   UNL     1      13.510 -12.922  -0.404  1.00  0.00    -0.354 N 
ATOM     66  N   UNL     1      13.989  -9.280  -2.781  1.00  0.00    -0.248 NA
ATOM     67  C   UNL     1      11.815 -10.052  -3.148  1.00  0.00     0.031 C 
ATOM     68  C   UNL     1      14.987 -12.219   1.036  1.00  0.00     0.029 A 
ATOM     69  C   UNL     1      14.477 -11.962  -0.237  1.00  0.00     0.049 A 
ATOM     70  H   UNL     1      13.235 -13.336  -1.254  1.00  0.00     0.167 HD
ATOM     71  C   UNL     1      13.870 -10.516  -2.161  1.00  0.00     0.074 A 
ATOM     72  C   UNL     1      12.515 -10.971  -2.477  1.00  0.00     0.031 C 
ATOM     73  C   UNL     1      14.755 -10.924  -1.204  1.00  0.00     0.037 A 
BRANCH  60  74
ATOM     74  C   UNL     1      10.667 -14.147   0.262  1.00  0.00     0.057 A 
ATOM     75  C   UNL     1      11.159 -15.406  -0.126  1.00  0.00     0.134 A 
ATOM     76  C   UNL     1       9.438 -13.778  -0.323  1.00  0.00     0.134 A 
ATOM     77  F   UNL     1      12.333 -15.858   0.339  1.00  0.00    -0.206 F 
ATOM     78  C   UNL     1      10.502 -16.210  -1.065  1.00  0.00     0.040 A 
ATOM     79  C   UNL     1       8.748 -14.596  -1.221  1.00  0.00     0.040 A 
ATOM     80  F   UNL     1       8.894 -12.569  -0.141  1.00  0.00    -0.206 F 
ATOM     81  C   UNL     1       9.294 -15.805  -1.618  1.00  0.00     0.006 A 
ENDBRANCH  60  74
BRANCH  61  82
ATOM     82  C   UNL     1      11.553  -6.852  -4.056  1.00  0.00     0.057 A 
ATOM     83  C   UNL     1      11.935  -7.048  -5.391  1.00  0.00     0.134 A 
ATOM     84  C   UNL     1      10.346  -6.154  -3.859  1.00  0.00     0.134 A 
ATOM     85  F   UNL     1      13.047  -7.737  -5.684  1.00  0.00    -0.206 F 
ATOM     86  C   UNL     1      11.155  -6.597  -6.465  1.00  0.00     0.040 A 
ATOM     87  C   UNL     1       9.561  -5.695  -4.922  1.00  0.00     0.040 A 
ATOM     88  F   UNL     1       9.844  -5.972  -2.630  1.00  0.00    -0.206 F 
ATOM     89  C   UNL     1       9.957  -5.928  -6.232  1.00  0.00     0.006 A 
ENDBRANCH  61  82
BRANCH  73  90
ATOM     90  C   UNL     1      15.994 -10.096  -0.971  1.00  0.00     0.057 A 
ATOM     91  C   UNL     1      15.985  -8.760  -0.538  1.00  0.00     0.134 A 
ATOM     92  C   UNL     1      17.241 -10.728  -1.017  1.00  0.00     0.134 A 
ATOM     93  F   UNL     1      14.839  -8.094  -0.360  1.00  0.00    -0.206 F 
ATOM     94  C   UNL     1      17.161  -8.078  -0.208  1.00  0.00     0.040 A 
ATOM     95  C   UNL     1      18.420 -10.069  -0.657  1.00  0.00     0.040 A 
ATOM     96  F   UNL     1      17.330 -12.022  -1.364  1.00  0.00    -0.206 F 
ATOM     97  C   UNL     1      18.384  -8.736  -0.259  1.00  0.00     0.006 A 
ENDBRANCH  73  90
ENDBRANCH  47  48
ENDBRANCH  39  42
ENDBRANCH  37  38
ENDBRANCH  36  37
ENDBRANCH   1  36
TORSDOF 15
