REMARK SMILES Cc1ccc(-c2c(C)sc(NC(=O)[C@H]3CC=CC[C@H]3C(=O)NCCCCNC(=O)c3ccc(-c4c5nc(c(-c6c(F)cccc6F)c6ccc([nH]6)c(-c6c(F)cccc6F)c6nc(c(-c7c(F)cccc7F)c7ccc4[nH]7)C=C6)C=C5)cc3)c2C(N)=O)cc1
REMARK SMILES IDX 24 1 23 2 22 3 20 4 21 5 19 7 14 8 15 9 16 10 18 11 17 12
REMARK SMILES IDX 12 13 11 14 13 16 10 17 6 18 7 19 84 20 8 21 9 22 5 23 1 24
REMARK SMILES IDX 2 25 3 26 89 27 4 28 88 29 85 30 86 31 87 32 25 35 26 36
REMARK SMILES IDX 27 37 28 38 29 40 30 41 31 42 83 43 32 44 82 45 33 46 34 47
REMARK SMILES IDX 35 48 76 49 36 50 81 51 75 52 77 53 37 54 80 55 74 56 73 57
REMARK SMILES IDX 38 59 64 60 47 61 63 62 48 63 51 64 62 65 78 66 49 67 50 68
REMARK SMILES IDX 61 70 79 71 52 72 39 73 40 74 45 75 41 76 42 77 44 78 46 79
REMARK SMILES IDX 43 80 65 81 66 82 71 83 67 84 68 85 70 86 72 87 69 88 53 89
REMARK SMILES IDX 54 90 59 91 55 92 56 93 58 94 60 95 57 96
REMARK H PARENT 22 6 11 15 86 33 86 34 27 39 77 58 51 69
REMARK Flexibility Score: inf
ROOT
ATOM      1  C   UNL     1      -8.597  -2.326   2.655  1.00  0.00     0.023 C 
ENDROOT
BRANCH   1   2
ATOM      2  C   UNL     1      -7.892  -2.881   1.411  1.00  0.00     0.116 C 
BRANCH   2   3
ATOM      3  N   UNL     1      -8.812  -3.004   0.315  1.00  0.00    -0.356 N 
ATOM      4  C   UNL     1      -9.143  -2.131  -0.659  1.00  0.00     0.224 C 
ATOM      5  O   UNL     1     -10.151  -2.423  -1.314  1.00  0.00    -0.275 OA
ATOM      6  H   UNL     1      -9.278  -3.869   0.265  1.00  0.00     0.163 HD
BRANCH   4   7
ATOM      7  C   UNL     1      -8.322  -0.905  -1.036  1.00  0.00     0.095 C 
ATOM      8  C   UNL     1      -8.317   0.384  -0.190  1.00  0.00     0.095 C 
ATOM      9  C   UNL     1      -8.021   1.572  -1.133  1.00  0.00     0.041 C 
ATOM     10  C   UNL     1      -7.056   1.245  -2.257  1.00  0.00    -0.030 C 
ATOM     11  C   UNL     1      -6.986  -1.200  -1.705  1.00  0.00     0.041 C 
ATOM     12  C   UNL     1      -6.549   0.018  -2.478  1.00  0.00    -0.030 C 
BRANCH   8  13
ATOM     13  C   UNL     1      -7.645   0.487   1.209  1.00  0.00     0.229 C 
ATOM     14  N   UNL     1      -6.365   0.202   1.586  1.00  0.00    -0.317 N 
ATOM     15  H   UNL     1      -6.295  -0.225   2.471  1.00  0.00     0.170 HD
ATOM     16  O   UNL     1      -8.383   0.791   2.165  1.00  0.00    -0.274 OA
BRANCH  14  17
ATOM     17  C   UNL     1      -5.148   0.397   0.962  1.00  0.00     0.109 A 
ATOM     18  C   UNL     1      -2.917   0.410   0.267  1.00  0.00     0.010 A 
ATOM     19  C   UNL     1      -3.531   1.236  -0.661  1.00  0.00     0.012 A 
ATOM     20  C   UNL     1      -3.869  -0.069   1.271  1.00  0.00     0.082 A 
ATOM     21  C   UNL     1      -3.072   1.788  -1.968  1.00  0.00     0.057 C 
ATOM     22  S   UNL     1      -5.014   1.762  -0.032  1.00  0.00    -0.122 S 
BRANCH  18  23
ATOM     23  C   UNL     1      -1.476   0.188   0.190  1.00  0.00    -0.016 A 
ATOM     24  C   UNL     1       2.804  -0.262  -0.085  1.00  0.00     0.044 C 
ATOM     25  C   UNL     1       1.315  -0.104  -0.007  1.00  0.00    -0.051 A 
ATOM     26  C   UNL     1       0.471  -1.222  -0.088  1.00  0.00     0.004 A 
ATOM     27  C   UNL     1       0.753   1.160   0.185  1.00  0.00     0.004 A 
ATOM     28  C   UNL     1      -0.920  -1.079   0.005  1.00  0.00     0.009 A 
ATOM     29  C   UNL     1      -0.628   1.301   0.292  1.00  0.00     0.009 A 
ENDBRANCH  18  23
BRANCH  20  30
ATOM     30  C   UNL     1      -3.488  -0.888   2.427  1.00  0.00     0.252 C 
ATOM     31  N   UNL     1      -4.467  -1.656   2.999  1.00  0.00    -0.365 N 
ATOM     32  O   UNL     1      -2.369  -0.910   2.905  1.00  0.00    -0.269 OA
ATOM     33  H   UNL     1      -5.378  -1.650   2.627  1.00  0.00     0.159 HD
ATOM     34  H   UNL     1      -4.259  -2.213   3.784  1.00  0.00     0.159 HD
ENDBRANCH  20  30
ENDBRANCH  14  17
ENDBRANCH   8  13
ENDBRANCH   4   7
ENDBRANCH   2   3
ENDBRANCH   1   2
BRANCH   1  35
ATOM     35  C   UNL     1      -9.726  -3.180   3.232  1.00  0.00     0.023 C 
BRANCH  35  36
ATOM     36  C   UNL     1      -9.274  -4.527   3.753  1.00  0.00     0.116 C 
BRANCH  36  37
ATOM     37  N   UNL     1      -8.703  -4.515   5.088  1.00  0.00    -0.352 N 
ATOM     38  C   UNL     1      -8.091  -5.535   5.796  1.00  0.00     0.251 C 
ATOM     39  H   UNL     1      -8.759  -3.652   5.559  1.00  0.00     0.163 HD
ATOM     40  O   UNL     1      -7.800  -5.346   6.976  1.00  0.00    -0.269 OA
BRANCH  38  41
ATOM     41  C   UNL     1      -7.621  -6.773   5.114  1.00  0.00     0.039 A 
ATOM     42  C   UNL     1      -6.438  -7.360   5.586  1.00  0.00     0.014 A 
ATOM     43  C   UNL     1      -8.138  -7.184   3.892  1.00  0.00     0.014 A 
ATOM     44  C   UNL     1      -5.632  -8.079   4.710  1.00  0.00     0.010 A 
ATOM     45  C   UNL     1      -7.287  -7.758   2.979  1.00  0.00     0.010 A 
ATOM     46  C   UNL     1      -6.003  -8.130   3.374  1.00  0.00    -0.014 A 
BRANCH  46  47
ATOM     47  C   UNL     1      -5.123  -8.514   2.287  1.00  0.00     0.031 A 
ATOM     48  C   UNL     1      -5.251  -9.852   1.699  1.00  0.00     0.074 A 
ATOM     49  C   UNL     1      -4.347  -7.567   1.719  1.00  0.00     0.049 A 
ATOM     50  N   UNL     1      -4.386 -10.388   0.915  1.00  0.00    -0.248 NA
ATOM     51  C   UNL     1      -6.384 -10.717   1.994  1.00  0.00     0.031 C 
ATOM     52  C   UNL     1      -3.653  -7.614   0.436  1.00  0.00     0.029 A 
ATOM     53  N   UNL     1      -3.851  -6.411   2.336  1.00  0.00    -0.354 N 
ATOM     54  C   UNL     1      -4.954 -11.521   0.378  1.00  0.00     0.074 A 
ATOM     55  C   UNL     1      -6.156 -11.727   1.152  1.00  0.00     0.031 C 
ATOM     56  C   UNL     1      -2.626  -6.747   0.473  1.00  0.00     0.029 A 
ATOM     57  C   UNL     1      -2.533  -6.269   1.842  1.00  0.00     0.049 A 
ATOM     58  H   UNL     1      -4.319  -5.825   2.974  1.00  0.00     0.167 HD
ATOM     59  C   UNL     1      -4.391 -12.059  -0.742  1.00  0.00     0.037 A 
ATOM     60  C   UNL     1      -1.470  -6.481   2.675  1.00  0.00     0.037 A 
ATOM     61  C   UNL     1      -3.128 -11.380  -1.063  1.00  0.00     0.049 A 
ATOM     62  C   UNL     1      -0.557  -7.622   2.260  1.00  0.00     0.074 A 
ATOM     63  C   UNL     1      -2.741 -10.410  -1.974  1.00  0.00     0.029 A 
ATOM     64  N   UNL     1      -2.091 -11.468  -0.152  1.00  0.00    -0.354 N 
ATOM     65  N   UNL     1      -0.796  -8.453   1.282  1.00  0.00    -0.248 NA
ATOM     66  C   UNL     1       0.651  -7.976   3.005  1.00  0.00     0.031 C 
ATOM     67  C   UNL     1      -1.460  -9.914  -1.582  1.00  0.00     0.029 A 
ATOM     68  C   UNL     1      -1.063 -10.595  -0.445  1.00  0.00     0.049 A 
ATOM     69  H   UNL     1      -2.086 -12.083   0.617  1.00  0.00     0.167 HD
ATOM     70  C   UNL     1       0.131  -9.464   1.303  1.00  0.00     0.074 A 
ATOM     71  C   UNL     1       1.016  -9.119   2.402  1.00  0.00     0.031 C 
ATOM     72  C   UNL     1       0.076 -10.540   0.461  1.00  0.00     0.037 A 
BRANCH  59  73
ATOM     73  C   UNL     1      -5.077 -13.036  -1.679  1.00  0.00     0.057 A 
ATOM     74  C   UNL     1      -4.627 -13.182  -3.007  1.00  0.00     0.134 A 
ATOM     75  C   UNL     1      -6.211 -13.816  -1.381  1.00  0.00     0.134 A 
ATOM     76  F   UNL     1      -3.501 -12.598  -3.437  1.00  0.00    -0.206 F 
ATOM     77  C   UNL     1      -5.307 -13.940  -3.971  1.00  0.00     0.040 A 
ATOM     78  C   UNL     1      -6.927 -14.542  -2.343  1.00  0.00     0.040 A 
ATOM     79  F   UNL     1      -6.657 -13.982  -0.135  1.00  0.00    -0.206 F 
ATOM     80  C   UNL     1      -6.484 -14.597  -3.651  1.00  0.00     0.006 A 
ENDBRANCH  59  73
BRANCH  60  81
ATOM     81  C   UNL     1      -1.777  -6.127   4.095  1.00  0.00     0.057 A 
ATOM     82  C   UNL     1      -2.202  -4.819   4.397  1.00  0.00     0.134 A 
ATOM     83  C   UNL     1      -2.025  -7.109   5.057  1.00  0.00     0.134 A 
ATOM     84  F   UNL     1      -2.015  -3.829   3.511  1.00  0.00    -0.206 F 
ATOM     85  C   UNL     1      -2.952  -4.530   5.540  1.00  0.00     0.040 A 
ATOM     86  C   UNL     1      -2.756  -6.825   6.216  1.00  0.00     0.040 A 
ATOM     87  F   UNL     1      -1.675  -8.385   4.842  1.00  0.00    -0.206 F 
ATOM     88  C   UNL     1      -3.263  -5.546   6.436  1.00  0.00     0.006 A 
ENDBRANCH  60  81
BRANCH  72  89
ATOM     89  C   UNL     1       1.076 -11.671   0.484  1.00  0.00     0.057 A 
ATOM     90  C   UNL     1       2.453 -11.466   0.655  1.00  0.00     0.134 A 
ATOM     91  C   UNL     1       0.698 -13.009   0.243  1.00  0.00     0.134 A 
ATOM     92  F   UNL     1       2.961 -10.231   0.776  1.00  0.00    -0.206 F 
ATOM     93  C   UNL     1       3.372 -12.524   0.682  1.00  0.00     0.040 A 
ATOM     94  C   UNL     1       1.611 -14.066   0.212  1.00  0.00     0.040 A 
ATOM     95  F   UNL     1      -0.579 -13.366   0.048  1.00  0.00    -0.206 F 
ATOM     96  C   UNL     1       2.953 -13.830   0.457  1.00  0.00     0.006 A 
ENDBRANCH  72  89
ENDBRANCH  46  47
ENDBRANCH  38  41
ENDBRANCH  36  37
ENDBRANCH  35  36
ENDBRANCH   1  35
TORSDOF 15
