REMARK SMILES Cc1c(-c2nn(-c3ccccc3)cc2/C=N/O)nnn1-c1ccc(C(=O)NCCCCNC(=O)c2ccc(-c3c4nc(c(-c5c(F)cccc5F)c5ccc([nH]5)c(-c5c(F)cccc5F)c5nc(c(-c6c(F)cccc6F)c6ccc3[nH]6)C=C5)C=C4)cc2)cc1
REMARK SMILES IDX 28 1 27 2 25 3 26 4 24 6 21 7 22 8 90 9 23 10 89 11 20 12
REMARK SMILES IDX 1 13 2 14 3 15 18 16 19 17 4 18 5 19 14 20 6 21 13 22 15 23
REMARK SMILES IDX 16 24 17 25 7 27 8 28 12 29 9 30 11 31 10 32 29 33 30 34
REMARK SMILES IDX 31 35 32 36 33 37 34 39 35 40 36 41 88 42 37 43 87 44 38 45
REMARK SMILES IDX 39 46 40 47 81 48 41 49 86 50 80 51 82 52 42 53 85 54 79 55
REMARK SMILES IDX 78 56 43 58 69 59 52 60 68 61 53 62 56 63 67 64 83 65 54 66
REMARK SMILES IDX 55 67 66 69 84 70 57 71 44 72 45 73 50 74 46 75 47 76 49 77
REMARK SMILES IDX 51 78 48 79 70 80 71 81 76 82 72 83 73 84 75 85 77 86 74 87
REMARK SMILES IDX 58 88 59 89 64 90 60 91 61 92 63 93 65 94 62 95
REMARK H PARENT 27 5 17 26 32 38 82 57 56 68
REMARK Flexibility Score: inf
ROOT
ATOM      1  C   UNL     1       3.683   1.993  -5.673  1.00  0.00     0.116 C 
ENDROOT
BRANCH   1   2
ATOM      2  N   UNL     1       4.622   2.887  -5.022  1.00  0.00    -0.352 N 
ATOM      3  C   UNL     1       4.673   3.479  -3.786  1.00  0.00     0.251 C 
ATOM      4  O   UNL     1       5.658   4.186  -3.560  1.00  0.00    -0.269 OA
ATOM      5  H   UNL     1       5.390   3.119  -5.592  1.00  0.00     0.163 HD
BRANCH   3   6
ATOM      6  C   UNL     1       3.663   3.284  -2.700  1.00  0.00     0.039 A 
ATOM      7  C   UNL     1       1.962   2.869  -0.496  1.00  0.00     0.067 A 
ATOM      8  C   UNL     1       3.196   3.489  -0.303  1.00  0.00     0.029 A 
ATOM      9  C   UNL     1       1.541   2.524  -1.782  1.00  0.00     0.029 A 
ATOM     10  C   UNL     1       4.051   3.658  -1.398  1.00  0.00     0.016 A 
ATOM     11  C   UNL     1       2.370   2.784  -2.880  1.00  0.00     0.016 A 
BRANCH   7  12
ATOM     12  N   UNL     1       1.124   2.618   0.609  1.00  0.00    -0.217 N 
ATOM     13  C   UNL     1       0.734   0.130   0.318  1.00  0.00     0.069 C 
ATOM     14  C   UNL     1       0.460   1.451   0.931  1.00  0.00     0.071 A 
ATOM     15  C   UNL     1      -0.348   1.833   1.984  1.00  0.00     0.137 A 
ATOM     16  N   UNL     1      -0.092   3.129   2.327  1.00  0.00    -0.128 NA
ATOM     17  N   UNL     1       0.869   3.577   1.528  1.00  0.00    -0.061 NA
BRANCH  15  18
ATOM     18  C   UNL     1      -1.256   1.009   2.773  1.00  0.00     0.124 A 
ATOM     19  N   UNL     1      -0.796   0.106   3.646  1.00  0.00    -0.165 NA
ATOM     20  C   UNL     1      -2.669   1.027   2.707  1.00  0.00     0.044 A 
ATOM     21  N   UNL     1      -1.900  -0.535   4.085  1.00  0.00    -0.240 N 
ATOM     22  C   UNL     1      -3.048  -0.014   3.534  1.00  0.00     0.125 A 
BRANCH  20  23
ATOM     23  C   UNL     1      -3.587   1.872   1.987  1.00  0.00     0.166 C 
ATOM     24  N   UNL     1      -3.150   2.708   1.105  1.00  0.00    -0.097 NA
BRANCH  24  25
ATOM     25  O   UNL     1      -4.232   3.424   0.576  1.00  0.00    -0.411 OA
ATOM     26  H   UNL     1      -4.087   4.075  -0.081  1.00  0.00     0.330 HD
ENDBRANCH  24  25
ENDBRANCH  20  23
BRANCH  21  27
ATOM     27  C   UNL     1      -1.792  -1.624   4.979  1.00  0.00     0.065 A 
ATOM     28  C   UNL     1      -0.758  -1.630   5.925  1.00  0.00     0.028 A 
ATOM     29  C   UNL     1      -2.691  -2.695   4.908  1.00  0.00     0.028 A 
ATOM     30  C   UNL     1      -0.639  -2.696   6.815  1.00  0.00     0.002 A 
ATOM     31  C   UNL     1      -2.531  -3.783   5.769  1.00  0.00     0.002 A 
ATOM     32  C   UNL     1      -1.516  -3.778   6.727  1.00  0.00     0.000 A 
ENDBRANCH  21  27
ENDBRANCH  15  18
ENDBRANCH   7  12
ENDBRANCH   3   6
ENDBRANCH   1   2
BRANCH   1  33
ATOM     33  C   UNL     1       2.708   2.765  -6.569  1.00  0.00     0.023 C 
BRANCH  33  34
ATOM     34  C   UNL     1       3.300   3.241  -7.907  1.00  0.00     0.023 C 
BRANCH  34  35
ATOM     35  C   UNL     1       3.657   2.125  -8.885  1.00  0.00     0.116 C 
BRANCH  35  36
ATOM     36  N   UNL     1       2.500   1.320  -9.276  1.00  0.00    -0.352 N 
ATOM     37  C   UNL     1       2.488   0.098  -9.912  1.00  0.00     0.251 C 
ATOM     38  H   UNL     1       1.619   1.699  -9.056  1.00  0.00     0.163 HD
ATOM     39  O   UNL     1       1.494  -0.282 -10.531  1.00  0.00    -0.269 OA
BRANCH  37  40
ATOM     40  C   UNL     1       3.676  -0.763  -9.831  1.00  0.00     0.039 A 
ATOM     41  C   UNL     1       4.157  -1.446 -10.951  1.00  0.00     0.014 A 
ATOM     42  C   UNL     1       4.325  -0.861  -8.601  1.00  0.00     0.014 A 
ATOM     43  C   UNL     1       5.350  -2.156 -10.845  1.00  0.00     0.010 A 
ATOM     44  C   UNL     1       5.561  -1.455  -8.528  1.00  0.00     0.010 A 
ATOM     45  C   UNL     1       6.061  -2.136  -9.635  1.00  0.00    -0.014 A 
BRANCH  45  46
ATOM     46  C   UNL     1       7.410  -2.693  -9.557  1.00  0.00     0.031 A 
ATOM     47  C   UNL     1       8.366  -2.102 -10.536  1.00  0.00     0.074 A 
ATOM     48  C   UNL     1       7.817  -3.485  -8.541  1.00  0.00     0.049 A 
ATOM     49  N   UNL     1       8.949  -2.689 -11.527  1.00  0.00    -0.248 NA
ATOM     50  C   UNL     1       8.592  -0.646 -10.497  1.00  0.00     0.031 C 
ATOM     51  C   UNL     1       7.055  -3.868  -7.345  1.00  0.00     0.029 A 
ATOM     52  N   UNL     1       9.044  -4.029  -8.298  1.00  0.00    -0.354 N 
ATOM     53  C   UNL     1       9.786  -1.733 -12.102  1.00  0.00     0.074 A 
ATOM     54  C   UNL     1       9.378  -0.466 -11.561  1.00  0.00     0.031 C 
ATOM     55  C   UNL     1       7.892  -4.369  -6.411  1.00  0.00     0.029 A 
ATOM     56  C   UNL     1       9.209  -4.509  -7.001  1.00  0.00     0.049 A 
ATOM     57  H   UNL     1       9.751  -4.079  -8.980  1.00  0.00     0.167 HD
ATOM     58  C   UNL     1      10.921  -2.107 -12.756  1.00  0.00     0.037 A 
ATOM     59  C   UNL     1      10.349  -4.983  -6.442  1.00  0.00     0.037 A 
ATOM     60  C   UNL     1      10.895  -3.522 -13.035  1.00  0.00     0.049 A 
ATOM     61  C   UNL     1      11.259  -5.351  -7.546  1.00  0.00     0.074 A 
ATOM     62  C   UNL     1      10.156  -4.366 -13.834  1.00  0.00     0.029 A 
ATOM     63  N   UNL     1      11.518  -4.299 -12.094  1.00  0.00    -0.354 N 
ATOM     64  N   UNL     1      11.042  -6.341  -8.364  1.00  0.00    -0.248 NA
ATOM     65  C   UNL     1      12.249  -4.380  -7.990  1.00  0.00     0.031 C 
ATOM     66  C   UNL     1      10.107  -5.608 -13.132  1.00  0.00     0.029 A 
ATOM     67  C   UNL     1      10.865  -5.492 -11.964  1.00  0.00     0.049 A 
ATOM     68  H   UNL     1      12.319  -4.036 -11.585  1.00  0.00     0.167 HD
ATOM     69  C   UNL     1      11.508  -5.888  -9.585  1.00  0.00     0.074 A 
ATOM     70  C   UNL     1      12.385  -4.768  -9.261  1.00  0.00     0.031 C 
ATOM     71  C   UNL     1      10.892  -6.268 -10.743  1.00  0.00     0.037 A 
BRANCH  58  72
ATOM     72  C   UNL     1      12.241  -1.354 -12.720  1.00  0.00     0.057 A 
ATOM     73  C   UNL     1      13.334  -1.868 -13.449  1.00  0.00     0.134 A 
ATOM     74  C   UNL     1      12.580  -0.365 -11.774  1.00  0.00     0.134 A 
ATOM     75  F   UNL     1      13.156  -2.817 -14.382  1.00  0.00    -0.206 F 
ATOM     76  C   UNL     1      14.661  -1.499 -13.188  1.00  0.00     0.040 A 
ATOM     77  C   UNL     1      13.897   0.045 -11.539  1.00  0.00     0.040 A 
ATOM     78  F   UNL     1      11.682   0.189 -10.953  1.00  0.00    -0.206 F 
ATOM     79  C   UNL     1      14.947  -0.546 -12.220  1.00  0.00     0.006 A 
ENDBRANCH  58  72
BRANCH  59  80
ATOM     80  C   UNL     1      10.796  -4.946  -5.033  1.00  0.00     0.057 A 
ATOM     81  C   UNL     1      11.794  -5.810  -4.558  1.00  0.00     0.134 A 
ATOM     82  C   UNL     1      10.459  -3.871  -4.194  1.00  0.00     0.134 A 
ATOM     83  F   UNL     1      12.210  -6.844  -5.303  1.00  0.00    -0.206 F 
ATOM     84  C   UNL     1      12.441  -5.599  -3.333  1.00  0.00     0.040 A 
ATOM     85  C   UNL     1      11.095  -3.650  -2.967  1.00  0.00     0.040 A 
ATOM     86  F   UNL     1       9.565  -2.949  -4.582  1.00  0.00    -0.206 F 
ATOM     87  C   UNL     1      12.102  -4.507  -2.540  1.00  0.00     0.006 A 
ENDBRANCH  59  80
BRANCH  71  88
ATOM     88  C   UNL     1      10.020  -7.490 -10.692  1.00  0.00     0.057 A 
ATOM     89  C   UNL     1       8.822  -7.591  -9.970  1.00  0.00     0.134 A 
ATOM     90  C   UNL     1      10.360  -8.574 -11.509  1.00  0.00     0.134 A 
ATOM     91  F   UNL     1       8.369  -6.576  -9.225  1.00  0.00    -0.206 F 
ATOM     92  C   UNL     1       8.021  -8.736 -10.032  1.00  0.00     0.040 A 
ATOM     93  C   UNL     1       9.551  -9.707 -11.608  1.00  0.00     0.040 A 
ATOM     94  F   UNL     1      11.470  -8.528 -12.263  1.00  0.00    -0.206 F 
ATOM     95  C   UNL     1       8.381  -9.795 -10.860  1.00  0.00     0.006 A 
ENDBRANCH  71  88
ENDBRANCH  45  46
ENDBRANCH  37  40
ENDBRANCH  35  36
ENDBRANCH  34  35
ENDBRANCH  33  34
ENDBRANCH   1  33
TORSDOF 16
