REMARK SMILES Cc1noc(C)c1[C@@H](C)NC(=O)N(CC(=O)NCCCCNC(=O)c1ccc(-c2c3nc(c(-c4c(F)cccc4F)c4ccc([nH]4)c(-c4c(F)cccc4F)c4nc(c(-c5c(F)cccc5F)c5ccc2[nH]5)C=C4)C=C3)cc1)C(C)C
REMARK SMILES IDX 18 1 17 2 15 3 16 4 14 6 13 7 11 8 10 9 12 11 8 12 9 13 7 14
REMARK SMILES IDX 1 15 2 16 3 17 4 18 5 19 6 20 79 21 80 22 81 23 19 24 20 25
REMARK SMILES IDX 21 26 22 27 23 28 24 30 25 31 26 32 78 33 27 34 77 35 28 36
REMARK SMILES IDX 29 37 30 38 71 39 31 40 76 41 70 42 72 43 32 44 75 45 69 46
REMARK SMILES IDX 68 47 33 49 59 50 42 51 58 52 43 53 46 54 57 55 73 56 44 57
REMARK SMILES IDX 45 58 56 60 74 61 47 62 34 63 35 64 40 65 36 66 37 67 39 68
REMARK SMILES IDX 41 69 38 70 60 71 61 72 66 73 62 74 63 75 65 76 67 77 64 78
REMARK SMILES IDX 48 79 49 80 54 81 50 82 51 83 53 84 55 85 52 86
REMARK H PARENT 17 5 10 10 22 29 72 48 46 59
REMARK Flexibility Score: inf
ROOT
ATOM      1  C   UNL     1       0.473   5.988  -0.424  1.00  0.00     0.116 C 
ENDROOT
BRANCH   1   2
ATOM      2  N   UNL     1       1.901   6.185  -0.347  1.00  0.00    -0.355 N 
ATOM      3  C   UNL     1       2.862   5.361   0.162  1.00  0.00     0.239 C 
ATOM      4  O   UNL     1       4.037   5.639  -0.100  1.00  0.00    -0.273 OA
ATOM      5  H   UNL     1       2.229   7.037  -0.715  1.00  0.00     0.163 HD
BRANCH   3   6
ATOM      6  C   UNL     1       2.521   4.049   0.893  1.00  0.00     0.221 C 
BRANCH   6   7
ATOM      7  N   UNL     1       1.585   4.148   2.016  1.00  0.00    -0.313 N 
BRANCH   7   8
ATOM      8  C   UNL     1       0.307   3.674   2.108  1.00  0.00     0.318 C 
ATOM      9  N   UNL     1      -0.329   2.928   1.192  1.00  0.00    -0.331 N 
ATOM     10  H   UNL     1      -1.226   2.705   1.529  1.00  0.00     0.165 HD
ATOM     11  O   UNL     1      -0.401   3.920   3.092  1.00  0.00    -0.249 OA
BRANCH   9  12
ATOM     12  C   UNL     1      -0.157   2.329  -0.131  1.00  0.00     0.116 C 
ATOM     13  C   UNL     1      -1.272   2.790  -1.079  1.00  0.00     0.036 C 
BRANCH  12  14
ATOM     14  C   UNL     1      -0.103   0.843   0.032  1.00  0.00     0.040 A 
ATOM     15  C   UNL     1      -2.629   0.106   0.185  1.00  0.00     0.071 C 
ATOM     16  C   UNL     1      -1.162  -0.109   0.158  1.00  0.00     0.086 A 
ATOM     17  N   UNL     1      -0.691  -1.358   0.246  1.00  0.00    -0.085 NA
ATOM     18  O   UNL     1       0.680  -1.251   0.202  1.00  0.00    -0.361 OA
ATOM     19  C   UNL     1       1.031   0.053   0.077  1.00  0.00     0.139 A 
ATOM     20  C   UNL     1       2.481   0.323   0.019  1.00  0.00     0.091 C 
ENDBRANCH  12  14
ENDBRANCH   9  12
ENDBRANCH   7   8
BRANCH   7  21
ATOM     21  C   UNL     1       2.172   4.847   3.200  1.00  0.00     0.081 C 
ATOM     22  C   UNL     1       1.590   6.237   3.454  1.00  0.00     0.031 C 
ATOM     23  C   UNL     1       2.162   4.001   4.478  1.00  0.00     0.031 C 
ENDBRANCH   7  21
ENDBRANCH   6   7
ENDBRANCH   3   6
ENDBRANCH   1   2
BRANCH   1  24
ATOM     24  C   UNL     1      -0.337   6.974   0.409  1.00  0.00     0.023 C 
BRANCH  24  25
ATOM     25  C   UNL     1      -0.305   8.408  -0.108  1.00  0.00     0.023 C 
BRANCH  25  26
ATOM     26  C   UNL     1      -0.971   8.592  -1.464  1.00  0.00     0.116 C 
BRANCH  26  27
ATOM     27  N   UNL     1      -2.401   8.319  -1.440  1.00  0.00    -0.352 N 
ATOM     28  C   UNL     1      -3.399   8.995  -2.107  1.00  0.00     0.251 C 
ATOM     29  H   UNL     1      -2.689   7.562  -0.880  1.00  0.00     0.163 HD
ATOM     30  O   UNL     1      -4.576   8.732  -1.928  1.00  0.00    -0.269 OA
BRANCH  28  31
ATOM     31  C   UNL     1      -3.001  10.079  -3.026  1.00  0.00     0.039 A 
ATOM     32  C   UNL     1      -3.492  11.368  -2.810  1.00  0.00     0.014 A 
ATOM     33  C   UNL     1      -2.064   9.825  -4.030  1.00  0.00     0.014 A 
ATOM     34  C   UNL     1      -2.984  12.429  -3.562  1.00  0.00     0.010 A 
ATOM     35  C   UNL     1      -1.514  10.890  -4.730  1.00  0.00     0.010 A 
ATOM     36  C   UNL     1      -1.964  12.201  -4.500  1.00  0.00    -0.014 A 
BRANCH  36  37
ATOM     37  C   UNL     1      -1.352  13.301  -5.282  1.00  0.00     0.031 A 
ATOM     38  C   UNL     1      -1.499  13.300  -6.777  1.00  0.00     0.074 A 
ATOM     39  C   UNL     1      -0.572  14.215  -4.674  1.00  0.00     0.049 A 
ATOM     40  N   UNL     1      -0.871  14.018  -7.671  1.00  0.00    -0.248 NA
ATOM     41  C   UNL     1      -2.451  12.330  -7.341  1.00  0.00     0.031 C 
ATOM     42  C   UNL     1      -0.320  14.298  -3.234  1.00  0.00     0.029 A 
ATOM     43  N   UNL     1       0.182  15.234  -5.201  1.00  0.00    -0.354 N 
ATOM     44  C   UNL     1      -1.313  13.551  -8.902  1.00  0.00     0.074 A 
ATOM     45  C   UNL     1      -2.245  12.476  -8.642  1.00  0.00     0.031 C 
ATOM     46  C   UNL     1       0.529  15.312  -2.994  1.00  0.00     0.029 A 
ATOM     47  C   UNL     1       0.912  15.923  -4.263  1.00  0.00     0.049 A 
ATOM     48  H   UNL     1       0.198  15.451  -6.161  1.00  0.00     0.167 HD
ATOM     49  C   UNL     1      -0.979  13.989 -10.137  1.00  0.00     0.037 A 
ATOM     50  C   UNL     1       1.806  16.919  -4.415  1.00  0.00     0.037 A 
ATOM     51  C   UNL     1      -0.105  15.101 -10.388  1.00  0.00     0.049 A 
ATOM     52  C   UNL     1       2.116  17.423  -5.797  1.00  0.00     0.074 A 
ATOM     53  C   UNL     1       0.240  15.669 -11.602  1.00  0.00     0.029 A 
ATOM     54  N   UNL     1       0.548  15.826  -9.404  1.00  0.00    -0.354 N 
ATOM     55  N   UNL     1       1.662  17.000  -6.951  1.00  0.00    -0.248 NA
ATOM     56  C   UNL     1       3.063  18.544  -5.900  1.00  0.00     0.031 C 
ATOM     57  C   UNL     1       1.117  16.729 -11.352  1.00  0.00     0.029 A 
ATOM     58  C   UNL     1       1.293  16.837  -9.982  1.00  0.00     0.049 A 
ATOM     59  H   UNL     1       0.489  15.648  -8.437  1.00  0.00     0.167 HD
ATOM     60  C   UNL     1       2.238  17.821  -7.911  1.00  0.00     0.074 A 
ATOM     61  C   UNL     1       3.075  18.769  -7.207  1.00  0.00     0.031 C 
ATOM     62  C   UNL     1       2.088  17.792  -9.257  1.00  0.00     0.037 A 
BRANCH  49  63
ATOM     63  C   UNL     1      -1.566  13.268 -11.311  1.00  0.00     0.057 A 
ATOM     64  C   UNL     1      -2.911  13.415 -11.670  1.00  0.00     0.134 A 
ATOM     65  C   UNL     1      -0.765  12.449 -12.117  1.00  0.00     0.134 A 
ATOM     66  F   UNL     1      -3.733  14.174 -10.929  1.00  0.00    -0.206 F 
ATOM     67  C   UNL     1      -3.444  12.759 -12.780  1.00  0.00     0.040 A 
ATOM     68  C   UNL     1      -1.281  11.806 -13.242  1.00  0.00     0.040 A 
ATOM     69  F   UNL     1       0.533  12.268 -11.828  1.00  0.00    -0.206 F 
ATOM     70  C   UNL     1      -2.626  11.958 -13.574  1.00  0.00     0.006 A 
ENDBRANCH  49  63
BRANCH  50  71
ATOM     71  C   UNL     1       2.469  17.517  -3.229  1.00  0.00     0.057 A 
ATOM     72  C   UNL     1       2.140  18.806  -2.796  1.00  0.00     0.134 A 
ATOM     73  C   UNL     1       3.458  16.829  -2.518  1.00  0.00     0.134 A 
ATOM     74  F   UNL     1       1.213  19.521  -3.451  1.00  0.00    -0.206 F 
ATOM     75  C   UNL     1       2.787  19.401  -1.713  1.00  0.00     0.040 A 
ATOM     76  C   UNL     1       4.099  17.404  -1.419  1.00  0.00     0.040 A 
ATOM     77  F   UNL     1       3.813  15.587  -2.879  1.00  0.00    -0.206 F 
ATOM     78  C   UNL     1       3.770  18.697  -1.019  1.00  0.00     0.006 A 
ENDBRANCH  50  71
BRANCH  62  79
ATOM     79  C   UNL     1       2.789  18.848 -10.053  1.00  0.00     0.057 A 
ATOM     80  C   UNL     1       4.159  18.776 -10.327  1.00  0.00     0.134 A 
ATOM     81  C   UNL     1       2.066  19.908 -10.613  1.00  0.00     0.134 A 
ATOM     82  F   UNL     1       4.905  17.789  -9.809  1.00  0.00    -0.206 F 
ATOM     83  C   UNL     1       4.789  19.729 -11.128  1.00  0.00     0.040 A 
ATOM     84  C   UNL     1       2.681  20.856 -11.430  1.00  0.00     0.040 A 
ATOM     85  F   UNL     1       0.748  20.025 -10.392  1.00  0.00    -0.206 F 
ATOM     86  C   UNL     1       4.047  20.768 -11.689  1.00  0.00     0.006 A 
ENDBRANCH  62  79
ENDBRANCH  36  37
ENDBRANCH  28  31
ENDBRANCH  26  27
ENDBRANCH  25  26
ENDBRANCH  24  25
ENDBRANCH   1  24
TORSDOF 16
