REMARK SMILES Cc1[nH]c2ccccc2c1CC(=O)N(C)CCCC(=O)NCCCCNC(=O)c1ccc(-c2c3nc(c(-c4c(F)cccc4F)c4ccc([nH]4)c(-c4c(F)cccc4F)c4nc(c(-c5c(F)cccc5F)c5ccc2[nH]5)C=C4)C=C3)cc1
REMARK SMILES IDX 19 1 20 2 21 3 18 5 17 6 16 7 14 8 15 9 12 10 13 11 11 12
REMARK SMILES IDX 10 13 1 14 2 15 3 16 4 17 9 19 5 20 8 21 6 22 7 23 22 24
REMARK SMILES IDX 23 25 24 26 25 27 26 28 27 29 28 31 29 32 30 33 82 34 31 35
REMARK SMILES IDX 81 36 32 37 33 38 34 39 75 40 35 41 80 42 74 43 76 44 36 45
REMARK SMILES IDX 79 46 73 47 72 48 37 50 63 51 46 52 62 53 47 54 50 55 61 56
REMARK SMILES IDX 77 57 48 58 49 59 60 61 78 62 51 63 38 64 39 65 44 66 40 67
REMARK SMILES IDX 41 68 43 69 45 70 42 71 64 72 65 73 70 74 66 75 67 76 69 77
REMARK SMILES IDX 71 78 68 79 52 80 53 81 58 82 54 83 55 84 57 85 59 86 56 87
REMARK H PARENT 21 4 3 18 26 30 76 49 50 60
REMARK Flexibility Score: inf
ROOT
ATOM      1  C   UNL     1       0.933  -6.126  -3.270  1.00  0.00     0.220 C 
ATOM      2  O   UNL     1       1.778  -6.839  -3.822  1.00  0.00    -0.275 OA
ATOM      3  N   UNL     1      -0.328  -6.625  -3.186  1.00  0.00    -0.356 N 
ATOM      4  H   UNL     1      -0.432  -7.538  -3.538  1.00  0.00     0.163 HD
ENDROOT
BRANCH   1   5
ATOM      5  C   UNL     1       1.341  -4.805  -2.640  1.00  0.00     0.102 C 
BRANCH   5   6
ATOM      6  C   UNL     1       0.979  -3.482  -3.321  1.00  0.00     0.031 C 
BRANCH   6   7
ATOM      7  C   UNL     1      -0.466  -2.993  -3.460  1.00  0.00     0.119 C 
BRANCH   7   8
ATOM      8  N   UNL     1      -1.226  -2.408  -2.337  1.00  0.00    -0.345 N 
ATOM      9  C   UNL     1      -2.254  -1.457  -2.755  1.00  0.00     0.146 C 
BRANCH   8  10
ATOM     10  C   UNL     1      -1.078  -2.784  -1.004  1.00  0.00     0.226 C 
ATOM     11  O   UNL     1      -0.394  -3.741  -0.643  1.00  0.00    -0.275 OA
BRANCH  10  12
ATOM     12  C   UNL     1      -1.791  -1.999   0.091  1.00  0.00     0.138 C 
BRANCH  12  13
ATOM     13  C   UNL     1      -1.264  -0.605   0.197  1.00  0.00    -0.010 A 
ATOM     14  C   UNL     1      -3.470   0.802   0.291  1.00  0.00     0.064 C 
ATOM     15  C   UNL     1      -2.004   0.566   0.259  1.00  0.00     0.016 A 
ATOM     16  N   UNL     1      -1.115   1.613   0.262  1.00  0.00    -0.358 N 
ATOM     17  C   UNL     1       0.180   1.155   0.209  1.00  0.00     0.046 A 
ATOM     18  H   UNL     1      -1.371   2.563   0.297  1.00  0.00     0.166 HD
ATOM     19  C   UNL     1       0.123  -0.235   0.222  1.00  0.00     0.003 A 
ATOM     20  C   UNL     1       1.389   1.859   0.150  1.00  0.00     0.026 A 
ATOM     21  C   UNL     1       1.336  -0.959   0.215  1.00  0.00     0.010 A 
ATOM     22  C   UNL     1       2.574   1.118   0.114  1.00  0.00     0.002 A 
ATOM     23  C   UNL     1       2.552  -0.273   0.156  1.00  0.00     0.001 A 
ENDBRANCH  12  13
ENDBRANCH  10  12
ENDBRANCH   8  10
ENDBRANCH   7   8
ENDBRANCH   6   7
ENDBRANCH   5   6
ENDBRANCH   1   5
BRANCH   3  24
ATOM     24  C   UNL     1      -1.541  -6.039  -2.666  1.00  0.00     0.116 C 
BRANCH  24  25
ATOM     25  C   UNL     1      -2.541  -5.767  -3.793  1.00  0.00     0.023 C 
BRANCH  25  26
ATOM     26  C   UNL     1      -3.571  -6.870  -3.980  1.00  0.00     0.023 C 
BRANCH  26  27
ATOM     27  C   UNL     1      -4.558  -6.990  -2.827  1.00  0.00     0.116 C 
BRANCH  27  28
ATOM     28  N   UNL     1      -5.408  -5.819  -2.655  1.00  0.00    -0.352 N 
ATOM     29  C   UNL     1      -6.753  -5.782  -2.343  1.00  0.00     0.251 C 
ATOM     30  H   UNL     1      -4.969  -4.946  -2.775  1.00  0.00     0.163 HD
ATOM     31  O   UNL     1      -7.363  -4.733  -2.293  1.00  0.00    -0.269 OA
BRANCH  29  32
ATOM     32  C   UNL     1      -7.443  -7.073  -2.126  1.00  0.00     0.039 A 
ATOM     33  C   UNL     1      -8.548  -7.387  -2.918  1.00  0.00     0.014 A 
ATOM     34  C   UNL     1      -6.906  -8.009  -1.240  1.00  0.00     0.014 A 
ATOM     35  C   UNL     1      -9.058  -8.686  -2.891  1.00  0.00     0.010 A 
ATOM     36  C   UNL     1      -7.359  -9.321  -1.282  1.00  0.00     0.010 A 
ATOM     37  C   UNL     1      -8.433  -9.676  -2.114  1.00  0.00    -0.014 A 
BRANCH  37  38
ATOM     38  C   UNL     1      -8.874 -11.092  -2.162  1.00  0.00     0.031 A 
ATOM     39  C   UNL     1      -9.394 -11.756  -0.918  1.00  0.00     0.074 A 
ATOM     40  C   UNL     1      -8.727 -11.803  -3.297  1.00  0.00     0.049 A 
ATOM     41  N   UNL     1      -9.743 -13.003  -0.731  1.00  0.00    -0.248 NA
ATOM     42  C   UNL     1      -9.500 -10.914   0.284  1.00  0.00     0.031 C 
ATOM     43  C   UNL     1      -8.172 -11.296  -4.554  1.00  0.00     0.029 A 
ATOM     44  N   UNL     1      -9.022 -13.115  -3.573  1.00  0.00    -0.354 N 
ATOM     45  C   UNL     1     -10.084 -13.098   0.612  1.00  0.00     0.074 A 
ATOM     46  C   UNL     1      -9.847 -11.801   1.204  1.00  0.00     0.031 C 
ATOM     47  C   UNL     1      -8.194 -12.276  -5.473  1.00  0.00     0.029 A 
ATOM     48  C   UNL     1      -8.731 -13.488  -4.863  1.00  0.00     0.049 A 
ATOM     49  H   UNL     1      -9.406 -13.732  -2.908  1.00  0.00     0.167 HD
ATOM     50  C   UNL     1     -10.578 -14.164   1.286  1.00  0.00     0.037 A 
ATOM     51  C   UNL     1      -8.880 -14.674  -5.483  1.00  0.00     0.037 A 
ATOM     52  C   UNL     1     -10.854 -15.441   0.687  1.00  0.00     0.049 A 
ATOM     53  C   UNL     1      -9.455 -15.835  -4.720  1.00  0.00     0.074 A 
ATOM     54  C   UNL     1     -11.427 -16.559   1.266  1.00  0.00     0.029 A 
ATOM     55  N   UNL     1     -10.579 -15.768  -0.632  1.00  0.00    -0.354 N 
ATOM     56  N   UNL     1      -9.844 -15.890  -3.470  1.00  0.00    -0.248 NA
ATOM     57  C   UNL     1      -9.616 -17.097  -5.457  1.00  0.00     0.031 C 
ATOM     58  C   UNL     1     -11.470 -17.575   0.305  1.00  0.00     0.029 A 
ATOM     59  C   UNL     1     -10.958 -17.076  -0.882  1.00  0.00     0.049 A 
ATOM     60  H   UNL     1     -10.175 -15.160  -1.293  1.00  0.00     0.167 HD
ATOM     61  C   UNL     1     -10.317 -17.181  -3.276  1.00  0.00     0.074 A 
ATOM     62  C   UNL     1     -10.179 -17.872  -4.541  1.00  0.00     0.031 C 
ATOM     63  C   UNL     1     -10.820 -17.744  -2.150  1.00  0.00     0.037 A 
BRANCH  50  64
ATOM     64  C   UNL     1     -10.862 -13.979   2.747  1.00  0.00     0.057 A 
ATOM     65  C   UNL     1     -11.924 -13.183   3.196  1.00  0.00     0.134 A 
ATOM     66  C   UNL     1     -10.074 -14.612   3.716  1.00  0.00     0.134 A 
ATOM     67  F   UNL     1     -12.706 -12.535   2.318  1.00  0.00    -0.206 F 
ATOM     68  C   UNL     1     -12.175 -12.999   4.556  1.00  0.00     0.040 A 
ATOM     69  C   UNL     1     -10.331 -14.457   5.079  1.00  0.00     0.040 A 
ATOM     70  F   UNL     1      -9.044 -15.391   3.354  1.00  0.00    -0.206 F 
ATOM     71  C   UNL     1     -11.379 -13.642   5.502  1.00  0.00     0.006 A 
ENDBRANCH  50  64
BRANCH  51  72
ATOM     72  C   UNL     1      -8.512 -14.818  -6.913  1.00  0.00     0.057 A 
ATOM     73  C   UNL     1      -9.497 -14.951  -7.899  1.00  0.00     0.134 A 
ATOM     74  C   UNL     1      -7.176 -14.836  -7.330  1.00  0.00     0.134 A 
ATOM     75  F   UNL     1     -10.794 -14.960  -7.557  1.00  0.00    -0.206 F 
ATOM     76  C   UNL     1      -9.169 -15.115  -9.245  1.00  0.00     0.040 A 
ATOM     77  C   UNL     1      -6.833 -14.977  -8.676  1.00  0.00     0.040 A 
ATOM     78  F   UNL     1      -6.186 -14.706  -6.435  1.00  0.00    -0.206 F 
ATOM     79  C   UNL     1      -7.832 -15.124  -9.637  1.00  0.00     0.006 A 
ENDBRANCH  51  72
BRANCH  63  80
ATOM     80  C   UNL     1     -11.283 -19.167  -2.244  1.00  0.00     0.057 A 
ATOM     81  C   UNL     1     -10.379 -20.233  -2.311  1.00  0.00     0.134 A 
ATOM     82  C   UNL     1     -12.649 -19.474  -2.223  1.00  0.00     0.134 A 
ATOM     83  F   UNL     1      -9.057 -20.002  -2.347  1.00  0.00    -0.206 F 
ATOM     84  C   UNL     1     -10.817 -21.556  -2.371  1.00  0.00     0.040 A 
ATOM     85  C   UNL     1     -13.100 -20.794  -2.260  1.00  0.00     0.040 A 
ATOM     86  F   UNL     1     -13.566 -18.497  -2.153  1.00  0.00    -0.206 F 
ATOM     87  C   UNL     1     -12.182 -21.839  -2.338  1.00  0.00     0.006 A 
ENDBRANCH  63  80
ENDBRANCH  37  38
ENDBRANCH  29  32
ENDBRANCH  27  28
ENDBRANCH  26  27
ENDBRANCH  25  26
ENDBRANCH  24  25
ENDBRANCH   3  24
TORSDOF 17
