REMARK SMILES Cc1c(Cl)cccc1-c1cccc(Cl)c1C(=O)NCCCCNC(=O)c1ccc(-c2c3nc(c(-c4c(F)cccc4F)c4ccc([nH]4)c(-c4c(F)cccc4F)c4nc(c(-c5c(F)cccc5F)c5ccc2[nH]5)C=C4)C=C3)cc1
REMARK SMILES IDX 21 1 20 2 19 3 18 4 16 5 17 6 15 8 9 9 10 10 11 11 13 12
REMARK SMILES IDX 12 13 14 14 8 15 1 16 2 17 3 18 4 19 5 20 7 21 6 22 22 23
REMARK SMILES IDX 23 24 24 25 25 27 26 28 27 29 79 30 28 31 78 32 29 33 30 34
REMARK SMILES IDX 31 35 72 36 32 37 77 38 71 39 73 40 33 41 76 42 70 43 69 44
REMARK SMILES IDX 34 46 60 47 43 48 59 49 44 50 47 51 58 52 74 53 45 54 46 55
REMARK SMILES IDX 57 57 75 58 48 59 35 60 36 61 41 62 37 63 38 64 40 65 42 66
REMARK SMILES IDX 39 67 61 68 62 69 67 70 63 71 64 72 66 73 68 74 65 75 49 76
REMARK SMILES IDX 50 77 55 78 51 79 52 80 54 81 56 82 53 83
REMARK H PARENT 18 7 23 26 73 45 47 56
REMARK Flexibility Score: inf
ROOT
ATOM      1  C   UNL     1      -0.487  -1.313  -3.745  1.00  0.00     0.023 C 
ENDROOT
BRANCH   1   2
ATOM      2  C   UNL     1      -1.819  -0.817  -3.174  1.00  0.00     0.023 C 
BRANCH   2   3
ATOM      3  C   UNL     1      -1.748   0.277  -2.117  1.00  0.00     0.116 C 
BRANCH   3   4
ATOM      4  N   UNL     1      -1.052   1.478  -2.507  1.00  0.00    -0.352 N 
ATOM      5  C   UNL     1      -1.050   2.707  -1.892  1.00  0.00     0.253 C 
ATOM      6  O   UNL     1      -0.169   3.510  -2.198  1.00  0.00    -0.269 OA
ATOM      7  H   UNL     1      -0.505   1.409  -3.322  1.00  0.00     0.163 HD
BRANCH   5   8
ATOM      8  C   UNL     1      -2.080   3.128  -0.904  1.00  0.00     0.066 A 
ATOM      9  C   UNL     1      -2.217   2.552   0.387  1.00  0.00    -0.004 A 
ATOM     10  C   UNL     1      -3.127   3.152   1.291  1.00  0.00     0.009 A 
ATOM     11  C   UNL     1      -3.874   4.277   0.951  1.00  0.00     0.002 A 
ATOM     12  C   UNL     1      -2.851   4.265  -1.237  1.00  0.00     0.054 A 
ATOM     13  C   UNL     1      -3.738   4.830  -0.314  1.00  0.00     0.021 A 
ATOM     14  Cl  UNL     1      -2.802   5.017  -2.800  1.00  0.00    -0.083 Cl
BRANCH   9  15
ATOM     15  C   UNL     1      -1.520   1.336   0.859  1.00  0.00    -0.013 A 
ATOM     16  C   UNL     1       0.792   2.419   0.829  1.00  0.00     0.046 C 
ATOM     17  C   UNL     1      -0.119   1.235   1.034  1.00  0.00    -0.025 A 
ATOM     18  C   UNL     1       0.429  -0.022   1.377  1.00  0.00     0.044 A 
ATOM     19  Cl  UNL     1       2.139  -0.267   1.493  1.00  0.00    -0.084 Cl
ATOM     20  C   UNL     1      -0.385  -1.136   1.607  1.00  0.00     0.021 A 
ATOM     21  C   UNL     1      -2.322   0.199   1.135  1.00  0.00     0.009 A 
ATOM     22  C   UNL     1      -1.764  -1.023   1.501  1.00  0.00     0.002 A 
ENDBRANCH   9  15
ENDBRANCH   5   8
ENDBRANCH   3   4
ENDBRANCH   2   3
ENDBRANCH   1   2
BRANCH   1  23
ATOM     23  C   UNL     1       0.683  -1.508  -2.781  1.00  0.00     0.116 C 
BRANCH  23  24
ATOM     24  N   UNL     1       0.431  -2.434  -1.687  1.00  0.00    -0.352 N 
ATOM     25  C   UNL     1       1.104  -3.567  -1.290  1.00  0.00     0.251 C 
ATOM     26  H   UNL     1      -0.355  -2.212  -1.137  1.00  0.00     0.163 HD
ATOM     27  O   UNL     1       0.717  -4.190  -0.304  1.00  0.00    -0.269 OA
BRANCH  25  28
ATOM     28  C   UNL     1       2.239  -4.090  -2.086  1.00  0.00     0.039 A 
ATOM     29  C   UNL     1       2.227  -5.441  -2.448  1.00  0.00     0.014 A 
ATOM     30  C   UNL     1       3.276  -3.264  -2.522  1.00  0.00     0.014 A 
ATOM     31  C   UNL     1       3.168  -5.926  -3.361  1.00  0.00     0.010 A 
ATOM     32  C   UNL     1       4.167  -3.728  -3.490  1.00  0.00     0.010 A 
ATOM     33  C   UNL     1       4.096  -5.053  -3.950  1.00  0.00    -0.014 A 
BRANCH  33  34
ATOM     34  C   UNL     1       4.929  -5.475  -5.108  1.00  0.00     0.031 A 
ATOM     35  C   UNL     1       6.428  -5.479  -5.019  1.00  0.00     0.074 A 
ATOM     36  C   UNL     1       4.329  -5.754  -6.283  1.00  0.00     0.049 A 
ATOM     37  N   UNL     1       7.310  -5.695  -5.962  1.00  0.00    -0.248 NA
ATOM     38  C   UNL     1       7.012  -5.173  -3.705  1.00  0.00     0.031 C 
ATOM     39  C   UNL     1       2.883  -5.733  -6.524  1.00  0.00     0.029 A 
ATOM     40  N   UNL     1       4.860  -6.091  -7.504  1.00  0.00    -0.354 N 
ATOM     41  C   UNL     1       8.552  -5.528  -5.364  1.00  0.00     0.074 A 
ATOM     42  C   UNL     1       8.308  -5.160  -3.985  1.00  0.00     0.031 C 
ATOM     43  C   UNL     1       2.644  -6.059  -7.804  1.00  0.00     0.029 A 
ATOM     44  C   UNL     1       3.915  -6.272  -8.486  1.00  0.00     0.049 A 
ATOM     45  H   UNL     1       5.826  -6.193  -7.661  1.00  0.00     0.167 HD
ATOM     46  C   UNL     1       9.783  -5.680  -5.910  1.00  0.00     0.037 A 
ATOM     47  C   UNL     1       4.053  -6.563  -9.793  1.00  0.00     0.037 A 
ATOM     48  C   UNL     1      10.029  -6.075  -7.272  1.00  0.00     0.049 A 
ATOM     49  C   UNL     1       5.428  -6.739 -10.370  1.00  0.00     0.074 A 
ATOM     50  C   UNL     1      11.241  -6.322  -7.893  1.00  0.00     0.029 A 
ATOM     51  N   UNL     1       9.043  -6.282  -8.225  1.00  0.00    -0.354 N 
ATOM     52  N   UNL     1       6.591  -6.637  -9.776  1.00  0.00    -0.248 NA
ATOM     53  C   UNL     1       5.510  -7.071 -11.801  1.00  0.00     0.031 C 
ATOM     54  C   UNL     1      10.991  -6.649  -9.230  1.00  0.00     0.029 A 
ATOM     55  C   UNL     1       9.621  -6.638  -9.433  1.00  0.00     0.049 A 
ATOM     56  H   UNL     1       8.076  -6.189  -8.066  1.00  0.00     0.167 HD
ATOM     57  C   UNL     1       7.541  -6.912 -10.750  1.00  0.00     0.074 A 
ATOM     58  C   UNL     1       6.819  -7.196 -11.973  1.00  0.00     0.031 C 
ATOM     59  C   UNL     1       8.891  -6.925 -10.640  1.00  0.00     0.037 A 
BRANCH  46  60
ATOM     60  C   UNL     1      10.964  -5.420  -5.023  1.00  0.00     0.057 A 
ATOM     61  C   UNL     1      11.329  -6.310  -4.005  1.00  0.00     0.134 A 
ATOM     62  C   UNL     1      11.762  -4.285  -5.208  1.00  0.00     0.134 A 
ATOM     63  F   UNL     1      10.599  -7.411  -3.770  1.00  0.00    -0.206 F 
ATOM     64  C   UNL     1      12.431  -6.066  -3.184  1.00  0.00     0.040 A 
ATOM     65  C   UNL     1      12.880  -4.041  -4.409  1.00  0.00     0.040 A 
ATOM     66  F   UNL     1      11.471  -3.397  -6.171  1.00  0.00    -0.206 F 
ATOM     67  C   UNL     1      13.213  -4.931  -3.389  1.00  0.00     0.006 A 
ENDBRANCH  46  60
BRANCH  47  68
ATOM     68  C   UNL     1       2.851  -6.725 -10.648  1.00  0.00     0.057 A 
ATOM     69  C   UNL     1       2.452  -7.990 -11.093  1.00  0.00     0.134 A 
ATOM     70  C   UNL     1       2.078  -5.627 -11.041  1.00  0.00     0.134 A 
ATOM     71  F   UNL     1       3.167  -9.076 -10.763  1.00  0.00    -0.206 F 
ATOM     72  C   UNL     1       1.335  -8.158 -11.911  1.00  0.00     0.040 A 
ATOM     73  C   UNL     1       0.946  -5.782 -11.843  1.00  0.00     0.040 A 
ATOM     74  F   UNL     1       2.406  -4.389 -10.642  1.00  0.00    -0.206 F 
ATOM     75  C   UNL     1       0.575  -7.051 -12.284  1.00  0.00     0.006 A 
ENDBRANCH  47  68
BRANCH  59  76
ATOM     76  C   UNL     1       9.674  -7.287 -11.866  1.00  0.00     0.057 A 
ATOM     77  C   UNL     1       9.844  -6.385 -12.923  1.00  0.00     0.134 A 
ATOM     78  C   UNL     1      10.296  -8.537 -11.971  1.00  0.00     0.134 A 
ATOM     79  F   UNL     1       9.259  -5.178 -12.887  1.00  0.00    -0.206 F 
ATOM     80  C   UNL     1      10.595  -6.720 -14.050  1.00  0.00     0.040 A 
ATOM     81  C   UNL     1      11.066  -8.875 -13.084  1.00  0.00     0.040 A 
ATOM     82  F   UNL     1      10.174  -9.444 -10.990  1.00  0.00    -0.206 F 
ATOM     83  C   UNL     1      11.214  -7.966 -14.130  1.00  0.00     0.006 A 
ENDBRANCH  59  76
ENDBRANCH  33  34
ENDBRANCH  25  28
ENDBRANCH  23  24
ENDBRANCH   1  23
TORSDOF 12
