REMARK SMILES Cc1nc(-c2ccccc2Cl)nc2sc(C(=O)NCCCCNC(=O)c3ccc(-c4c5nc(c(-c6c(F)cccc6F)c6ccc([nH]6)c(-c6c(F)cccc6F)c6nc(c(-c7c(F)cccc7F)c7ccc4[nH]7)C=C6)C=C5)cc3)c(N)c12
REMARK SMILES IDX 21 1 20 2 19 3 18 4 16 5 17 6 15 8 1 9 2 10 3 11 82 12 4 13
REMARK SMILES IDX 13 14 80 15 12 16 14 17 5 18 6 19 10 20 7 21 9 22 11 23 8 24
REMARK SMILES IDX 81 25 22 28 23 29 24 30 25 32 26 33 27 34 79 35 28 36 78 37
REMARK SMILES IDX 29 38 30 39 31 40 72 41 32 42 77 43 71 44 73 45 33 46 76 47
REMARK SMILES IDX 70 48 69 49 34 51 60 52 43 53 59 54 44 55 47 56 58 57 74 58
REMARK SMILES IDX 45 59 46 60 57 62 75 63 48 64 35 65 36 66 41 67 37 68 38 69
REMARK SMILES IDX 40 70 42 71 39 72 61 73 62 74 67 75 63 76 64 77 66 78 68 79
REMARK SMILES IDX 65 80 49 81 50 82 55 83 51 84 52 85 54 86 56 87 53 88
REMARK H PARENT 18 7 81 26 81 27 23 31 73 50 47 61
REMARK Flexibility Score: inf
ROOT
ATOM      1  C   UNL     1       0.166   9.604  -0.665  1.00  0.00     0.023 C 
ENDROOT
BRANCH   1   2
ATOM      2  C   UNL     1       0.210   8.157  -1.170  1.00  0.00     0.023 C 
BRANCH   2   3
ATOM      3  C   UNL     1       1.599   7.498  -1.161  1.00  0.00     0.116 C 
BRANCH   3   4
ATOM      4  N   UNL     1       1.961   6.963   0.147  1.00  0.00    -0.351 N 
ATOM      5  C   UNL     1       1.866   5.696   0.698  1.00  0.00     0.263 C 
ATOM      6  O   UNL     1       2.429   5.561   1.791  1.00  0.00    -0.268 OA
ATOM      7  H   UNL     1       2.348   7.633   0.756  1.00  0.00     0.163 HD
BRANCH   5   8
ATOM      8  C   UNL     1       1.205   4.578   0.029  1.00  0.00     0.118 A 
ATOM      9  C   UNL     1       1.047  -0.089  -0.063  1.00  0.00     0.067 C 
ATOM     10  C   UNL     1       0.552   1.000  -0.965  1.00  0.00     0.052 A 
ATOM     11  N   UNL     1      -0.058   0.603  -2.126  1.00  0.00    -0.233 NA
ATOM     12  C   UNL     1       0.674   2.384  -0.703  1.00  0.00     0.056 A 
ATOM     13  C   UNL     1      -0.587   1.534  -2.941  1.00  0.00     0.162 A 
ATOM     14  C   UNL     1       0.018   3.199  -1.603  1.00  0.00     0.130 A 
ATOM     15  C   UNL     1       1.337   3.211   0.283  1.00  0.00     0.067 A 
ATOM     16  N   UNL     1      -0.609   2.845  -2.722  1.00  0.00    -0.217 NA
ATOM     17  S   UNL     1      -0.004   4.813  -1.147  1.00  0.00    -0.108 S 
BRANCH  13  18
ATOM     18  C   UNL     1      -1.199   1.149  -4.207  1.00  0.00     0.038 A 
ATOM     19  C   UNL     1      -0.565   1.523  -5.413  1.00  0.00     0.013 A 
ATOM     20  C   UNL     1      -2.487   0.602  -4.279  1.00  0.00     0.052 A 
ATOM     21  C   UNL     1      -1.207   1.382  -6.644  1.00  0.00     0.001 A 
ATOM     22  C   UNL     1      -3.130   0.461  -5.515  1.00  0.00     0.021 A 
ATOM     23  Cl  UNL     1      -3.375   0.158  -2.862  1.00  0.00    -0.084 Cl
ATOM     24  C   UNL     1      -2.495   0.859  -6.693  1.00  0.00     0.002 A 
ENDBRANCH  13  18
BRANCH  15  25
ATOM     25  N   UNL     1       2.077   2.730   1.308  1.00  0.00    -0.397 N 
ATOM     26  H   UNL     1       2.501   3.352   1.943  1.00  0.00     0.156 HD
ATOM     27  H   UNL     1       2.192   1.759   1.419  1.00  0.00     0.156 HD
ENDBRANCH  15  25
ENDBRANCH   5   8
ENDBRANCH   3   4
ENDBRANCH   2   3
ENDBRANCH   1   2
BRANCH   1  28
ATOM     28  C   UNL     1       0.884  10.604  -1.562  1.00  0.00     0.116 C 
BRANCH  28  29
ATOM     29  N   UNL     1       0.297  10.716  -2.896  1.00  0.00    -0.352 N 
ATOM     30  C   UNL     1       0.781  11.448  -3.968  1.00  0.00     0.251 C 
ATOM     31  H   UNL     1      -0.536  10.214  -3.050  1.00  0.00     0.163 HD
ATOM     32  O   UNL     1       0.067  11.778  -4.895  1.00  0.00    -0.269 OA
BRANCH  30  33
ATOM     33  C   UNL     1       2.207  11.818  -3.951  1.00  0.00     0.039 A 
ATOM     34  C   UNL     1       2.616  13.128  -4.206  1.00  0.00     0.014 A 
ATOM     35  C   UNL     1       3.123  10.833  -3.592  1.00  0.00     0.014 A 
ATOM     36  C   UNL     1       3.952  13.459  -4.001  1.00  0.00     0.010 A 
ATOM     37  C   UNL     1       4.404  11.194  -3.252  1.00  0.00     0.010 A 
ATOM     38  C   UNL     1       4.838  12.493  -3.491  1.00  0.00    -0.014 A 
BRANCH  38  39
ATOM     39  C   UNL     1       6.194  12.875  -3.103  1.00  0.00     0.031 A 
ATOM     40  C   UNL     1       6.269  14.039  -2.177  1.00  0.00     0.074 A 
ATOM     41  C   UNL     1       7.290  12.141  -3.393  1.00  0.00     0.049 A 
ATOM     42  N   UNL     1       6.719  15.220  -2.441  1.00  0.00    -0.248 NA
ATOM     43  C   UNL     1       5.665  13.922  -0.839  1.00  0.00     0.031 C 
ATOM     44  C   UNL     1       7.346  10.805  -4.003  1.00  0.00     0.029 A 
ATOM     45  N   UNL     1       8.602  12.394  -3.113  1.00  0.00    -0.354 N 
ATOM     46  C   UNL     1       6.672  15.926  -1.240  1.00  0.00     0.074 A 
ATOM     47  C   UNL     1       5.858  15.149  -0.344  1.00  0.00     0.031 C 
ATOM     48  C   UNL     1       8.572  10.270  -3.820  1.00  0.00     0.029 A 
ATOM     49  C   UNL     1       9.438  11.296  -3.273  1.00  0.00     0.049 A 
ATOM     50  H   UNL     1       8.927  13.277  -2.824  1.00  0.00     0.167 HD
ATOM     51  C   UNL     1       7.545  16.946  -1.005  1.00  0.00     0.037 A 
ATOM     52  C   UNL     1      10.760  11.232  -2.991  1.00  0.00     0.037 A 
ATOM     53  C   UNL     1       8.232  17.320  -2.213  1.00  0.00     0.049 A 
ATOM     54  C   UNL     1      11.289  12.612  -3.040  1.00  0.00     0.074 A 
ATOM     55  C   UNL     1       7.975  18.081  -3.331  1.00  0.00     0.029 A 
ATOM     56  N   UNL     1       9.289  16.504  -2.508  1.00  0.00    -0.354 N 
ATOM     57  N   UNL     1      11.331  13.329  -4.128  1.00  0.00    -0.248 NA
ATOM     58  C   UNL     1      11.492  13.345  -1.795  1.00  0.00     0.031 C 
ATOM     59  C   UNL     1       8.833  17.585  -4.359  1.00  0.00     0.029 A 
ATOM     60  C   UNL     1       9.619  16.563  -3.834  1.00  0.00     0.049 A 
ATOM     61  H   UNL     1       9.755  15.943  -1.847  1.00  0.00     0.167 HD
ATOM     62  C   UNL     1      11.133  14.620  -3.687  1.00  0.00     0.074 A 
ATOM     63  C   UNL     1      11.429  14.595  -2.260  1.00  0.00     0.031 C 
ATOM     64  C   UNL     1      10.418  15.514  -4.426  1.00  0.00     0.037 A 
BRANCH  51  65
ATOM     65  C   UNL     1       8.145  17.283   0.342  1.00  0.00     0.057 A 
ATOM     66  C   UNL     1       8.903  18.460   0.486  1.00  0.00     0.134 A 
ATOM     67  C   UNL     1       8.271  16.360   1.400  1.00  0.00     0.134 A 
ATOM     68  F   UNL     1       8.899  19.403  -0.469  1.00  0.00    -0.206 F 
ATOM     69  C   UNL     1       9.752  18.681   1.580  1.00  0.00     0.040 A 
ATOM     70  C   UNL     1       9.077  16.592   2.520  1.00  0.00     0.040 A 
ATOM     71  F   UNL     1       7.710  15.146   1.357  1.00  0.00    -0.206 F 
ATOM     72  C   UNL     1       9.841  17.744   2.602  1.00  0.00     0.006 A 
ENDBRANCH  51  65
BRANCH  52  73
ATOM     73  C   UNL     1      11.520  10.122  -2.376  1.00  0.00     0.057 A 
ATOM     74  C   UNL     1      12.922  10.153  -2.348  1.00  0.00     0.134 A 
ATOM     75  C   UNL     1      10.903   9.194  -1.519  1.00  0.00     0.134 A 
ATOM     76  F   UNL     1      13.598  11.014  -3.123  1.00  0.00    -0.206 F 
ATOM     77  C   UNL     1      13.667   9.368  -1.461  1.00  0.00     0.040 A 
ATOM     78  C   UNL     1      11.636   8.399  -0.633  1.00  0.00     0.040 A 
ATOM     79  F   UNL     1       9.567   9.102  -1.442  1.00  0.00    -0.206 F 
ATOM     80  C   UNL     1      13.021   8.504  -0.582  1.00  0.00     0.006 A 
ENDBRANCH  52  73
BRANCH  64  81
ATOM     81  C   UNL     1      10.324  15.287  -5.902  1.00  0.00     0.057 A 
ATOM     82  C   UNL     1       9.634  14.229  -6.508  1.00  0.00     0.134 A 
ATOM     83  C   UNL     1      10.902  16.238  -6.750  1.00  0.00     0.134 A 
ATOM     84  F   UNL     1       8.995  13.307  -5.778  1.00  0.00    -0.206 F 
ATOM     85  C   UNL     1       9.550  14.111  -7.900  1.00  0.00     0.040 A 
ATOM     86  C   UNL     1      10.799  16.150  -8.138  1.00  0.00     0.040 A 
ATOM     87  F   UNL     1      11.551  17.296  -6.235  1.00  0.00    -0.206 F 
ATOM     88  C   UNL     1      10.128  15.078  -8.719  1.00  0.00     0.006 A 
ENDBRANCH  64  81
ENDBRANCH  38  39
ENDBRANCH  30  33
ENDBRANCH  28  29
ENDBRANCH   1  28
TORSDOF 13
