REMARK SMILES Cc1ccc(S(=O)(=O)Nc2cc3c(cc2C(=O)NCCCCNC(=O)c2ccc(-c4c5nc(c(-c6c(F)cccc6F)c6ccc([nH]6)c(-c6c(F)cccc6F)c6nc(c(-c7c(F)cccc7F)c7ccc4[nH]7)C=C6)C=C5)cc2)OCCO3)s1
REMARK SMILES IDX 20 1 19 2 18 3 16 4 17 5 15 7 10 8 11 9 12 10 14 11 13 12
REMARK SMILES IDX 83 13 80 14 82 15 81 16 9 17 6 19 7 20 8 21 5 22 1 23 2 24
REMARK SMILES IDX 3 25 84 26 4 27 21 28 22 29 23 30 24 31 25 33 26 34 27 35
REMARK SMILES IDX 79 36 28 37 78 38 29 39 30 40 31 41 72 42 32 43 77 44 71 45
REMARK SMILES IDX 73 46 33 47 76 48 70 49 69 50 34 52 60 53 43 54 59 55 44 56
REMARK SMILES IDX 47 57 58 58 74 59 45 60 46 61 57 63 75 64 48 65 35 66 36 67
REMARK SMILES IDX 41 68 37 69 38 70 40 71 42 72 39 73 61 74 62 75 67 76 63 77
REMARK SMILES IDX 64 78 66 79 68 80 65 81 49 82 50 83 55 84 51 85 52 86 54 87
REMARK SMILES IDX 56 88 53 89
REMARK H PARENT 18 6 9 18 23 32 73 51 47 62
REMARK Flexibility Score: inf
ROOT
ATOM      1  C   UNL     1       0.970  -3.028   2.074  1.00  0.00     0.023 C 
ENDROOT
BRANCH   1   2
ATOM      2  C   UNL     1      -0.491  -3.329   2.379  1.00  0.00     0.116 C 
BRANCH   2   3
ATOM      3  N   UNL     1      -1.299  -2.183   2.761  1.00  0.00    -0.352 N 
ATOM      4  C   UNL     1      -2.592  -1.837   2.430  1.00  0.00     0.253 C 
ATOM      5  O   UNL     1      -3.115  -0.900   3.026  1.00  0.00    -0.269 OA
ATOM      6  H   UNL     1      -0.846  -1.545   3.358  1.00  0.00     0.163 HD
BRANCH   4   7
ATOM      7  C   UNL     1      -3.328  -2.553   1.355  1.00  0.00     0.067 A 
ATOM      8  C   UNL     1      -4.033  -1.841   0.361  1.00  0.00     0.066 A 
ATOM      9  C   UNL     1      -4.606  -2.534  -0.714  1.00  0.00     0.078 A 
ATOM     10  C   UNL     1      -4.471  -3.921  -0.801  1.00  0.00     0.163 A 
ATOM     11  C   UNL     1      -3.314  -3.951   1.320  1.00  0.00     0.066 A 
ATOM     12  C   UNL     1      -3.817  -4.623   0.213  1.00  0.00     0.162 A 
ATOM     13  O   UNL     1      -4.986  -4.530  -1.916  1.00  0.00    -0.486 OA
ATOM     14  O   UNL     1      -3.597  -5.975   0.174  1.00  0.00    -0.486 OA
ATOM     15  C   UNL     1      -5.000  -5.960  -1.794  1.00  0.00     0.271 C 
ATOM     16  C   UNL     1      -3.712  -6.467  -1.167  1.00  0.00     0.271 C 
BRANCH   8  17
ATOM     17  N   UNL     1      -4.181  -0.419   0.444  1.00  0.00    -0.278 N 
ATOM     18  H   UNL     1      -4.794  -0.017   1.101  1.00  0.00     0.180 HD
BRANCH  17  19
ATOM     19  S   UNL     1      -3.287   0.558  -0.602  1.00  0.00     0.271 S 
ATOM     20  O   UNL     1      -3.302   1.896  -0.065  1.00  0.00    -0.200 OA
ATOM     21  O   UNL     1      -3.779   0.297  -1.944  1.00  0.00    -0.200 OA
BRANCH  19  22
ATOM     22  C   UNL     1      -1.602  -0.011  -0.641  1.00  0.00     0.140 A 
ATOM     23  C   UNL     1       2.257   0.164   0.057  1.00  0.00     0.056 C 
ATOM     24  C   UNL     1       0.845  -0.120  -0.331  1.00  0.00     0.003 A 
ATOM     25  C   UNL     1       0.375  -1.147  -1.125  1.00  0.00     0.016 A 
ATOM     26  S   UNL     1      -0.428   0.885   0.217  1.00  0.00    -0.127 S 
ATOM     27  C   UNL     1      -1.035  -1.093  -1.289  1.00  0.00     0.034 A 
ENDBRANCH  19  22
ENDBRANCH  17  19
ENDBRANCH   8  17
ENDBRANCH   4   7
ENDBRANCH   2   3
ENDBRANCH   1   2
BRANCH   1  28
ATOM     28  C   UNL     1       1.743  -2.225   3.109  1.00  0.00     0.023 C 
BRANCH  28  29
ATOM     29  C   UNL     1       1.664  -2.745   4.536  1.00  0.00     0.116 C 
BRANCH  29  30
ATOM     30  N   UNL     1       2.038  -4.143   4.667  1.00  0.00    -0.352 N 
ATOM     31  C   UNL     1       2.852  -4.753   5.590  1.00  0.00     0.251 C 
ATOM     32  H   UNL     1       1.649  -4.745   3.992  1.00  0.00     0.163 HD
ATOM     33  O   UNL     1       3.103  -5.949   5.482  1.00  0.00    -0.269 OA
BRANCH  31  34
ATOM     34  C   UNL     1       3.457  -3.968   6.688  1.00  0.00     0.039 A 
ATOM     35  C   UNL     1       4.795  -4.205   7.018  1.00  0.00     0.014 A 
ATOM     36  C   UNL     1       2.722  -3.013   7.393  1.00  0.00     0.014 A 
ATOM     37  C   UNL     1       5.408  -3.446   8.016  1.00  0.00     0.010 A 
ATOM     38  C   UNL     1       3.357  -2.198   8.325  1.00  0.00     0.010 A 
ATOM     39  C   UNL     1       4.700  -2.420   8.660  1.00  0.00    -0.014 A 
BRANCH  39  40
ATOM     40  C   UNL     1       5.335  -1.599   9.719  1.00  0.00     0.031 A 
ATOM     41  C   UNL     1       4.818  -1.668  11.129  1.00  0.00     0.074 A 
ATOM     42  C   UNL     1       6.333  -0.752   9.405  1.00  0.00     0.049 A 
ATOM     43  N   UNL     1       5.206  -1.002  12.187  1.00  0.00    -0.248 NA
ATOM     44  C   UNL     1       3.690  -2.581  11.376  1.00  0.00     0.031 C 
ATOM     45  C   UNL     1       6.876  -0.541   8.061  1.00  0.00     0.029 A 
ATOM     46  N   UNL     1       7.064   0.097  10.196  1.00  0.00    -0.354 N 
ATOM     47  C   UNL     1       4.352  -1.392  13.211  1.00  0.00     0.074 A 
ATOM     48  C   UNL     1       3.394  -2.312  12.638  1.00  0.00     0.031 C 
ATOM     49  C   UNL     1       7.872   0.358   8.127  1.00  0.00     0.029 A 
ATOM     50  C   UNL     1       8.023   0.800   9.510  1.00  0.00     0.049 A 
ATOM     51  H   UNL     1       6.915   0.193  11.165  1.00  0.00     0.167 HD
ATOM     52  C   UNL     1       4.377  -1.038  14.517  1.00  0.00     0.037 A 
ATOM     53  C   UNL     1       8.930   1.691   9.952  1.00  0.00     0.037 A 
ATOM     54  C   UNL     1       5.360  -0.162  15.095  1.00  0.00     0.049 A 
ATOM     55  C   UNL     1       8.989   2.012  11.418  1.00  0.00     0.074 A 
ATOM     56  C   UNL     1       5.519   0.206  16.420  1.00  0.00     0.029 A 
ATOM     57  N   UNL     1       6.361   0.477  14.378  1.00  0.00    -0.354 N 
ATOM     58  N   UNL     1       8.224   1.578  12.390  1.00  0.00    -0.248 NA
ATOM     59  C   UNL     1      10.052   2.929  11.852  1.00  0.00     0.031 C 
ATOM     60  C   UNL     1       6.605   1.085  16.501  1.00  0.00     0.029 A 
ATOM     61  C   UNL     1       7.141   1.238  15.232  1.00  0.00     0.049 A 
ATOM     62  H   UNL     1       6.496   0.400  13.406  1.00  0.00     0.167 HD
ATOM     63  C   UNL     1       8.727   2.146  13.553  1.00  0.00     0.074 A 
ATOM     64  C   UNL     1       9.871   2.946  13.166  1.00  0.00     0.031 C 
ATOM     65  C   UNL     1       8.283   2.016  14.827  1.00  0.00     0.037 A 
BRANCH  52  66
ATOM     66  C   UNL     1       3.311  -1.612  15.403  1.00  0.00     0.057 A 
ATOM     67  C   UNL     1       3.295  -2.968  15.755  1.00  0.00     0.134 A 
ATOM     68  C   UNL     1       2.287  -0.802  15.907  1.00  0.00     0.134 A 
ATOM     69  F   UNL     1       4.239  -3.802  15.291  1.00  0.00    -0.206 F 
ATOM     70  C   UNL     1       2.280  -3.506  16.547  1.00  0.00     0.040 A 
ATOM     71  C   UNL     1       1.280  -1.322  16.723  1.00  0.00     0.040 A 
ATOM     72  F   UNL     1       2.244   0.506  15.612  1.00  0.00    -0.206 F 
ATOM     73  C   UNL     1       1.270  -2.680  17.037  1.00  0.00     0.006 A 
ENDBRANCH  52  66
BRANCH  53  74
ATOM     74  C   UNL     1       9.894   2.296   9.001  1.00  0.00     0.057 A 
ATOM     75  C   UNL     1      11.235   1.897   8.988  1.00  0.00     0.134 A 
ATOM     76  C   UNL     1       9.501   3.274   8.082  1.00  0.00     0.134 A 
ATOM     77  F   UNL     1      11.673   0.974   9.857  1.00  0.00    -0.206 F 
ATOM     78  C   UNL     1      12.157   2.461   8.105  1.00  0.00     0.040 A 
ATOM     79  C   UNL     1      10.408   3.833   7.179  1.00  0.00     0.040 A 
ATOM     80  F   UNL     1       8.227   3.690   8.039  1.00  0.00    -0.206 F 
ATOM     81  C   UNL     1      11.742   3.430   7.194  1.00  0.00     0.006 A 
ENDBRANCH  53  74
BRANCH  65  82
ATOM     82  C   UNL     1       9.061   2.723  15.895  1.00  0.00     0.057 A 
ATOM     83  C   UNL     1       8.988   4.110  16.067  1.00  0.00     0.134 A 
ATOM     84  C   UNL     1       9.870   2.000  16.781  1.00  0.00     0.134 A 
ATOM     85  F   UNL     1       8.240   4.859  15.242  1.00  0.00    -0.206 F 
ATOM     86  C   UNL     1       9.710   4.758  17.070  1.00  0.00     0.040 A 
ATOM     87  C   UNL     1      10.580   2.633  17.801  1.00  0.00     0.040 A 
ATOM     88  F   UNL     1       9.977   0.667  16.673  1.00  0.00    -0.206 F 
ATOM     89  C   UNL     1      10.505   4.018  17.944  1.00  0.00     0.006 A 
ENDBRANCH  65  82
ENDBRANCH  39  40
ENDBRANCH  31  34
ENDBRANCH  29  30
ENDBRANCH  28  29
ENDBRANCH   1  28
TORSDOF 14
