REMARK SMILES CC1(C)CCSC[C@@H]1[N@@H+]1CCNC(=O)[C@@H]1CC(=O)NCCCCNC(=O)c1ccc(-c2c3nc(c(-c4c(F)cccc4F)c4ccc([nH]4)c(-c4c(F)cccc4F)c4nc(c(-c5c(F)cccc5F)c5ccc2[nH]5)C=C4)C=C3)cc1
REMARK SMILES IDX 21 1 20 2 19 3 17 4 18 5 16 7 15 8 9 9 10 10 11 12 13 13
REMARK SMILES IDX 12 14 14 15 8 17 1 18 2 19 3 20 4 21 5 22 7 23 6 24 22 25
REMARK SMILES IDX 23 26 24 27 25 28 26 30 27 31 28 32 80 33 29 34 79 35 30 36
REMARK SMILES IDX 31 37 32 38 73 39 33 40 78 41 72 42 74 43 34 44 77 45 71 46
REMARK SMILES IDX 70 47 35 49 61 50 44 51 60 52 45 53 48 54 59 55 75 56 46 57
REMARK SMILES IDX 47 58 58 60 76 61 49 62 36 63 37 64 42 65 38 66 39 67 41 68
REMARK SMILES IDX 43 69 40 70 62 71 63 72 68 73 64 74 65 75 67 76 69 77 66 78
REMARK SMILES IDX 50 79 51 80 56 81 52 82 53 83 55 84 57 85 54 86
REMARK H PARENT 19 6 9 11 12 16 24 29 74 48 48 59
REMARK Flexibility Score: inf
ROOT
ATOM      1  C   UNL     1      -0.310   2.221   0.080  1.00  0.00     0.023 C 
ENDROOT
BRANCH   1   2
ATOM      2  C   UNL     1       1.173   2.021  -0.316  1.00  0.00     0.116 C 
BRANCH   2   3
ATOM      3  N   UNL     1       1.752   1.461  -1.873  1.00  0.00    -0.356 N 
ATOM      4  C   UNL     1       2.050   1.741  -3.622  1.00  0.00     0.226 C 
ATOM      5  O   UNL     1       3.183   1.944  -4.133  1.00  0.00    -0.275 OA
ATOM      6  H   UNL     1       2.070   0.544  -1.708  1.00  0.00     0.163 HD
BRANCH   4   7
ATOM      7  C   UNL     1       1.104   1.525  -4.812  1.00  0.00     0.175 C 
BRANCH   7   8
ATOM      8  C   UNL     1       0.922   0.081  -5.182  1.00  0.00     0.283 C 
ATOM      9  N   UNL     1       1.726  -0.860  -4.366  1.00  0.00    -0.319 N 
ATOM     10  C   UNL     1       2.938  -1.316  -5.036  1.00  0.00     0.284 C 
ATOM     11  H   UNL     1       1.162  -1.706  -4.292  1.00  0.00     0.349 HD
ATOM     12  C   UNL     1       2.566  -1.913  -6.403  1.00  0.00     0.177 C 
ATOM     13  C   UNL     1       1.017  -0.047  -6.710  1.00  0.00     0.279 C 
ATOM     14  N   UNL     1       1.862  -0.972  -7.235  1.00  0.00    -0.345 N 
ATOM     15  O   UNL     1       0.342   0.659  -7.462  1.00  0.00    -0.268 OA
ATOM     16  H   UNL     1       1.997  -1.000  -8.210  1.00  0.00     0.163 HD
BRANCH   9  17
ATOM     17  C   UNL     1       1.881  -0.458  -2.933  1.00  0.00     0.200 C 
ATOM     18  C   UNL     1       0.175  -0.533  -0.973  1.00  0.00     0.017 C 
ATOM     19  C   UNL     1       0.193   0.231  -2.397  1.00  0.00     0.018 C 
ATOM     20  C   UNL     1      -1.098  -0.396  -2.980  1.00  0.00     0.017 C 
ATOM     21  C   UNL     1      -0.035   2.167  -2.564  1.00  0.00     0.023 C 
ATOM     22  C   UNL     1       1.456   3.442  -2.377  1.00  0.00     0.070 C 
ATOM     23  C   UNL     1       3.525   0.411  -2.377  1.00  0.00     0.135 C 
ATOM     24  S   UNL     1       3.648   2.725  -1.871  1.00  0.00    -0.156 SA
ENDBRANCH   9  17
ENDBRANCH   7   8
ENDBRANCH   4   7
ENDBRANCH   2   3
ENDBRANCH   1   2
BRANCH   1  25
ATOM     25  C   UNL     1      -0.560   2.128   1.571  1.00  0.00     0.023 C 
BRANCH  25  26
ATOM     26  C   UNL     1      -0.331   3.472   2.224  1.00  0.00     0.116 C 
BRANCH  26  27
ATOM     27  N   UNL     1      -1.397   4.424   1.903  1.00  0.00    -0.352 N 
ATOM     28  C   UNL     1      -2.168   5.145   2.789  1.00  0.00     0.251 C 
ATOM     29  H   UNL     1      -1.583   4.565   0.947  1.00  0.00     0.163 HD
ATOM     30  O   UNL     1      -3.127   5.814   2.428  1.00  0.00    -0.269 OA
BRANCH  28  31
ATOM     31  C   UNL     1      -1.795   5.036   4.204  1.00  0.00     0.039 A 
ATOM     32  C   UNL     1      -2.668   4.401   5.086  1.00  0.00     0.014 A 
ATOM     33  C   UNL     1      -0.469   5.308   4.547  1.00  0.00     0.014 A 
ATOM     34  C   UNL     1      -2.176   3.955   6.311  1.00  0.00     0.010 A 
ATOM     35  C   UNL     1       0.041   4.750   5.705  1.00  0.00     0.010 A 
ATOM     36  C   UNL     1      -0.807   4.079   6.603  1.00  0.00    -0.014 A 
BRANCH  36  37
ATOM     37  C   UNL     1      -0.225   3.558   7.862  1.00  0.00     0.031 A 
ATOM     38  C   UNL     1       0.477   4.522   8.779  1.00  0.00     0.074 A 
ATOM     39  C   UNL     1      -0.230   2.237   8.127  1.00  0.00     0.049 A 
ATOM     40  N   UNL     1       1.196   4.278   9.842  1.00  0.00    -0.248 NA
ATOM     41  C   UNL     1       0.415   5.948   8.411  1.00  0.00     0.031 C 
ATOM     42  C   UNL     1      -0.810   1.194   7.276  1.00  0.00     0.029 A 
ATOM     43  N   UNL     1       0.286   1.542   9.191  1.00  0.00    -0.354 N 
ATOM     44  C   UNL     1       1.714   5.507  10.228  1.00  0.00     0.074 A 
ATOM     45  C   UNL     1       1.282   6.483   9.255  1.00  0.00     0.031 C 
ATOM     46  C   UNL     1      -0.644  -0.002   7.868  1.00  0.00     0.029 A 
ATOM     47  C   UNL     1       0.082   0.185   9.120  1.00  0.00     0.049 A 
ATOM     48  H   UNL     1       0.760   1.976   9.938  1.00  0.00     0.167 HD
ATOM     49  C   UNL     1       2.454   5.804  11.319  1.00  0.00     0.037 A 
ATOM     50  C   UNL     1       0.445  -0.793   9.972  1.00  0.00     0.037 A 
ATOM     51  C   UNL     1       2.786   4.849  12.337  1.00  0.00     0.049 A 
ATOM     52  C   UNL     1       1.199  -0.424  11.222  1.00  0.00     0.074 A 
ATOM     53  C   UNL     1       3.408   5.067  13.552  1.00  0.00     0.029 A 
ATOM     54  N   UNL     1       2.502   3.495  12.262  1.00  0.00    -0.354 N 
ATOM     55  N   UNL     1       1.602   0.757  11.625  1.00  0.00    -0.248 NA
ATOM     56  C   UNL     1       1.547  -1.521  12.137  1.00  0.00     0.031 C 
ATOM     57  C   UNL     1       3.524   3.836  14.204  1.00  0.00     0.029 A 
ATOM     58  C   UNL     1       2.950   2.859  13.404  1.00  0.00     0.049 A 
ATOM     59  H   UNL     1       2.049   3.052  11.508  1.00  0.00     0.167 HD
ATOM     60  C   UNL     1       2.229   0.549  12.846  1.00  0.00     0.074 A 
ATOM     61  C   UNL     1       2.140  -0.869  13.126  1.00  0.00     0.031 C 
ATOM     62  C   UNL     1       2.831   1.448  13.662  1.00  0.00     0.037 A 
BRANCH  49  63
ATOM     63  C   UNL     1       2.919   7.220  11.477  1.00  0.00     0.057 A 
ATOM     64  C   UNL     1       2.033   8.262  11.778  1.00  0.00     0.134 A 
ATOM     65  C   UNL     1       4.275   7.541  11.337  1.00  0.00     0.134 A 
ATOM     66  F   UNL     1       0.719   8.022  11.905  1.00  0.00    -0.206 F 
ATOM     67  C   UNL     1       2.474   9.579  11.907  1.00  0.00     0.040 A 
ATOM     68  C   UNL     1       4.731   8.851  11.491  1.00  0.00     0.040 A 
ATOM     69  F   UNL     1       5.175   6.590  11.048  1.00  0.00    -0.206 F 
ATOM     70  C   UNL     1       3.829   9.875  11.770  1.00  0.00     0.006 A 
ENDBRANCH  49  63
BRANCH  50  71
ATOM     71  C   UNL     1       0.082  -2.207   9.699  1.00  0.00     0.057 A 
ATOM     72  C   UNL     1      -0.886  -2.862  10.472  1.00  0.00     0.134 A 
ATOM     73  C   UNL     1       0.706  -2.945   8.688  1.00  0.00     0.134 A 
ATOM     74  F   UNL     1      -1.506  -2.212  11.468  1.00  0.00    -0.206 F 
ATOM     75  C   UNL     1      -1.202  -4.206  10.265  1.00  0.00     0.040 A 
ATOM     76  C   UNL     1       0.384  -4.284   8.456  1.00  0.00     0.040 A 
ATOM     77  F   UNL     1       1.635  -2.375   7.907  1.00  0.00    -0.206 F 
ATOM     78  C   UNL     1      -0.566  -4.921   9.252  1.00  0.00     0.006 A 
ENDBRANCH  50  71
BRANCH  62  79
ATOM     79  C   UNL     1       3.416   0.932  14.939  1.00  0.00     0.057 A 
ATOM     80  C   UNL     1       4.626   0.229  14.957  1.00  0.00     0.134 A 
ATOM     81  C   UNL     1       2.800   1.204  16.166  1.00  0.00     0.134 A 
ATOM     82  F   UNL     1       5.255  -0.070  13.811  1.00  0.00    -0.206 F 
ATOM     83  C   UNL     1       5.200  -0.194  16.155  1.00  0.00     0.040 A 
ATOM     84  C   UNL     1       3.375   0.805  17.372  1.00  0.00     0.040 A 
ATOM     85  F   UNL     1       1.643   1.883  16.213  1.00  0.00    -0.206 F 
ATOM     86  C   UNL     1       4.579   0.102  17.368  1.00  0.00     0.006 A 
ENDBRANCH  62  79
ENDBRANCH  36  37
ENDBRANCH  28  31
ENDBRANCH  26  27
ENDBRANCH  25  26
ENDBRANCH   1  25
TORSDOF 13
