REMARK SMILES C/C(=C(\C#N)C(=O)NCCCCNC(=O)c1ccc(-c2c3nc(c(-c4c(F)cccc4F)c4ccc([nH]4)c(-c4c(F)cccc4F)c4nc(c(-c5c(F)cccc5F)c5ccc2[nH]5)C=C4)C=C3)cc1)c1cccc2ccccc12
REMARK SMILES IDX 11 1 10 2 9 3 8 4 6 5 7 6 3 8 1 9 2 10 70 11 71 12 79 13
REMARK SMILES IDX 72 14 74 15 78 16 73 17 75 18 77 19 76 20 4 21 5 22 12 23
REMARK SMILES IDX 13 24 14 25 15 27 16 28 17 29 69 30 18 31 68 32 19 33 20 34
REMARK SMILES IDX 21 35 62 36 22 37 67 38 61 39 63 40 23 41 66 42 60 43 59 44
REMARK SMILES IDX 24 46 50 47 33 48 49 49 34 50 37 51 48 52 64 53 35 54 36 55
REMARK SMILES IDX 47 57 65 58 38 59 25 60 26 61 31 62 27 63 28 64 30 65 32 66
REMARK SMILES IDX 29 67 51 68 52 69 57 70 53 71 54 72 56 73 58 74 55 75 39 76
REMARK SMILES IDX 40 77 45 78 41 79 42 80 44 81 46 82 43 83
REMARK H PARENT 8 7 13 26 63 45 37 56
REMARK Flexibility Score: inf
ROOT
ATOM      1  C   UNL     1      -4.328   4.654  -2.412  1.00  0.00     0.023 C 
ENDROOT
BRANCH   1   2
ATOM      2  C   UNL     1      -3.311   3.522  -2.594  1.00  0.00     0.023 C 
BRANCH   2   3
ATOM      3  C   UNL     1      -1.867   3.997  -2.715  1.00  0.00     0.116 C 
BRANCH   3   4
ATOM      4  N   UNL     1      -1.248   4.291  -1.433  1.00  0.00    -0.351 N 
ATOM      5  C   UNL     1      -0.431   3.615  -0.574  1.00  0.00     0.262 C 
ATOM      6  O   UNL     1       0.157   4.356   0.215  1.00  0.00    -0.268 OA
ATOM      7  H   UNL     1      -1.472   5.193  -1.107  1.00  0.00     0.163 HD
BRANCH   5   8
ATOM      8  C   UNL     1      -0.209   2.099  -0.592  1.00  0.00     0.120 C 
ATOM      9  C   UNL     1       0.832  -0.027   0.239  1.00  0.00     0.046 C 
ATOM     10  C   UNL     1       0.425   1.414   0.405  1.00  0.00    -0.020 C 
BRANCH  10  11
ATOM     11  C   UNL     1       0.769   2.068   1.724  1.00  0.00    -0.013 A 
ATOM     12  C   UNL     1      -0.305   2.706   2.383  1.00  0.00     0.009 A 
ATOM     13  C   UNL     1       2.090   2.214   2.273  1.00  0.00    -0.011 A 
ATOM     14  C   UNL     1      -0.082   3.657   3.374  1.00  0.00     0.001 A 
ATOM     15  C   UNL     1       2.296   3.219   3.263  1.00  0.00    -0.018 A 
ATOM     16  C   UNL     1       3.234   1.444   1.934  1.00  0.00     0.009 A 
ATOM     17  C   UNL     1       1.216   3.953   3.763  1.00  0.00     0.009 A 
ATOM     18  C   UNL     1       3.579   3.490   3.767  1.00  0.00     0.009 A 
ATOM     19  C   UNL     1       4.492   1.665   2.515  1.00  0.00     0.001 A 
ATOM     20  C   UNL     1       4.672   2.711   3.406  1.00  0.00     0.001 A 
ENDBRANCH  10  11
BRANCH   8  21
ATOM     21  C   UNL     1      -0.577   1.464  -1.923  1.00  0.00     0.105 C 
ATOM     22  N   UNL     1      -0.881   0.937  -3.028  1.00  0.00    -0.192 NA
ENDBRANCH   8  21
ENDBRANCH   5   8
ENDBRANCH   3   4
ENDBRANCH   2   3
ENDBRANCH   1   2
BRANCH   1  23
ATOM     23  C   UNL     1      -4.269   5.762  -3.461  1.00  0.00     0.116 C 
BRANCH  23  24
ATOM     24  N   UNL     1      -4.353   5.288  -4.835  1.00  0.00    -0.352 N 
ATOM     25  C   UNL     1      -4.799   5.990  -5.937  1.00  0.00     0.251 C 
ATOM     26  H   UNL     1      -4.059   4.362  -4.997  1.00  0.00     0.163 HD
ATOM     27  O   UNL     1      -4.894   5.471  -7.032  1.00  0.00    -0.269 OA
BRANCH  25  28
ATOM     28  C   UNL     1      -5.206   7.394  -5.729  1.00  0.00     0.039 A 
ATOM     29  C   UNL     1      -6.530   7.757  -5.982  1.00  0.00     0.014 A 
ATOM     30  C   UNL     1      -4.305   8.300  -5.168  1.00  0.00     0.014 A 
ATOM     31  C   UNL     1      -6.978   9.018  -5.589  1.00  0.00     0.010 A 
ATOM     32  C   UNL     1      -4.769   9.529  -4.720  1.00  0.00     0.010 A 
ATOM     33  C   UNL     1      -6.113   9.893  -4.913  1.00  0.00    -0.014 A 
BRANCH  33  34
ATOM     34  C   UNL     1      -6.580  11.195  -4.378  1.00  0.00     0.031 A 
ATOM     35  C   UNL     1      -5.993  12.468  -4.913  1.00  0.00     0.074 A 
ATOM     36  C   UNL     1      -7.444  11.224  -3.345  1.00  0.00     0.049 A 
ATOM     37  N   UNL     1      -6.138  13.693  -4.479  1.00  0.00    -0.248 NA
ATOM     38  C   UNL     1      -5.094  12.341  -6.072  1.00  0.00     0.031 C 
ATOM     39  C   UNL     1      -8.054  10.052  -2.714  1.00  0.00     0.029 A 
ATOM     40  N   UNL     1      -7.941  12.283  -2.627  1.00  0.00    -0.354 N 
ATOM     41  C   UNL     1      -5.331  14.476  -5.292  1.00  0.00     0.074 A 
ATOM     42  C   UNL     1      -4.665  13.585  -6.216  1.00  0.00     0.031 C 
ATOM     43  C   UNL     1      -8.850  10.457  -1.710  1.00  0.00     0.029 A 
ATOM     44  C   UNL     1      -8.772  11.910  -1.598  1.00  0.00     0.049 A 
ATOM     45  H   UNL     1      -7.722  13.221  -2.829  1.00  0.00     0.167 HD
ATOM     46  C   UNL     1      -5.173  15.821  -5.280  1.00  0.00     0.037 A 
ATOM     47  C   UNL     1      -9.386  12.656  -0.660  1.00  0.00     0.037 A 
ATOM     48  C   UNL     1      -5.863  16.704  -4.379  1.00  0.00     0.049 A 
ATOM     49  C   UNL     1      -9.193  14.147  -0.665  1.00  0.00     0.074 A 
ATOM     50  C   UNL     1      -5.818  18.086  -4.325  1.00  0.00     0.029 A 
ATOM     51  N   UNL     1      -6.726  16.290  -3.376  1.00  0.00    -0.354 N 
ATOM     52  N   UNL     1      -8.469  14.883  -1.473  1.00  0.00    -0.248 NA
ATOM     53  C   UNL     1      -9.901  14.914   0.371  1.00  0.00     0.031 C 
ATOM     54  C   UNL     1      -6.626  18.507  -3.264  1.00  0.00     0.029 A 
ATOM     55  C   UNL     1      -7.208  17.390  -2.687  1.00  0.00     0.049 A 
ATOM     56  H   UNL     1      -6.961  15.354  -3.182  1.00  0.00     0.167 HD
ATOM     57  C   UNL     1      -8.661  16.197  -1.067  1.00  0.00     0.074 A 
ATOM     58  C   UNL     1      -9.571  16.159   0.058  1.00  0.00     0.031 C 
ATOM     59  C   UNL     1      -8.133  17.333  -1.584  1.00  0.00     0.037 A 
BRANCH  46  60
ATOM     60  C   UNL     1      -4.220  16.413  -6.274  1.00  0.00     0.057 A 
ATOM     61  C   UNL     1      -4.509  16.448  -7.644  1.00  0.00     0.134 A 
ATOM     62  C   UNL     1      -3.010  16.979  -5.854  1.00  0.00     0.134 A 
ATOM     63  F   UNL     1      -5.645  15.910  -8.113  1.00  0.00    -0.206 F 
ATOM     64  C   UNL     1      -3.616  16.999  -8.565  1.00  0.00     0.040 A 
ATOM     65  C   UNL     1      -2.122  17.559  -6.761  1.00  0.00     0.040 A 
ATOM     66  F   UNL     1      -2.674  16.984  -4.555  1.00  0.00    -0.206 F 
ATOM     67  C   UNL     1      -2.421  17.563  -8.123  1.00  0.00     0.006 A 
ENDBRANCH  46  60
BRANCH  47  68
ATOM     68  C   UNL     1     -10.257  12.008   0.354  1.00  0.00     0.057 A 
ATOM     69  C   UNL     1     -11.646  12.173   0.320  1.00  0.00     0.134 A 
ATOM     70  C   UNL     1      -9.726  11.217   1.380  1.00  0.00     0.134 A 
ATOM     71  F   UNL     1     -12.211  12.935  -0.628  1.00  0.00    -0.206 F 
ATOM     72  C   UNL     1     -12.476  11.591   1.279  1.00  0.00     0.040 A 
ATOM     73  C   UNL     1     -10.547  10.609   2.332  1.00  0.00     0.040 A 
ATOM     74  F   UNL     1      -8.404  11.013   1.464  1.00  0.00    -0.206 F 
ATOM     75  C   UNL     1     -11.926  10.802   2.287  1.00  0.00     0.006 A 
ENDBRANCH  47  68
BRANCH  59  76
ATOM     76  C   UNL     1      -8.564  18.635  -0.978  1.00  0.00     0.057 A 
ATOM     77  C   UNL     1      -8.082  19.069   0.262  1.00  0.00     0.134 A 
ATOM     78  C   UNL     1      -9.414  19.496  -1.683  1.00  0.00     0.134 A 
ATOM     79  F   UNL     1      -7.274  18.284   0.991  1.00  0.00    -0.206 F 
ATOM     80  C   UNL     1      -8.438  20.313   0.785  1.00  0.00     0.040 A 
ATOM     81  C   UNL     1      -9.758  20.752  -1.182  1.00  0.00     0.040 A 
ATOM     82  F   UNL     1      -9.902  19.141  -2.881  1.00  0.00    -0.206 F 
ATOM     83  C   UNL     1      -9.271  21.162   0.057  1.00  0.00     0.006 A 
ENDBRANCH  59  76
ENDBRANCH  33  34
ENDBRANCH  25  28
ENDBRANCH  23  24
ENDBRANCH   1  23
TORSDOF 13
