REMARK SMILES C#CC[N@@H+](CC(=O)NCCCCNC(=O)c1ccc(-c2c3nc(c(-c4c(F)cccc4F)c4ccc([nH]4)c(-c4c(F)cccc4F)c4nc(c(-c5c(F)cccc5F)c5ccc2[nH]5)C=C4)C=C3)cc1)CC(=O)NC(=O)NC
REMARK SMILES IDX 10 1 9 2 8 3 6 4 7 5 5 7 4 8 3 10 2 11 1 12 70 13 71 14
REMARK SMILES IDX 72 15 73 16 74 17 75 19 76 20 77 21 11 23 12 24 13 25 14 26
REMARK SMILES IDX 15 28 16 29 17 30 69 31 18 32 68 33 19 34 20 35 21 36 62 37
REMARK SMILES IDX 22 38 67 39 61 40 63 41 23 42 66 43 60 44 59 45 24 47 50 48
REMARK SMILES IDX 33 49 49 50 34 51 37 52 48 53 64 54 35 55 36 56 47 58 65 59
REMARK SMILES IDX 38 60 25 61 26 62 31 63 27 64 28 65 30 66 32 67 29 68 51 69
REMARK SMILES IDX 52 70 57 71 53 72 54 73 56 74 58 75 55 76 39 77 40 78 45 79
REMARK SMILES IDX 41 80 42 81 44 82 46 83 43 84
REMARK H PARENT 8 6 4 9 73 18 76 22 13 27 63 46 37 57
REMARK Flexibility Score: inf
ROOT
ATOM      1  C   UNL     1      -2.208  -0.178   2.983  1.00  0.00     0.023 C 
ENDROOT
BRANCH   1   2
ATOM      2  C   UNL     1      -3.548  -0.645   2.359  1.00  0.00     0.116 C 
BRANCH   2   3
ATOM      3  N   UNL     1      -4.352   0.442   1.826  1.00  0.00    -0.351 N 
ATOM      4  C   UNL     1      -4.660   0.863   0.564  1.00  0.00     0.275 C 
ATOM      5  O   UNL     1      -5.518   1.752   0.498  1.00  0.00    -0.269 OA
ATOM      6  H   UNL     1      -4.764   0.996   2.528  1.00  0.00     0.163 HD
BRANCH   4   7
ATOM      7  C   UNL     1      -4.069   0.283  -0.750  1.00  0.00     0.364 C 
BRANCH   7   8
ATOM      8  N   UNL     1      -2.629   0.558  -1.069  1.00  0.00    -0.309 N 
ATOM      9  H   UNL     1      -2.449   0.180  -1.999  1.00  0.00     0.349 HD
BRANCH   8  10
ATOM     10  C   UNL     1      -1.853  -0.089  -0.035  1.00  0.00     0.354 C 
BRANCH  10  11
ATOM     11  C   UNL     1      -0.334  -0.089  -0.035  1.00  0.00    -0.047 C 
ATOM     12  C   UNL     1       0.970  -0.089  -0.035  1.00  0.00     0.010 C 
ENDBRANCH  10  11
ENDBRANCH   8  10
BRANCH   8  13
ATOM     13  C   UNL     1      -2.230   1.971  -1.261  1.00  0.00     0.365 C 
BRANCH  13  14
ATOM     14  C   UNL     1      -2.997   3.048  -0.523  1.00  0.00     0.283 C 
ATOM     15  O   UNL     1      -2.760   3.270   0.671  1.00  0.00    -0.268 OA
ATOM     16  N   UNL     1      -3.943   3.825  -1.165  1.00  0.00    -0.273 N 
ATOM     17  C   UNL     1      -4.995   3.571  -1.992  1.00  0.00     0.321 C 
ATOM     18  H   UNL     1      -3.831   4.786  -0.981  1.00  0.00     0.175 HD
ATOM     19  O   UNL     1      -6.099   4.043  -1.708  1.00  0.00    -0.248 OA
ATOM     20  N   UNL     1      -4.909   2.844  -3.115  1.00  0.00    -0.341 N 
ATOM     21  C   UNL     1      -3.807   2.513  -3.979  1.00  0.00     0.144 C 
ATOM     22  H   UNL     1      -5.769   2.462  -3.406  1.00  0.00     0.165 HD
ENDBRANCH  13  14
ENDBRANCH   8  13
ENDBRANCH   7   8
ENDBRANCH   4   7
ENDBRANCH   2   3
ENDBRANCH   1   2
BRANCH   1  23
ATOM     23  C   UNL     1      -2.283   0.387   4.378  1.00  0.00     0.023 C 
BRANCH  23  24
ATOM     24  C   UNL     1      -2.880  -0.576   5.359  1.00  0.00     0.116 C 
BRANCH  24  25
ATOM     25  N   UNL     1      -2.298  -1.914   5.284  1.00  0.00    -0.352 N 
ATOM     26  C   UNL     1      -2.065  -2.774   6.329  1.00  0.00     0.251 C 
ATOM     27  H   UNL     1      -2.047  -2.234   4.387  1.00  0.00     0.163 HD
ATOM     28  O   UNL     1      -1.466  -3.824   6.183  1.00  0.00    -0.269 OA
BRANCH  26  29
ATOM     29  C   UNL     1      -2.547  -2.332   7.644  1.00  0.00     0.039 A 
ATOM     30  C   UNL     1      -1.639  -2.211   8.691  1.00  0.00     0.014 A 
ATOM     31  C   UNL     1      -3.853  -1.843   7.741  1.00  0.00     0.014 A 
ATOM     32  C   UNL     1      -2.043  -1.550   9.844  1.00  0.00     0.010 A 
ATOM     33  C   UNL     1      -4.191  -1.047   8.815  1.00  0.00     0.010 A 
ATOM     34  C   UNL     1      -3.310  -0.941   9.898  1.00  0.00    -0.014 A 
BRANCH  34  35
ATOM     35  C   UNL     1      -3.776  -0.264  11.122  1.00  0.00     0.031 A 
ATOM     36  C   UNL     1      -4.981  -0.811  11.835  1.00  0.00     0.074 A 
ATOM     37  C   UNL     1      -3.139   0.836  11.560  1.00  0.00     0.049 A 
ATOM     38  N   UNL     1      -5.554  -0.388  12.930  1.00  0.00    -0.248 NA
ATOM     39  C   UNL     1      -5.666  -1.959  11.211  1.00  0.00     0.031 C 
ATOM     40  C   UNL     1      -2.014   1.494  10.888  1.00  0.00     0.029 A 
ATOM     41  N   UNL     1      -3.341   1.589  12.685  1.00  0.00    -0.354 N 
ATOM     42  C   UNL     1      -6.664  -1.204  13.107  1.00  0.00     0.074 A 
ATOM     43  C   UNL     1      -6.744  -2.081  11.965  1.00  0.00     0.031 C 
ATOM     44  C   UNL     1      -1.589   2.518  11.647  1.00  0.00     0.029 A 
ATOM     45  C   UNL     1      -2.424   2.599  12.839  1.00  0.00     0.049 A 
ATOM     46  H   UNL     1      -4.073   1.421  13.322  1.00  0.00     0.167 HD
ATOM     47  C   UNL     1      -7.513  -1.254  14.157  1.00  0.00     0.037 A 
ATOM     48  C   UNL     1      -2.271   3.472  13.851  1.00  0.00     0.037 A 
ATOM     49  C   UNL     1      -7.388  -0.408  15.309  1.00  0.00     0.049 A 
ATOM     50  C   UNL     1      -3.195   3.365  15.033  1.00  0.00     0.074 A 
ATOM     51  C   UNL     1      -8.145  -0.402  16.464  1.00  0.00     0.029 A 
ATOM     52  N   UNL     1      -6.425   0.581  15.449  1.00  0.00    -0.354 N 
ATOM     53  N   UNL     1      -4.191   2.534  15.231  1.00  0.00    -0.248 NA
ATOM     54  C   UNL     1      -2.962   4.303  16.137  1.00  0.00     0.031 C 
ATOM     55  C   UNL     1      -7.660   0.617  17.291  1.00  0.00     0.029 A 
ATOM     56  C   UNL     1      -6.574   1.214  16.669  1.00  0.00     0.049 A 
ATOM     57  H   UNL     1      -5.737   0.800  14.779  1.00  0.00     0.167 HD
ATOM     58  C   UNL     1      -4.690   2.832  16.492  1.00  0.00     0.074 A 
ATOM     59  C   UNL     1      -3.869   3.904  17.019  1.00  0.00     0.031 C 
ATOM     60  C   UNL     1      -5.732   2.276  17.158  1.00  0.00     0.037 A 
BRANCH  47  61
ATOM     61  C   UNL     1      -8.619  -2.266  14.098  1.00  0.00     0.057 A 
ATOM     62  C   UNL     1      -8.365  -3.644  14.167  1.00  0.00     0.134 A 
ATOM     63  C   UNL     1      -9.951  -1.863  13.958  1.00  0.00     0.134 A 
ATOM     64  F   UNL     1      -7.107  -4.100  14.274  1.00  0.00    -0.206 F 
ATOM     65  C   UNL     1      -9.393  -4.583  14.067  1.00  0.00     0.040 A 
ATOM     66  C   UNL     1     -10.991  -2.792  13.887  1.00  0.00     0.040 A 
ATOM     67  F   UNL     1     -10.264  -0.561  13.879  1.00  0.00    -0.206 F 
ATOM     68  C   UNL     1     -10.712  -4.157  13.933  1.00  0.00     0.006 A 
ENDBRANCH  47  61
BRANCH  48  69
ATOM     69  C   UNL     1      -1.169   4.465  13.821  1.00  0.00     0.057 A 
ATOM     70  C   UNL     1      -0.071   4.353  14.683  1.00  0.00     0.134 A 
ATOM     71  C   UNL     1      -1.180   5.545  12.931  1.00  0.00     0.134 A 
ATOM     72  F   UNL     1      -0.006   3.345  15.565  1.00  0.00    -0.206 F 
ATOM     73  C   UNL     1       0.963   5.291  14.679  1.00  0.00     0.040 A 
ATOM     74  C   UNL     1      -0.141   6.478  12.899  1.00  0.00     0.040 A 
ATOM     75  F   UNL     1      -2.195   5.702  12.069  1.00  0.00    -0.206 F 
ATOM     76  C   UNL     1       0.931   6.356  13.781  1.00  0.00     0.006 A 
ENDBRANCH  48  69
BRANCH  60  77
ATOM     77  C   UNL     1      -6.015   2.805  18.531  1.00  0.00     0.057 A 
ATOM     78  C   UNL     1      -6.571   4.074  18.731  1.00  0.00     0.134 A 
ATOM     79  C   UNL     1      -5.752   2.023  19.662  1.00  0.00     0.134 A 
ATOM     80  F   UNL     1      -6.835   4.874  17.686  1.00  0.00    -0.206 F 
ATOM     81  C   UNL     1      -6.825   4.561  20.013  1.00  0.00     0.040 A 
ATOM     82  C   UNL     1      -6.029   2.487  20.947  1.00  0.00     0.040 A 
ATOM     83  F   UNL     1      -5.232   0.793  19.535  1.00  0.00    -0.206 F 
ATOM     84  C   UNL     1      -6.558   3.764  21.125  1.00  0.00     0.006 A 
ENDBRANCH  60  77
ENDBRANCH  34  35
ENDBRANCH  26  29
ENDBRANCH  24  25
ENDBRANCH  23  24
ENDBRANCH   1  23
TORSDOF 16
