REMARK SMILES CC(C)(C)N(CC(=O)NCCCCNC(=O)c1ccc(-c2c3nc(c(-c4c(F)cccc4F)c4ccc([nH]4)c(-c4c(F)cccc4F)c4nc(c(-c5c(F)cccc5F)c5ccc2[nH]5)C=C4)C=C3)cc1)C(=O)N1CC[C@H](O)C1
REMARK SMILES IDX 10 1 9 2 7 3 8 4 6 6 5 7 2 8 1 9 3 10 4 11 71 12 72 13 73 14
REMARK SMILES IDX 74 15 78 16 75 17 76 18 77 19 11 21 12 22 13 23 14 24 15 25
REMARK SMILES IDX 16 27 17 28 18 29 70 30 19 31 69 32 20 33 21 34 22 35 63 36
REMARK SMILES IDX 23 37 68 38 62 39 64 40 24 41 67 42 61 43 60 44 25 46 51 47
REMARK SMILES IDX 34 48 50 49 35 50 38 51 49 52 65 53 36 54 37 55 48 57 66 58
REMARK SMILES IDX 39 59 26 60 27 61 32 62 28 63 29 64 31 65 33 66 30 67 52 68
REMARK SMILES IDX 53 69 58 70 54 71 55 72 57 73 59 74 56 75 40 76 41 77 46 78
REMARK SMILES IDX 42 79 43 80 45 81 47 82 44 83
REMARK H PARENT 9 5 77 20 14 26 64 45 38 56
REMARK Flexibility Score: inf
ROOT
ATOM      1  C   UNL     1       3.836   1.636  -0.102  1.00  0.00     0.116 C 
ENDROOT
BRANCH   1   2
ATOM      2  N   UNL     1       4.193   1.413   1.275  1.00  0.00    -0.355 N 
ATOM      3  C   UNL     1       3.428   0.926   2.288  1.00  0.00     0.239 C 
ATOM      4  O   UNL     1       4.040   0.426   3.241  1.00  0.00    -0.273 OA
ATOM      5  H   UNL     1       5.119   1.646   1.516  1.00  0.00     0.163 HD
BRANCH   3   6
ATOM      6  C   UNL     1       1.882   0.889   2.276  1.00  0.00     0.221 C 
BRANCH   6   7
ATOM      7  N   UNL     1       1.089   1.842   1.474  1.00  0.00    -0.311 N 
BRANCH   7   8
ATOM      8  C   UNL     1       0.220   1.306   0.333  1.00  0.00     0.037 C 
ATOM      9  C   UNL     1       0.502  -0.172  -0.064  1.00  0.00     0.034 C 
ATOM     10  C   UNL     1       0.374   2.133  -0.969  1.00  0.00     0.034 C 
ATOM     11  C   UNL     1      -1.274   1.320   0.753  1.00  0.00     0.034 C 
ENDBRANCH   7   8
BRANCH   7  12
ATOM     12  C   UNL     1       0.778   3.126   1.960  1.00  0.00     0.321 C 
ATOM     13  O   UNL     1       0.017   3.885   1.355  1.00  0.00    -0.248 OA
BRANCH  12  14
ATOM     14  N   UNL     1       1.174   3.481   3.231  1.00  0.00    -0.322 N 
ATOM     15  C   UNL     1       0.272   4.304   4.034  1.00  0.00     0.124 C 
ATOM     16  C   UNL     1       2.525   3.634   3.745  1.00  0.00     0.153 C 
ATOM     17  C   UNL     1       1.088   4.820   5.214  1.00  0.00     0.055 C 
ATOM     18  C   UNL     1       2.316   3.921   5.229  1.00  0.00     0.135 C 
BRANCH  18  19
ATOM     19  O   UNL     1       3.424   4.548   5.848  1.00  0.00    -0.391 OA
ATOM     20  H   UNL     1       3.619   5.382   5.394  1.00  0.00     0.211 HD
ENDBRANCH  18  19
ENDBRANCH  12  14
ENDBRANCH   7  12
ENDBRANCH   6   7
ENDBRANCH   3   6
ENDBRANCH   1   2
BRANCH   1  21
ATOM     21  C   UNL     1       3.704   3.103  -0.491  1.00  0.00     0.023 C 
BRANCH  21  22
ATOM     22  C   UNL     1       5.015   3.877  -0.593  1.00  0.00     0.023 C 
BRANCH  22  23
ATOM     23  C   UNL     1       6.124   3.204  -1.392  1.00  0.00     0.116 C 
BRANCH  23  24
ATOM     24  N   UNL     1       5.725   2.749  -2.717  1.00  0.00    -0.352 N 
ATOM     25  C   UNL     1       6.472   2.707  -3.873  1.00  0.00     0.251 C 
ATOM     26  H   UNL     1       4.797   2.430  -2.797  1.00  0.00     0.163 HD
ATOM     27  O   UNL     1       5.976   2.318  -4.923  1.00  0.00    -0.269 OA
BRANCH  25  28
ATOM     28  C   UNL     1       7.866   3.194  -3.846  1.00  0.00     0.039 A 
ATOM     29  C   UNL     1       8.261   4.146  -4.789  1.00  0.00     0.014 A 
ATOM     30  C   UNL     1       8.751   2.773  -2.851  1.00  0.00     0.014 A 
ATOM     31  C   UNL     1       9.515   4.747  -4.676  1.00  0.00     0.010 A 
ATOM     32  C   UNL     1       9.966   3.429  -2.692  1.00  0.00     0.010 A 
ATOM     33  C   UNL     1      10.355   4.430  -3.596  1.00  0.00    -0.014 A 
BRANCH  33  34
ATOM     34  C   UNL     1      11.641   5.138  -3.382  1.00  0.00     0.031 A 
ATOM     35  C   UNL     1      12.935   4.377  -3.434  1.00  0.00     0.074 A 
ATOM     36  C   UNL     1      11.637   6.446  -3.056  1.00  0.00     0.049 A 
ATOM     37  N   UNL     1      14.149   4.790  -3.172  1.00  0.00    -0.248 NA
ATOM     38  C   UNL     1      12.849   2.954  -3.796  1.00  0.00     0.031 C 
ATOM     39  C   UNL     1      10.444   7.283  -2.917  1.00  0.00     0.029 A 
ATOM     40  N   UNL     1      12.674   7.297  -2.767  1.00  0.00    -0.354 N 
ATOM     41  C   UNL     1      14.964   3.675  -3.313  1.00  0.00     0.074 A 
ATOM     42  C   UNL     1      14.102   2.558  -3.635  1.00  0.00     0.031 C 
ATOM     43  C   UNL     1      10.817   8.532  -2.594  1.00  0.00     0.029 A 
ATOM     44  C   UNL     1      12.270   8.576  -2.467  1.00  0.00     0.049 A 
ATOM     45  H   UNL     1      13.618   7.018  -2.773  1.00  0.00     0.167 HD
ATOM     46  C   UNL     1      16.311   3.593  -3.207  1.00  0.00     0.037 A 
ATOM     47  C   UNL     1      12.992   9.660  -2.125  1.00  0.00     0.037 A 
ATOM     48  C   UNL     1      17.169   4.712  -2.926  1.00  0.00     0.049 A 
ATOM     49  C   UNL     1      14.488   9.549  -2.037  1.00  0.00     0.074 A 
ATOM     50  C   UNL     1      18.551   4.745  -2.863  1.00  0.00     0.029 A 
ATOM     51  N   UNL     1      16.725   6.000  -2.667  1.00  0.00    -0.354 N 
ATOM     52  N   UNL     1      15.251   8.501  -2.233  1.00  0.00    -0.248 NA
ATOM     53  C   UNL     1      15.224  10.772  -1.687  1.00  0.00     0.031 C 
ATOM     54  C   UNL     1      18.942   6.049  -2.537  1.00  0.00     0.029 A 
ATOM     55  C   UNL     1      17.805   6.834  -2.433  1.00  0.00     0.049 A 
ATOM     56  H   UNL     1      15.781   6.280  -2.652  1.00  0.00     0.167 HD
ATOM     57  C   UNL     1      16.555   8.942  -2.056  1.00  0.00     0.074 A 
ATOM     58  C   UNL     1      16.481  10.356  -1.748  1.00  0.00     0.031 C 
ATOM     59  C   UNL     1      17.712   8.240  -2.140  1.00  0.00     0.037 A 
BRANCH  46  60
ATOM     60  C   UNL     1      16.935   2.245  -3.410  1.00  0.00     0.057 A 
ATOM     61  C   UNL     1      16.993   1.643  -4.674  1.00  0.00     0.134 A 
ATOM     62  C   UNL     1      17.501   1.548  -2.336  1.00  0.00     0.134 A 
ATOM     63  F   UNL     1      16.454   2.252  -5.742  1.00  0.00    -0.206 F 
ATOM     64  C   UNL     1      17.566   0.384  -4.858  1.00  0.00     0.040 A 
ATOM     65  C   UNL     1      18.100   0.300  -2.511  1.00  0.00     0.040 A 
ATOM     66  F   UNL     1      17.483   2.070  -1.100  1.00  0.00    -0.206 F 
ATOM     67  C   UNL     1      18.127  -0.289  -3.775  1.00  0.00     0.006 A 
ENDBRANCH  46  60
BRANCH  47  68
ATOM     68  C   UNL     1      12.314  10.955  -1.871  1.00  0.00     0.057 A 
ATOM     69  C   UNL     1      12.422  12.012  -2.783  1.00  0.00     0.134 A 
ATOM     70  C   UNL     1      11.553  11.172  -0.718  1.00  0.00     0.134 A 
ATOM     71  F   UNL     1      13.153  11.868  -3.898  1.00  0.00    -0.206 F 
ATOM     72  C   UNL     1      11.813  13.245  -2.548  1.00  0.00     0.040 A 
ATOM     73  C   UNL     1      10.920  12.393  -0.480  1.00  0.00     0.040 A 
ATOM     74  F   UNL     1      11.406  10.196   0.190  1.00  0.00    -0.206 F 
ATOM     75  C   UNL     1      11.055  13.437  -1.395  1.00  0.00     0.006 A 
ENDBRANCH  47  68
BRANCH  59  76
ATOM     76  C   UNL     1      18.988   8.997  -1.932  1.00  0.00     0.057 A 
ATOM     77  C   UNL     1      19.401   9.411  -0.659  1.00  0.00     0.134 A 
ATOM     78  C   UNL     1      19.833   9.279  -3.013  1.00  0.00     0.134 A 
ATOM     79  F   UNL     1      18.628   9.183   0.413  1.00  0.00    -0.206 F 
ATOM     80  C   UNL     1      20.603  10.095  -0.472  1.00  0.00     0.040 A 
ATOM     81  C   UNL     1      21.047   9.941  -2.834  1.00  0.00     0.040 A 
ATOM     82  F   UNL     1      19.497   8.902  -4.256  1.00  0.00    -0.206 F 
ATOM     83  C   UNL     1      21.433  10.355  -1.561  1.00  0.00     0.006 A 
ENDBRANCH  59  76
ENDBRANCH  33  34
ENDBRANCH  25  28
ENDBRANCH  23  24
ENDBRANCH  22  23
ENDBRANCH  21  22
ENDBRANCH   1  21
TORSDOF 16
