REMARK SMILES COc1ccccc1C[N@@H+](C)[C@@H](C)c1ccc(C(=O)NCCCCNC(=O)c2ccc(-c3c4nc(c(-c5c(F)cccc5F)c5ccc([nH]5)c(-c5c(F)cccc5F)c5nc(c(-c6c(F)cccc6F)c6ccc3[nH]6)C=C5)C=C4)cc2)o1
REMARK SMILES IDX 21 1 20 2 18 3 19 4 17 6 14 7 15 8 82 9 16 10 12 11 13 12
REMARK SMILES IDX 10 13 11 14 9 16 8 17 3 18 4 19 5 20 7 21 6 22 2 23 1 24
REMARK SMILES IDX 22 25 23 26 24 27 25 28 26 29 27 31 28 32 29 33 81 34 30 35
REMARK SMILES IDX 80 36 31 37 32 38 33 39 74 40 34 41 79 42 73 43 75 44 35 45
REMARK SMILES IDX 78 46 72 47 71 48 36 50 62 51 45 52 61 53 46 54 49 55 60 56
REMARK SMILES IDX 76 57 47 58 48 59 59 61 77 62 50 63 37 64 38 65 43 66 39 67
REMARK SMILES IDX 40 68 42 69 44 70 41 71 63 72 64 73 69 74 65 75 66 76 68 77
REMARK SMILES IDX 70 78 67 79 51 80 52 81 57 82 53 83 54 84 56 85 58 86 55 87
REMARK H PARENT 20 5 10 15 25 30 75 49 49 60
REMARK Flexibility Score: inf
ROOT
ATOM      1  C   UNL     1      -0.018   3.728  -6.937  1.00  0.00     0.116 C 
ENDROOT
BRANCH   1   2
ATOM      2  N   UNL     1       1.097   4.314  -6.229  1.00  0.00    -0.349 N 
ATOM      3  C   UNL     1       2.092   3.738  -5.466  1.00  0.00     0.287 C 
ATOM      4  O   UNL     1       3.000   4.510  -5.141  1.00  0.00    -0.266 OA
ATOM      5  H   UNL     1       1.158   5.294  -6.304  1.00  0.00     0.163 HD
BRANCH   3   6
ATOM      6  C   UNL     1       2.051   2.338  -5.074  1.00  0.00     0.191 A 
ATOM      7  C   UNL     1       2.879   0.587  -3.975  1.00  0.00     0.161 A 
ATOM      8  C   UNL     1       1.653   0.198  -4.470  1.00  0.00     0.053 A 
ATOM      9  O   UNL     1       3.158   1.851  -4.412  1.00  0.00    -0.450 OA
ATOM     10  C   UNL     1       1.113   1.322  -5.136  1.00  0.00     0.057 A 
BRANCH   7  11
ATOM     11  C   UNL     1       3.894  -0.075  -3.076  1.00  0.00     0.248 C 
ATOM     12  C   UNL     1       3.410  -1.469  -2.632  1.00  0.00     0.084 C 
BRANCH  11  13
ATOM     13  N   UNL     1       4.356   0.798  -1.962  1.00  0.00    -0.325 N 
ATOM     14  C   UNL     1       5.578   0.269  -1.350  1.00  0.00     0.333 C 
ATOM     15  H   UNL     1       4.535   1.695  -2.412  1.00  0.00     0.348 HD
BRANCH  13  16
ATOM     16  C   UNL     1       3.359   1.070  -0.909  1.00  0.00     0.303 C 
BRANCH  16  17
ATOM     17  C   UNL     1       2.262   2.041  -1.285  1.00  0.00     0.048 A 
ATOM     18  C   UNL     1       0.912   1.669  -1.351  1.00  0.00     0.127 A 
ATOM     19  C   UNL     1      -0.066   2.575  -1.775  1.00  0.00     0.047 A 
ATOM     20  C   UNL     1       0.286   3.887  -2.090  1.00  0.00     0.004 A 
ATOM     21  C   UNL     1       2.595   3.372  -1.596  1.00  0.00     0.013 A 
ATOM     22  C   UNL     1       1.616   4.287  -1.991  1.00  0.00     0.001 A 
BRANCH  18  23
ATOM     23  O   UNL     1       0.515   0.380  -1.106  1.00  0.00    -0.496 OA
ATOM     24  C   UNL     1       0.201   0.212   0.276  1.00  0.00     0.278 C 
ENDBRANCH  18  23
ENDBRANCH  16  17
ENDBRANCH  13  16
ENDBRANCH  11  13
ENDBRANCH   7  11
ENDBRANCH   3   6
ENDBRANCH   1   2
BRANCH   1  25
ATOM     25  C   UNL     1      -1.336   3.894  -6.180  1.00  0.00     0.023 C 
BRANCH  25  26
ATOM     26  C   UNL     1      -2.004   5.265  -6.352  1.00  0.00     0.023 C 
BRANCH  26  27
ATOM     27  C   UNL     1      -2.251   5.707  -7.795  1.00  0.00     0.116 C 
BRANCH  27  28
ATOM     28  N   UNL     1      -2.947   4.717  -8.603  1.00  0.00    -0.352 N 
ATOM     29  C   UNL     1      -3.778   4.916  -9.681  1.00  0.00     0.251 C 
ATOM     30  H   UNL     1      -2.804   3.778  -8.343  1.00  0.00     0.163 HD
ATOM     31  O   UNL     1      -4.347   3.969 -10.208  1.00  0.00    -0.269 OA
BRANCH  29  32
ATOM     32  C   UNL     1      -4.020   6.291 -10.165  1.00  0.00     0.039 A 
ATOM     33  C   UNL     1      -5.340   6.717 -10.334  1.00  0.00     0.014 A 
ATOM     34  C   UNL     1      -2.958   7.163 -10.411  1.00  0.00     0.014 A 
ATOM     35  C   UNL     1      -5.597   8.049 -10.664  1.00  0.00     0.010 A 
ATOM     36  C   UNL     1      -3.217   8.504 -10.680  1.00  0.00     0.010 A 
ATOM     37  C   UNL     1      -4.538   8.962 -10.792  1.00  0.00    -0.014 A 
BRANCH  37  38
ATOM     38  C   UNL     1      -4.794  10.409 -10.997  1.00  0.00     0.031 A 
ATOM     39  C   UNL     1      -4.362  11.085 -12.266  1.00  0.00     0.074 A 
ATOM     40  C   UNL     1      -5.341  11.129  -9.998  1.00  0.00     0.049 A 
ATOM     41  N   UNL     1      -4.421  12.353 -12.587  1.00  0.00    -0.248 NA
ATOM     42  C   UNL     1      -3.761  10.229 -13.300  1.00  0.00     0.031 C 
ATOM     43  C   UNL     1      -5.755  10.596  -8.699  1.00  0.00     0.029 A 
ATOM     44  N   UNL     1      -5.628  12.468  -9.914  1.00  0.00    -0.354 N 
ATOM     45  C   UNL     1      -3.855  12.448 -13.851  1.00  0.00     0.074 A 
ATOM     46  C   UNL     1      -3.417  11.119 -14.220  1.00  0.00     0.031 C 
ATOM     47  C   UNL     1      -6.258  11.594  -7.954  1.00  0.00     0.029 A 
ATOM     48  C   UNL     1      -6.168  12.841  -8.707  1.00  0.00     0.049 A 
ATOM     49  H   UNL     1      -5.463  13.102 -10.649  1.00  0.00     0.167 HD
ATOM     50  C   UNL     1      -3.729  13.542 -14.640  1.00  0.00     0.037 A 
ATOM     51  C   UNL     1      -6.540  14.053  -8.254  1.00  0.00     0.037 A 
ATOM     52  C   UNL     1      -4.184  14.859 -14.279  1.00  0.00     0.049 A 
ATOM     53  C   UNL     1      -6.386  15.250  -9.148  1.00  0.00     0.074 A 
ATOM     54  C   UNL     1      -4.160  16.017 -15.037  1.00  0.00     0.029 A 
ATOM     55  N   UNL     1      -4.744  15.193 -13.055  1.00  0.00    -0.354 N 
ATOM     56  N   UNL     1      -5.911  15.314 -10.368  1.00  0.00    -0.248 NA
ATOM     57  C   UNL     1      -6.822  16.544  -8.604  1.00  0.00     0.031 C 
ATOM     58  C   UNL     1      -4.669  17.061 -14.256  1.00  0.00     0.029 A 
ATOM     59  C   UNL     1      -5.050  16.544 -13.029  1.00  0.00     0.049 A 
ATOM     60  H   UNL     1      -4.901  14.563 -12.315  1.00  0.00     0.167 HD
ATOM     61  C   UNL     1      -6.012  16.647 -10.746  1.00  0.00     0.074 A 
ATOM     62  C   UNL     1      -6.608  17.354  -9.631  1.00  0.00     0.031 C 
ATOM     63  C   UNL     1      -5.644  17.232 -11.912  1.00  0.00     0.037 A 
BRANCH  50  64
ATOM     64  C   UNL     1      -3.075  13.356 -15.977  1.00  0.00     0.057 A 
ATOM     65  C   UNL     1      -3.715  12.677 -17.022  1.00  0.00     0.134 A 
ATOM     66  C   UNL     1      -1.807  13.892 -16.235  1.00  0.00     0.134 A 
ATOM     67  F   UNL     1      -4.926  12.130 -16.837  1.00  0.00    -0.206 F 
ATOM     68  C   UNL     1      -3.107  12.516 -18.268  1.00  0.00     0.040 A 
ATOM     69  C   UNL     1      -1.199  13.759 -17.485  1.00  0.00     0.040 A 
ATOM     70  F   UNL     1      -1.141  14.558 -15.280  1.00  0.00    -0.206 F 
ATOM     71  C   UNL     1      -1.847  13.064 -18.504  1.00  0.00     0.006 A 
ENDBRANCH  50  64
BRANCH  51  72
ATOM     72  C   UNL     1      -7.113  14.193  -6.893  1.00  0.00     0.057 A 
ATOM     73  C   UNL     1      -8.470  14.480  -6.709  1.00  0.00     0.134 A 
ATOM     74  C   UNL     1      -6.322  14.049  -5.747  1.00  0.00     0.134 A 
ATOM     75  F   UNL     1      -9.274  14.647  -7.770  1.00  0.00    -0.206 F 
ATOM     76  C   UNL     1      -9.018  14.637  -5.435  1.00  0.00     0.040 A 
ATOM     77  C   UNL     1      -6.862  14.180  -4.466  1.00  0.00     0.040 A 
ATOM     78  F   UNL     1      -5.016  13.766  -5.856  1.00  0.00    -0.206 F 
ATOM     79  C   UNL     1      -8.213  14.482  -4.309  1.00  0.00     0.006 A 
ENDBRANCH  51  72
BRANCH  63  80
ATOM     80  C   UNL     1      -5.901  18.703 -12.048  1.00  0.00     0.057 A 
ATOM     81  C   UNL     1      -5.126  19.653 -11.370  1.00  0.00     0.134 A 
ATOM     82  C   UNL     1      -6.913  19.175 -12.893  1.00  0.00     0.134 A 
ATOM     83  F   UNL     1      -4.151  19.264 -10.534  1.00  0.00    -0.206 F 
ATOM     84  C   UNL     1      -5.363  21.021 -11.513  1.00  0.00     0.040 A 
ATOM     85  C   UNL     1      -7.143  20.541 -13.062  1.00  0.00     0.040 A 
ATOM     86  F   UNL     1      -7.686  18.318 -13.576  1.00  0.00    -0.206 F 
ATOM     87  C   UNL     1      -6.370  21.468 -12.366  1.00  0.00     0.006 A 
ENDBRANCH  63  80
ENDBRANCH  37  38
ENDBRANCH  29  32
ENDBRANCH  27  28
ENDBRANCH  26  27
ENDBRANCH  25  26
ENDBRANCH   1  25
TORSDOF 16
