REMARK SMILES CCOC(=O)NC(=O)C[N@@H+]1CC[C@@H](C(=O)NCCCCNC(=O)c2ccc(-c3c4nc(c(-c5c(F)cccc5F)c5ccc([nH]5)c(-c5c(F)cccc5F)c5nc(c(-c6c(F)cccc6F)c6ccc3[nH]6)C=C5)C=C4)cc2)[C@@H]1C
REMARK SMILES IDX 17 1 16 2 14 3 15 4 13 6 10 7 11 8 78 9 12 11 79 12 9 13
REMARK SMILES IDX 7 14 4 15 5 16 6 17 8 19 3 20 2 21 1 22 18 23 19 24 20 25
REMARK SMILES IDX 21 26 22 27 23 29 24 30 25 31 77 32 26 33 76 34 27 35 28 36
REMARK SMILES IDX 29 37 70 38 30 39 75 40 69 41 71 42 31 43 74 44 68 45 67 46
REMARK SMILES IDX 32 48 58 49 41 50 57 51 42 52 45 53 56 54 72 55 43 56 44 57
REMARK SMILES IDX 55 59 73 60 46 61 33 62 34 63 39 64 35 65 36 66 38 67 40 68
REMARK SMILES IDX 37 69 59 70 60 71 65 72 61 73 62 74 64 75 66 76 63 77 47 78
REMARK SMILES IDX 48 79 53 80 49 81 50 82 52 83 54 84 51 85
REMARK H PARENT 16 5 10 10 6 18 21 28 71 47 45 58
REMARK Flexibility Score: inf
ROOT
ATOM      1  C   UNL     1       0.530   2.412   2.624  1.00  0.00     0.116 C 
ENDROOT
BRANCH   1   2
ATOM      2  N   UNL     1      -0.315   1.291   2.256  1.00  0.00    -0.356 N 
ATOM      3  C   UNL     1      -0.606   0.798   1.013  1.00  0.00     0.229 C 
ATOM      4  O   UNL     1      -0.719  -0.432   0.936  1.00  0.00    -0.275 OA
ATOM      5  H   UNL     1      -0.739   0.818   3.007  1.00  0.00     0.163 HD
BRANCH   3   6
ATOM      6  C   UNL     1      -0.881   1.646  -0.240  1.00  0.00     0.142 C 
ATOM      7  N   UNL     1       0.208   3.610  -0.434  1.00  0.00    -0.324 N 
ATOM      8  C   UNL     1       0.612   2.992  -1.665  1.00  0.00     0.263 C 
ATOM      9  C   UNL     1      -1.108   3.138  -0.028  1.00  0.00     0.194 C 
ATOM     10  H   UNL     1       0.889   3.289   0.255  1.00  0.00     0.348 HD
ATOM     11  C   UNL     1       0.174   1.561  -1.368  1.00  0.00     0.081 C 
ATOM     12  C   UNL     1      -2.311   3.599  -0.866  1.00  0.00     0.076 C 
BRANCH   7  13
ATOM     13  C   UNL     1       0.726   4.869   0.016  1.00  0.00     0.364 C 
BRANCH  13  14
ATOM     14  C   UNL     1       2.239   5.036  -0.167  1.00  0.00     0.284 C 
ATOM     15  C   UNL     1       3.477   2.915   0.886  1.00  0.00     0.414 C 
ATOM     16  O   UNL     1       4.452   2.800   1.626  1.00  0.00    -0.224 OA
ATOM     17  N   UNL     1       3.209   4.172   0.335  1.00  0.00    -0.256 N 
ATOM     18  H   UNL     1       4.070   4.646   0.277  1.00  0.00     0.176 HD
ATOM     19  O   UNL     1       2.668   6.082  -0.676  1.00  0.00    -0.268 OA
BRANCH  15  20
ATOM     20  O   UNL     1       2.671   1.875   0.538  1.00  0.00    -0.450 OA
BRANCH  20  21
ATOM     21  C   UNL     1       3.037   0.588   1.107  1.00  0.00     0.231 C 
ATOM     22  C   UNL     1       2.915  -0.546   0.102  1.00  0.00     0.049 C 
ENDBRANCH  20  21
ENDBRANCH  15  20
ENDBRANCH  13  14
ENDBRANCH   7  13
ENDBRANCH   3   6
ENDBRANCH   1   2
BRANCH   1  23
ATOM     23  C   UNL     1      -0.057   3.389   3.637  1.00  0.00     0.023 C 
BRANCH  23  24
ATOM     24  C   UNL     1       0.400   3.136   5.077  1.00  0.00     0.023 C 
BRANCH  24  25
ATOM     25  C   UNL     1       1.906   3.256   5.340  1.00  0.00     0.116 C 
BRANCH  25  26
ATOM     26  N   UNL     1       2.443   4.591   5.138  1.00  0.00    -0.352 N 
ATOM     27  C   UNL     1       3.308   5.319   5.931  1.00  0.00     0.251 C 
ATOM     28  H   UNL     1       2.148   5.043   4.314  1.00  0.00     0.163 HD
ATOM     29  O   UNL     1       3.599   6.462   5.627  1.00  0.00    -0.269 OA
BRANCH  27  30
ATOM     30  C   UNL     1       3.839   4.730   7.186  1.00  0.00     0.039 A 
ATOM     31  C   UNL     1       3.797   5.500   8.352  1.00  0.00     0.014 A 
ATOM     32  C   UNL     1       4.358   3.433   7.227  1.00  0.00     0.014 A 
ATOM     33  C   UNL     1       4.192   4.940   9.570  1.00  0.00     0.010 A 
ATOM     34  C   UNL     1       4.683   2.852   8.453  1.00  0.00     0.010 A 
ATOM     35  C   UNL     1       4.595   3.596   9.640  1.00  0.00    -0.014 A 
BRANCH  35  36
ATOM     36  C   UNL     1       4.898   2.962  10.951  1.00  0.00     0.031 A 
ATOM     37  C   UNL     1       6.283   2.465  11.266  1.00  0.00     0.074 A 
ATOM     38  C   UNL     1       3.908   2.791  11.850  1.00  0.00     0.049 A 
ATOM     39  N   UNL     1       6.727   1.895  12.359  1.00  0.00    -0.248 NA
ATOM     40  C   UNL     1       7.294   2.600  10.207  1.00  0.00     0.031 C 
ATOM     41  C   UNL     1       2.506   3.160  11.646  1.00  0.00     0.029 A 
ATOM     42  N   UNL     1       3.929   2.263  13.117  1.00  0.00    -0.354 N 
ATOM     43  C   UNL     1       8.061   1.596  12.115  1.00  0.00     0.074 A 
ATOM     44  C   UNL     1       8.340   1.996  10.752  1.00  0.00     0.031 C 
ATOM     45  C   UNL     1       1.810   2.881  12.760  1.00  0.00     0.029 A 
ATOM     46  C   UNL     1       2.709   2.293  13.748  1.00  0.00     0.049 A 
ATOM     47  H   UNL     1       4.742   1.897  13.535  1.00  0.00     0.167 HD
ATOM     48  C   UNL     1       8.980   1.062  12.956  1.00  0.00     0.037 A 
ATOM     49  C   UNL     1       2.355   1.903  14.987  1.00  0.00     0.037 A 
ATOM     50  C   UNL     1       8.714   0.688  14.320  1.00  0.00     0.049 A 
ATOM     51  C   UNL     1       3.400   1.349  15.914  1.00  0.00     0.074 A 
ATOM     52  C   UNL     1       9.595   0.195  15.268  1.00  0.00     0.029 A 
ATOM     53  N   UNL     1       7.473   0.766  14.933  1.00  0.00    -0.354 N 
ATOM     54  N   UNL     1       4.676   1.148  15.695  1.00  0.00    -0.248 NA
ATOM     55  C   UNL     1       2.957   0.982  17.267  1.00  0.00     0.031 C 
ATOM     56  C   UNL     1       8.880  -0.053  16.445  1.00  0.00     0.029 A 
ATOM     57  C   UNL     1       7.562   0.321  16.242  1.00  0.00     0.049 A 
ATOM     58  H   UNL     1       6.650   1.091  14.502  1.00  0.00     0.167 HD
ATOM     59  C   UNL     1       5.194   0.657  16.886  1.00  0.00     0.074 A 
ATOM     60  C   UNL     1       4.096   0.607  17.830  1.00  0.00     0.031 C 
ATOM     61  C   UNL     1       6.464   0.281  17.173  1.00  0.00     0.037 A 
BRANCH  48  62
ATOM     62  C   UNL     1      10.368   0.862  12.421  1.00  0.00     0.057 A 
ATOM     63  C   UNL     1      11.220   1.946  12.164  1.00  0.00     0.134 A 
ATOM     64  C   UNL     1      10.870  -0.423  12.187  1.00  0.00     0.134 A 
ATOM     65  F   UNL     1      10.796   3.204  12.357  1.00  0.00    -0.206 F 
ATOM     66  C   UNL     1      12.511   1.758  11.667  1.00  0.00     0.040 A 
ATOM     67  C   UNL     1      12.169  -0.625  11.714  1.00  0.00     0.040 A 
ATOM     68  F   UNL     1      10.111  -1.505  12.418  1.00  0.00    -0.206 F 
ATOM     69  C   UNL     1      12.990   0.469  11.447  1.00  0.00     0.006 A 
ENDBRANCH  48  62
BRANCH  49  70
ATOM     70  C   UNL     1       0.953   2.071  15.446  1.00  0.00     0.057 A 
ATOM     71  C   UNL     1       0.619   3.044  16.395  1.00  0.00     0.134 A 
ATOM     72  C   UNL     1      -0.079   1.261  14.960  1.00  0.00     0.134 A 
ATOM     73  F   UNL     1       1.569   3.837  16.912  1.00  0.00    -0.206 F 
ATOM     74  C   UNL     1      -0.688   3.194  16.860  1.00  0.00     0.040 A 
ATOM     75  C   UNL     1      -1.395   1.415  15.399  1.00  0.00     0.040 A 
ATOM     76  F   UNL     1       0.176   0.316  14.044  1.00  0.00    -0.206 F 
ATOM     77  C   UNL     1      -1.701   2.379  16.358  1.00  0.00     0.006 A 
ENDBRANCH  49  70
BRANCH  61  78
ATOM     78  C   UNL     1       6.738  -0.185  18.572  1.00  0.00     0.057 A 
ATOM     79  C   UNL     1       6.286  -1.426  19.039  1.00  0.00     0.134 A 
ATOM     80  C   UNL     1       7.476   0.611  19.457  1.00  0.00     0.134 A 
ATOM     81  F   UNL     1       5.562  -2.229  18.245  1.00  0.00    -0.206 F 
ATOM     82  C   UNL     1       6.535  -1.847  20.347  1.00  0.00     0.040 A 
ATOM     83  C   UNL     1       7.752   0.190  20.759  1.00  0.00     0.040 A 
ATOM     84  F   UNL     1       7.944   1.807  19.070  1.00  0.00    -0.206 F 
ATOM     85  C   UNL     1       7.274  -1.038  21.209  1.00  0.00     0.006 A 
ENDBRANCH  61  78
ENDBRANCH  35  36
ENDBRANCH  27  30
ENDBRANCH  25  26
ENDBRANCH  24  25
ENDBRANCH  23  24
ENDBRANCH   1  23
TORSDOF 15
