REMARK SMILES O=C(NCCCCNC(=O)[C@H]1[C@H](C(=O)NC2CC[NH+](Cc3ccccc3)CC2)[C@H]2C=C[C@@H]1C2)c1ccc(-c2c3nc(c(-c4c(F)cccc4F)c4ccc([nH]4)c(-c4c(F)cccc4F)c4nc(c(-c5c(F)cccc5F)c5ccc2[nH]5)C=C4)C=C3)cc1
REMARK SMILES IDX 6 1 5 2 4 3 3 4 1 5 2 6 34 8 35 9 87 10 36 11 86 12 37 13
REMARK SMILES IDX 38 14 39 15 80 16 40 17 85 18 79 19 81 20 41 21 84 22 78 23
REMARK SMILES IDX 77 24 42 26 68 27 51 28 67 29 52 30 55 31 66 32 82 33 53 34
REMARK SMILES IDX 54 35 65 37 83 38 56 39 43 40 44 41 49 42 45 43 46 44 48 45
REMARK SMILES IDX 50 46 47 47 69 48 70 49 75 50 71 51 72 52 74 53 76 54 73 55
REMARK SMILES IDX 57 56 58 57 63 58 59 59 60 60 62 61 64 62 61 63 7 64 8 65
REMARK SMILES IDX 9 66 10 68 11 69 12 70 32 71 29 72 31 73 33 74 30 75 13 76
REMARK SMILES IDX 14 77 15 78 16 80 17 81 28 82 18 83 27 84 19 85 20 87 21 88
REMARK SMILES IDX 22 89 26 90 23 91 25 92 24 93
REMARK H PARENT 3 7 81 25 55 36 8 67 15 79 19 86
REMARK Flexibility Score: inf
ROOT
ATOM      1  C   UNL     1       3.353   5.603   2.940  1.00  0.00     0.023 C 
ENDROOT
BRANCH   1   2
ATOM      2  C   UNL     1       1.891   5.620   3.385  1.00  0.00     0.023 C 
BRANCH   2   3
ATOM      3  C   UNL     1       1.568   6.518   4.573  1.00  0.00     0.116 C 
BRANCH   3   4
ATOM      4  N   UNL     1       1.772   7.932   4.297  1.00  0.00    -0.352 N 
ATOM      5  O   UNL     1       1.229  10.053   3.748  1.00  0.00    -0.269 OA
ATOM      6  C   UNL     1       0.856   8.937   4.098  1.00  0.00     0.251 C 
ATOM      7  H   UNL     1       2.714   8.213   4.246  1.00  0.00     0.163 HD
BRANCH   6   8
ATOM      8  C   UNL     1      -0.588   8.673   4.276  1.00  0.00     0.039 A 
ATOM      9  C   UNL     1      -1.055   7.989   5.398  1.00  0.00     0.014 A 
ATOM     10  C   UNL     1      -1.490   9.139   3.314  1.00  0.00     0.014 A 
ATOM     11  C   UNL     1      -2.395   7.629   5.481  1.00  0.00     0.010 A 
ATOM     12  C   UNL     1      -2.854   8.861   3.448  1.00  0.00     0.010 A 
ATOM     13  C   UNL     1      -3.313   8.082   4.520  1.00  0.00    -0.014 A 
BRANCH  13  14
ATOM     14  C   UNL     1      -4.759   7.820   4.720  1.00  0.00     0.031 A 
ATOM     15  C   UNL     1      -5.542   6.968   3.762  1.00  0.00     0.074 A 
ATOM     16  C   UNL     1      -5.361   8.369   5.793  1.00  0.00     0.049 A 
ATOM     17  N   UNL     1      -6.817   6.673   3.782  1.00  0.00    -0.248 NA
ATOM     18  C   UNL     1      -4.808   6.376   2.632  1.00  0.00     0.031 C 
ATOM     19  C   UNL     1      -4.699   9.230   6.778  1.00  0.00     0.029 A 
ATOM     20  N   UNL     1      -6.654   8.289   6.240  1.00  0.00    -0.354 N 
ATOM     21  C   UNL     1      -7.045   5.887   2.660  1.00  0.00     0.074 A 
ATOM     22  C   UNL     1      -5.778   5.754   1.973  1.00  0.00     0.031 C 
ATOM     23  C   UNL     1      -5.581   9.575   7.726  1.00  0.00     0.029 A 
ATOM     24  C   UNL     1      -6.883   9.021   7.380  1.00  0.00     0.049 A 
ATOM     25  H   UNL     1      -7.350   7.759   5.789  1.00  0.00     0.167 HD
ATOM     26  C   UNL     1      -8.209   5.330   2.248  1.00  0.00     0.037 A 
ATOM     27  C   UNL     1      -8.023   9.257   8.053  1.00  0.00     0.037 A 
ATOM     28  C   UNL     1      -9.457   5.441   2.961  1.00  0.00     0.049 A 
ATOM     29  C   UNL     1      -9.298   8.647   7.556  1.00  0.00     0.074 A 
ATOM     30  C   UNL     1     -10.668   4.835   2.674  1.00  0.00     0.029 A 
ATOM     31  N   UNL     1      -9.656   6.217   4.092  1.00  0.00    -0.354 N 
ATOM     32  N   UNL     1      -9.484   7.855   6.528  1.00  0.00    -0.248 NA
ATOM     33  C   UNL     1     -10.522   8.974   8.297  1.00  0.00     0.031 C 
ATOM     34  C   UNL     1     -11.613   5.286   3.602  1.00  0.00     0.029 A 
ATOM     35  C   UNL     1     -10.981   6.140   4.489  1.00  0.00     0.049 A 
ATOM     36  H   UNL     1      -8.959   6.744   4.546  1.00  0.00     0.167 HD
ATOM     37  C   UNL     1     -10.845   7.590   6.497  1.00  0.00     0.074 A 
ATOM     38  C   UNL     1     -11.432   8.281   7.627  1.00  0.00     0.031 C 
ATOM     39  C   UNL     1     -11.547   6.849   5.607  1.00  0.00     0.037 A 
BRANCH  26  40
ATOM     40  C   UNL     1      -8.213   4.559   0.961  1.00  0.00     0.057 A 
ATOM     41  C   UNL     1      -7.683   3.268   0.868  1.00  0.00     0.134 A 
ATOM     42  C   UNL     1      -8.847   5.083  -0.174  1.00  0.00     0.134 A 
ATOM     43  F   UNL     1      -7.059   2.711   1.917  1.00  0.00    -0.206 F 
ATOM     44  C   UNL     1      -7.780   2.524  -0.311  1.00  0.00     0.040 A 
ATOM     45  C   UNL     1      -8.966   4.343  -1.351  1.00  0.00     0.040 A 
ATOM     46  F   UNL     1      -9.383   6.312  -0.147  1.00  0.00    -0.206 F 
ATOM     47  C   UNL     1      -8.432   3.058  -1.421  1.00  0.00     0.006 A 
ENDBRANCH  26  40
BRANCH  27  48
ATOM     48  C   UNL     1      -8.009  10.153   9.235  1.00  0.00     0.057 A 
ATOM     49  C   UNL     1      -8.229   9.661  10.525  1.00  0.00     0.134 A 
ATOM     50  C   UNL     1      -7.763  11.525   9.099  1.00  0.00     0.134 A 
ATOM     51  F   UNL     1      -8.487   8.359  10.717  1.00  0.00    -0.206 F 
ATOM     52  C   UNL     1      -8.217  10.503  11.638  1.00  0.00     0.040 A 
ATOM     53  C   UNL     1      -7.720  12.374  10.205  1.00  0.00     0.040 A 
ATOM     54  F   UNL     1      -7.537  12.056   7.888  1.00  0.00    -0.206 F 
ATOM     55  C   UNL     1      -7.955  11.863  11.479  1.00  0.00     0.006 A 
ENDBRANCH  27  48
BRANCH  39  56
ATOM     56  C   UNL     1     -13.026   6.759   5.822  1.00  0.00     0.057 A 
ATOM     57  C   UNL     1     -13.872   7.833   5.521  1.00  0.00     0.134 A 
ATOM     58  C   UNL     1     -13.613   5.583   6.305  1.00  0.00     0.134 A 
ATOM     59  F   UNL     1     -13.366   8.992   5.072  1.00  0.00    -0.206 F 
ATOM     60  C   UNL     1     -15.252   7.747   5.708  1.00  0.00     0.040 A 
ATOM     61  C   UNL     1     -14.993   5.477   6.475  1.00  0.00     0.040 A 
ATOM     62  F   UNL     1     -12.855   4.518   6.607  1.00  0.00    -0.206 F 
ATOM     63  C   UNL     1     -15.816   6.563   6.181  1.00  0.00     0.006 A 
ENDBRANCH  39  56
ENDBRANCH  13  14
ENDBRANCH   6   8
ENDBRANCH   3   4
ENDBRANCH   2   3
ENDBRANCH   1   2
BRANCH   1  64
ATOM     64  C   UNL     1       4.393   5.466   4.050  1.00  0.00     0.116 C 
BRANCH  64  65
ATOM     65  N   UNL     1       4.228   4.304   4.899  1.00  0.00    -0.356 N 
ATOM     66  C   UNL     1       5.029   3.784   5.867  1.00  0.00     0.224 C 
ATOM     67  H   UNL     1       3.392   3.806   4.750  1.00  0.00     0.163 HD
ATOM     68  O   UNL     1       4.559   2.827   6.494  1.00  0.00    -0.275 OA
BRANCH  66  69
ATOM     69  C   UNL     1       6.481   4.214   6.109  1.00  0.00     0.098 C 
ATOM     70  C   UNL     1       6.915   5.682   5.881  1.00  0.00     0.098 C 
ATOM     71  C   UNL     1       6.827   4.031   7.629  1.00  0.00     0.025 C 
ATOM     72  C   UNL     1       7.615   6.080   7.205  1.00  0.00     0.025 C 
ATOM     73  C   UNL     1       6.001   5.004   8.452  1.00  0.00    -0.027 C 
ATOM     74  C   UNL     1       8.159   4.769   7.772  1.00  0.00     0.017 C 
ATOM     75  C   UNL     1       6.485   6.235   8.214  1.00  0.00    -0.027 C 
BRANCH  70  76
ATOM     76  C   UNL     1       7.623   6.013   4.570  1.00  0.00     0.224 C 
ATOM     77  O   UNL     1       7.309   7.053   3.975  1.00  0.00    -0.275 OA
ATOM     78  N   UNL     1       8.517   5.218   3.932  1.00  0.00    -0.353 N 
ATOM     79  H   UNL     1       8.502   5.295   2.951  1.00  0.00     0.163 HD
BRANCH  78  80
ATOM     80  C   UNL     1       9.497   4.269   4.447  1.00  0.00     0.093 C 
ATOM     81  C   UNL     1      10.897   4.880   4.388  1.00  0.00     0.086 C 
ATOM     82  C   UNL     1       9.457   2.908   3.759  1.00  0.00     0.086 C 
ATOM     83  C   UNL     1      11.455   4.868   2.966  1.00  0.00     0.264 C 
ATOM     84  C   UNL     1      10.107   2.926   2.383  1.00  0.00     0.264 C 
ATOM     85  N   UNL     1      11.454   3.510   2.417  1.00  0.00    -0.331 N 
ATOM     86  H   UNL     1      12.002   2.939   3.062  1.00  0.00     0.348 HD
BRANCH  85  87
ATOM     87  C   UNL     1      12.141   3.422   1.111  1.00  0.00     0.299 C 
BRANCH  87  88
ATOM     88  C   UNL     1      11.349   3.923  -0.081  1.00  0.00     0.006 A 
ATOM     89  C   UNL     1      10.614   3.018  -0.864  1.00  0.00     0.009 A 
ATOM     90  C   UNL     1      11.264   5.291  -0.372  1.00  0.00     0.009 A 
ATOM     91  C   UNL     1       9.778   3.475  -1.882  1.00  0.00     0.001 A 
ATOM     92  C   UNL     1      10.422   5.748  -1.387  1.00  0.00     0.001 A 
ATOM     93  C   UNL     1       9.673   4.841  -2.134  1.00  0.00     0.000 A 
ENDBRANCH  87  88
ENDBRANCH  85  87
ENDBRANCH  78  80
ENDBRANCH  70  76
ENDBRANCH  66  69
ENDBRANCH  64  65
ENDBRANCH   1  64
TORSDOF 15
