REMARK SMILES CS(=O)(=O)c1ccc(C2=NN(c3ccc(C(=O)NCCCCNC(=O)c4ccc(-c5c6nc(c(-c7c(F)cccc7F)c7ccc([nH]7)c(-c7c(F)cccc7F)c7nc(c(-c8c(F)cccc8F)c8ccc5[nH]8)C=C7)C=C6)cc4)cc3)[C@H](c3cccs3)C2)cc1
REMARK SMILES IDX 20 1 19 2 18 3 16 4 17 5 15 7 12 8 13 9 81 10 14 11 80 12
REMARK SMILES IDX 11 13 9 14 10 15 88 16 82 17 8 18 5 19 6 20 90 21 7 22 89 23
REMARK SMILES IDX 2 24 1 25 3 26 4 27 83 28 84 29 87 30 85 31 86 32 21 33
REMARK SMILES IDX 22 34 23 35 24 36 25 38 26 39 27 40 79 41 28 42 78 43 29 44
REMARK SMILES IDX 30 45 31 46 72 47 32 48 77 49 71 50 73 51 33 52 76 53 70 54
REMARK SMILES IDX 69 55 34 57 60 58 43 59 59 60 44 61 47 62 58 63 74 64 45 65
REMARK SMILES IDX 46 66 57 68 75 69 48 70 35 71 36 72 41 73 37 74 38 75 40 76
REMARK SMILES IDX 42 77 39 78 61 79 62 80 67 81 63 82 64 83 66 84 68 85 65 86
REMARK SMILES IDX 49 87 50 88 55 89 51 90 52 91 54 92 56 93 53 94
REMARK H PARENT 18 6 23 37 73 56 47 67
REMARK Flexibility Score: inf
ROOT
ATOM      1  C   UNL     1       1.270 -14.654  -1.950  1.00  0.00     0.023 C 
ENDROOT
BRANCH   1   2
ATOM      2  C   UNL     1       2.738 -14.363  -1.633  1.00  0.00     0.116 C 
BRANCH   2   3
ATOM      3  N   UNL     1       3.386 -13.695  -2.745  1.00  0.00    -0.352 N 
ATOM      4  C   UNL     1       3.711 -12.375  -2.940  1.00  0.00     0.251 C 
ATOM      5  O   UNL     1       4.341 -12.074  -3.953  1.00  0.00    -0.269 OA
ATOM      6  H   UNL     1       3.636 -14.290  -3.489  1.00  0.00     0.163 HD
BRANCH   4   7
ATOM      7  C   UNL     1       3.384 -11.320  -1.944  1.00  0.00     0.039 A 
ATOM      8  C   UNL     1       2.929  -9.304  -0.028  1.00  0.00     0.060 A 
ATOM      9  C   UNL     1       4.065  -9.266  -0.841  1.00  0.00     0.029 A 
ATOM     10  C   UNL     1       1.996 -10.322  -0.229  1.00  0.00     0.029 A 
ATOM     11  C   UNL     1       4.294 -10.267  -1.791  1.00  0.00     0.016 A 
ATOM     12  C   UNL     1       2.208 -11.307  -1.193  1.00  0.00     0.016 A 
BRANCH   8  13
ATOM     13  N   UNL     1       2.708  -8.361   0.956  1.00  0.00    -0.257 N 
ATOM     14  C   UNL     1       2.405  -6.388   1.652  1.00  0.00     0.071 C 
ATOM     15  N   UNL     1       2.197  -7.156   0.630  1.00  0.00    -0.176 NA
ATOM     16  C   UNL     1       3.187  -6.995   2.785  1.00  0.00     0.091 C 
ATOM     17  C   UNL     1       3.274  -8.452   2.303  1.00  0.00     0.154 C 
BRANCH  14  18
ATOM     18  C   UNL     1       1.913  -5.004   1.691  1.00  0.00    -0.002 A 
ATOM     19  C   UNL     1       0.935  -2.408   1.631  1.00  0.00     0.067 A 
ATOM     20  C   UNL     1       0.118  -3.456   1.203  1.00  0.00     0.021 A 
ATOM     21  C   UNL     1       2.230  -2.650   2.109  1.00  0.00     0.021 A 
ATOM     22  C   UNL     1       0.618  -4.757   1.220  1.00  0.00     0.011 A 
ATOM     23  C   UNL     1       2.721  -3.958   2.142  1.00  0.00     0.011 A 
BRANCH  19  24
ATOM     24  S   UNL     1       0.310  -0.744   1.607  1.00  0.00     0.175 S 
ATOM     25  C   UNL     1       0.933  -0.095   0.078  1.00  0.00     0.163 C 
ATOM     26  O   UNL     1       0.946  -0.031   2.698  1.00  0.00    -0.224 OA
ATOM     27  O   UNL     1      -1.136  -0.819   1.509  1.00  0.00    -0.224 OA
ENDBRANCH  19  24
ENDBRANCH  14  18
BRANCH  17  28
ATOM     28  C   UNL     1       2.617  -9.508   3.178  1.00  0.00     0.030 A 
ATOM     29  C   UNL     1       2.886 -10.869   3.153  1.00  0.00     0.017 A 
ATOM     30  S   UNL     1       1.354  -9.168   4.289  1.00  0.00    -0.147 S 
ATOM     31  C   UNL     1       2.070 -11.617   4.048  1.00  0.00     0.012 A 
ATOM     32  C   UNL     1       1.207 -10.807   4.748  1.00  0.00     0.065 A 
ENDBRANCH  17  28
ENDBRANCH   8  13
ENDBRANCH   4   7
ENDBRANCH   2   3
ENDBRANCH   1   2
BRANCH   1  33
ATOM     33  C   UNL     1       1.055 -15.825  -2.910  1.00  0.00     0.023 C 
BRANCH  33  34
ATOM     34  C   UNL     1       1.527 -17.176  -2.389  1.00  0.00     0.116 C 
BRANCH  34  35
ATOM     35  N   UNL     1       0.885 -17.567  -1.142  1.00  0.00    -0.352 N 
ATOM     36  C   UNL     1       0.455 -18.815  -0.757  1.00  0.00     0.251 C 
ATOM     37  H   UNL     1       0.740 -16.844  -0.489  1.00  0.00     0.163 HD
ATOM     38  O   UNL     1      -0.163 -18.973   0.289  1.00  0.00    -0.269 OA
BRANCH  36  39
ATOM     39  C   UNL     1       0.713 -19.960  -1.651  1.00  0.00     0.039 A 
ATOM     40  C   UNL     1      -0.362 -20.757  -2.053  1.00  0.00     0.014 A 
ATOM     41  C   UNL     1       1.999 -20.192  -2.146  1.00  0.00     0.014 A 
ATOM     42  C   UNL     1      -0.162 -21.736  -3.027  1.00  0.00     0.010 A 
ATOM     43  C   UNL     1       2.183 -21.123  -3.161  1.00  0.00     0.010 A 
ATOM     44  C   UNL     1       1.101 -21.890  -3.622  1.00  0.00    -0.014 A 
BRANCH  44  45
ATOM     45  C   UNL     1       1.312 -22.820  -4.756  1.00  0.00     0.031 A 
ATOM     46  C   UNL     1       2.218 -24.005  -4.601  1.00  0.00     0.074 A 
ATOM     47  C   UNL     1       0.755 -22.544  -5.951  1.00  0.00     0.049 A 
ATOM     48  N   UNL     1       2.611 -24.869  -5.501  1.00  0.00    -0.248 NA
ATOM     49  C   UNL     1       2.778 -24.233  -3.260  1.00  0.00     0.031 C 
ATOM     50  C   UNL     1      -0.117 -21.403  -6.236  1.00  0.00     0.029 A 
ATOM     51  N   UNL     1       0.853 -23.196  -7.155  1.00  0.00    -0.354 N 
ATOM     52  C   UNL     1       3.469 -25.737  -4.840  1.00  0.00     0.074 A 
ATOM     53  C   UNL     1       3.582 -25.263  -3.476  1.00  0.00     0.031 C 
ATOM     54  C   UNL     1      -0.491 -21.447  -7.525  1.00  0.00     0.029 A 
ATOM     55  C   UNL     1       0.148 -22.591  -8.167  1.00  0.00     0.049 A 
ATOM     56  H   UNL     1       1.379 -24.018  -7.281  1.00  0.00     0.167 HD
ATOM     57  C   UNL     1       4.089 -26.840  -5.320  1.00  0.00     0.037 A 
ATOM     58  C   UNL     1       0.042 -22.915  -9.469  1.00  0.00     0.037 A 
ATOM     59  C   UNL     1       3.965 -27.313  -6.673  1.00  0.00     0.049 A 
ATOM     60  C   UNL     1       0.785 -24.112  -9.992  1.00  0.00     0.074 A 
ATOM     61  C   UNL     1       4.501 -28.455  -7.241  1.00  0.00     0.029 A 
ATOM     62  N   UNL     1       3.261 -26.660  -7.675  1.00  0.00    -0.354 N 
ATOM     63  N   UNL     1       1.542 -24.962  -9.342  1.00  0.00    -0.248 NA
ATOM     64  C   UNL     1       0.667 -24.387 -11.430  1.00  0.00     0.031 C 
ATOM     65  C   UNL     1       4.161 -28.469  -8.598  1.00  0.00     0.029 A 
ATOM     66  C   UNL     1       3.378 -27.358  -8.866  1.00  0.00     0.049 A 
ATOM     67  H   UNL     1       2.754 -25.825  -7.557  1.00  0.00     0.167 HD
ATOM     68  C   UNL     1       1.976 -25.883 -10.286  1.00  0.00     0.074 A 
ATOM     69  C   UNL     1       1.387 -25.495 -11.551  1.00  0.00     0.031 C 
ATOM     70  C   UNL     1       2.791 -26.953 -10.119  1.00  0.00     0.037 A 
BRANCH  57  71
ATOM     71  C   UNL     1       4.960 -27.605  -4.367  1.00  0.00     0.057 A 
ATOM     72  C   UNL     1       4.420 -28.342  -3.304  1.00  0.00     0.134 A 
ATOM     73  C   UNL     1       6.352 -27.612  -4.516  1.00  0.00     0.134 A 
ATOM     74  F   UNL     1       3.094 -28.365  -3.098  1.00  0.00    -0.206 F 
ATOM     75  C   UNL     1       5.234 -29.029  -2.404  1.00  0.00     0.040 A 
ATOM     76  C   UNL     1       7.176 -28.319  -3.638  1.00  0.00     0.040 A 
ATOM     77  F   UNL     1       6.934 -26.933  -5.515  1.00  0.00    -0.206 F 
ATOM     78  C   UNL     1       6.617 -29.022  -2.572  1.00  0.00     0.006 A 
ENDBRANCH  57  71
BRANCH  58  79
ATOM     79  C   UNL     1      -0.815 -22.101 -10.366  1.00  0.00     0.057 A 
ATOM     80  C   UNL     1      -2.026 -22.608 -10.851  1.00  0.00     0.134 A 
ATOM     81  C   UNL     1      -0.454 -20.805 -10.753  1.00  0.00     0.134 A 
ATOM     82  F   UNL     1      -2.414 -23.851 -10.530  1.00  0.00    -0.206 F 
ATOM     83  C   UNL     1      -2.845 -21.858 -11.696  1.00  0.00     0.040 A 
ATOM     84  C   UNL     1      -1.274 -20.036 -11.580  1.00  0.00     0.040 A 
ATOM     85  F   UNL     1       0.692 -20.262 -10.318  1.00  0.00    -0.206 F 
ATOM     86  C   UNL     1      -2.472 -20.565 -12.058  1.00  0.00     0.006 A 
ENDBRANCH  58  79
BRANCH  70  87
ATOM     87  C   UNL     1       3.084 -27.787 -11.330  1.00  0.00     0.057 A 
ATOM     88  C   UNL     1       3.959 -27.346 -12.330  1.00  0.00     0.134 A 
ATOM     89  C   UNL     1       2.526 -29.064 -11.473  1.00  0.00     0.134 A 
ATOM     90  F   UNL     1       4.513 -26.126 -12.259  1.00  0.00    -0.206 F 
ATOM     91  C   UNL     1       4.260 -28.141 -13.437  1.00  0.00     0.040 A 
ATOM     92  C   UNL     1       2.837 -29.877 -12.563  1.00  0.00     0.040 A 
ATOM     93  F   UNL     1       1.684 -29.547 -10.547  1.00  0.00    -0.206 F 
ATOM     94  C   UNL     1       3.704 -29.414 -13.551  1.00  0.00     0.006 A 
ENDBRANCH  70  87
ENDBRANCH  44  45
ENDBRANCH  36  39
ENDBRANCH  34  35
ENDBRANCH  33  34
ENDBRANCH   1  33
TORSDOF 15
