REMARK SMILES Cc1ccccc1CNc1ccc(C(=O)NCCCCNC(=O)c2ccc(-c3c4nc(c(-c5c(F)cccc5F)c5ccc([nH]5)c(-c5c(F)cccc5F)c5nc(c(-c6c(F)cccc6F)c6ccc3[nH]6)C=C5)C=C4)cc2)c(F)c1F
REMARK SMILES IDX 18 1 17 2 16 3 14 4 15 5 13 7 10 8 11 9 80 10 12 11 78 12
REMARK SMILES IDX 81 13 79 14 9 15 8 17 7 18 1 19 2 20 3 21 4 22 6 23 5 24
REMARK SMILES IDX 19 25 20 26 21 27 22 28 23 30 24 31 25 32 77 33 26 34 76 35
REMARK SMILES IDX 27 36 28 37 29 38 70 39 30 40 75 41 69 42 71 43 31 44 74 45
REMARK SMILES IDX 68 46 67 47 32 49 58 50 41 51 57 52 42 53 45 54 56 55 72 56
REMARK SMILES IDX 43 57 44 58 55 60 73 61 46 62 33 63 34 64 39 65 35 66 36 67
REMARK SMILES IDX 38 68 40 69 37 70 59 71 60 72 65 73 61 74 62 75 64 76 66 77
REMARK SMILES IDX 63 78 47 79 48 80 53 81 49 82 50 83 52 84 54 85 51 86
REMARK H PARENT 16 6 9 16 21 29 71 48 45 59
REMARK Flexibility Score: inf
ROOT
ATOM      1  C   UNL     1       1.299  10.307   0.122  1.00  0.00     0.023 C 
ENDROOT
BRANCH   1   2
ATOM      2  C   UNL     1       0.333   9.338   0.803  1.00  0.00     0.116 C 
BRANCH   2   3
ATOM      3  N   UNL     1      -0.991   9.292   0.195  1.00  0.00    -0.352 N 
ATOM      4  C   UNL     1      -1.675   8.302  -0.474  1.00  0.00     0.254 C 
ATOM      5  O   UNL     1      -2.794   8.561  -0.910  1.00  0.00    -0.269 OA
ATOM      6  H   UNL     1      -1.494  10.134   0.279  1.00  0.00     0.163 HD
BRANCH   4   7
ATOM      7  C   UNL     1      -1.112   6.948  -0.661  1.00  0.00     0.078 A 
ATOM      8  C   UNL     1      -0.028   4.355  -1.042  1.00  0.00     0.074 A 
ATOM      9  C   UNL     1       0.175   5.057   0.146  1.00  0.00     0.030 A 
ATOM     10  C   UNL     1      -0.809   4.980  -2.030  1.00  0.00     0.182 A 
ATOM     11  C   UNL     1      -0.409   6.307   0.359  1.00  0.00     0.019 A 
ATOM     12  C   UNL     1      -1.339   6.258  -1.851  1.00  0.00     0.173 A 
ATOM     13  F   UNL     1      -1.058   4.323  -3.177  1.00  0.00    -0.201 F 
ATOM     14  F   UNL     1      -2.058   6.802  -2.845  1.00  0.00    -0.203 F 
BRANCH   8  15
ATOM     15  N   UNL     1       0.475   3.087  -1.259  1.00  0.00    -0.379 N 
ATOM     16  H   UNL     1       0.427   2.734  -2.176  1.00  0.00     0.161 HD
BRANCH  15  17
ATOM     17  C   UNL     1       1.070   2.229  -0.249  1.00  0.00     0.149 C 
BRANCH  17  18
ATOM     18  C   UNL     1       0.356   0.895  -0.191  1.00  0.00    -0.026 A 
ATOM     19  C   UNL     1       2.531  -0.477  -0.077  1.00  0.00     0.044 C 
ATOM     20  C   UNL     1       1.032  -0.337  -0.084  1.00  0.00    -0.046 A 
ATOM     21  C   UNL     1       0.279  -1.523  -0.006  1.00  0.00     0.004 A 
ATOM     22  C   UNL     1      -1.115  -1.498   0.012  1.00  0.00     0.000 A 
ATOM     23  C   UNL     1      -1.056   0.898  -0.144  1.00  0.00     0.006 A 
ATOM     24  C   UNL     1      -1.785  -0.285  -0.049  1.00  0.00     0.000 A 
ENDBRANCH  17  18
ENDBRANCH  15  17
ENDBRANCH   8  15
ENDBRANCH   4   7
ENDBRANCH   2   3
ENDBRANCH   1   2
BRANCH   1  25
ATOM     25  C   UNL     1       0.887  11.776   0.124  1.00  0.00     0.023 C 
BRANCH  25  26
ATOM     26  C   UNL     1       0.739  12.395   1.506  1.00  0.00     0.116 C 
BRANCH  26  27
ATOM     27  N   UNL     1       1.987  12.736   2.169  1.00  0.00    -0.352 N 
ATOM     28  C   UNL     1       2.225  13.258   3.434  1.00  0.00     0.251 C 
ATOM     29  H   UNL     1       2.796  12.571   1.633  1.00  0.00     0.163 HD
ATOM     30  O   UNL     1       3.353  13.573   3.736  1.00  0.00    -0.269 OA
BRANCH  28  31
ATOM     31  C   UNL     1       1.144  13.288   4.471  1.00  0.00     0.039 A 
ATOM     32  C   UNL     1       1.533  13.146   5.813  1.00  0.00     0.014 A 
ATOM     33  C   UNL     1      -0.207  13.250   4.153  1.00  0.00     0.014 A 
ATOM     34  C   UNL     1       0.612  12.697   6.759  1.00  0.00     0.010 A 
ATOM     35  C   UNL     1      -1.096  12.700   5.050  1.00  0.00     0.010 A 
ATOM     36  C   UNL     1      -0.665  12.356   6.331  1.00  0.00    -0.014 A 
BRANCH  36  37
ATOM     37  C   UNL     1      -1.590  11.532   7.093  1.00  0.00     0.031 A 
ATOM     38  C   UNL     1      -2.779  12.133   7.724  1.00  0.00     0.074 A 
ATOM     39  C   UNL     1      -1.422  10.192   7.058  1.00  0.00     0.049 A 
ATOM     40  N   UNL     1      -3.469  11.577   8.658  1.00  0.00    -0.248 NA
ATOM     41  C   UNL     1      -3.269  13.456   7.358  1.00  0.00     0.031 C 
ATOM     42  C   UNL     1      -2.374   9.158   7.449  1.00  0.00     0.029 A 
ATOM     43  N   UNL     1      -0.228   9.495   6.824  1.00  0.00    -0.354 N 
ATOM     44  C   UNL     1      -4.619  12.315   8.833  1.00  0.00     0.074 A 
ATOM     45  C   UNL     1      -4.418  13.504   8.038  1.00  0.00     0.031 C 
ATOM     46  C   UNL     1      -1.698   8.027   7.710  1.00  0.00     0.029 A 
ATOM     47  C   UNL     1      -0.283   8.350   7.647  1.00  0.00     0.049 A 
ATOM     48  H   UNL     1       0.499   9.752   6.212  1.00  0.00     0.167 HD
ATOM     49  C   UNL     1      -5.655  11.767   9.533  1.00  0.00     0.037 A 
ATOM     50  C   UNL     1       0.596   8.195   8.680  1.00  0.00     0.037 A 
ATOM     51  C   UNL     1      -5.272  10.469  10.088  1.00  0.00     0.049 A 
ATOM     52  C   UNL     1      -0.067   8.138  10.038  1.00  0.00     0.074 A 
ATOM     53  C   UNL     1      -5.462   9.168   9.648  1.00  0.00     0.029 A 
ATOM     54  N   UNL     1      -4.300  10.410  11.080  1.00  0.00    -0.354 N 
ATOM     55  N   UNL     1      -1.279   8.557  10.277  1.00  0.00    -0.248 NA
ATOM     56  C   UNL     1       0.590   7.622  11.237  1.00  0.00     0.031 C 
ATOM     57  C   UNL     1      -4.532   8.337  10.323  1.00  0.00     0.029 A 
ATOM     58  C   UNL     1      -3.802   9.126  11.195  1.00  0.00     0.049 A 
ATOM     59  H   UNL     1      -4.006  11.176  11.624  1.00  0.00     0.167 HD
ATOM     60  C   UNL     1      -1.561   8.411  11.609  1.00  0.00     0.074 A 
ATOM     61  C   UNL     1      -0.368   7.798  12.164  1.00  0.00     0.031 C 
ATOM     62  C   UNL     1      -2.746   8.821  12.149  1.00  0.00     0.037 A 
BRANCH  49  63
ATOM     63  C   UNL     1      -7.087  12.261   9.468  1.00  0.00     0.057 A 
ATOM     64  C   UNL     1      -8.165  11.372   9.656  1.00  0.00     0.134 A 
ATOM     65  C   UNL     1      -7.479  13.577   9.168  1.00  0.00     0.134 A 
ATOM     66  F   UNL     1      -7.976  10.108  10.058  1.00  0.00    -0.206 F 
ATOM     67  C   UNL     1      -9.504  11.731   9.440  1.00  0.00     0.040 A 
ATOM     68  C   UNL     1      -8.808  13.940   8.896  1.00  0.00     0.040 A 
ATOM     69  F   UNL     1      -6.609  14.592   9.187  1.00  0.00    -0.206 F 
ATOM     70  C   UNL     1      -9.828  13.010   9.018  1.00  0.00     0.006 A 
ENDBRANCH  49  63
BRANCH  50  71
ATOM     71  C   UNL     1       1.933   8.788   8.400  1.00  0.00     0.057 A 
ATOM     72  C   UNL     1       2.701   8.241   7.356  1.00  0.00     0.134 A 
ATOM     73  C   UNL     1       2.280  10.068   8.840  1.00  0.00     0.134 A 
ATOM     74  F   UNL     1       2.421   7.015   6.884  1.00  0.00    -0.206 F 
ATOM     75  C   UNL     1       3.687   8.980   6.696  1.00  0.00     0.040 A 
ATOM     76  C   UNL     1       3.277  10.813   8.195  1.00  0.00     0.040 A 
ATOM     77  F   UNL     1       1.583  10.668   9.815  1.00  0.00    -0.206 F 
ATOM     78  C   UNL     1       3.952  10.286   7.094  1.00  0.00     0.006 A 
ENDBRANCH  50  71
BRANCH  62  79
ATOM     79  C   UNL     1      -3.054   8.915  13.622  1.00  0.00     0.057 A 
ATOM     80  C   UNL     1      -2.100   9.207  14.607  1.00  0.00     0.134 A 
ATOM     81  C   UNL     1      -4.392   8.868  14.075  1.00  0.00     0.134 A 
ATOM     82  F   UNL     1      -0.808   9.385  14.300  1.00  0.00    -0.206 F 
ATOM     83  C   UNL     1      -2.443   9.390  15.953  1.00  0.00     0.040 A 
ATOM     84  C   UNL     1      -4.751   9.103  15.405  1.00  0.00     0.040 A 
ATOM     85  F   UNL     1      -5.410   8.618  13.238  1.00  0.00    -0.206 F 
ATOM     86  C   UNL     1      -3.773   9.352  16.354  1.00  0.00     0.006 A 
ENDBRANCH  62  79
ENDBRANCH  36  37
ENDBRANCH  28  31
ENDBRANCH  26  27
ENDBRANCH  25  26
ENDBRANCH   1  25
TORSDOF 14
