REMARK SMILES COc1ccc(F)cc1[C@@H](C(=O)NCCCCNC(=O)c1ccc(-c2c3nc(c(-c4c(F)cccc4F)c4ccc([nH]4)c(-c4c(F)cccc4F)c4nc(c(-c5c(F)cccc5F)c5ccc2[nH]5)C=C4)C=C3)cc1)[N@@H+](C)CCn1ccnc1C
REMARK SMILES IDX 14 1 13 2 11 3 12 4 10 6 9 7 3 8 4 9 5 10 8 11 6 12 7 13
REMARK SMILES IDX 2 14 1 15 75 16 76 17 77 19 78 20 79 21 80 22 83 23 81 24
REMARK SMILES IDX 82 25 84 26 15 27 16 28 17 29 18 30 19 31 20 33 21 34 22 35
REMARK SMILES IDX 74 36 23 37 73 38 24 39 25 40 26 41 67 42 27 43 72 44 66 45
REMARK SMILES IDX 68 46 28 47 71 48 65 49 64 50 29 52 55 53 38 54 54 55 39 56
REMARK SMILES IDX 42 57 53 58 69 59 40 60 41 61 52 63 70 64 43 65 30 66 31 67
REMARK SMILES IDX 36 68 32 69 33 70 35 71 37 72 34 73 56 74 57 75 62 76 58 77
REMARK SMILES IDX 59 78 61 79 63 80 60 81 44 82 45 83 50 84 46 85 47 86 49 87
REMARK SMILES IDX 51 88 48 89
REMARK H PARENT 13 5 75 18 18 32 68 51 42 62
REMARK Flexibility Score: inf
ROOT
ATOM      1  C   UNL     1      -0.800   0.254   2.491  1.00  0.00     0.116 C 
ENDROOT
BRANCH   1   2
ATOM      2  N   UNL     1      -1.775   1.314   2.562  1.00  0.00    -0.351 N 
ATOM      3  C   UNL     1      -2.068   2.162   1.529  1.00  0.00     0.283 C 
ATOM      4  O   UNL     1      -3.224   2.119   1.091  1.00  0.00    -0.268 OA
ATOM      5  H   UNL     1      -2.261   1.436   3.409  1.00  0.00     0.163 HD
BRANCH   3   6
ATOM      6  C   UNL     1      -1.031   3.175   0.971  1.00  0.00     0.309 C 
BRANCH   6   7
ATOM      7  C   UNL     1       0.411   3.067   1.501  1.00  0.00     0.064 A 
ATOM      8  C   UNL     1       1.374   2.264   0.831  1.00  0.00     0.128 A 
ATOM      9  C   UNL     1       2.679   2.127   1.333  1.00  0.00     0.050 A 
ATOM     10  C   UNL     1       3.053   2.769   2.510  1.00  0.00     0.043 A 
ATOM     11  C   UNL     1       0.816   3.660   2.706  1.00  0.00     0.053 A 
ATOM     12  C   UNL     1       2.117   3.531   3.185  1.00  0.00     0.124 A 
ATOM     13  F   UNL     1       2.458   4.139   4.329  1.00  0.00    -0.207 F 
BRANCH   8  14
ATOM     14  O   UNL     1       0.968   1.611  -0.309  1.00  0.00    -0.496 OA
ATOM     15  C   UNL     1       1.538   0.320  -0.527  1.00  0.00     0.278 C 
ENDBRANCH   8  14
ENDBRANCH   6   7
BRANCH   6  16
ATOM     16  N   UNL     1      -1.594   4.572   0.845  1.00  0.00    -0.322 N 
ATOM     17  C   UNL     1      -2.687   4.651  -0.134  1.00  0.00     0.333 C 
ATOM     18  H   UNL     1      -0.738   5.024   0.523  1.00  0.00     0.348 HD
BRANCH  16  19
ATOM     19  C   UNL     1      -1.886   5.412   2.018  1.00  0.00     0.285 C 
BRANCH  19  20
ATOM     20  C   UNL     1      -3.100   5.185   2.951  1.00  0.00     0.184 C 
BRANCH  20  21
ATOM     21  N   UNL     1      -3.026   4.108   3.914  1.00  0.00    -0.330 N 
ATOM     22  C   UNL     1      -2.126   4.056   4.949  1.00  0.00     0.107 A 
ATOM     23  C   UNL     1      -3.913   3.064   4.094  1.00  0.00     0.105 A 
ATOM     24  C   UNL     1      -2.442   2.924   5.654  1.00  0.00     0.131 A 
ATOM     25  N   UNL     1      -3.526   2.301   5.101  1.00  0.00    -0.242 NA
ATOM     26  C   UNL     1      -5.106   2.773   3.253  1.00  0.00     0.087 C 
ENDBRANCH  20  21
ENDBRANCH  19  20
ENDBRANCH  16  19
ENDBRANCH   6  16
ENDBRANCH   3   6
ENDBRANCH   1   2
BRANCH   1  27
ATOM     27  C   UNL     1      -0.007   0.077   3.778  1.00  0.00     0.023 C 
BRANCH  27  28
ATOM     28  C   UNL     1      -0.822  -0.419   4.973  1.00  0.00     0.023 C 
BRANCH  28  29
ATOM     29  C   UNL     1      -1.662  -1.666   4.730  1.00  0.00     0.116 C 
BRANCH  29  30
ATOM     30  N   UNL     1      -0.860  -2.809   4.325  1.00  0.00    -0.352 N 
ATOM     31  C   UNL     1      -0.752  -4.054   4.896  1.00  0.00     0.251 C 
ATOM     32  H   UNL     1      -0.312  -2.670   3.520  1.00  0.00     0.163 HD
ATOM     33  O   UNL     1       0.113  -4.829   4.503  1.00  0.00    -0.269 OA
BRANCH  31  34
ATOM     34  C   UNL     1      -1.655  -4.456   5.998  1.00  0.00     0.039 A 
ATOM     35  C   UNL     1      -1.119  -5.161   7.079  1.00  0.00     0.014 A 
ATOM     36  C   UNL     1      -3.022  -4.164   5.966  1.00  0.00     0.014 A 
ATOM     37  C   UNL     1      -1.941  -5.521   8.150  1.00  0.00     0.010 A 
ATOM     38  C   UNL     1      -3.821  -4.449   7.071  1.00  0.00     0.010 A 
ATOM     39  C   UNL     1      -3.292  -5.139   8.172  1.00  0.00    -0.014 A 
BRANCH  39  40
ATOM     40  C   UNL     1      -4.161  -5.458   9.336  1.00  0.00     0.031 A 
ATOM     41  C   UNL     1      -5.359  -6.354   9.168  1.00  0.00     0.074 A 
ATOM     42  C   UNL     1      -3.897  -4.906  10.538  1.00  0.00     0.049 A 
ATOM     43  N   UNL     1      -6.255  -6.706  10.056  1.00  0.00    -0.248 NA
ATOM     44  C   UNL     1      -5.597  -6.912   7.827  1.00  0.00     0.031 C 
ATOM     45  C   UNL     1      -2.796  -3.984  10.821  1.00  0.00     0.029 A 
ATOM     46  N   UNL     1      -4.540  -5.034  11.745  1.00  0.00    -0.354 N 
ATOM     47  C   UNL     1      -7.164  -7.509   9.379  1.00  0.00     0.074 A 
ATOM     48  C   UNL     1      -6.741  -7.558   7.997  1.00  0.00     0.031 C 
ATOM     49  C   UNL     1      -2.826  -3.649  12.121  1.00  0.00     0.029 A 
ATOM     50  C   UNL     1      -3.970  -4.296  12.755  1.00  0.00     0.049 A 
ATOM     51  H   UNL     1      -5.335  -5.600  11.874  1.00  0.00     0.167 HD
ATOM     52  C   UNL     1      -8.240  -8.166   9.871  1.00  0.00     0.037 A 
ATOM     53  C   UNL     1      -4.332  -4.146  14.044  1.00  0.00     0.037 A 
ATOM     54  C   UNL     1      -8.638  -8.147  11.254  1.00  0.00     0.049 A 
ATOM     55  C   UNL     1      -5.531  -4.891  14.565  1.00  0.00     0.074 A 
ATOM     56  C   UNL     1      -9.674  -8.841  11.856  1.00  0.00     0.029 A 
ATOM     57  N   UNL     1      -8.024  -7.402  12.248  1.00  0.00    -0.354 N 
ATOM     58  N   UNL     1      -6.339  -5.702  13.926  1.00  0.00    -0.248 NA
ATOM     59  C   UNL     1      -5.866  -4.708  15.985  1.00  0.00     0.031 C 
ATOM     60  C   UNL     1      -9.723  -8.472  13.201  1.00  0.00     0.029 A 
ATOM     61  C   UNL     1      -8.677  -7.599  13.453  1.00  0.00     0.049 A 
ATOM     62  H   UNL     1      -7.241  -6.819  12.116  1.00  0.00     0.167 HD
ATOM     63  C   UNL     1      -7.258  -6.145  14.869  1.00  0.00     0.074 A 
ATOM     64  C   UNL     1      -6.900  -5.526  16.127  1.00  0.00     0.031 C 
ATOM     65  C   UNL     1      -8.305  -6.989  14.703  1.00  0.00     0.037 A 
BRANCH  52  66
ATOM     66  C   UNL     1      -9.069  -8.984   8.925  1.00  0.00     0.057 A 
ATOM     67  C   UNL     1     -10.384  -8.608   8.622  1.00  0.00     0.134 A 
ATOM     68  C   UNL     1      -8.609 -10.202   8.409  1.00  0.00     0.134 A 
ATOM     69  F   UNL     1     -10.889  -7.457   9.091  1.00  0.00    -0.206 F 
ATOM     70  C   UNL     1     -11.221  -9.427   7.863  1.00  0.00     0.040 A 
ATOM     71  C   UNL     1      -9.428 -11.018   7.626  1.00  0.00     0.040 A 
ATOM     72  F   UNL     1      -7.357 -10.615   8.653  1.00  0.00    -0.206 F 
ATOM     73  C   UNL     1     -10.744 -10.637   7.364  1.00  0.00     0.006 A 
ENDBRANCH  52  66
BRANCH  53  74
ATOM     74  C   UNL     1      -3.539  -3.261  14.938  1.00  0.00     0.057 A 
ATOM     75  C   UNL     1      -3.524  -1.872  14.763  1.00  0.00     0.134 A 
ATOM     76  C   UNL     1      -2.773  -3.785  15.985  1.00  0.00     0.134 A 
ATOM     77  F   UNL     1      -4.231  -1.306  13.774  1.00  0.00    -0.206 F 
ATOM     78  C   UNL     1      -2.767  -1.038  15.587  1.00  0.00     0.040 A 
ATOM     79  C   UNL     1      -2.034  -2.961  16.836  1.00  0.00     0.040 A 
ATOM     80  F   UNL     1      -2.761  -5.106  16.218  1.00  0.00    -0.206 F 
ATOM     81  C   UNL     1      -2.024  -1.582  16.633  1.00  0.00     0.006 A 
ENDBRANCH  53  74
BRANCH  65  82
ATOM     82  C   UNL     1      -9.130  -7.328  15.911  1.00  0.00     0.057 A 
ATOM     83  C   UNL     1      -9.114  -8.625  16.442  1.00  0.00     0.134 A 
ATOM     84  C   UNL     1     -10.003  -6.402  16.494  1.00  0.00     0.134 A 
ATOM     85  F   UNL     1      -8.311  -9.565  15.921  1.00  0.00    -0.206 F 
ATOM     86  C   UNL     1      -9.949  -8.992  17.498  1.00  0.00     0.040 A 
ATOM     87  C   UNL     1     -10.821  -6.749  17.570  1.00  0.00     0.040 A 
ATOM     88  F   UNL     1     -10.062  -5.141  16.038  1.00  0.00    -0.206 F 
ATOM     89  C   UNL     1     -10.803  -8.052  18.067  1.00  0.00     0.006 A 
ENDBRANCH  65  82
ENDBRANCH  39  40
ENDBRANCH  31  34
ENDBRANCH  29  30
ENDBRANCH  28  29
ENDBRANCH  27  28
ENDBRANCH   1  27
TORSDOF 17
