REMARK SMILES Cc1cc(C(=O)NCCCCNC(=O)c2ccc(-c3c4nc(c(-c5c(F)cccc5F)c5ccc([nH]5)c(-c5c(F)cccc5F)c5nc(c(-c6c(F)cccc6F)c6ccc3[nH]6)C=C5)C=C4)cc2)cc(S(=O)(=O)NNC(=O)c2c[nH]c3ccccc23)c1C
REMARK SMILES IDX 8 1 7 2 5 3 6 4 4 6 1 7 2 8 3 9 87 10 70 11 88 12 69 13
REMARK SMILES IDX 71 14 72 15 73 16 74 17 75 19 76 20 77 22 78 23 79 24 86 25
REMARK SMILES IDX 80 26 81 27 85 28 82 30 84 31 83 32 9 33 10 34 11 35 12 36
REMARK SMILES IDX 13 37 14 39 15 40 16 41 68 42 17 43 67 44 18 45 19 46 20 47
REMARK SMILES IDX 61 48 21 49 66 50 60 51 62 52 22 53 65 54 59 55 58 56 23 58
REMARK SMILES IDX 49 59 32 60 48 61 33 62 36 63 47 64 63 65 34 66 35 67 46 69
REMARK SMILES IDX 64 70 37 71 24 72 25 73 30 74 26 75 27 76 29 77 31 78 28 79
REMARK SMILES IDX 50 80 51 81 56 82 52 83 53 84 55 85 57 86 54 87 38 88 39 89
REMARK SMILES IDX 44 90 40 91 41 92 43 93 45 94 42 95
REMARK H PARENT 7 5 74 18 75 21 80 29 12 38 62 57 36 68
REMARK Flexibility Score: inf
ROOT
ATOM      1  C   UNL     1      -2.311   3.488   0.490  1.00  0.00     0.116 C 
ENDROOT
BRANCH   1   2
ATOM      2  N   UNL     1      -3.273   2.462   0.127  1.00  0.00    -0.352 N 
ATOM      3  C   UNL     1      -3.165   1.129  -0.182  1.00  0.00     0.251 C 
ATOM      4  O   UNL     1      -4.213   0.528  -0.434  1.00  0.00    -0.269 OA
ATOM      5  H   UNL     1      -4.199   2.793   0.096  1.00  0.00     0.163 HD
BRANCH   3   6
ATOM      6  C   UNL     1      -1.887   0.355  -0.211  1.00  0.00     0.041 A 
ATOM      7  C   UNL     1       1.881   0.869  -0.242  1.00  0.00     0.044 C 
ATOM      8  C   UNL     1       0.556   0.151  -0.253  1.00  0.00    -0.046 A 
ATOM      9  C   UNL     1      -0.617   0.926  -0.294  1.00  0.00     0.017 A 
ATOM     10  C   UNL     1       0.459  -1.255  -0.232  1.00  0.00    -0.028 A 
ATOM     11  C   UNL     1      -0.832  -1.842  -0.277  1.00  0.00     0.088 A 
ATOM     12  C   UNL     1       1.700  -2.113  -0.178  1.00  0.00     0.046 C 
ATOM     13  C   UNL     1      -1.983  -1.048  -0.218  1.00  0.00     0.036 A 
BRANCH  11  14
ATOM     14  S   UNL     1      -0.964  -3.589  -0.598  1.00  0.00     0.257 S 
ATOM     15  O   UNL     1      -0.440  -3.790  -1.945  1.00  0.00    -0.205 OA
ATOM     16  O   UNL     1      -0.398  -4.285   0.535  1.00  0.00    -0.205 OA
BRANCH  14  17
ATOM     17  N   UNL     1      -2.606  -4.032  -0.605  1.00  0.00    -0.123 NA
ATOM     18  H   UNL     1      -3.044  -3.548   0.180  1.00  0.00     0.167 HD
BRANCH  17  19
ATOM     19  N   UNL     1      -3.443  -3.766  -1.785  1.00  0.00    -0.273 N 
ATOM     20  C   UNL     1      -4.384  -4.700  -2.199  1.00  0.00     0.268 C 
ATOM     21  H   UNL     1      -3.336  -2.923  -2.283  1.00  0.00     0.186 HD
ATOM     22  O   UNL     1      -5.588  -4.503  -2.056  1.00  0.00    -0.268 OA
BRANCH  20  23
ATOM     23  C   UNL     1      -3.844  -5.722  -3.096  1.00  0.00     0.066 A 
ATOM     24  C   UNL     1      -2.509  -5.896  -3.419  1.00  0.00     0.097 A 
ATOM     25  C   UNL     1      -4.558  -6.600  -3.976  1.00  0.00     0.012 A 
ATOM     26  N   UNL     1      -2.472  -6.354  -4.707  1.00  0.00    -0.360 N 
ATOM     27  C   UNL     1      -3.719  -6.788  -5.077  1.00  0.00     0.046 A 
ATOM     28  C   UNL     1      -5.861  -7.136  -4.038  1.00  0.00     0.011 A 
ATOM     29  H   UNL     1      -1.673  -6.370  -5.281  1.00  0.00     0.166 HD
ATOM     30  C   UNL     1      -4.165  -7.304  -6.296  1.00  0.00     0.027 A 
ATOM     31  C   UNL     1      -6.280  -7.786  -5.207  1.00  0.00     0.001 A 
ATOM     32  C   UNL     1      -5.464  -7.812  -6.337  1.00  0.00     0.002 A 
ENDBRANCH  20  23
ENDBRANCH  17  19
ENDBRANCH  14  17
ENDBRANCH  11  14
ENDBRANCH   3   6
ENDBRANCH   1   2
BRANCH   1  33
ATOM     33  C   UNL     1      -1.859   4.285  -0.739  1.00  0.00     0.023 C 
BRANCH  33  34
ATOM     34  C   UNL     1      -2.855   5.358  -1.194  1.00  0.00     0.023 C 
BRANCH  34  35
ATOM     35  C   UNL     1      -3.057   6.510  -0.213  1.00  0.00     0.116 C 
BRANCH  35  36
ATOM     36  N   UNL     1      -1.843   7.266   0.053  1.00  0.00    -0.352 N 
ATOM     37  C   UNL     1      -1.715   8.598   0.371  1.00  0.00     0.251 C 
ATOM     38  H   UNL     1      -1.002   6.757  -0.002  1.00  0.00     0.163 HD
ATOM     39  O   UNL     1      -0.603   9.106   0.473  1.00  0.00    -0.269 OA
BRANCH  37  40
ATOM     40  C   UNL     1      -2.927   9.427   0.542  1.00  0.00     0.039 A 
ATOM     41  C   UNL     1      -3.004  10.651  -0.127  1.00  0.00     0.014 A 
ATOM     42  C   UNL     1      -3.992   8.988   1.333  1.00  0.00     0.014 A 
ATOM     43  C   UNL     1      -4.179  11.402  -0.063  1.00  0.00     0.010 A 
ATOM     44  C   UNL     1      -5.185   9.704   1.343  1.00  0.00     0.010 A 
ATOM     45  C   UNL     1      -5.293  10.915   0.641  1.00  0.00    -0.014 A 
BRANCH  45  46
ATOM     46  C   UNL     1      -6.583  11.647   0.642  1.00  0.00     0.031 A 
ATOM     47  C   UNL     1      -7.132  12.215   1.919  1.00  0.00     0.074 A 
ATOM     48  C   UNL     1      -7.300  11.732  -0.496  1.00  0.00     0.049 A 
ATOM     49  N   UNL     1      -8.273  12.819   2.133  1.00  0.00    -0.248 NA
ATOM     50  C   UNL     1      -6.300  12.056   3.122  1.00  0.00     0.031 C 
ATOM     51  C   UNL     1      -6.902  11.174  -1.790  1.00  0.00     0.029 A 
ATOM     52  N   UNL     1      -8.520  12.309  -0.744  1.00  0.00    -0.354 N 
ATOM     53  C   UNL     1      -8.304  13.097   3.493  1.00  0.00     0.074 A 
ATOM     54  C   UNL     1      -7.091  12.551   4.063  1.00  0.00     0.031 C 
ATOM     55  C   UNL     1      -7.852  11.452  -2.698  1.00  0.00     0.029 A 
ATOM     56  C   UNL     1      -8.937  12.177  -2.045  1.00  0.00     0.049 A 
ATOM     57  H   UNL     1      -9.046  12.773  -0.053  1.00  0.00     0.167 HD
ATOM     58  C   UNL     1      -9.246  13.766   4.200  1.00  0.00     0.037 A 
ATOM     59  C   UNL     1     -10.070  12.590  -2.645  1.00  0.00     0.037 A 
ATOM     60  C   UNL     1     -10.440  14.330   3.627  1.00  0.00     0.049 A 
ATOM     61  C   UNL     1     -11.097  13.338  -1.843  1.00  0.00     0.074 A 
ATOM     62  C   UNL     1     -11.423  15.082   4.246  1.00  0.00     0.029 A 
ATOM     63  N   UNL     1     -10.815  14.199   2.298  1.00  0.00    -0.354 N 
ATOM     64  N   UNL     1     -11.080  13.657  -0.572  1.00  0.00    -0.248 NA
ATOM     65  C   UNL     1     -12.299  13.787  -2.560  1.00  0.00     0.031 C 
ATOM     66  C   UNL     1     -12.412  15.374   3.301  1.00  0.00     0.029 A 
ATOM     67  C   UNL     1     -12.024  14.840   2.082  1.00  0.00     0.049 A 
ATOM     68  H   UNL     1     -10.299  13.720   1.610  1.00  0.00     0.167 HD
ATOM     69  C   UNL     1     -12.252  14.366  -0.341  1.00  0.00     0.074 A 
ATOM     70  C   UNL     1     -12.951  14.439  -1.608  1.00  0.00     0.031 C 
ATOM     71  C   UNL     1     -12.706  14.907   0.815  1.00  0.00     0.037 A 
BRANCH  58  72
ATOM     72  C   UNL     1      -9.015  13.925   5.675  1.00  0.00     0.057 A 
ATOM     73  C   UNL     1      -8.012  14.763   6.179  1.00  0.00     0.134 A 
ATOM     74  C   UNL     1      -9.814  13.244   6.602  1.00  0.00     0.134 A 
ATOM     75  F   UNL     1      -7.204  15.434   5.344  1.00  0.00    -0.206 F 
ATOM     76  C   UNL     1      -7.789  14.893   7.551  1.00  0.00     0.040 A 
ATOM     77  C   UNL     1      -9.619  13.387   7.977  1.00  0.00     0.040 A 
ATOM     78  F   UNL     1     -10.796  12.430   6.188  1.00  0.00    -0.206 F 
ATOM     79  C   UNL     1      -8.598  14.208   8.454  1.00  0.00     0.006 A 
ENDBRANCH  58  72
BRANCH  59  80
ATOM     80  C   UNL     1     -10.276  12.331  -4.091  1.00  0.00     0.057 A 
ATOM     81  C   UNL     1     -10.203  13.370  -5.026  1.00  0.00     0.134 A 
ATOM     82  C   UNL     1     -10.540  11.044  -4.574  1.00  0.00     0.134 A 
ATOM     83  F   UNL     1      -9.969  14.627  -4.620  1.00  0.00    -0.206 F 
ATOM     84  C   UNL     1     -10.398  13.142  -6.388  1.00  0.00     0.040 A 
ATOM     85  C   UNL     1     -10.716  10.798  -5.937  1.00  0.00     0.040 A 
ATOM     86  F   UNL     1     -10.614  10.005  -3.729  1.00  0.00    -0.206 F 
ATOM     87  C   UNL     1     -10.650  11.851  -6.848  1.00  0.00     0.006 A 
ENDBRANCH  59  80
BRANCH  71  88
ATOM     88  C   UNL     1     -14.007  15.652   0.758  1.00  0.00     0.057 A 
ATOM     89  C   UNL     1     -15.234  14.988   0.634  1.00  0.00     0.134 A 
ATOM     90  C   UNL     1     -14.034  17.048   0.869  1.00  0.00     0.134 A 
ATOM     91  F   UNL     1     -15.274  13.652   0.510  1.00  0.00    -0.206 F 
ATOM     92  C   UNL     1     -16.441  15.687   0.603  1.00  0.00     0.040 A 
ATOM     93  C   UNL     1     -15.236  17.757   0.863  1.00  0.00     0.040 A 
ATOM     94  F   UNL     1     -12.894  17.743   0.997  1.00  0.00    -0.206 F 
ATOM     95  C   UNL     1     -16.444  17.076   0.725  1.00  0.00     0.006 A 
ENDBRANCH  71  88
ENDBRANCH  45  46
ENDBRANCH  37  40
ENDBRANCH  35  36
ENDBRANCH  34  35
ENDBRANCH  33  34
ENDBRANCH   1  33
TORSDOF 15
