REMARK SMILES CC1(C)S[C@H](c2ccc(-c3ccccc3)o2)[NH2+][C@H]1C(=O)NCCCCNC(=O)c1ccc(-c2c3nc(c(-c4c(F)cccc4F)c4ccc([nH]4)c(-c4c(F)cccc4F)c4nc(c(-c5c(F)cccc5F)c5ccc2[nH]5)C=C4)C=C3)cc1
REMARK SMILES IDX 23 1 22 2 21 3 19 4 20 5 18 7 1 8 2 9 3 10 4 11 5 12 17 13
REMARK SMILES IDX 6 16 7 17 16 18 8 19 9 20 10 21 11 22 15 23 12 24 14 25
REMARK SMILES IDX 13 26 24 27 25 28 26 29 27 30 28 32 29 33 30 34 82 35 31 36
REMARK SMILES IDX 81 37 32 38 33 39 34 40 75 41 35 42 80 43 74 44 76 45 36 46
REMARK SMILES IDX 79 47 73 48 72 49 37 51 63 52 46 53 62 54 47 55 50 56 61 57
REMARK SMILES IDX 77 58 48 59 49 60 60 62 78 63 51 64 38 65 39 66 44 67 40 68
REMARK SMILES IDX 41 69 43 70 45 71 42 72 64 73 65 74 70 75 66 76 67 77 69 78
REMARK SMILES IDX 71 79 68 80 52 81 53 82 58 83 54 84 55 85 57 86 59 87 56 88
REMARK H PARENT 21 6 17 14 17 15 26 31 76 50 50 61
REMARK Flexibility Score: inf
ROOT
ATOM      1  C   UNL     1       1.523   1.930   3.232  1.00  0.00     0.023 C 
ENDROOT
BRANCH   1   2
ATOM      2  C   UNL     1       0.302   2.182   2.345  1.00  0.00     0.116 C 
BRANCH   2   3
ATOM      3  N   UNL     1       0.661   2.813   1.087  1.00  0.00    -0.351 N 
ATOM      4  C   UNL     1       0.608   2.412  -0.216  1.00  0.00     0.279 C 
ATOM      5  O   UNL     1       1.124   3.185  -1.033  1.00  0.00    -0.268 OA
ATOM      6  H   UNL     1       1.018   3.723   1.198  1.00  0.00     0.163 HD
BRANCH   4   7
ATOM      7  C   UNL     1       0.009   1.071  -0.698  1.00  0.00     0.289 C 
ATOM      8  C   UNL     1       1.779  -0.274   0.719  1.00  0.00     0.030 C 
ATOM      9  C   UNL     1       0.947  -0.148  -0.552  1.00  0.00     0.078 C 
ATOM     10  C   UNL     1       1.887  -0.259  -1.759  1.00  0.00     0.030 C 
ATOM     11  S   UNL     1      -0.190  -1.568  -0.541  1.00  0.00    -0.078 SA
ATOM     12  C   UNL     1      -1.691  -0.573  -0.339  1.00  0.00     0.311 C 
ATOM     13  N   UNL     1      -1.350   0.836  -0.164  1.00  0.00    -0.317 N 
ATOM     14  H   UNL     1      -1.374   1.074   0.828  1.00  0.00     0.348 HD
ATOM     15  H   UNL     1      -2.023   1.419  -0.662  1.00  0.00     0.348 HD
BRANCH  12  16
ATOM     16  C   UNL     1      -2.633  -0.876  -1.458  1.00  0.00     0.172 A 
ATOM     17  C   UNL     1      -3.416  -1.992  -1.691  1.00  0.00     0.054 A 
ATOM     18  O   UNL     1      -2.782   0.015  -2.488  1.00  0.00    -0.454 OA
ATOM     19  C   UNL     1      -4.087  -1.770  -2.909  1.00  0.00     0.051 A 
ATOM     20  C   UNL     1      -3.684  -0.530  -3.359  1.00  0.00     0.134 A 
BRANCH  20  21
ATOM     21  C   UNL     1      -4.042   0.252  -4.531  1.00  0.00     0.017 A 
ATOM     22  C   UNL     1      -3.074   0.933  -5.278  1.00  0.00     0.012 A 
ATOM     23  C   UNL     1      -5.377   0.283  -4.964  1.00  0.00     0.012 A 
ATOM     24  C   UNL     1      -3.431   1.612  -6.447  1.00  0.00     0.001 A 
ATOM     25  C   UNL     1      -5.735   0.972  -6.124  1.00  0.00     0.001 A 
ATOM     26  C   UNL     1      -4.760   1.629  -6.869  1.00  0.00     0.000 A 
ENDBRANCH  20  21
ENDBRANCH  12  16
ENDBRANCH   4   7
ENDBRANCH   2   3
ENDBRANCH   1   2
BRANCH   1  27
ATOM     27  C   UNL     1       2.131   3.170   3.871  1.00  0.00     0.023 C 
BRANCH  27  28
ATOM     28  C   UNL     1       1.201   3.909   4.816  1.00  0.00     0.116 C 
BRANCH  28  29
ATOM     29  N   UNL     1       0.692   3.068   5.892  1.00  0.00    -0.352 N 
ATOM     30  C   UNL     1       0.670   3.314   7.245  1.00  0.00     0.251 C 
ATOM     31  H   UNL     1       0.312   2.204   5.611  1.00  0.00     0.163 HD
ATOM     32  O   UNL     1       0.329   2.445   8.032  1.00  0.00    -0.269 OA
BRANCH  30  33
ATOM     33  C   UNL     1       1.093   4.642   7.731  1.00  0.00     0.039 A 
ATOM     34  C   UNL     1       1.994   4.723   8.794  1.00  0.00     0.014 A 
ATOM     35  C   UNL     1       0.635   5.798   7.096  1.00  0.00     0.014 A 
ATOM     36  C   UNL     1       2.488   5.970   9.179  1.00  0.00     0.010 A 
ATOM     37  C   UNL     1       1.204   7.023   7.411  1.00  0.00     0.010 A 
ATOM     38  C   UNL     1       2.121   7.124   8.468  1.00  0.00    -0.014 A 
BRANCH  38  39
ATOM     39  C   UNL     1       2.635   8.463   8.838  1.00  0.00     0.031 A 
ATOM     40  C   UNL     1       1.666   9.524   9.283  1.00  0.00     0.074 A 
ATOM     41  C   UNL     1       3.943   8.747   8.700  1.00  0.00     0.049 A 
ATOM     42  N   UNL     1       1.883  10.787   9.544  1.00  0.00    -0.248 NA
ATOM     43  C   UNL     1       0.255   9.120   9.407  1.00  0.00     0.031 C 
ATOM     44  C   UNL     1       4.970   7.819   8.220  1.00  0.00     0.029 A 
ATOM     45  N   UNL     1       4.633   9.907   8.941  1.00  0.00    -0.354 N 
ATOM     46  C   UNL     1       0.636  11.330   9.829  1.00  0.00     0.074 A 
ATOM     47  C   UNL     1      -0.338  10.278   9.648  1.00  0.00     0.031 C 
ATOM     48  C   UNL     1       6.161   8.438   8.229  1.00  0.00     0.029 A 
ATOM     49  C   UNL     1       5.978   9.813   8.684  1.00  0.00     0.049 A 
ATOM     50  H   UNL     1       4.203  10.731   9.267  1.00  0.00     0.167 HD
ATOM     51  C   UNL     1       0.333  12.584  10.236  1.00  0.00     0.037 A 
ATOM     52  C   UNL     1       6.951  10.735   8.806  1.00  0.00     0.037 A 
ATOM     53  C   UNL     1       1.312  13.610  10.466  1.00  0.00     0.049 A 
ATOM     54  C   UNL     1       6.596  12.108   9.306  1.00  0.00     0.074 A 
ATOM     55  C   UNL     1       1.122  14.896  10.939  1.00  0.00     0.029 A 
ATOM     56  N   UNL     1       2.674  13.458  10.250  1.00  0.00    -0.354 N 
ATOM     57  N   UNL     1       5.421  12.593   9.627  1.00  0.00    -0.248 NA
ATOM     58  C   UNL     1       7.705  13.058   9.471  1.00  0.00     0.031 C 
ATOM     59  C   UNL     1       2.368  15.530  10.987  1.00  0.00     0.029 A 
ATOM     60  C   UNL     1       3.337  14.627  10.579  1.00  0.00     0.049 A 
ATOM     61  H   UNL     1       3.105  12.639   9.913  1.00  0.00     0.167 HD
ATOM     62  C   UNL     1       5.652  13.891  10.064  1.00  0.00     0.074 A 
ATOM     63  C   UNL     1       7.080  14.114   9.974  1.00  0.00     0.031 C 
ATOM     64  C   UNL     1       4.762  14.816  10.500  1.00  0.00     0.037 A 
BRANCH  51  65
ATOM     65  C   UNL     1      -1.115  12.899  10.470  1.00  0.00     0.057 A 
ATOM     66  C   UNL     1      -1.827  12.346  11.543  1.00  0.00     0.134 A 
ATOM     67  C   UNL     1      -1.806  13.767   9.616  1.00  0.00     0.134 A 
ATOM     68  F   UNL     1      -1.229  11.491  12.387  1.00  0.00    -0.206 F 
ATOM     69  C   UNL     1      -3.182  12.618  11.739  1.00  0.00     0.040 A 
ATOM     70  C   UNL     1      -3.154  14.070   9.819  1.00  0.00     0.040 A 
ATOM     71  F   UNL     1      -1.185  14.334   8.570  1.00  0.00    -0.206 F 
ATOM     72  C   UNL     1      -3.848  13.488  10.878  1.00  0.00     0.006 A 
ENDBRANCH  51  65
BRANCH  52  73
ATOM     73  C   UNL     1       8.358  10.379   8.497  1.00  0.00     0.057 A 
ATOM     74  C   UNL     1       9.304  10.237   9.520  1.00  0.00     0.134 A 
ATOM     75  C   UNL     1       8.794  10.177   7.183  1.00  0.00     0.134 A 
ATOM     76  F   UNL     1       8.949  10.434  10.798  1.00  0.00    -0.206 F 
ATOM     77  C   UNL     1      10.637   9.930   9.247  1.00  0.00     0.040 A 
ATOM     78  C   UNL     1      10.120   9.847   6.896  1.00  0.00     0.040 A 
ATOM     79  F   UNL     1       7.935  10.288   6.160  1.00  0.00    -0.206 F 
ATOM     80  C   UNL     1      11.048   9.730   7.930  1.00  0.00     0.006 A 
ENDBRANCH  52  73
BRANCH  64  81
ATOM     81  C   UNL     1       5.315  16.132  10.958  1.00  0.00     0.057 A 
ATOM     82  C   UNL     1       5.798  17.086  10.055  1.00  0.00     0.134 A 
ATOM     83  C   UNL     1       5.327  16.460  12.319  1.00  0.00     0.134 A 
ATOM     84  F   UNL     1       5.824  16.826   8.739  1.00  0.00    -0.206 F 
ATOM     85  C   UNL     1       6.296  18.314  10.492  1.00  0.00     0.040 A 
ATOM     86  C   UNL     1       5.799  17.694  12.767  1.00  0.00     0.040 A 
ATOM     87  F   UNL     1       4.869  15.591  13.234  1.00  0.00    -0.206 F 
ATOM     88  C   UNL     1       6.291  18.622  11.852  1.00  0.00     0.006 A 
ENDBRANCH  64  81
ENDBRANCH  38  39
ENDBRANCH  30  33
ENDBRANCH  28  29
ENDBRANCH  27  28
ENDBRANCH   1  27
TORSDOF 13
