REMARK SMILES CNC(=O)[C@H](C)S(=O)(=O)c1cc(C(=O)NCCCCNC(=O)c2ccc(-c3c4nc(c(-c5c(F)cccc5F)c5ccc([nH]5)c(-c5c(F)cccc5F)c5nc(c(-c6c(F)cccc6F)c6ccc3[nH]6)C=C5)C=C4)cc2)c(C)cc1C
REMARK SMILES IDX 17 1 16 2 15 3 13 4 14 5 12 7 10 8 11 9 80 10 79 11 81 12
REMARK SMILES IDX 77 13 78 14 7 15 8 16 9 17 5 18 6 19 3 20 1 21 2 22 4 24
REMARK SMILES IDX 18 25 19 26 20 27 21 28 22 30 23 31 24 32 76 33 25 34 75 35
REMARK SMILES IDX 26 36 27 37 28 38 69 39 29 40 74 41 68 42 70 43 30 44 73 45
REMARK SMILES IDX 67 46 66 47 31 49 57 50 40 51 56 52 41 53 44 54 55 55 71 56
REMARK SMILES IDX 42 57 43 58 54 60 72 61 45 62 32 63 33 64 38 65 34 66 35 67
REMARK SMILES IDX 37 68 39 69 36 70 58 71 59 72 64 73 60 74 61 75 63 76 65 77
REMARK SMILES IDX 62 78 46 79 47 80 52 81 48 82 49 83 51 84 53 85 50 86
REMARK H PARENT 15 6 2 23 20 29 70 48 44 59
REMARK Flexibility Score: inf
ROOT
ATOM      1  C   UNL     1       1.887  -5.843  -1.253  1.00  0.00     0.023 C 
ENDROOT
BRANCH   1   2
ATOM      2  C   UNL     1       0.727  -5.302  -2.097  1.00  0.00     0.116 C 
BRANCH   2   3
ATOM      3  N   UNL     1      -0.273  -4.753  -1.212  1.00  0.00    -0.352 N 
ATOM      4  C   UNL     1      -0.469  -3.504  -0.684  1.00  0.00     0.251 C 
ATOM      5  O   UNL     1      -1.295  -3.429   0.229  1.00  0.00    -0.269 OA
ATOM      6  H   UNL     1      -0.952  -5.409  -0.931  1.00  0.00     0.163 HD
BRANCH   4   7
ATOM      7  C   UNL     1       0.128  -2.232  -1.209  1.00  0.00     0.044 A 
ATOM      8  C   UNL     1      -0.416   0.150  -1.595  1.00  0.00     0.071 A 
ATOM      9  C   UNL     1      -0.767  -1.142  -1.159  1.00  0.00     0.034 A 
ATOM     10  C   UNL     1       0.798   0.345  -2.256  1.00  0.00    -0.032 A 
ATOM     11  C   UNL     1       1.718  -0.713  -2.227  1.00  0.00     0.009 A 
ATOM     12  C   UNL     1       1.261   1.587  -2.958  1.00  0.00     0.046 C 
ATOM     13  C   UNL     1       1.437  -1.960  -1.630  1.00  0.00    -0.038 A 
ATOM     14  C   UNL     1       2.632  -2.836  -1.431  1.00  0.00     0.045 C 
BRANCH   8  15
ATOM     15  S   UNL     1      -1.583   1.461  -1.253  1.00  0.00     0.190 S 
ATOM     16  O   UNL     1      -2.769   0.836  -0.687  1.00  0.00    -0.223 OA
ATOM     17  O   UNL     1      -1.749   2.225  -2.474  1.00  0.00    -0.223 OA
BRANCH  15  18
ATOM     18  C   UNL     1      -0.904   2.483   0.041  1.00  0.00     0.199 C 
ATOM     19  C   UNL     1      -0.647   1.683   1.322  1.00  0.00     0.036 C 
BRANCH  18  20
ATOM     20  C   UNL     1       0.357   3.188  -0.388  1.00  0.00     0.238 C 
ATOM     21  C   UNL     1      -0.814   4.943  -1.808  1.00  0.00     0.142 C 
ATOM     22  N   UNL     1       0.313   4.312  -1.157  1.00  0.00    -0.358 N 
ATOM     23  H   UNL     1       1.179   4.763  -1.289  1.00  0.00     0.163 HD
ATOM     24  O   UNL     1       1.470   2.809  -0.014  1.00  0.00    -0.274 OA
ENDBRANCH  18  20
ENDBRANCH  15  18
ENDBRANCH   8  15
ENDBRANCH   4   7
ENDBRANCH   2   3
ENDBRANCH   1   2
BRANCH   1  25
ATOM     25  C   UNL     1       1.796  -7.315  -0.881  1.00  0.00     0.023 C 
BRANCH  25  26
ATOM     26  C   UNL     1       2.014  -8.262  -2.046  1.00  0.00     0.116 C 
BRANCH  26  27
ATOM     27  N   UNL     1       3.296  -8.087  -2.718  1.00  0.00    -0.352 N 
ATOM     28  C   UNL     1       4.088  -9.048  -3.304  1.00  0.00     0.251 C 
ATOM     29  H   UNL     1       3.639  -7.165  -2.757  1.00  0.00     0.163 HD
ATOM     30  O   UNL     1       5.178  -8.766  -3.777  1.00  0.00    -0.269 OA
BRANCH  28  31
ATOM     31  C   UNL     1       3.609 -10.444  -3.295  1.00  0.00     0.039 A 
ATOM     32  C   UNL     1       4.441 -11.438  -2.779  1.00  0.00     0.014 A 
ATOM     33  C   UNL     1       2.303 -10.737  -3.694  1.00  0.00     0.014 A 
ATOM     34  C   UNL     1       3.929 -12.721  -2.586  1.00  0.00     0.010 A 
ATOM     35  C   UNL     1       1.770 -11.985  -3.411  1.00  0.00     0.010 A 
ATOM     36  C   UNL     1       2.578 -12.990  -2.859  1.00  0.00    -0.014 A 
BRANCH  36  37
ATOM     37  C   UNL     1       1.986 -14.323  -2.597  1.00  0.00     0.031 A 
ATOM     38  C   UNL     1       1.438 -15.127  -3.742  1.00  0.00     0.074 A 
ATOM     39  C   UNL     1       1.868 -14.769  -1.332  1.00  0.00     0.049 A 
ATOM     40  N   UNL     1       0.795 -16.265  -3.721  1.00  0.00    -0.248 NA
ATOM     41  C   UNL     1       1.601 -14.553  -5.089  1.00  0.00     0.031 C 
ATOM     42  C   UNL     1       2.305 -14.052  -0.132  1.00  0.00     0.029 A 
ATOM     43  N   UNL     1       1.333 -15.934  -0.844  1.00  0.00    -0.354 N 
ATOM     44  C   UNL     1       0.456 -16.527  -5.042  1.00  0.00     0.074 A 
ATOM     45  C   UNL     1       0.910 -15.405  -5.831  1.00  0.00     0.031 C 
ATOM     46  C   UNL     1       2.044 -14.804   0.950  1.00  0.00     0.029 A 
ATOM     47  C   UNL     1       1.394 -16.040   0.524  1.00  0.00     0.049 A 
ATOM     48  H   UNL     1       0.942 -16.630  -1.421  1.00  0.00     0.167 HD
ATOM     49  C   UNL     1      -0.153 -17.621  -5.556  1.00  0.00     0.037 A 
ATOM     50  C   UNL     1       0.971 -17.024   1.339  1.00  0.00     0.037 A 
ATOM     51  C   UNL     1      -0.560 -18.756  -4.774  1.00  0.00     0.049 A 
ATOM     52  C   UNL     1       0.326 -18.243   0.741  1.00  0.00     0.074 A 
ATOM     53  C   UNL     1      -1.119 -19.945  -5.206  1.00  0.00     0.029 A 
ATOM     54  N   UNL     1      -0.440 -18.845  -3.395  1.00  0.00    -0.354 N 
ATOM     55  N   UNL     1       0.074 -18.510  -0.518  1.00  0.00    -0.248 NA
ATOM     56  C   UNL     1      -0.086 -19.300   1.674  1.00  0.00     0.031 C 
ATOM     57  C   UNL     1      -1.366 -20.742  -4.084  1.00  0.00     0.029 A 
ATOM     58  C   UNL     1      -0.926 -20.064  -2.958  1.00  0.00     0.049 A 
ATOM     59  H   UNL     1      -0.066 -18.144  -2.814  1.00  0.00     0.167 HD
ATOM     60  C   UNL     1      -0.499 -19.775  -0.531  1.00  0.00     0.074 A 
ATOM     61  C   UNL     1      -0.546 -20.227   0.845  1.00  0.00     0.031 C 
ATOM     62  C   UNL     1      -0.948 -20.498  -1.585  1.00  0.00     0.037 A 
BRANCH  49  63
ATOM     63  C   UNL     1      -0.397 -17.641  -7.035  1.00  0.00     0.057 A 
ATOM     64  C   UNL     1       0.653 -17.774  -7.954  1.00  0.00     0.134 A 
ATOM     65  C   UNL     1      -1.696 -17.541  -7.548  1.00  0.00     0.134 A 
ATOM     66  F   UNL     1       1.922 -17.856  -7.527  1.00  0.00    -0.206 F 
ATOM     67  C   UNL     1       0.423 -17.780  -9.330  1.00  0.00     0.040 A 
ATOM     68  C   UNL     1      -1.941 -17.573  -8.922  1.00  0.00     0.040 A 
ATOM     69  F   UNL     1      -2.747 -17.413  -6.724  1.00  0.00    -0.206 F 
ATOM     70  C   UNL     1      -0.879 -17.685  -9.817  1.00  0.00     0.006 A 
ENDBRANCH  49  63
BRANCH  50  71
ATOM     71  C   UNL     1       1.176 -16.918   2.806  1.00  0.00     0.057 A 
ATOM     72  C   UNL     1       2.115 -17.723   3.460  1.00  0.00     0.134 A 
ATOM     73  C   UNL     1       0.434 -16.025   3.588  1.00  0.00     0.134 A 
ATOM     74  F   UNL     1       2.843 -18.610   2.766  1.00  0.00    -0.206 F 
ATOM     75  C   UNL     1       2.296 -17.661   4.843  1.00  0.00     0.040 A 
ATOM     76  C   UNL     1       0.621 -15.936   4.969  1.00  0.00     0.040 A 
ATOM     77  F   UNL     1      -0.475 -15.221   3.019  1.00  0.00    -0.206 F 
ATOM     78  C   UNL     1       1.549 -16.761   5.601  1.00  0.00     0.006 A 
ENDBRANCH  50  71
BRANCH  62  79
ATOM     79  C   UNL     1      -1.492 -21.864  -1.297  1.00  0.00     0.057 A 
ATOM     80  C   UNL     1      -2.746 -22.049  -0.704  1.00  0.00     0.134 A 
ATOM     81  C   UNL     1      -0.770 -23.008  -1.661  1.00  0.00     0.134 A 
ATOM     82  F   UNL     1      -3.479 -20.992  -0.321  1.00  0.00    -0.206 F 
ATOM     83  C   UNL     1      -3.257 -23.325  -0.466  1.00  0.00     0.040 A 
ATOM     84  C   UNL     1      -1.280 -24.289  -1.450  1.00  0.00     0.040 A 
ATOM     85  F   UNL     1       0.435 -22.897  -2.241  1.00  0.00    -0.206 F 
ATOM     86  C   UNL     1      -2.526 -24.450  -0.846  1.00  0.00     0.006 A 
ENDBRANCH  62  79
ENDBRANCH  36  37
ENDBRANCH  28  31
ENDBRANCH  26  27
ENDBRANCH  25  26
ENDBRANCH   1  25
TORSDOF 14
