REMARK SMILES CS(=O)(=O)c1ccc(-c2cc(Cl)cc3c2O[C@H](C(F)(F)F)C(C(=O)NCCCCNC(=O)c2ccc(-c4c5nc(c(-c6c(F)cccc6F)c6ccc([nH]6)c(-c6c(F)cccc6F)c6nc(c(-c7c(F)cccc7F)c7ccc4[nH]7)C=C6)C=C5)cc2)=C3)cc1
REMARK SMILES IDX 27 1 26 2 25 3 23 4 24 5 22 7 9 8 10 9 15 10 11 11 14 12
REMARK SMILES IDX 16 13 12 14 13 15 87 16 17 17 8 18 5 19 6 20 89 21 7 22
REMARK SMILES IDX 88 23 2 24 1 25 3 26 4 27 18 28 19 29 20 30 21 31 28 32
REMARK SMILES IDX 29 33 30 34 31 35 32 37 33 38 34 39 86 40 35 41 85 42 36 43
REMARK SMILES IDX 37 44 38 45 79 46 39 47 84 48 78 49 80 50 40 51 83 52 77 53
REMARK SMILES IDX 76 54 41 56 67 57 50 58 66 59 51 60 54 61 65 62 81 63 52 64
REMARK SMILES IDX 53 65 64 67 82 68 55 69 42 70 43 71 48 72 44 73 45 74 47 75
REMARK SMILES IDX 49 76 46 77 68 78 69 79 74 80 70 81 71 82 73 83 75 84 72 85
REMARK SMILES IDX 56 86 57 87 62 88 58 89 59 90 61 91 63 92 60 93
REMARK H PARENT 25 6 30 36 80 55 54 66
REMARK Flexibility Score: inf
ROOT
ATOM      1  C   UNL     1       5.805 -12.271  -7.933  1.00  0.00     0.023 C 
ENDROOT
BRANCH   1   2
ATOM      2  C   UNL     1       5.670 -10.746  -8.058  1.00  0.00     0.116 C 
BRANCH   2   3
ATOM      3  N   UNL     1       4.311 -10.351  -7.760  1.00  0.00    -0.352 N 
ATOM      4  C   UNL     1       3.857  -9.370  -6.948  1.00  0.00     0.251 C 
ATOM      5  O   UNL     1       2.780  -9.540  -6.385  1.00  0.00    -0.270 OA
ATOM      6  H   UNL     1       3.612 -10.875  -8.216  1.00  0.00     0.163 HD
BRANCH   4   7
ATOM      7  C   UNL     1       4.618  -8.085  -6.870  1.00  0.00     0.067 C 
ATOM      8  C   UNL     1       2.362  -6.160  -4.075  1.00  0.00     0.026 A 
ATOM      9  C   UNL     1       1.010  -6.421  -4.422  1.00  0.00     0.033 A 
ATOM     10  C   UNL     1       3.324  -6.477  -5.051  1.00  0.00     0.135 A 
ATOM     11  C   UNL     1       0.621  -6.764  -5.714  1.00  0.00     0.042 A 
ATOM     12  C   UNL     1       2.902  -6.701  -6.385  1.00  0.00     0.019 A 
ATOM     13  O   UNL     1       4.672  -6.660  -4.771  1.00  0.00    -0.475 OA
ATOM     14  Cl  UNL     1      -1.032  -7.087  -6.051  1.00  0.00    -0.084 Cl
ATOM     15  C   UNL     1       1.558  -6.818  -6.726  1.00  0.00     0.032 A 
ATOM     16  C   UNL     1       3.936  -7.043  -7.389  1.00  0.00     0.025 C 
ATOM     17  C   UNL     1       5.282  -7.807  -5.523  1.00  0.00     0.314 C 
BRANCH   8  18
ATOM     18  C   UNL     1       2.522  -5.339  -2.840  1.00  0.00    -0.015 A 
ATOM     19  C   UNL     1       1.646  -3.357  -1.013  1.00  0.00     0.067 A 
ATOM     20  C   UNL     1       1.371  -4.706  -0.770  1.00  0.00     0.021 A 
ATOM     21  C   UNL     1       2.471  -2.999  -2.077  1.00  0.00     0.021 A 
ATOM     22  C   UNL     1       1.828  -5.689  -1.661  1.00  0.00     0.010 A 
ATOM     23  C   UNL     1       2.916  -3.991  -2.974  1.00  0.00     0.010 A 
BRANCH  19  24
ATOM     24  S   UNL     1       0.788  -2.165  -0.001  1.00  0.00     0.175 S 
ATOM     25  C   UNL     1       1.286  -0.541  -0.492  1.00  0.00     0.163 C 
ATOM     26  O   UNL     1       1.256  -2.369   1.357  1.00  0.00    -0.224 OA
ATOM     27  O   UNL     1      -0.620  -2.293  -0.332  1.00  0.00    -0.224 OA
ENDBRANCH  19  24
ENDBRANCH   8  18
BRANCH  17  28
ATOM     28  C   UNL     1       6.794  -7.595  -5.768  1.00  0.00     0.429 C 
ATOM     29  F   UNL     1       7.189  -6.323  -5.537  1.00  0.00    -0.167 F 
ATOM     30  F   UNL     1       7.537  -8.407  -4.979  1.00  0.00    -0.167 F 
ATOM     31  F   UNL     1       7.156  -7.882  -7.048  1.00  0.00    -0.167 F 
ENDBRANCH  17  28
ENDBRANCH   4   7
ENDBRANCH   2   3
ENDBRANCH   1   2
BRANCH   1  32
ATOM     32  C   UNL     1       4.893 -13.091  -8.859  1.00  0.00     0.023 C 
BRANCH  32  33
ATOM     33  C   UNL     1       5.029 -12.772 -10.342  1.00  0.00     0.116 C 
BRANCH  33  34
ATOM     34  N   UNL     1       6.336 -13.142 -10.861  1.00  0.00    -0.352 N 
ATOM     35  C   UNL     1       6.649 -13.994 -11.891  1.00  0.00     0.251 C 
ATOM     36  H   UNL     1       7.104 -12.723 -10.409  1.00  0.00     0.163 HD
ATOM     37  O   UNL     1       7.814 -14.343 -12.069  1.00  0.00    -0.269 OA
BRANCH  35  38
ATOM     38  C   UNL     1       5.581 -14.512 -12.772  1.00  0.00     0.039 A 
ATOM     39  C   UNL     1       5.556 -15.875 -13.079  1.00  0.00     0.014 A 
ATOM     40  C   UNL     1       4.604 -13.658 -13.290  1.00  0.00     0.014 A 
ATOM     41  C   UNL     1       4.511 -16.393 -13.848  1.00  0.00     0.010 A 
ATOM     42  C   UNL     1       3.525 -14.187 -13.994  1.00  0.00     0.010 A 
ATOM     43  C   UNL     1       3.465 -15.561 -14.279  1.00  0.00    -0.014 A 
BRANCH  43  44
ATOM     44  C   UNL     1       2.297 -16.104 -15.023  1.00  0.00     0.031 A 
ATOM     45  C   UNL     1       2.016 -15.642 -16.428  1.00  0.00     0.074 A 
ATOM     46  C   UNL     1       1.447 -16.952 -14.410  1.00  0.00     0.049 A 
ATOM     47  N   UNL     1       0.997 -15.919 -17.201  1.00  0.00    -0.248 NA
ATOM     48  C   UNL     1       2.997 -14.727 -17.037  1.00  0.00     0.031 C 
ATOM     49  C   UNL     1       1.581 -17.442 -13.036  1.00  0.00     0.029 A 
ATOM     50  N   UNL     1       0.288 -17.538 -14.856  1.00  0.00    -0.354 N 
ATOM     51  C   UNL     1       1.200 -15.197 -18.371  1.00  0.00     0.074 A 
ATOM     52  C   UNL     1       2.419 -14.439 -18.194  1.00  0.00     0.031 C 
ATOM     53  C   UNL     1       0.554 -18.261 -12.758  1.00  0.00     0.029 A 
ATOM     54  C   UNL     1      -0.335 -18.322 -13.913  1.00  0.00     0.049 A 
ATOM     55  H   UNL     1      -0.065 -17.409 -15.766  1.00  0.00     0.167 HD
ATOM     56  C   UNL     1       0.448 -15.183 -19.496  1.00  0.00     0.037 A 
ATOM     57  C   UNL     1      -1.500 -18.996 -13.967  1.00  0.00     0.037 A 
ATOM     58  C   UNL     1      -0.742 -15.970 -19.686  1.00  0.00     0.049 A 
ATOM     59  C   UNL     1      -2.315 -18.956 -15.233  1.00  0.00     0.074 A 
ATOM     60  C   UNL     1      -1.524 -16.083 -20.822  1.00  0.00     0.029 A 
ATOM     61  N   UNL     1      -1.321 -16.774 -18.718  1.00  0.00    -0.354 N 
ATOM     62  N   UNL     1      -2.064 -18.335 -16.360  1.00  0.00    -0.248 NA
ATOM     63  C   UNL     1      -3.575 -19.715 -15.236  1.00  0.00     0.031 C 
ATOM     64  C   UNL     1      -2.608 -16.913 -20.525  1.00  0.00     0.029 A 
ATOM     65  C   UNL     1      -2.468 -17.364 -19.223  1.00  0.00     0.049 A 
ATOM     66  H   UNL     1      -0.971 -16.907 -17.808  1.00  0.00     0.167 HD
ATOM     67  C   UNL     1      -3.110 -18.660 -17.214  1.00  0.00     0.074 A 
ATOM     68  C   UNL     1      -3.992 -19.543 -16.482  1.00  0.00     0.031 C 
ATOM     69  C   UNL     1      -3.322 -18.263 -18.492  1.00  0.00     0.037 A 
BRANCH  56  70
ATOM     70  C   UNL     1       0.883 -14.295 -20.625  1.00  0.00     0.057 A 
ATOM     71  C   UNL     1       2.004 -14.591 -21.410  1.00  0.00     0.134 A 
ATOM     72  C   UNL     1       0.118 -13.178 -20.985  1.00  0.00     0.134 A 
ATOM     73  F   UNL     1       2.784 -15.642 -21.114  1.00  0.00    -0.206 F 
ATOM     74  C   UNL     1       2.354 -13.803 -22.508  1.00  0.00     0.040 A 
ATOM     75  C   UNL     1       0.443 -12.397 -22.095  1.00  0.00     0.040 A 
ATOM     76  F   UNL     1      -0.972 -12.842 -20.279  1.00  0.00    -0.206 F 
ATOM     77  C   UNL     1       1.565 -12.709 -22.860  1.00  0.00     0.006 A 
ENDBRANCH  56  70
BRANCH  57  78
ATOM     78  C   UNL     1      -1.984 -19.768 -12.791  1.00  0.00     0.057 A 
ATOM     79  C   UNL     1      -2.086 -21.164 -12.834  1.00  0.00     0.134 A 
ATOM     80  C   UNL     1      -2.409 -19.128 -11.621  1.00  0.00     0.134 A 
ATOM     81  F   UNL     1      -1.713 -21.835 -13.934  1.00  0.00    -0.206 F 
ATOM     82  C   UNL     1      -2.631 -21.892 -11.774  1.00  0.00     0.040 A 
ATOM     83  C   UNL     1      -2.927 -19.846 -10.541  1.00  0.00     0.040 A 
ATOM     84  F   UNL     1      -2.331 -17.794 -11.511  1.00  0.00    -0.206 F 
ATOM     85  C   UNL     1      -3.053 -21.231 -10.622  1.00  0.00     0.006 A 
ENDBRANCH  57  78
BRANCH  69  86
ATOM     86  C   UNL     1      -4.521 -18.821 -19.202  1.00  0.00     0.057 A 
ATOM     87  C   UNL     1      -5.825 -18.426 -18.883  1.00  0.00     0.134 A 
ATOM     88  C   UNL     1      -4.359 -19.730 -20.257  1.00  0.00     0.134 A 
ATOM     89  F   UNL     1      -6.049 -17.568 -17.876  1.00  0.00    -0.206 F 
ATOM     90  C   UNL     1      -6.929 -18.932 -19.573  1.00  0.00     0.040 A 
ATOM     91  C   UNL     1      -5.452 -20.219 -20.973  1.00  0.00     0.040 A 
ATOM     92  F   UNL     1      -3.135 -20.141 -20.621  1.00  0.00    -0.206 F 
ATOM     93  C   UNL     1      -6.742 -19.824 -20.627  1.00  0.00     0.006 A 
ENDBRANCH  69  86
ENDBRANCH  43  44
ENDBRANCH  35  38
ENDBRANCH  33  34
ENDBRANCH  32  33
ENDBRANCH   1  32
TORSDOF 14
