REMARK SMILES C[C@H](C(=O)NCCCCNC(=O)c1ccc(-c2c3nc(c(-c4c(F)cccc4F)c4ccc([nH]4)c(-c4c(F)cccc4F)c4nc(c(-c5c(F)cccc5F)c5ccc2[nH]5)C=C4)C=C3)cc1)S(=O)(=O)NC[C@@H]1C[N@@H+](C)CCO1
REMARK SMILES IDX 6 1 5 2 3 3 4 4 2 6 1 7 67 8 68 9 69 10 70 11 71 13 72 14
REMARK SMILES IDX 73 15 78 16 74 17 77 18 75 19 76 20 7 22 8 23 9 24 10 25
REMARK SMILES IDX 11 26 12 28 13 29 14 30 66 31 15 32 65 33 16 34 17 35 18 36
REMARK SMILES IDX 59 37 19 38 64 39 58 40 60 41 20 42 63 43 57 44 56 45 21 47
REMARK SMILES IDX 47 48 30 49 46 50 31 51 34 52 45 53 61 54 32 55 33 56 44 58
REMARK SMILES IDX 62 59 35 60 22 61 23 62 28 63 24 64 25 65 27 66 29 67 26 68
REMARK SMILES IDX 48 69 49 70 54 71 50 72 51 73 53 74 55 75 52 76 36 77 37 78
REMARK SMILES IDX 42 79 38 80 39 81 41 82 43 83 40 84
REMARK H PARENT 5 5 70 12 74 21 10 27 60 46 34 57
REMARK Flexibility Score: inf
ROOT
ATOM      1  C   UNL     1      -1.518  -0.174  -1.637  1.00  0.00     0.116 C 
ENDROOT
BRANCH   1   2
ATOM      2  N   UNL     1      -0.171   0.022  -0.166  1.00  0.00    -0.355 N 
ATOM      3  C   UNL     1       0.553  -0.119   0.996  1.00  0.00     0.239 C 
ATOM      4  O   UNL     1       1.609   0.545   0.914  1.00  0.00    -0.274 OA
ATOM      5  H   UNL     1       0.359   0.748  -0.567  1.00  0.00     0.163 HD
BRANCH   3   6
ATOM      6  C   UNL     1       0.267  -0.823   2.300  1.00  0.00     0.209 C 
ATOM      7  C   UNL     1       1.582  -0.832   3.119  1.00  0.00     0.037 C 
BRANCH   6   8
ATOM      8  S   UNL     1      -0.952   0.056   3.367  1.00  0.00     0.223 S 
ATOM      9  O   UNL     1      -2.007  -0.887   3.696  1.00  0.00    -0.212 OA
ATOM     10  O   UNL     1      -0.283   0.744   4.450  1.00  0.00    -0.212 OA
BRANCH   8  11
ATOM     11  N   UNL     1      -1.747   1.248   2.525  1.00  0.00    -0.212 NA
ATOM     12  H   UNL     1      -2.010   1.949   3.218  1.00  0.00     0.141 HD
BRANCH  11  13
ATOM     13  C   UNL     1      -1.162   1.994   1.412  1.00  0.00     0.136 C 
BRANCH  13  14
ATOM     14  C   UNL     1      -1.616   1.310   0.076  1.00  0.00     0.188 C 
ATOM     15  C   UNL     1      -2.100  -0.586   0.374  1.00  0.00     0.295 C 
ATOM     16  O   UNL     1      -0.383   1.609  -1.302  1.00  0.00    -0.365 OA
ATOM     17  N   UNL     1      -0.992  -1.943  -0.138  1.00  0.00    -0.333 N 
ATOM     18  C   UNL     1       0.698   0.233  -1.978  1.00  0.00     0.222 C 
ATOM     19  C   UNL     1      -1.708  -3.189  -0.380  1.00  0.00     0.332 C 
ATOM     20  C   UNL     1       0.234  -1.579  -1.435  1.00  0.00     0.290 C 
ATOM     21  H   UNL     1      -0.404  -2.066   0.687  1.00  0.00     0.348 HD
ENDBRANCH  13  14
ENDBRANCH  11  13
ENDBRANCH   8  11
ENDBRANCH   6   8
ENDBRANCH   3   6
ENDBRANCH   1   2
BRANCH   1  22
ATOM     22  C   UNL     1      -2.934   0.601  -1.930  1.00  0.00     0.023 C 
BRANCH  22  23
ATOM     23  C   UNL     1      -2.868   1.581  -3.099  1.00  0.00     0.023 C 
BRANCH  23  24
ATOM     24  C   UNL     1      -2.713   0.852  -4.422  1.00  0.00     0.116 C 
BRANCH  24  25
ATOM     25  N   UNL     1      -3.754  -0.167  -4.583  1.00  0.00    -0.352 N 
ATOM     26  C   UNL     1      -4.717  -0.218  -5.560  1.00  0.00     0.251 C 
ATOM     27  H   UNL     1      -3.764  -0.893  -3.918  1.00  0.00     0.163 HD
ATOM     28  O   UNL     1      -5.750  -0.832  -5.432  1.00  0.00    -0.269 OA
BRANCH  26  29
ATOM     29  C   UNL     1      -4.357   0.471  -6.802  1.00  0.00     0.039 A 
ATOM     30  C   UNL     1      -5.222   1.390  -7.383  1.00  0.00     0.014 A 
ATOM     31  C   UNL     1      -3.058   0.258  -7.277  1.00  0.00     0.014 A 
ATOM     32  C   UNL     1      -4.763   2.110  -8.479  1.00  0.00     0.010 A 
ATOM     33  C   UNL     1      -2.559   1.086  -8.250  1.00  0.00     0.010 A 
ATOM     34  C   UNL     1      -3.432   1.956  -8.909  1.00  0.00    -0.014 A 
BRANCH  34  35
ATOM     35  C   UNL     1      -2.943   2.589 -10.143  1.00  0.00     0.031 A 
ATOM     36  C   UNL     1      -2.499   1.698 -11.271  1.00  0.00     0.074 A 
ATOM     37  C   UNL     1      -2.851   3.927 -10.208  1.00  0.00     0.049 A 
ATOM     38  N   UNL     1      -1.991   2.024 -12.429  1.00  0.00    -0.248 NA
ATOM     39  C   UNL     1      -2.578   0.241 -11.047  1.00  0.00     0.031 C 
ATOM     40  C   UNL     1      -3.184   4.858  -9.127  1.00  0.00     0.029 A 
ATOM     41  N   UNL     1      -2.457   4.734 -11.237  1.00  0.00    -0.354 N 
ATOM     42  C   UNL     1      -1.665   0.820 -13.041  1.00  0.00     0.074 A 
ATOM     43  C   UNL     1      -1.930  -0.235 -12.095  1.00  0.00     0.031 C 
ATOM     44  C   UNL     1      -3.041   6.116  -9.575  1.00  0.00     0.029 A 
ATOM     45  C   UNL     1      -2.578   6.072 -10.957  1.00  0.00     0.049 A 
ATOM     46  H   UNL     1      -2.119   4.390 -12.095  1.00  0.00     0.167 HD
ATOM     47  C   UNL     1      -1.233   0.610 -14.304  1.00  0.00     0.037 A 
ATOM     48  C   UNL     1      -2.357   7.132 -11.753  1.00  0.00     0.037 A 
ATOM     49  C   UNL     1      -1.045   1.676 -15.245  1.00  0.00     0.049 A 
ATOM     50  C   UNL     1      -1.924   6.874 -13.170  1.00  0.00     0.074 A 
ATOM     51  C   UNL     1      -0.693   1.601 -16.578  1.00  0.00     0.029 A 
ATOM     52  N   UNL     1      -1.210   3.021 -14.941  1.00  0.00    -0.354 N 
ATOM     53  N   UNL     1      -1.702   5.730 -13.774  1.00  0.00    -0.248 NA
ATOM     54  C   UNL     1      -1.728   8.053 -14.021  1.00  0.00     0.031 C 
ATOM     55  C   UNL     1      -0.598   2.908 -17.069  1.00  0.00     0.029 A 
ATOM     56  C   UNL     1      -0.948   3.791 -16.057  1.00  0.00     0.049 A 
ATOM     57  H   UNL     1      -1.475   3.373 -14.061  1.00  0.00     0.167 HD
ATOM     58  C   UNL     1      -1.372   6.047 -15.084  1.00  0.00     0.074 A 
ATOM     59  C   UNL     1      -1.442   7.493 -15.187  1.00  0.00     0.031 C 
ATOM     60  C   UNL     1      -1.040   5.228 -16.114  1.00  0.00     0.037 A 
BRANCH  47  61
ATOM     61  C   UNL     1      -0.959  -0.807 -14.717  1.00  0.00     0.057 A 
ATOM     62  C   UNL     1      -1.977  -1.767 -14.821  1.00  0.00     0.134 A 
ATOM     63  C   UNL     1       0.347  -1.226 -14.996  1.00  0.00     0.134 A 
ATOM     64  F   UNL     1      -3.250  -1.442 -14.543  1.00  0.00    -0.206 F 
ATOM     65  C   UNL     1      -1.702  -3.096 -15.147  1.00  0.00     0.040 A 
ATOM     66  C   UNL     1       0.631  -2.545 -15.359  1.00  0.00     0.040 A 
ATOM     67  F   UNL     1       1.372  -0.365 -14.913  1.00  0.00    -0.206 F 
ATOM     68  C   UNL     1      -0.394  -3.486 -15.424  1.00  0.00     0.006 A 
ENDBRANCH  47  61
BRANCH  48  69
ATOM     69  C   UNL     1      -2.614   8.506 -11.256  1.00  0.00     0.057 A 
ATOM     70  C   UNL     1      -3.684   9.261 -11.751  1.00  0.00     0.134 A 
ATOM     71  C   UNL     1      -1.813   9.095 -10.271  1.00  0.00     0.134 A 
ATOM     72  F   UNL     1      -4.486   8.753 -12.699  1.00  0.00    -0.206 F 
ATOM     73  C   UNL     1      -3.931  10.561 -11.309  1.00  0.00     0.040 A 
ATOM     74  C   UNL     1      -2.063  10.385  -9.800  1.00  0.00     0.040 A 
ATOM     75  F   UNL     1      -0.784   8.418  -9.740  1.00  0.00    -0.206 F 
ATOM     76  C   UNL     1      -3.120  11.126 -10.326  1.00  0.00     0.006 A 
ENDBRANCH  48  69
BRANCH  60  77
ATOM     77  C   UNL     1      -0.774   5.880 -17.437  1.00  0.00     0.057 A 
ATOM     78  C   UNL     1       0.376   6.644 -17.668  1.00  0.00     0.134 A 
ATOM     79  C   UNL     1      -1.667   5.706 -18.503  1.00  0.00     0.134 A 
ATOM     80  F   UNL     1       1.262   6.853 -16.683  1.00  0.00    -0.206 F 
ATOM     81  C   UNL     1       0.612   7.243 -18.904  1.00  0.00     0.040 A 
ATOM     82  C   UNL     1      -1.424   6.272 -19.753  1.00  0.00     0.040 A 
ATOM     83  F   UNL     1      -2.779   4.971 -18.349  1.00  0.00    -0.206 F 
ATOM     84  C   UNL     1      -0.286   7.051 -19.953  1.00  0.00     0.006 A 
ENDBRANCH  60  77
ENDBRANCH  34  35
ENDBRANCH  26  29
ENDBRANCH  24  25
ENDBRANCH  23  24
ENDBRANCH  22  23
ENDBRANCH   1  22
TORSDOF 15
