REMARK SMILES C=C(C)COc1ccc2nc(C)n(-c3cccc(C(=O)NCCCCNC(=O)c4ccc(-c5c6nc(c(-c7c(F)cccc7F)c7ccc([nH]7)c(-c7c(F)cccc7F)c7nc(c(-c8c(F)cccc8F)c8ccc5[nH]8)C=C7)C=C6)cc4)c3)c(=O)c2c1
REMARK SMILES IDX 22 1 21 2 19 3 20 4 18 6 14 7 15 8 83 9 16 10 17 11 13 12
REMARK SMILES IDX 6 13 7 14 87 15 8 16 86 17 9 18 84 19 10 20 85 21 11 22
REMARK SMILES IDX 12 23 5 24 4 25 2 26 1 27 3 28 23 29 24 30 25 31 26 32 27 33
REMARK SMILES IDX 28 35 29 36 30 37 82 38 31 39 81 40 32 41 33 42 34 43 75 44
REMARK SMILES IDX 35 45 80 46 74 47 76 48 36 49 79 50 73 51 72 52 37 54 63 55
REMARK SMILES IDX 46 56 62 57 47 58 50 59 61 60 77 61 48 62 49 63 60 65 78 66
REMARK SMILES IDX 51 67 38 68 39 69 44 70 40 71 41 72 43 73 45 74 42 75 64 76
REMARK SMILES IDX 65 77 70 78 66 79 67 80 69 81 71 82 68 83 52 84 53 85 58 86
REMARK SMILES IDX 54 87 55 88 57 89 59 90 56 91
REMARK H PARENT 21 5 26 34 76 53 50 64
REMARK Flexibility Score: inf
ROOT
ATOM      1  C   UNL     1      -0.585   9.987  -0.715  1.00  0.00     0.116 C 
ENDROOT
BRANCH   1   2
ATOM      2  N   UNL     1      -0.008  11.319  -0.835  1.00  0.00    -0.352 N 
ATOM      3  C   UNL     1       1.074  11.888  -0.191  1.00  0.00     0.251 C 
ATOM      4  O   UNL     1       1.398  13.039  -0.473  1.00  0.00    -0.269 OA
ATOM      5  H   UNL     1      -0.463  11.910  -1.478  1.00  0.00     0.163 HD
BRANCH   3   6
ATOM      6  C   UNL     1       1.791  11.171   0.897  1.00  0.00     0.041 A 
ATOM      7  C   UNL     1       2.243   9.101   2.064  1.00  0.00     0.051 A 
ATOM      8  C   UNL     1       2.676   9.829   3.178  1.00  0.00     0.027 A 
ATOM      9  C   UNL     1       1.950   9.788   0.882  1.00  0.00     0.040 A 
ATOM     10  C   UNL     1       2.698  11.226   3.140  1.00  0.00     0.003 A 
ATOM     11  C   UNL     1       2.213  11.898   2.016  1.00  0.00     0.014 A 
BRANCH   7  12
ATOM     12  N   UNL     1       1.867   7.719   2.149  1.00  0.00    -0.264 N 
ATOM     13  C   UNL     1       1.523   3.265   0.228  1.00  0.00     0.120 A 
ATOM     14  C   UNL     1       0.644   2.936   1.260  1.00  0.00     0.049 A 
ATOM     15  C   UNL     1       2.098   4.534   0.182  1.00  0.00     0.062 A 
ATOM     16  C   UNL     1       0.310   3.885   2.224  1.00  0.00     0.033 A 
ATOM     17  C   UNL     1       1.754   5.480   1.157  1.00  0.00     0.070 A 
ATOM     18  C   UNL     1       0.865   5.162   2.177  1.00  0.00     0.078 A 
ATOM     19  C   UNL     1       2.292   6.853   1.127  1.00  0.00     0.266 A 
ATOM     20  N   UNL     1       0.472   6.083   3.143  1.00  0.00    -0.234 NA
ATOM     21  O   UNL     1       3.052   7.158   0.208  1.00  0.00    -0.268 OA
ATOM     22  C   UNL     1       0.940   7.289   3.093  1.00  0.00     0.113 A 
ATOM     23  C   UNL     1       0.342   8.247   4.105  1.00  0.00     0.088 C 
BRANCH  13  24
ATOM     24  O   UNL     1       1.917   2.351  -0.715  1.00  0.00    -0.489 OA
BRANCH  24  25
ATOM     25  C   UNL     1       0.824   1.821  -1.484  1.00  0.00     0.260 C 
BRANCH  25  26
ATOM     26  C   UNL     1       0.243   0.553  -0.891  1.00  0.00    -0.043 C 
ATOM     27  C   UNL     1       0.977  -0.354  -0.223  1.00  0.00     0.011 C 
ATOM     28  C   UNL     1      -1.243   0.394  -1.052  1.00  0.00     0.042 C 
ENDBRANCH  25  26
ENDBRANCH  24  25
ENDBRANCH  13  24
ENDBRANCH   7  12
ENDBRANCH   3   6
ENDBRANCH   1   2
BRANCH   1  29
ATOM     29  C   UNL     1      -2.089   9.896  -0.936  1.00  0.00     0.023 C 
BRANCH  29  30
ATOM     30  C   UNL     1      -2.617  10.466  -2.245  1.00  0.00     0.023 C 
BRANCH  30  31
ATOM     31  C   UNL     1      -1.862  10.044  -3.499  1.00  0.00     0.116 C 
BRANCH  31  32
ATOM     32  N   UNL     1      -1.972   8.623  -3.802  1.00  0.00    -0.352 N 
ATOM     33  C   UNL     1      -2.663   7.972  -4.803  1.00  0.00     0.251 C 
ATOM     34  H   UNL     1      -1.472   8.031  -3.194  1.00  0.00     0.163 HD
ATOM     35  O   UNL     1      -2.705   6.750  -4.828  1.00  0.00    -0.269 OA
BRANCH  33  36
ATOM     36  C   UNL     1      -3.405   8.757  -5.814  1.00  0.00     0.039 A 
ATOM     37  C   UNL     1      -2.813   9.851  -6.443  1.00  0.00     0.014 A 
ATOM     38  C   UNL     1      -4.735   8.427  -6.087  1.00  0.00     0.014 A 
ATOM     39  C   UNL     1      -3.609  10.749  -7.144  1.00  0.00     0.010 A 
ATOM     40  C   UNL     1      -5.509   9.276  -6.884  1.00  0.00     0.010 A 
ATOM     41  C   UNL     1      -4.972  10.485  -7.354  1.00  0.00    -0.014 A 
BRANCH  41  42
ATOM     42  C   UNL     1      -5.821  11.508  -8.020  1.00  0.00     0.031 A 
ATOM     43  C   UNL     1      -6.955  12.168  -7.276  1.00  0.00     0.074 A 
ATOM     44  C   UNL     1      -5.525  11.902  -9.273  1.00  0.00     0.049 A 
ATOM     45  N   UNL     1      -7.798  13.081  -7.693  1.00  0.00    -0.248 NA
ATOM     46  C   UNL     1      -7.178  11.746  -5.884  1.00  0.00     0.031 C 
ATOM     47  C   UNL     1      -4.440  11.360 -10.094  1.00  0.00     0.029 A 
ATOM     48  N   UNL     1      -6.091  12.867 -10.065  1.00  0.00    -0.354 N 
ATOM     49  C   UNL     1      -8.660  13.321  -6.630  1.00  0.00     0.074 A 
ATOM     50  C   UNL     1      -8.257  12.441  -5.555  1.00  0.00     0.031 C 
ATOM     51  C   UNL     1      -4.383  12.039 -11.249  1.00  0.00     0.029 A 
ATOM     52  C   UNL     1      -5.467  13.014 -11.280  1.00  0.00     0.049 A 
ATOM     53  H   UNL     1      -6.869  13.404  -9.790  1.00  0.00     0.167 HD
ATOM     54  C   UNL     1      -9.687  14.202  -6.552  1.00  0.00     0.037 A 
ATOM     55  C   UNL     1      -5.747  13.828 -12.313  1.00  0.00     0.037 A 
ATOM     56  C   UNL     1     -10.068  15.104  -7.607  1.00  0.00     0.049 A 
ATOM     57  C   UNL     1      -6.921  14.756 -12.218  1.00  0.00     0.074 A 
ATOM     58  C   UNL     1     -11.070  16.060  -7.608  1.00  0.00     0.029 A 
ATOM     59  N   UNL     1      -9.459  15.163  -8.851  1.00  0.00    -0.354 N 
ATOM     60  N   UNL     1      -7.731  14.965 -11.209  1.00  0.00    -0.248 NA
ATOM     61  C   UNL     1      -7.234  15.546 -13.417  1.00  0.00     0.031 C 
ATOM     62  C   UNL     1     -11.091  16.671  -8.867  1.00  0.00     0.029 A 
ATOM     63  C   UNL     1     -10.081  16.119  -9.638  1.00  0.00     0.049 A 
ATOM     64  H   UNL     1      -8.698  14.607  -9.134  1.00  0.00     0.167 HD
ATOM     65  C   UNL     1      -8.650  15.906 -11.650  1.00  0.00     0.074 A 
ATOM     66  C   UNL     1      -8.279  16.251 -13.008  1.00  0.00     0.031 C 
ATOM     67  C   UNL     1      -9.712  16.432 -10.993  1.00  0.00     0.037 A 
BRANCH  54  68
ATOM     68  C   UNL     1     -10.486  14.223  -5.281  1.00  0.00     0.057 A 
ATOM     69  C   UNL     1     -11.787  13.705  -5.250  1.00  0.00     0.134 A 
ATOM     70  C   UNL     1      -9.986  14.786  -4.100  1.00  0.00     0.134 A 
ATOM     71  F   UNL     1     -12.328  13.156  -6.348  1.00  0.00    -0.206 F 
ATOM     72  C   UNL     1     -12.562  13.746  -4.090  1.00  0.00     0.040 A 
ATOM     73  C   UNL     1     -10.744  14.815  -2.928  1.00  0.00     0.040 A 
ATOM     74  F   UNL     1      -8.742  15.287  -4.059  1.00  0.00    -0.206 F 
ATOM     75  C   UNL     1     -12.039  14.299  -2.922  1.00  0.00     0.006 A 
ENDBRANCH  54  68
BRANCH  55  76
ATOM     76  C   UNL     1      -4.916  13.777 -13.540  1.00  0.00     0.057 A 
ATOM     77  C   UNL     1      -4.952  12.670 -14.397  1.00  0.00     0.134 A 
ATOM     78  C   UNL     1      -4.066  14.834 -13.882  1.00  0.00     0.134 A 
ATOM     79  F   UNL     1      -5.746  11.625 -14.120  1.00  0.00    -0.206 F 
ATOM     80  C   UNL     1      -4.159  12.608 -15.543  1.00  0.00     0.040 A 
ATOM     81  C   UNL     1      -3.286  14.796 -15.038  1.00  0.00     0.040 A 
ATOM     82  F   UNL     1      -4.007  15.929 -13.110  1.00  0.00    -0.206 F 
ATOM     83  C   UNL     1      -3.327  13.677 -15.868  1.00  0.00     0.006 A 
ENDBRANCH  55  76
BRANCH  67  84
ATOM     84  C   UNL     1     -10.545  17.423 -11.747  1.00  0.00     0.057 A 
ATOM     85  C   UNL     1     -10.469  18.791 -11.463  1.00  0.00     0.134 A 
ATOM     86  C   UNL     1     -11.424  17.017 -12.759  1.00  0.00     0.134 A 
ATOM     87  F   UNL     1      -9.647  19.243 -10.503  1.00  0.00    -0.206 F 
ATOM     88  C   UNL     1     -11.238  19.723 -12.161  1.00  0.00     0.040 A 
ATOM     89  C   UNL     1     -12.183  17.941 -13.478  1.00  0.00     0.040 A 
ATOM     90  F   UNL     1     -11.527  15.720 -13.089  1.00  0.00    -0.206 F 
ATOM     91  C   UNL     1     -12.093  19.299 -13.177  1.00  0.00     0.006 A 
ENDBRANCH  67  84
ENDBRANCH  41  42
ENDBRANCH  33  36
ENDBRANCH  31  32
ENDBRANCH  30  31
ENDBRANCH  29  30
ENDBRANCH   1  29
TORSDOF 15
