REMARK SMILES O=C(NCCCCNC(=O)C1(NC(=O)c2nc(C3CC3)n[nH]2)CCCCC1)c1ccc(-c2c3nc(c(-c4c(F)cccc4F)c4ccc([nH]4)c(-c4c(F)cccc4F)c4nc(c(-c5c(F)cccc5F)c5ccc2[nH]5)C=C4)C=C3)cc1
REMARK SMILES IDX 6 1 5 2 4 3 3 4 1 5 2 6 28 8 29 9 81 10 30 11 80 12 31 13
REMARK SMILES IDX 32 14 33 15 74 16 34 17 79 18 73 19 75 20 35 21 78 22 72 23
REMARK SMILES IDX 71 24 36 26 62 27 45 28 61 29 46 30 49 31 60 32 76 33 47 34
REMARK SMILES IDX 48 35 59 37 77 38 50 39 37 40 38 41 43 42 39 43 40 44 42 45
REMARK SMILES IDX 44 46 41 47 63 48 64 49 69 50 65 51 66 52 68 53 70 54 67 55
REMARK SMILES IDX 51 56 52 57 57 58 53 59 54 60 56 61 58 62 55 63 7 64 8 65
REMARK SMILES IDX 9 66 10 68 11 69 23 70 27 71 24 72 26 73 25 74 12 75 13 76
REMARK SMILES IDX 14 78 15 79 16 80 22 81 17 82 21 83 18 85 19 86 20 87
REMARK H PARENT 3 7 75 25 49 36 8 67 12 77 22 84
REMARK Flexibility Score: inf
ROOT
ATOM      1  C   UNL     1       4.108  -3.472  -1.295  1.00  0.00     0.023 C 
ENDROOT
BRANCH   1   2
ATOM      2  C   UNL     1       4.543  -2.676  -0.060  1.00  0.00     0.023 C 
BRANCH   2   3
ATOM      3  C   UNL     1       4.308  -1.173  -0.160  1.00  0.00     0.116 C 
BRANCH   3   4
ATOM      4  N   UNL     1       2.925  -0.827  -0.454  1.00  0.00    -0.352 N 
ATOM      5  O   UNL     1       1.009   0.355  -0.252  1.00  0.00    -0.269 OA
ATOM      6  C   UNL     1       2.199   0.251  -0.002  1.00  0.00     0.251 C 
ATOM      7  H   UNL     1       2.447  -1.444  -1.055  1.00  0.00     0.163 HD
BRANCH   6   8
ATOM      8  C   UNL     1       2.884   1.258   0.831  1.00  0.00     0.039 A 
ATOM      9  C   UNL     1       4.101   1.800   0.414  1.00  0.00     0.014 A 
ATOM     10  C   UNL     1       2.334   1.603   2.067  1.00  0.00     0.014 A 
ATOM     11  C   UNL     1       4.845   2.564   1.302  1.00  0.00     0.010 A 
ATOM     12  C   UNL     1       3.049   2.438   2.927  1.00  0.00     0.010 A 
ATOM     13  C   UNL     1       4.330   2.886   2.569  1.00  0.00    -0.014 A 
BRANCH  13  14
ATOM     14  C   UNL     1       5.154   3.702   3.493  1.00  0.00     0.031 A 
ATOM     15  C   UNL     1       5.683   3.123   4.775  1.00  0.00     0.074 A 
ATOM     16  C   UNL     1       5.469   4.961   3.135  1.00  0.00     0.049 A 
ATOM     17  N   UNL     1       6.457   3.680   5.672  1.00  0.00    -0.248 NA
ATOM     18  C   UNL     1       5.288   1.743   5.101  1.00  0.00     0.031 C 
ATOM     19  C   UNL     1       5.007   5.629   1.916  1.00  0.00     0.029 A 
ATOM     20  N   UNL     1       6.273   5.890   3.741  1.00  0.00    -0.354 N 
ATOM     21  C   UNL     1       6.616   2.736   6.679  1.00  0.00     0.074 A 
ATOM     22  C   UNL     1       5.846   1.574   6.291  1.00  0.00     0.031 C 
ATOM     23  C   UNL     1       5.583   6.837   1.834  1.00  0.00     0.029 A 
ATOM     24  C   UNL     1       6.408   7.049   3.017  1.00  0.00     0.049 A 
ATOM     25  H   UNL     1       6.711   5.741   4.610  1.00  0.00     0.167 HD
ATOM     26  C   UNL     1       7.343   2.830   7.818  1.00  0.00     0.037 A 
ATOM     27  C   UNL     1       7.118   8.161   3.278  1.00  0.00     0.037 A 
ATOM     28  C   UNL     1       8.136   3.977   8.181  1.00  0.00     0.049 A 
ATOM     29  C   UNL     1       7.926   8.231   4.539  1.00  0.00     0.074 A 
ATOM     30  C   UNL     1       8.937   4.154   9.297  1.00  0.00     0.029 A 
ATOM     31  N   UNL     1       8.232   5.140   7.433  1.00  0.00    -0.354 N 
ATOM     32  N   UNL     1       8.083   7.322   5.470  1.00  0.00    -0.248 NA
ATOM     33  C   UNL     1       8.654   9.482   4.787  1.00  0.00     0.031 C 
ATOM     34  C   UNL     1       9.492   5.438   9.239  1.00  0.00     0.029 A 
ATOM     35  C   UNL     1       9.067   6.045   8.068  1.00  0.00     0.049 A 
ATOM     36  H   UNL     1       7.774   5.300   6.576  1.00  0.00     0.167 HD
ATOM     37  C   UNL     1       8.940   7.883   6.406  1.00  0.00     0.074 A 
ATOM     38  C   UNL     1       9.283   9.204   5.920  1.00  0.00     0.031 C 
ATOM     39  C   UNL     1       9.400   7.353   7.565  1.00  0.00     0.037 A 
BRANCH  26  40
ATOM     40  C   UNL     1       7.302   1.669   8.767  1.00  0.00     0.057 A 
ATOM     41  C   UNL     1       7.970   0.468   8.502  1.00  0.00     0.134 A 
ATOM     42  C   UNL     1       6.616   1.771   9.985  1.00  0.00     0.134 A 
ATOM     43  F   UNL     1       8.634   0.300   7.348  1.00  0.00    -0.206 F 
ATOM     44  C   UNL     1       7.944  -0.597   9.405  1.00  0.00     0.040 A 
ATOM     45  C   UNL     1       6.600   0.722  10.905  1.00  0.00     0.040 A 
ATOM     46  F   UNL     1       5.959   2.896  10.304  1.00  0.00    -0.206 F 
ATOM     47  C   UNL     1       7.262  -0.469  10.614  1.00  0.00     0.006 A 
ENDBRANCH  26  40
BRANCH  27  48
ATOM     48  C   UNL     1       7.104   9.285   2.312  1.00  0.00     0.057 A 
ATOM     49  C   UNL     1       8.232   9.588   1.543  1.00  0.00     0.134 A 
ATOM     50  C   UNL     1       5.959  10.067   2.120  1.00  0.00     0.134 A 
ATOM     51  F   UNL     1       9.363   8.882   1.694  1.00  0.00    -0.206 F 
ATOM     52  C   UNL     1       8.227  10.636   0.622  1.00  0.00     0.040 A 
ATOM     53  C   UNL     1       5.932  11.102   1.186  1.00  0.00     0.040 A 
ATOM     54  F   UNL     1       4.844   9.818   2.821  1.00  0.00    -0.206 F 
ATOM     55  C   UNL     1       7.071  11.393   0.438  1.00  0.00     0.006 A 
ENDBRANCH  27  48
BRANCH  39  56
ATOM     56  C   UNL     1      10.346   8.196   8.365  1.00  0.00     0.057 A 
ATOM     57  C   UNL     1       9.907   9.306   9.096  1.00  0.00     0.134 A 
ATOM     58  C   UNL     1      11.710   7.885   8.411  1.00  0.00     0.134 A 
ATOM     59  F   UNL     1       8.614   9.664   9.078  1.00  0.00    -0.206 F 
ATOM     60  C   UNL     1      10.797  10.094   9.826  1.00  0.00     0.040 A 
ATOM     61  C   UNL     1      12.607   8.652   9.156  1.00  0.00     0.040 A 
ATOM     62  F   UNL     1      12.192   6.830   7.737  1.00  0.00    -0.206 F 
ATOM     63  C   UNL     1      12.151   9.764   9.861  1.00  0.00     0.006 A 
ENDBRANCH  39  56
ENDBRANCH  13  14
ENDBRANCH   6   8
ENDBRANCH   3   4
ENDBRANCH   2   3
ENDBRANCH   1   2
BRANCH   1  64
ATOM     64  C   UNL     1       4.850  -3.067  -2.569  1.00  0.00     0.116 C 
BRANCH  64  65
ATOM     65  N   UNL     1       6.203  -3.578  -2.523  1.00  0.00    -0.354 N 
ATOM     66  C   UNL     1       6.703  -4.822  -2.788  1.00  0.00     0.245 C 
ATOM     67  H   UNL     1       6.880  -2.916  -2.255  1.00  0.00     0.163 HD
ATOM     68  O   UNL     1       7.600  -5.202  -2.027  1.00  0.00    -0.272 OA
BRANCH  66  69
ATOM     69  C   UNL     1       6.304  -5.650  -4.064  1.00  0.00     0.119 C 
ATOM     70  C   UNL     1       6.764  -7.106  -3.723  1.00  0.00     0.038 C 
ATOM     71  C   UNL     1       4.784  -5.637  -4.345  1.00  0.00     0.038 C 
ATOM     72  C   UNL     1       6.199  -8.201  -4.620  1.00  0.00     0.003 C 
ATOM     73  C   UNL     1       4.234  -6.795  -5.178  1.00  0.00     0.003 C 
ATOM     74  C   UNL     1       4.683  -8.142  -4.644  1.00  0.00     0.000 C 
BRANCH  69  75
ATOM     75  N   UNL     1       7.048  -5.252  -5.301  1.00  0.00    -0.335 N 
ATOM     76  C   UNL     1       7.354  -3.990  -5.762  1.00  0.00     0.289 C 
ATOM     77  H   UNL     1       7.362  -5.996  -5.863  1.00  0.00     0.165 HD
ATOM     78  O   UNL     1       7.079  -3.724  -6.933  1.00  0.00    -0.266 OA
BRANCH  76  79
ATOM     79  C   UNL     1       8.024  -3.043  -4.905  1.00  0.00     0.214 A 
ATOM     80  N   UNL     1       8.861  -3.300  -3.918  1.00  0.00    -0.207 NA
ATOM     81  N   UNL     1       7.925  -1.690  -5.037  1.00  0.00    -0.255 N 
ATOM     82  C   UNL     1       9.104  -2.066  -3.370  1.00  0.00     0.154 A 
ATOM     83  N   UNL     1       8.514  -1.050  -4.011  1.00  0.00    -0.158 NA
ATOM     84  H   UNL     1       7.477  -1.238  -5.788  1.00  0.00     0.192 HD
BRANCH  82  85
ATOM     85  C   UNL     1       9.887  -1.854  -2.082  1.00  0.00     0.060 C 
ATOM     86  C   UNL     1      10.002  -3.010  -1.105  1.00  0.00     0.012 C 
ATOM     87  C   UNL     1      11.201  -2.574  -1.872  1.00  0.00     0.012 C 
ENDBRANCH  82  85
ENDBRANCH  76  79
ENDBRANCH  69  75
ENDBRANCH  66  69
ENDBRANCH  64  65
ENDBRANCH   1  64
TORSDOF 14
