REMARK SMILES COc1cc2c(cc1OC)[C@@H](CC(=O)NCCCCNC(=O)c1ccc(-c3c4nc(c(-c5c(F)cccc5F)c5ccc([nH]5)c(-c5c(F)cccc5F)c5nc(c(-c6c(F)cccc6F)c6ccc3[nH]6)C=C5)C=C4)cc1)N(C(=O)Nc1ccc(Cl)cc1)CC2
REMARK SMILES IDX 17 1 16 2 15 3 13 4 14 5 12 7 11 8 3 9 4 10 8 11 5 12 7 13
REMARK SMILES IDX 6 14 89 15 88 16 77 17 2 18 1 19 9 20 10 21 78 22 79 23
REMARK SMILES IDX 80 24 81 26 82 27 87 28 83 29 86 30 84 31 85 32 18 33 19 34
REMARK SMILES IDX 20 35 21 36 22 38 23 39 24 40 76 41 25 42 75 43 26 44 27 45
REMARK SMILES IDX 28 46 69 47 29 48 74 49 68 50 70 51 30 52 73 53 67 54 66 55
REMARK SMILES IDX 31 57 57 58 40 59 56 60 41 61 44 62 55 63 71 64 42 65 43 66
REMARK SMILES IDX 54 68 72 69 45 70 32 71 33 72 38 73 34 74 35 75 37 76 39 77
REMARK SMILES IDX 36 78 58 79 59 80 64 81 60 82 61 83 63 84 65 85 62 86 46 87
REMARK SMILES IDX 47 88 52 89 48 90 49 91 51 92 53 93 50 94
REMARK H PARENT 15 6 80 25 20 37 70 56 44 67
REMARK Flexibility Score: inf
ROOT
ATOM      1  C   UNL     1       2.159   8.811   5.893  1.00  0.00     0.023 C 
ENDROOT
BRANCH   1   2
ATOM      2  C   UNL     1       3.400   8.311   5.147  1.00  0.00     0.116 C 
BRANCH   2   3
ATOM      3  N   UNL     1       3.782   6.997   5.645  1.00  0.00    -0.356 N 
ATOM      4  C   UNL     1       3.587   5.746   5.144  1.00  0.00     0.222 C 
ATOM      5  O   UNL     1       3.800   4.788   5.891  1.00  0.00    -0.275 OA
ATOM      6  H   UNL     1       4.270   7.017   6.500  1.00  0.00     0.163 HD
BRANCH   4   7
ATOM      7  C   UNL     1       3.221   5.513   3.691  1.00  0.00     0.130 C 
BRANCH   7   8
ATOM      8  C   UNL     1       1.798   4.917   3.524  1.00  0.00     0.127 C 
ATOM      9  C   UNL     1       1.218   1.543   0.812  1.00  0.00     0.161 A 
ATOM     10  C   UNL     1       0.142   2.273   1.283  1.00  0.00     0.054 A 
ATOM     11  C   UNL     1       2.509   1.766   1.318  1.00  0.00     0.161 A 
ATOM     12  C   UNL     1       0.364   3.304   2.192  1.00  0.00    -0.037 A 
ATOM     13  C   UNL     1       2.715   2.777   2.282  1.00  0.00     0.056 A 
ATOM     14  C   UNL     1       1.661   3.616   2.680  1.00  0.00    -0.018 A 
ATOM     15  C   UNL     1      -0.736   4.299   2.417  1.00  0.00     0.057 C 
ATOM     16  C   UNL     1      -0.089   5.589   1.948  1.00  0.00     0.127 C 
ATOM     17  N   UNL     1       0.928   5.988   2.926  1.00  0.00    -0.317 N 
BRANCH   9  18
ATOM     18  O   UNL     1       0.950   0.766  -0.286  1.00  0.00    -0.493 OA
ATOM     19  C   UNL     1       1.100  -0.621  -0.020  1.00  0.00     0.278 C 
ENDBRANCH   9  18
BRANCH  11  20
ATOM     20  O   UNL     1       3.500   1.002   0.760  1.00  0.00    -0.493 OA
ATOM     21  C   UNL     1       4.809   1.125   1.292  1.00  0.00     0.278 C 
ENDBRANCH  11  20
BRANCH  17  22
ATOM     22  C   UNL     1       0.496   7.063   3.685  1.00  0.00     0.322 C 
ATOM     23  O   UNL     1       0.125   6.949   4.844  1.00  0.00    -0.248 OA
ATOM     24  N   UNL     1       0.432   8.192   2.888  1.00  0.00    -0.308 N 
ATOM     25  H   UNL     1       1.261   8.479   2.442  1.00  0.00     0.171 HD
BRANCH  24  26
ATOM     26  C   UNL     1      -0.720   8.962   2.663  1.00  0.00     0.042 A 
ATOM     27  C   UNL     1      -0.691   9.836   1.571  1.00  0.00     0.028 A 
ATOM     28  C   UNL     1      -1.915   8.745   3.349  1.00  0.00     0.028 A 
ATOM     29  C   UNL     1      -1.867  10.437   1.123  1.00  0.00     0.022 A 
ATOM     30  C   UNL     1      -3.093   9.341   2.896  1.00  0.00     0.022 A 
ATOM     31  C   UNL     1      -3.068  10.169   1.774  1.00  0.00     0.041 A 
ATOM     32  Cl  UNL     1      -4.534  10.833   1.169  1.00  0.00    -0.084 Cl
ENDBRANCH  24  26
ENDBRANCH  17  22
ENDBRANCH   7   8
ENDBRANCH   4   7
ENDBRANCH   2   3
ENDBRANCH   1   2
BRANCH   1  33
ATOM     33  C   UNL     1       2.252  10.187   6.520  1.00  0.00     0.023 C 
BRANCH  33  34
ATOM     34  C   UNL     1       2.531  11.319   5.548  1.00  0.00     0.116 C 
BRANCH  34  35
ATOM     35  N   UNL     1       1.617  11.441   4.417  1.00  0.00    -0.352 N 
ATOM     36  C   UNL     1       1.183  12.594   3.784  1.00  0.00     0.251 C 
ATOM     37  H   UNL     1       1.263  10.595   4.058  1.00  0.00     0.163 HD
ATOM     38  O   UNL     1       0.467  12.551   2.800  1.00  0.00    -0.269 OA
BRANCH  36  39
ATOM     39  C   UNL     1       1.556  13.899   4.371  1.00  0.00     0.039 A 
ATOM     40  C   UNL     1       0.551  14.826   4.657  1.00  0.00     0.014 A 
ATOM     41  C   UNL     1       2.870  14.136   4.765  1.00  0.00     0.014 A 
ATOM     42  C   UNL     1       0.853  15.944   5.439  1.00  0.00     0.010 A 
ATOM     43  C   UNL     1       3.132  15.159   5.661  1.00  0.00     0.010 A 
ATOM     44  C   UNL     1       2.133  16.087   5.998  1.00  0.00    -0.014 A 
BRANCH  44  45
ATOM     45  C   UNL     1       2.481  17.213   6.902  1.00  0.00     0.031 A 
ATOM     46  C   UNL     1       3.634  18.114   6.543  1.00  0.00     0.074 A 
ATOM     47  C   UNL     1       1.839  17.370   8.076  1.00  0.00     0.049 A 
ATOM     48  N   UNL     1       4.197  19.063   7.246  1.00  0.00    -0.248 NA
ATOM     49  C   UNL     1       4.285  17.871   5.244  1.00  0.00     0.031 C 
ATOM     50  C   UNL     1       0.766  16.513   8.587  1.00  0.00     0.029 A 
ATOM     51  N   UNL     1       2.006  18.309   9.063  1.00  0.00    -0.354 N 
ATOM     52  C   UNL     1       5.289  19.485   6.497  1.00  0.00     0.074 A 
ATOM     53  C   UNL     1       5.358  18.638   5.329  1.00  0.00     0.031 C 
ATOM     54  C   UNL     1       0.341  16.994   9.768  1.00  0.00     0.029 A 
ATOM     55  C   UNL     1       1.130  18.172  10.112  1.00  0.00     0.049 A 
ATOM     56  H   UNL     1       2.690  19.017   9.022  1.00  0.00     0.167 HD
ATOM     57  C   UNL     1       6.134  20.515   6.734  1.00  0.00     0.037 A 
ATOM     58  C   UNL     1       0.976  18.923  11.219  1.00  0.00     0.037 A 
ATOM     59  C   UNL     1       6.006  21.412   7.849  1.00  0.00     0.049 A 
ATOM     60  C   UNL     1       1.859  20.125  11.410  1.00  0.00     0.074 A 
ATOM     61  C   UNL     1       6.752  22.538   8.144  1.00  0.00     0.029 A 
ATOM     62  N   UNL     1       5.044  21.293   8.841  1.00  0.00    -0.354 N 
ATOM     63  N   UNL     1       2.848  20.553  10.662  1.00  0.00    -0.248 NA
ATOM     64  C   UNL     1       1.594  20.960  12.590  1.00  0.00     0.031 C 
ATOM     65  C   UNL     1       6.248  23.094   9.326  1.00  0.00     0.029 A 
ATOM     66  C   UNL     1       5.170  22.332   9.745  1.00  0.00     0.049 A 
ATOM     67  H   UNL     1       4.371  20.576   8.893  1.00  0.00     0.167 HD
ATOM     68  C   UNL     1       3.299  21.723  11.259  1.00  0.00     0.074 A 
ATOM     69  C   UNL     1       2.466  21.944  12.424  1.00  0.00     0.031 C 
ATOM     70  C   UNL     1       4.312  22.541  10.882  1.00  0.00     0.037 A 
BRANCH  57  71
ATOM     71  C   UNL     1       7.239  20.738   5.743  1.00  0.00     0.057 A 
ATOM     72  C   UNL     1       6.983  21.177   4.436  1.00  0.00     0.134 A 
ATOM     73  C   UNL     1       8.574  20.501   6.093  1.00  0.00     0.134 A 
ATOM     74  F   UNL     1       5.724  21.402   4.029  1.00  0.00    -0.206 F 
ATOM     75  C   UNL     1       8.008  21.332   3.502  1.00  0.00     0.040 A 
ATOM     76  C   UNL     1       9.612  20.684   5.177  1.00  0.00     0.040 A 
ATOM     77  F   UNL     1       8.892  20.083   7.327  1.00  0.00    -0.206 F 
ATOM     78  C   UNL     1       9.329  21.090   3.874  1.00  0.00     0.006 A 
ENDBRANCH  57  71
BRANCH  58  79
ATOM     79  C   UNL     1      -0.097  18.609  12.197  1.00  0.00     0.057 A 
ATOM     80  C   UNL     1      -1.229  19.427  12.305  1.00  0.00     0.134 A 
ATOM     81  C   UNL     1      -0.016  17.505  13.053  1.00  0.00     0.134 A 
ATOM     82  F   UNL     1      -1.356  20.509  11.523  1.00  0.00    -0.206 F 
ATOM     83  C   UNL     1      -2.228  19.175  13.246  1.00  0.00     0.040 A 
ATOM     84  C   UNL     1      -1.019  17.228  13.984  1.00  0.00     0.040 A 
ATOM     85  F   UNL     1       1.037  16.677  12.992  1.00  0.00    -0.206 F 
ATOM     86  C   UNL     1      -2.126  18.070  14.088  1.00  0.00     0.006 A 
ENDBRANCH  58  79
BRANCH  70  87
ATOM     87  C   UNL     1       4.537  23.772  11.707  1.00  0.00     0.057 A 
ATOM     88  C   UNL     1       5.107  23.713  12.984  1.00  0.00     0.134 A 
ATOM     89  C   UNL     1       4.204  25.034  11.199  1.00  0.00     0.134 A 
ATOM     90  F   UNL     1       5.436  22.532  13.528  1.00  0.00    -0.206 F 
ATOM     91  C   UNL     1       5.314  24.867  13.740  1.00  0.00     0.040 A 
ATOM     92  C   UNL     1       4.430  26.197  11.936  1.00  0.00     0.040 A 
ATOM     93  F   UNL     1       3.664  25.157   9.978  1.00  0.00    -0.206 F 
ATOM     94  C   UNL     1       4.980  26.113  13.214  1.00  0.00     0.006 A 
ENDBRANCH  70  87
ENDBRANCH  44  45
ENDBRANCH  36  39
ENDBRANCH  34  35
ENDBRANCH  33  34
ENDBRANCH   1  33
TORSDOF 16
