REMARK SMILES Cc1cc(C(=O)NCCCCNC(=O)c2ccc(-c3c4nc(c(-c5c(F)cccc5F)c5ccc([nH]5)c(-c5c(F)cccc5F)c5nc(c(-c6c(F)cccc6F)c6ccc3[nH]6)C=C5)C=C4)cc2)c(C)n1[C@@H]1C[N@H+]2CC[C@@H]1CC2
REMARK SMILES IDX 10 1 9 2 8 3 7 4 5 5 6 6 4 8 1 9 2 10 3 11 71 12 69 13 70 14
REMARK SMILES IDX 72 15 73 16 77 17 74 18 78 19 76 20 79 21 75 22 11 24 12 25
REMARK SMILES IDX 13 26 14 28 15 29 16 30 68 31 17 32 67 33 18 34 19 35 20 36
REMARK SMILES IDX 61 37 21 38 66 39 60 40 62 41 22 42 65 43 59 44 58 45 23 47
REMARK SMILES IDX 49 48 32 49 48 50 33 51 36 52 47 53 63 54 34 55 35 56 46 58
REMARK SMILES IDX 64 59 37 60 24 61 25 62 30 63 26 64 27 65 29 66 31 67 28 68
REMARK SMILES IDX 50 69 51 70 56 71 52 72 53 73 55 74 57 75 54 76 38 77 39 78
REMARK SMILES IDX 44 79 40 80 41 81 43 82 45 83 42 84
REMARK H PARENT 7 7 74 23 12 27 62 46 36 57
REMARK Flexibility Score: inf
ROOT
ATOM      1  C   UNL     1      -1.173  -1.481   6.990  1.00  0.00     0.023 C 
ENDROOT
BRANCH   1   2
ATOM      2  C   UNL     1      -0.931  -1.539   5.468  1.00  0.00     0.023 C 
BRANCH   2   3
ATOM      3  C   UNL     1      -1.637  -0.463   4.643  1.00  0.00     0.116 C 
BRANCH   3   4
ATOM      4  N   UNL     1      -1.187   0.875   5.003  1.00  0.00    -0.352 N 
ATOM      5  C   UNL     1      -0.474   1.839   4.341  1.00  0.00     0.253 C 
ATOM      6  O   UNL     1      -0.375   2.934   4.928  1.00  0.00    -0.269 OA
ATOM      7  H   UNL     1      -1.451   1.142   5.912  1.00  0.00     0.163 HD
BRANCH   5   8
ATOM      8  C   UNL     1       0.087   1.623   3.005  1.00  0.00     0.060 A 
ATOM      9  C   UNL     1       0.392  -0.354  -0.057  1.00  0.00     0.064 C 
ATOM     10  C   UNL     1       0.541   0.675   1.005  1.00  0.00     0.016 A 
ATOM     11  C   UNL     1       0.378   0.411   2.348  1.00  0.00     0.037 A 
ATOM     12  N   UNL     1       0.821   2.029   0.885  1.00  0.00    -0.339 N 
ATOM     13  C   UNL     1       0.486   2.627   2.110  1.00  0.00     0.028 A 
ATOM     14  C   UNL     1       0.519   4.100   2.401  1.00  0.00     0.065 C 
BRANCH  12  15
ATOM     15  C   UNL     1       1.395   2.739  -0.267  1.00  0.00     0.145 C 
ATOM     16  C   UNL     1       0.660   2.611  -1.623  1.00  0.00     0.288 C 
ATOM     17  C   UNL     1       2.918   2.517  -0.504  1.00  0.00     0.029 C 
ATOM     18  N   UNL     1       1.592   2.293  -2.741  1.00  0.00    -0.333 N 
ATOM     19  C   UNL     1       3.381   3.565  -1.546  1.00  0.00     0.067 C 
ATOM     20  C   UNL     1       3.177   1.160  -1.170  1.00  0.00     0.067 C 
ATOM     21  C   UNL     1       2.590   3.379  -2.855  1.00  0.00     0.262 C 
ATOM     22  C   UNL     1       2.317   1.038  -2.440  1.00  0.00     0.262 C 
ATOM     23  H   UNL     1       1.060   2.195  -3.606  1.00  0.00     0.348 HD
ENDBRANCH  12  15
ENDBRANCH   5   8
ENDBRANCH   3   4
ENDBRANCH   2   3
ENDBRANCH   1   2
BRANCH   1  24
ATOM     24  C   UNL     1      -2.573  -1.097   7.504  1.00  0.00     0.116 C 
BRANCH  24  25
ATOM     25  N   UNL     1      -3.559  -2.152   7.508  1.00  0.00    -0.352 N 
ATOM     26  C   UNL     1      -4.836  -2.085   8.050  1.00  0.00     0.251 C 
ATOM     27  H   UNL     1      -3.301  -3.002   7.084  1.00  0.00     0.163 HD
ATOM     28  O   UNL     1      -5.533  -3.097   8.046  1.00  0.00    -0.269 OA
BRANCH  26  29
ATOM     29  C   UNL     1      -5.344  -0.822   8.708  1.00  0.00     0.039 A 
ATOM     30  C   UNL     1      -5.103  -0.629  10.057  1.00  0.00     0.014 A 
ATOM     31  C   UNL     1      -6.218   0.095   8.094  1.00  0.00     0.014 A 
ATOM     32  C   UNL     1      -5.680   0.481  10.746  1.00  0.00     0.010 A 
ATOM     33  C   UNL     1      -6.876   1.176   8.827  1.00  0.00     0.010 A 
ATOM     34  C   UNL     1      -6.647   1.409  10.198  1.00  0.00    -0.014 A 
BRANCH  34  35
ATOM     35  C   UNL     1      -7.657   2.107  11.277  1.00  0.00     0.031 A 
ATOM     36  C   UNL     1      -7.992   0.942  12.148  1.00  0.00     0.074 A 
ATOM     37  C   UNL     1      -8.377   3.270  11.588  1.00  0.00     0.049 A 
ATOM     38  N   UNL     1      -8.488  -0.134  11.600  1.00  0.00    -0.248 NA
ATOM     39  C   UNL     1      -7.419   0.738  13.480  1.00  0.00     0.031 C 
ATOM     40  C   UNL     1      -8.483   4.511  10.802  1.00  0.00     0.029 A 
ATOM     41  N   UNL     1      -9.214   3.639  12.707  1.00  0.00    -0.354 N 
ATOM     42  C   UNL     1      -8.607  -1.053  12.607  1.00  0.00     0.074 A 
ATOM     43  C   UNL     1      -7.702  -0.562  13.639  1.00  0.00     0.031 C 
ATOM     44  C   UNL     1      -9.159   5.494  11.475  1.00  0.00     0.029 A 
ATOM     45  C   UNL     1      -9.648   5.023  12.774  1.00  0.00     0.049 A 
ATOM     46  H   UNL     1      -9.477   2.983  13.392  1.00  0.00     0.167 HD
ATOM     47  C   UNL     1      -9.867  -1.557  12.758  1.00  0.00     0.037 A 
ATOM     48  C   UNL     1     -10.401   5.730  13.722  1.00  0.00     0.037 A 
ATOM     49  C   UNL     1     -10.572  -0.916  13.834  1.00  0.00     0.049 A 
ATOM     50  C   UNL     1     -11.221   4.745  14.432  1.00  0.00     0.074 A 
ATOM     51  C   UNL     1     -10.201  -0.516  15.103  1.00  0.00     0.029 A 
ATOM     52  N   UNL     1     -11.686  -0.181  13.498  1.00  0.00    -0.354 N 
ATOM     53  N   UNL     1     -12.315   4.285  13.908  1.00  0.00    -0.248 NA
ATOM     54  C   UNL     1     -10.959   4.326  15.804  1.00  0.00     0.031 C 
ATOM     55  C   UNL     1     -10.759   0.770  15.247  1.00  0.00     0.029 A 
ATOM     56  C   UNL     1     -11.748   0.941  14.289  1.00  0.00     0.049 A 
ATOM     57  H   UNL     1     -12.337  -0.422  12.799  1.00  0.00     0.167 HD
ATOM     58  C   UNL     1     -12.538   3.156  14.619  1.00  0.00     0.074 A 
ATOM     59  C   UNL     1     -11.898   3.381  15.903  1.00  0.00     0.031 C 
ATOM     60  C   UNL     1     -12.596   2.027  13.873  1.00  0.00     0.037 A 
BRANCH  47  61
ATOM     61  C   UNL     1     -10.509  -1.968  11.459  1.00  0.00     0.057 A 
ATOM     62  C   UNL     1     -10.675  -3.324  11.180  1.00  0.00     0.134 A 
ATOM     63  C   UNL     1     -10.841  -1.062  10.430  1.00  0.00     0.134 A 
ATOM     64  F   UNL     1     -10.444  -4.243  12.130  1.00  0.00    -0.206 F 
ATOM     65  C   UNL     1     -11.080  -3.764   9.916  1.00  0.00     0.040 A 
ATOM     66  C   UNL     1     -11.181  -1.489   9.148  1.00  0.00     0.040 A 
ATOM     67  F   UNL     1     -10.845   0.264  10.650  1.00  0.00    -0.206 F 
ATOM     68  C   UNL     1     -11.294  -2.848   8.885  1.00  0.00     0.006 A 
ENDBRANCH  47  61
BRANCH  48  69
ATOM     69  C   UNL     1     -10.880   7.143  14.199  1.00  0.00     0.057 A 
ATOM     70  C   UNL     1     -12.189   7.346  14.768  1.00  0.00     0.134 A 
ATOM     71  C   UNL     1      -9.987   8.166  14.541  1.00  0.00     0.134 A 
ATOM     72  F   UNL     1     -13.203   6.506  14.522  1.00  0.00    -0.206 F 
ATOM     73  C   UNL     1     -12.528   8.374  15.673  1.00  0.00     0.040 A 
ATOM     74  C   UNL     1     -10.334   9.235  15.421  1.00  0.00     0.040 A 
ATOM     75  F   UNL     1      -8.719   8.122  14.114  1.00  0.00    -0.206 F 
ATOM     76  C   UNL     1     -11.589   9.321  16.020  1.00  0.00     0.006 A 
ENDBRANCH  48  69
BRANCH  60  77
ATOM     77  C   UNL     1     -13.376   2.093  12.568  1.00  0.00     0.057 A 
ATOM     78  C   UNL     1     -13.261   3.059  11.541  1.00  0.00     0.134 A 
ATOM     79  C   UNL     1     -14.370   1.125  12.370  1.00  0.00     0.134 A 
ATOM     80  F   UNL     1     -12.290   3.982  11.518  1.00  0.00    -0.206 F 
ATOM     81  C   UNL     1     -14.138   3.099  10.447  1.00  0.00     0.040 A 
ATOM     82  C   UNL     1     -15.210   1.120  11.252  1.00  0.00     0.040 A 
ATOM     83  F   UNL     1     -14.533   0.138  13.264  1.00  0.00    -0.206 F 
ATOM     84  C   UNL     1     -15.115   2.126  10.298  1.00  0.00     0.006 A 
ENDBRANCH  60  77
ENDBRANCH  34  35
ENDBRANCH  26  29
ENDBRANCH  24  25
ENDBRANCH   1  24
TORSDOF 12
