REMARK SMILES CC(C)(C)OC(=O)N1C[C@@H](COCc2ccccc2)O[C@@H](C(=O)NCCCCNC(=O)c2ccc(-c3c4nc(c(-c5c(F)cccc5F)c5ccc([nH]5)c(-c5c(F)cccc5F)c5nc(c(-c6c(F)cccc6F)c6ccc3[nH]6)C=C5)C=C4)cc2)C1
REMARK SMILES IDX 25 1 24 2 22 3 23 4 21 6 8 7 9 8 86 9 10 10 20 11 6 12 7 13
REMARK SMILES IDX 5 14 2 15 1 16 3 17 4 18 11 19 12 20 13 21 14 22 15 23 19 24
REMARK SMILES IDX 16 25 18 26 17 27 26 28 27 29 28 30 29 31 30 32 31 34 32 35
REMARK SMILES IDX 33 36 85 37 34 38 84 39 35 40 36 41 37 42 78 43 38 44 83 45
REMARK SMILES IDX 77 46 79 47 39 48 82 49 76 50 75 51 40 53 66 54 49 55 65 56
REMARK SMILES IDX 50 57 53 58 64 59 80 60 51 61 52 62 63 64 81 65 54 66 41 67
REMARK SMILES IDX 42 68 47 69 43 70 44 71 46 72 48 73 45 74 67 75 68 76 73 77
REMARK SMILES IDX 69 78 70 79 72 80 74 81 71 82 55 83 56 84 61 85 57 86 58 87
REMARK SMILES IDX 60 88 62 89 59 90
REMARK H PARENT 24 5 29 33 79 52 53 63
REMARK Flexibility Score: inf
ROOT
ATOM      1  C   UNL     1       1.343   7.837   4.384  1.00  0.00     0.116 C 
ENDROOT
BRANCH   1   2
ATOM      2  N   UNL     1       0.218   7.375   5.178  1.00  0.00    -0.354 N 
ATOM      3  C   UNL     1      -0.277   6.109   5.324  1.00  0.00     0.251 C 
ATOM      4  O   UNL     1      -1.257   5.951   6.057  1.00  0.00    -0.272 OA
ATOM      5  H   UNL     1      -0.256   8.074   5.684  1.00  0.00     0.163 HD
BRANCH   3   6
ATOM      6  C   UNL     1       0.332   4.936   4.550  1.00  0.00     0.227 C 
ATOM      7  N   UNL     1       0.605   4.061   2.256  1.00  0.00    -0.302 N 
ATOM      8  C   UNL     1       2.043   4.040   2.475  1.00  0.00     0.157 C 
ATOM      9  C   UNL     1      -0.119   5.020   3.078  1.00  0.00     0.165 C 
ATOM     10  C   UNL     1       2.372   3.839   3.949  1.00  0.00     0.164 C 
ATOM     11  O   UNL     1       1.765   4.902   4.714  1.00  0.00    -0.359 OA
BRANCH   7  12
ATOM     12  C   UNL     1      -0.011   3.391   1.224  1.00  0.00     0.410 C 
ATOM     13  O   UNL     1      -1.124   3.671   0.807  1.00  0.00    -0.224 OA
BRANCH  12  14
ATOM     14  O   UNL     1       0.762   2.372   0.780  1.00  0.00    -0.444 OA
BRANCH  14  15
ATOM     15  C   UNL     1       0.383   1.486  -0.303  1.00  0.00     0.106 C 
ATOM     16  C   UNL     1       1.167   0.194  -0.029  1.00  0.00     0.056 C 
ATOM     17  C   UNL     1       0.864   2.108  -1.615  1.00  0.00     0.056 C 
ATOM     18  C   UNL     1      -1.109   1.143  -0.357  1.00  0.00     0.056 C 
ENDBRANCH  14  15
ENDBRANCH  12  14
ENDBRANCH   7  12
BRANCH  10  19
ATOM     19  C   UNL     1       3.888   3.785   4.237  1.00  0.00     0.194 C 
BRANCH  19  20
ATOM     20  O   UNL     1       4.691   4.792   3.612  1.00  0.00    -0.374 OA
BRANCH  20  21
ATOM     21  C   UNL     1       5.198   4.538   2.299  1.00  0.00     0.195 C 
BRANCH  21  22
ATOM     22  C   UNL     1       5.905   3.219   2.092  1.00  0.00    -0.022 A 
ATOM     23  C   UNL     1       5.237   2.129   1.510  1.00  0.00     0.006 A 
ATOM     24  C   UNL     1       7.242   3.061   2.473  1.00  0.00     0.006 A 
ATOM     25  C   UNL     1       5.880   0.904   1.338  1.00  0.00     0.000 A 
ATOM     26  C   UNL     1       7.894   1.842   2.276  1.00  0.00     0.000 A 
ATOM     27  C   UNL     1       7.211   0.762   1.718  1.00  0.00     0.000 A 
ENDBRANCH  21  22
ENDBRANCH  20  21
ENDBRANCH  19  20
ENDBRANCH  10  19
ENDBRANCH   3   6
ENDBRANCH   1   2
BRANCH   1  28
ATOM     28  C   UNL     1       0.901   8.777   3.264  1.00  0.00     0.023 C 
BRANCH  28  29
ATOM     29  C   UNL     1       0.282  10.092   3.736  1.00  0.00     0.023 C 
BRANCH  29  30
ATOM     30  C   UNL     1       1.140  10.906   4.697  1.00  0.00     0.116 C 
BRANCH  30  31
ATOM     31  N   UNL     1       2.449  11.234   4.155  1.00  0.00    -0.352 N 
ATOM     32  C   UNL     1       3.151  12.411   4.225  1.00  0.00     0.251 C 
ATOM     33  H   UNL     1       2.897  10.505   3.668  1.00  0.00     0.163 HD
ATOM     34  O   UNL     1       4.199  12.536   3.599  1.00  0.00    -0.269 OA
BRANCH  32  35
ATOM     35  C   UNL     1       2.629  13.545   5.020  1.00  0.00     0.039 A 
ATOM     36  C   UNL     1       2.681  14.825   4.463  1.00  0.00     0.014 A 
ATOM     37  C   UNL     1       2.094  13.358   6.298  1.00  0.00     0.014 A 
ATOM     38  C   UNL     1       2.139  15.906   5.160  1.00  0.00     0.010 A 
ATOM     39  C   UNL     1       1.491  14.425   6.962  1.00  0.00     0.010 A 
ATOM     40  C   UNL     1       1.508  15.709   6.399  1.00  0.00    -0.014 A 
BRANCH  40  41
ATOM     41  C   UNL     1       0.842  16.840   7.090  1.00  0.00     0.031 A 
ATOM     42  C   UNL     1       1.366  17.358   8.400  1.00  0.00     0.074 A 
ATOM     43  C   UNL     1      -0.263  17.384   6.545  1.00  0.00     0.049 A 
ATOM     44  N   UNL     1       0.934  18.362   9.121  1.00  0.00    -0.248 NA
ATOM     45  C   UNL     1       2.507  16.643   8.990  1.00  0.00     0.031 C 
ATOM     46  C   UNL     1      -0.913  16.925   5.316  1.00  0.00     0.029 A 
ATOM     47  N   UNL     1      -1.033  18.444   6.952  1.00  0.00    -0.354 N 
ATOM     48  C   UNL     1       1.744  18.395  10.248  1.00  0.00     0.074 A 
ATOM     49  C   UNL     1       2.660  17.279  10.142  1.00  0.00     0.031 C 
ATOM     50  C   UNL     1      -1.960  17.722   5.049  1.00  0.00     0.029 A 
ATOM     51  C   UNL     1      -2.068  18.732   6.096  1.00  0.00     0.049 A 
ATOM     52  H   UNL     1      -0.861  18.949   7.779  1.00  0.00     0.167 HD
ATOM     53  C   UNL     1       1.743  19.289  11.266  1.00  0.00     0.037 A 
ATOM     54  C   UNL     1      -2.991  19.710   6.143  1.00  0.00     0.037 A 
ATOM     55  C   UNL     1       0.847  20.411  11.361  1.00  0.00     0.049 A 
ATOM     56  C   UNL     1      -2.950  20.708   7.264  1.00  0.00     0.074 A 
ATOM     57  C   UNL     1       0.811  21.410  12.319  1.00  0.00     0.029 A 
ATOM     58  N   UNL     1      -0.176  20.682  10.464  1.00  0.00    -0.354 N 
ATOM     59  N   UNL     1      -2.122  20.778   8.278  1.00  0.00    -0.248 NA
ATOM     60  C   UNL     1      -3.964  21.771   7.240  1.00  0.00     0.031 C 
ATOM     61  C   UNL     1      -0.255  22.266  12.021  1.00  0.00     0.029 A 
ATOM     62  C   UNL     1      -0.859  21.823  10.856  1.00  0.00     0.049 A 
ATOM     63  H   UNL     1      -0.385  20.144   9.667  1.00  0.00     0.167 HD
ATOM     64  C   UNL     1      -2.503  21.900   9.002  1.00  0.00     0.074 A 
ATOM     65  C   UNL     1      -3.622  22.492   8.297  1.00  0.00     0.031 C 
ATOM     66  C   UNL     1      -1.975  22.395  10.148  1.00  0.00     0.037 A 
BRANCH  53  67
ATOM     67  C   UNL     1       2.755  19.092  12.356  1.00  0.00     0.057 A 
ATOM     68  C   UNL     1       4.118  19.337  12.147  1.00  0.00     0.134 A 
ATOM     69  C   UNL     1       2.361  18.684  13.636  1.00  0.00     0.134 A 
ATOM     70  F   UNL     1       4.563  19.718  10.940  1.00  0.00    -0.206 F 
ATOM     71  C   UNL     1       5.057  19.161  13.165  1.00  0.00     0.040 A 
ATOM     72  C   UNL     1       3.287  18.527  14.669  1.00  0.00     0.040 A 
ATOM     73  F   UNL     1       1.070  18.437  13.906  1.00  0.00    -0.206 F 
ATOM     74  C   UNL     1       4.641  18.761  14.433  1.00  0.00     0.006 A 
ENDBRANCH  53  67
BRANCH  54  75
ATOM     75  C   UNL     1      -4.004  19.822   5.066  1.00  0.00     0.057 A 
ATOM     76  C   UNL     1      -3.937  20.852   4.119  1.00  0.00     0.134 A 
ATOM     77  C   UNL     1      -5.059  18.910   4.956  1.00  0.00     0.134 A 
ATOM     78  F   UNL     1      -2.957  21.765   4.185  1.00  0.00    -0.206 F 
ATOM     79  C   UNL     1      -4.893  20.981   3.112  1.00  0.00     0.040 A 
ATOM     80  C   UNL     1      -6.010  19.014   3.940  1.00  0.00     0.040 A 
ATOM     81  F   UNL     1      -5.172  17.897   5.828  1.00  0.00    -0.206 F 
ATOM     82  C   UNL     1      -5.932  20.056   3.018  1.00  0.00     0.006 A 
ENDBRANCH  54  75
BRANCH  66  83
ATOM     83  C   UNL     1      -2.599  23.643  10.698  1.00  0.00     0.057 A 
ATOM     84  C   UNL     1      -3.861  23.629  11.305  1.00  0.00     0.134 A 
ATOM     85  C   UNL     1      -1.927  24.869  10.626  1.00  0.00     0.134 A 
ATOM     86  F   UNL     1      -4.561  22.487  11.391  1.00  0.00    -0.206 F 
ATOM     87  C   UNL     1      -4.446  24.797  11.796  1.00  0.00     0.040 A 
ATOM     88  C   UNL     1      -2.492  26.039  11.136  1.00  0.00     0.040 A 
ATOM     89  F   UNL     1      -0.712  24.950  10.063  1.00  0.00    -0.206 F 
ATOM     90  C   UNL     1      -3.758  26.006  11.716  1.00  0.00     0.006 A 
ENDBRANCH  66  83
ENDBRANCH  40  41
ENDBRANCH  32  35
ENDBRANCH  30  31
ENDBRANCH  29  30
ENDBRANCH  28  29
ENDBRANCH   1  28
TORSDOF 18
