REMARK SMILES C[C@@H](Oc1ccc2c(c1)OCO2)C(=O)N1CCn2nc(C(=O)NCCCCNC(=O)c3ccc(-c4c5nc(c(-c6c(F)cccc6F)c6ccc([nH]6)c(-c6c(F)cccc6F)c6nc(c(-c7c(F)cccc7F)c7ccc4[nH]7)C=C6)C=C5)cc3)cc2C1
REMARK SMILES IDX 24 1 23 2 21 3 22 4 20 6 15 7 16 8 87 9 17 10 86 11 18 12
REMARK SMILES IDX 85 13 19 14 13 15 14 16 2 17 1 18 3 19 4 20 5 21 9 22 6 23
REMARK SMILES IDX 8 24 7 25 10 26 12 27 11 28 25 29 26 30 27 31 28 32 29 33
REMARK SMILES IDX 30 35 31 36 32 37 84 38 33 39 83 40 34 41 35 42 36 43 77 44
REMARK SMILES IDX 37 45 82 46 76 47 78 48 38 49 81 50 75 51 74 52 39 54 65 55
REMARK SMILES IDX 48 56 64 57 49 58 52 59 63 60 79 61 50 62 51 63 62 65 80 66
REMARK SMILES IDX 53 67 40 68 41 69 46 70 42 71 43 72 45 73 47 74 44 75 66 76
REMARK SMILES IDX 67 77 72 78 68 79 69 80 71 81 73 82 70 83 54 84 55 85 60 86
REMARK SMILES IDX 56 87 57 88 59 89 61 90 58 91
REMARK H PARENT 23 5 28 34 78 53 52 64
REMARK Flexibility Score: inf
ROOT
ATOM      1  C   UNL     1      -7.225  -4.647  -2.135  1.00  0.00     0.116 C 
ENDROOT
BRANCH   1   2
ATOM      2  N   UNL     1      -6.898  -5.402  -0.946  1.00  0.00    -0.351 N 
ATOM      3  C   UNL     1      -5.854  -5.319  -0.050  1.00  0.00     0.271 C 
ATOM      4  O   UNL     1      -5.912  -6.102   0.903  1.00  0.00    -0.267 OA
ATOM      5  H   UNL     1      -7.546  -6.113  -0.735  1.00  0.00     0.163 HD
BRANCH   3   6
ATOM      6  C   UNL     1      -4.760  -4.332  -0.202  1.00  0.00     0.150 A 
ATOM      7  N   UNL     1      -1.541  -1.078  -0.774  1.00  0.00    -0.332 N 
ATOM      8  C   UNL     1      -1.042  -1.788   0.413  1.00  0.00     0.143 C 
ATOM      9  C   UNL     1      -2.813  -1.431  -1.385  1.00  0.00     0.175 C 
ATOM     10  C   UNL     1      -2.017  -2.654   1.206  1.00  0.00     0.166 C 
ATOM     11  C   UNL     1      -3.426  -2.644  -0.821  1.00  0.00     0.059 A 
ATOM     12  N   UNL     1      -3.093  -3.141   0.390  1.00  0.00    -0.265 N 
ATOM     13  C   UNL     1      -4.405  -3.487  -1.292  1.00  0.00     0.061 A 
ATOM     14  N   UNL     1      -3.900  -4.116   0.820  1.00  0.00    -0.167 NA
BRANCH   7  15
ATOM     15  C   UNL     1      -0.819  -0.108  -1.478  1.00  0.00     0.263 C 
ATOM     16  O   UNL     1      -1.387   0.639  -2.284  1.00  0.00    -0.271 OA
BRANCH  15  17
ATOM     17  C   UNL     1       0.709  -0.016  -1.313  1.00  0.00     0.259 C 
ATOM     18  C   UNL     1       1.118   0.503   0.060  1.00  0.00     0.064 C 
BRANCH  17  19
ATOM     19  O   UNL     1       1.199  -1.334  -1.610  1.00  0.00    -0.481 OA
BRANCH  19  20
ATOM     20  C   UNL     1       2.521  -1.381  -1.951  1.00  0.00     0.124 A 
ATOM     21  C   UNL     1       3.485  -1.425  -0.930  1.00  0.00     0.050 A 
ATOM     22  C   UNL     1       2.879  -1.569  -3.288  1.00  0.00     0.097 A 
ATOM     23  C   UNL     1       4.832  -1.605  -1.235  1.00  0.00     0.054 A 
ATOM     24  C   UNL     1       4.219  -1.766  -3.558  1.00  0.00     0.169 A 
ATOM     25  C   UNL     1       5.167  -1.778  -2.559  1.00  0.00     0.166 A 
ATOM     26  O   UNL     1       4.766  -1.995  -4.783  1.00  0.00    -0.453 OA
ATOM     27  O   UNL     1       6.421  -2.009  -3.028  1.00  0.00    -0.454 OA
ATOM     28  C   UNL     1       6.157  -2.168  -4.436  1.00  0.00     0.468 C 
ENDBRANCH  19  20
ENDBRANCH  17  19
ENDBRANCH  15  17
ENDBRANCH   7  15
ENDBRANCH   3   6
ENDBRANCH   1   2
BRANCH   1  29
ATOM     29  C   UNL     1      -6.721  -5.337  -3.407  1.00  0.00     0.023 C 
BRANCH  29  30
ATOM     30  C   UNL     1      -7.564  -6.538  -3.868  1.00  0.00     0.023 C 
BRANCH  30  31
ATOM     31  C   UNL     1      -8.992  -6.202  -4.286  1.00  0.00     0.116 C 
BRANCH  31  32
ATOM     32  N   UNL     1      -9.062  -5.273  -5.416  1.00  0.00    -0.352 N 
ATOM     33  C   UNL     1     -10.173  -4.593  -5.894  1.00  0.00     0.251 C 
ATOM     34  H   UNL     1      -8.217  -5.111  -5.895  1.00  0.00     0.163 HD
ATOM     35  O   UNL     1     -10.227  -4.181  -7.038  1.00  0.00    -0.269 OA
BRANCH  33  36
ATOM     36  C   UNL     1     -11.284  -4.346  -4.959  1.00  0.00     0.039 A 
ATOM     37  C   UNL     1     -12.623  -4.513  -5.322  1.00  0.00     0.014 A 
ATOM     38  C   UNL     1     -10.932  -3.981  -3.665  1.00  0.00     0.014 A 
ATOM     39  C   UNL     1     -13.601  -4.383  -4.337  1.00  0.00     0.010 A 
ATOM     40  C   UNL     1     -11.866  -4.043  -2.670  1.00  0.00     0.010 A 
ATOM     41  C   UNL     1     -13.208  -4.163  -3.008  1.00  0.00    -0.014 A 
BRANCH  41  42
ATOM     42  C   UNL     1     -14.165  -4.171  -1.909  1.00  0.00     0.031 A 
ATOM     43  C   UNL     1     -14.955  -5.426  -1.803  1.00  0.00     0.074 A 
ATOM     44  C   UNL     1     -14.134  -3.239  -0.929  1.00  0.00     0.049 A 
ATOM     45  N   UNL     1     -16.220  -5.583  -2.004  1.00  0.00    -0.248 NA
ATOM     46  C   UNL     1     -14.225  -6.692  -1.609  1.00  0.00     0.031 C 
ATOM     47  C   UNL     1     -13.185  -2.130  -0.755  1.00  0.00     0.029 A 
ATOM     48  N   UNL     1     -14.896  -3.147   0.194  1.00  0.00    -0.354 N 
ATOM     49  C   UNL     1     -16.486  -6.922  -1.720  1.00  0.00     0.074 A 
ATOM     50  C   UNL     1     -15.211  -7.585  -1.711  1.00  0.00     0.031 C 
ATOM     51  C   UNL     1     -13.281  -1.635   0.498  1.00  0.00     0.029 A 
ATOM     52  C   UNL     1     -14.412  -2.261   1.154  1.00  0.00     0.049 A 
ATOM     53  H   UNL     1     -15.724  -3.666   0.319  1.00  0.00     0.167 HD
ATOM     54  C   UNL     1     -17.700  -7.295  -1.224  1.00  0.00     0.037 A 
ATOM     55  C   UNL     1     -14.904  -2.068   2.403  1.00  0.00     0.037 A 
ATOM     56  C   UNL     1     -18.680  -6.256  -1.453  1.00  0.00     0.049 A 
ATOM     57  C   UNL     1     -16.290  -2.596   2.410  1.00  0.00     0.074 A 
ATOM     58  C   UNL     1     -19.186  -5.613  -2.567  1.00  0.00     0.029 A 
ATOM     59  N   UNL     1     -19.011  -5.457  -0.386  1.00  0.00    -0.354 N 
ATOM     60  N   UNL     1     -17.266  -2.064   1.728  1.00  0.00    -0.248 NA
ATOM     61  C   UNL     1     -16.470  -3.991   2.779  1.00  0.00     0.031 C 
ATOM     62  C   UNL     1     -19.347  -4.252  -2.165  1.00  0.00     0.029 A 
ATOM     63  C   UNL     1     -19.010  -4.157  -0.815  1.00  0.00     0.049 A 
ATOM     64  H   UNL     1     -19.214  -5.765   0.527  1.00  0.00     0.167 HD
ATOM     65  C   UNL     1     -17.961  -3.145   1.206  1.00  0.00     0.074 A 
ATOM     66  C   UNL     1     -17.472  -4.305   1.952  1.00  0.00     0.031 C 
ATOM     67  C   UNL     1     -18.638  -3.040   0.023  1.00  0.00     0.037 A 
BRANCH  54  68
ATOM     68  C   UNL     1     -17.899  -8.350  -0.148  1.00  0.00     0.057 A 
ATOM     69  C   UNL     1     -19.209  -8.601   0.307  1.00  0.00     0.134 A 
ATOM     70  C   UNL     1     -16.882  -8.879   0.673  1.00  0.00     0.134 A 
ATOM     71  F   UNL     1     -20.275  -8.182  -0.393  1.00  0.00    -0.206 F 
ATOM     72  C   UNL     1     -19.478  -9.197   1.545  1.00  0.00     0.040 A 
ATOM     73  C   UNL     1     -17.142  -9.517   1.890  1.00  0.00     0.040 A 
ATOM     74  F   UNL     1     -15.580  -8.740   0.407  1.00  0.00    -0.206 F 
ATOM     75  C   UNL     1     -18.440  -9.639   2.353  1.00  0.00     0.006 A 
ENDBRANCH  54  68
BRANCH  55  76
ATOM     76  C   UNL     1     -14.173  -1.744   3.650  1.00  0.00     0.057 A 
ATOM     77  C   UNL     1     -14.839  -1.261   4.785  1.00  0.00     0.134 A 
ATOM     78  C   UNL     1     -12.847  -2.170   3.848  1.00  0.00     0.134 A 
ATOM     79  F   UNL     1     -16.120  -0.874   4.708  1.00  0.00    -0.206 F 
ATOM     80  C   UNL     1     -14.230  -1.221   6.048  1.00  0.00     0.040 A 
ATOM     81  C   UNL     1     -12.226  -2.134   5.102  1.00  0.00     0.040 A 
ATOM     82  F   UNL     1     -12.142  -2.720   2.849  1.00  0.00    -0.206 F 
ATOM     83  C   UNL     1     -12.922  -1.670   6.211  1.00  0.00     0.006 A 
ENDBRANCH  55  76
BRANCH  67  84
ATOM     84  C   UNL     1     -18.811  -1.665  -0.567  1.00  0.00     0.057 A 
ATOM     85  C   UNL     1     -17.756  -0.868  -1.039  1.00  0.00     0.134 A 
ATOM     86  C   UNL     1     -20.106  -1.198  -0.808  1.00  0.00     0.134 A 
ATOM     87  F   UNL     1     -16.484  -1.271  -0.941  1.00  0.00    -0.206 F 
ATOM     88  C   UNL     1     -17.979   0.352  -1.686  1.00  0.00     0.040 A 
ATOM     89  C   UNL     1     -20.345   0.003  -1.480  1.00  0.00     0.040 A 
ATOM     90  F   UNL     1     -21.167  -1.931  -0.436  1.00  0.00    -0.206 F 
ATOM     91  C   UNL     1     -19.279   0.788  -1.915  1.00  0.00     0.006 A 
ENDBRANCH  67  84
ENDBRANCH  41  42
ENDBRANCH  33  36
ENDBRANCH  31  32
ENDBRANCH  30  31
ENDBRANCH  29  30
ENDBRANCH   1  29
TORSDOF 15
