REMARK SMILES CCc1ncc(S(=O)(=O)NCc2ccc(C(=O)NCCCCNC(=O)c3ccc(-c4c5nc(c(-c6c(F)cccc6F)c6ccc([nH]6)c(-c6c(F)cccc6F)c6nc(c(-c7c(F)cccc7F)c7ccc4[nH]7)C=C6)C=C5)cc3)o2)[nH]1
REMARK SMILES IDX 19 1 18 2 16 3 17 4 15 6 12 7 13 8 80 9 14 10 11 11 10 12
REMARK SMILES IDX 7 14 8 15 9 16 6 17 3 18 4 19 81 20 5 21 2 23 1 24 20 25
REMARK SMILES IDX 21 26 22 27 23 28 24 29 25 31 26 32 27 33 79 34 28 35 78 36
REMARK SMILES IDX 29 37 30 38 31 39 72 40 32 41 77 42 71 43 73 44 33 45 76 46
REMARK SMILES IDX 70 47 69 48 34 50 60 51 43 52 59 53 44 54 47 55 58 56 74 57
REMARK SMILES IDX 45 58 46 59 57 61 75 62 48 63 35 64 36 65 41 66 37 67 38 68
REMARK SMILES IDX 40 69 42 70 39 71 61 72 62 73 67 74 63 75 64 76 66 77 68 78
REMARK SMILES IDX 65 79 49 80 50 81 55 82 51 83 52 84 54 85 56 86 53 87
REMARK H PARENT 18 5 10 13 81 22 23 30 73 49 47 60
REMARK Flexibility Score: inf
ROOT
ATOM      1  C   UNL     1      -0.406  -2.866 -11.090  1.00  0.00     0.116 C 
ENDROOT
BRANCH   1   2
ATOM      2  N   UNL     1      -0.112  -1.919 -10.040  1.00  0.00    -0.349 N 
ATOM      3  C   UNL     1       0.074  -2.103  -8.691  1.00  0.00     0.286 C 
ATOM      4  O   UNL     1       0.258  -1.073  -8.037  1.00  0.00    -0.266 OA
ATOM      5  H   UNL     1      -0.032  -0.986 -10.341  1.00  0.00     0.163 HD
BRANCH   3   6
ATOM      6  C   UNL     1       0.075  -3.430  -8.099  1.00  0.00     0.191 A 
ATOM      7  C   UNL     1       0.659  -4.836  -6.489  1.00  0.00     0.119 A 
ATOM      8  C   UNL     1       0.002  -5.589  -7.434  1.00  0.00     0.048 A 
ATOM      9  O   UNL     1       0.678  -3.536  -6.873  1.00  0.00    -0.455 OA
ATOM     10  C   UNL     1      -0.405  -4.683  -8.446  1.00  0.00     0.056 A 
BRANCH   7  11
ATOM     11  C   UNL     1       1.246  -5.143  -5.167  1.00  0.00     0.174 C 
BRANCH  11  12
ATOM     12  N   UNL     1       2.666  -4.787  -5.079  1.00  0.00    -0.202 NA
ATOM     13  H   UNL     1       3.091  -5.433  -4.414  1.00  0.00     0.141 HD
BRANCH  12  14
ATOM     14  S   UNL     1       3.115  -3.241  -4.607  1.00  0.00     0.258 S 
ATOM     15  O   UNL     1       2.844  -2.309  -5.667  1.00  0.00    -0.205 OA
ATOM     16  O   UNL     1       4.448  -3.349  -4.049  1.00  0.00    -0.205 OA
BRANCH  14  17
ATOM     17  C   UNL     1       2.127  -2.702  -3.272  1.00  0.00     0.167 A 
ATOM     18  C   UNL     1       1.061  -1.257  -1.958  1.00  0.00     0.106 A 
ATOM     19  N   UNL     1       0.846  -2.439  -1.418  1.00  0.00    -0.240 NA
ATOM     20  N   UNL     1       1.796  -1.377  -3.110  1.00  0.00    -0.332 N 
ATOM     21  C   UNL     1       1.528  -3.329  -2.203  1.00  0.00     0.153 A 
ATOM     22  H   UNL     1       2.045  -0.642  -3.716  1.00  0.00     0.169 HD
BRANCH  18  23
ATOM     23  C   UNL     1       0.613   0.058  -1.416  1.00  0.00     0.072 C 
ATOM     24  C   UNL     1       1.041   0.222   0.036  1.00  0.00     0.012 C 
ENDBRANCH  18  23
ENDBRANCH  14  17
ENDBRANCH  12  14
ENDBRANCH  11  12
ENDBRANCH   7  11
ENDBRANCH   3   6
ENDBRANCH   1   2
BRANCH   1  25
ATOM     25  C   UNL     1      -1.913  -2.938 -11.332  1.00  0.00     0.023 C 
BRANCH  25  26
ATOM     26  C   UNL     1      -2.455  -1.773 -12.168  1.00  0.00     0.023 C 
BRANCH  26  27
ATOM     27  C   UNL     1      -1.869  -1.665 -13.573  1.00  0.00     0.116 C 
BRANCH  27  28
ATOM     28  N   UNL     1      -2.010  -2.887 -14.350  1.00  0.00    -0.352 N 
ATOM     29  C   UNL     1      -2.190  -3.024 -15.704  1.00  0.00     0.251 C 
ATOM     30  H   UNL     1      -1.972  -3.727 -13.837  1.00  0.00     0.163 HD
ATOM     31  O   UNL     1      -2.400  -4.127 -16.197  1.00  0.00    -0.269 OA
BRANCH  29  32
ATOM     32  C   UNL     1      -2.169  -1.820 -16.555  1.00  0.00     0.039 A 
ATOM     33  C   UNL     1      -3.232  -1.600 -17.434  1.00  0.00     0.014 A 
ATOM     34  C   UNL     1      -1.128  -0.894 -16.451  1.00  0.00     0.014 A 
ATOM     35  C   UNL     1      -3.285  -0.412 -18.163  1.00  0.00     0.010 A 
ATOM     36  C   UNL     1      -1.216   0.317 -17.128  1.00  0.00     0.010 A 
ATOM     37  C   UNL     1      -2.297   0.571 -17.986  1.00  0.00    -0.014 A 
BRANCH  37  38
ATOM     38  C   UNL     1      -2.383   1.879 -18.679  1.00  0.00     0.031 A 
ATOM     39  C   UNL     1      -1.345   2.262 -19.694  1.00  0.00     0.074 A 
ATOM     40  C   UNL     1      -3.355   2.747 -18.339  1.00  0.00     0.049 A 
ATOM     41  N   UNL     1      -1.202   3.389 -20.344  1.00  0.00    -0.248 NA
ATOM     42  C   UNL     1      -0.316   1.256 -19.999  1.00  0.00     0.031 C 
ATOM     43  C   UNL     1      -4.392   2.508 -17.332  1.00  0.00     0.029 A 
ATOM     44  N   UNL     1      -3.620   4.014 -18.794  1.00  0.00    -0.354 N 
ATOM     45  C   UNL     1      -0.062   3.233 -21.121  1.00  0.00     0.074 A 
ATOM     46  C   UNL     1       0.477   1.923 -20.825  1.00  0.00     0.031 C 
ATOM     47  C   UNL     1      -5.191   3.584 -17.261  1.00  0.00     0.029 A 
ATOM     48  C   UNL     1      -4.704   4.601 -18.188  1.00  0.00     0.049 A 
ATOM     49  H   UNL     1      -3.085   4.459 -19.490  1.00  0.00     0.167 HD
ATOM     50  C   UNL     1       0.473   4.095 -22.017  1.00  0.00     0.037 A 
ATOM     51  C   UNL     1      -5.238   5.825 -18.355  1.00  0.00     0.037 A 
ATOM     52  C   UNL     1      -0.080   5.386 -22.328  1.00  0.00     0.049 A 
ATOM     53  C   UNL     1      -4.622   6.764 -19.354  1.00  0.00     0.074 A 
ATOM     54  C   UNL     1       0.354   6.309 -23.264  1.00  0.00     0.029 A 
ATOM     55  N   UNL     1      -1.190   5.939 -21.707  1.00  0.00    -0.354 N 
ATOM     56  N   UNL     1      -3.582   6.579 -20.130  1.00  0.00    -0.248 NA
ATOM     57  C   UNL     1      -5.256   8.082 -19.503  1.00  0.00     0.031 C 
ATOM     58  C   UNL     1      -0.470   7.435 -23.183  1.00  0.00     0.029 A 
ATOM     59  C   UNL     1      -1.444   7.197 -22.226  1.00  0.00     0.049 A 
ATOM     60  H   UNL     1      -1.719   5.501 -21.001  1.00  0.00     0.167 HD
ATOM     61  C   UNL     1      -3.452   7.743 -20.877  1.00  0.00     0.074 A 
ATOM     62  C   UNL     1      -4.529   8.622 -20.470  1.00  0.00     0.031 C 
ATOM     63  C   UNL     1      -2.525   8.056 -21.814  1.00  0.00     0.037 A 
BRANCH  50  64
ATOM     64  C   UNL     1       1.720   3.662 -22.732  1.00  0.00     0.057 A 
ATOM     65  C   UNL     1       1.699   2.653 -23.704  1.00  0.00     0.134 A 
ATOM     66  C   UNL     1       2.948   4.280 -22.468  1.00  0.00     0.134 A 
ATOM     67  F   UNL     1       0.556   2.012 -23.994  1.00  0.00    -0.206 F 
ATOM     68  C   UNL     1       2.859   2.258 -24.371  1.00  0.00     0.040 A 
ATOM     69  C   UNL     1       4.111   3.911 -23.147  1.00  0.00     0.040 A 
ATOM     70  F   UNL     1       3.038   5.256 -21.552  1.00  0.00    -0.206 F 
ATOM     71  C   UNL     1       4.069   2.893 -24.097  1.00  0.00     0.006 A 
ENDBRANCH  50  64
BRANCH  51  72
ATOM     72  C   UNL     1      -6.435   6.228 -17.576  1.00  0.00     0.057 A 
ATOM     73  C   UNL     1      -7.681   6.376 -18.195  1.00  0.00     0.134 A 
ATOM     74  C   UNL     1      -6.362   6.487 -16.202  1.00  0.00     0.134 A 
ATOM     75  F   UNL     1      -7.809   6.160 -19.512  1.00  0.00    -0.206 F 
ATOM     76  C   UNL     1      -8.809   6.786 -17.482  1.00  0.00     0.040 A 
ATOM     77  C   UNL     1      -7.486   6.874 -15.471  1.00  0.00     0.040 A 
ATOM     78  F   UNL     1      -5.198   6.355 -15.549  1.00  0.00    -0.206 F 
ATOM     79  C   UNL     1      -8.713   7.032 -16.113  1.00  0.00     0.006 A 
ENDBRANCH  51  72
BRANCH  63  80
ATOM     80  C   UNL     1      -2.653   9.391 -22.484  1.00  0.00     0.057 A 
ATOM     81  C   UNL     1      -2.336  10.583 -21.821  1.00  0.00     0.134 A 
ATOM     82  C   UNL     1      -3.064   9.481 -23.820  1.00  0.00     0.134 A 
ATOM     83  F   UNL     1      -1.950  10.565 -20.537  1.00  0.00    -0.206 F 
ATOM     84  C   UNL     1      -2.443  11.821 -22.458  1.00  0.00     0.040 A 
ATOM     85  C   UNL     1      -3.151  10.710 -24.475  1.00  0.00     0.040 A 
ATOM     86  F   UNL     1      -3.375   8.376 -24.513  1.00  0.00    -0.206 F 
ATOM     87  C   UNL     1      -2.845  11.885 -23.791  1.00  0.00     0.006 A 
ENDBRANCH  63  80
ENDBRANCH  37  38
ENDBRANCH  29  32
ENDBRANCH  27  28
ENDBRANCH  26  27
ENDBRANCH  25  26
ENDBRANCH   1  25
TORSDOF 16
