REMARK SMILES CC(=O)N[C@@H]1[C@H](Oc2ccc(C)c(C)c2)O[C@H]2COC(C)(C)O[C@@H]2[C@H]1O[C@@H](C)C(=O)NCCCCNC(=O)c1ccc(-c2c3nc(c(-c4c(F)cccc4F)c4ccc([nH]4)c(-c4c(F)cccc4F)c4nc(c(-c5c(F)cccc5F)c5ccc2[nH]5)C=C4)C=C3)cc1
REMARK SMILES IDX 32 1 31 2 29 3 30 4 27 6 28 7 26 8 25 9 5 10 6 11 16 12
REMARK SMILES IDX 24 13 17 14 23 15 18 16 20 17 19 18 21 19 22 20 4 21 1 22
REMARK SMILES IDX 2 23 3 24 7 26 8 27 9 28 15 29 10 30 13 31 11 32 14 33 12 34
REMARK SMILES IDX 33 35 34 36 35 37 36 38 37 39 38 41 39 42 40 43 92 44 41 45
REMARK SMILES IDX 91 46 42 47 43 48 44 49 85 50 45 51 90 52 84 53 86 54 46 55
REMARK SMILES IDX 89 56 83 57 82 58 47 60 73 61 56 62 72 63 57 64 60 65 71 66
REMARK SMILES IDX 87 67 58 68 59 69 70 71 88 72 61 73 48 74 49 75 54 76 50 77
REMARK SMILES IDX 51 78 53 79 55 80 52 81 74 82 75 83 80 84 76 85 77 86 79 87
REMARK SMILES IDX 81 88 78 89 62 90 63 91 68 92 64 93 65 94 67 95 69 96 66 97
REMARK H PARENT 31 5 4 25 36 40 86 59 60 70
REMARK Flexibility Score: inf
ROOT
ATOM      1  C   UNL     1      -0.381   0.461  -3.964  1.00  0.00     0.116 C 
ENDROOT
BRANCH   1   2
ATOM      2  N   UNL     1      -0.387  -0.961  -3.624  1.00  0.00    -0.354 N 
ATOM      3  C   UNL     1       0.075  -1.737  -2.613  1.00  0.00     0.248 C 
ATOM      4  O   UNL     1       0.184  -2.939  -2.892  1.00  0.00    -0.272 OA
ATOM      5  H   UNL     1      -0.848  -1.496  -4.310  1.00  0.00     0.163 HD
BRANCH   3   6
ATOM      6  C   UNL     1       0.403  -1.266  -1.160  1.00  0.00     0.204 C 
ATOM      7  C   UNL     1      -0.739  -0.476  -0.534  1.00  0.00     0.049 C 
BRANCH   6   8
ATOM      8  O   UNL     1       1.716  -0.987  -0.690  1.00  0.00    -0.360 OA
BRANCH   8   9
ATOM      9  C   UNL     1       2.418   0.268  -0.811  1.00  0.00     0.179 C 
ATOM     10  C   UNL     1       2.686   0.614  -2.287  1.00  0.00     0.182 C 
ATOM     11  C   UNL     1       3.031   2.103  -2.550  1.00  0.00     0.333 C 
ATOM     12  O   UNL     1       2.234   3.006  -1.752  1.00  0.00    -0.332 OA
ATOM     13  C   UNL     1       1.806   1.400   0.031  1.00  0.00     0.184 C 
ATOM     14  C   UNL     1       2.341   2.764  -0.356  1.00  0.00     0.180 C 
ATOM     15  O   UNL     1       2.088   1.182   1.418  1.00  0.00    -0.342 OA
ATOM     16  C   UNL     1       1.539   3.766   0.469  1.00  0.00     0.198 C 
ATOM     17  C   UNL     1       1.572   2.193   2.295  1.00  0.00     0.163 C 
ATOM     18  O   UNL     1       1.787   3.538   1.854  1.00  0.00    -0.348 OA
ATOM     19  C   UNL     1       2.374   2.064   3.594  1.00  0.00     0.075 C 
ATOM     20  C   UNL     1       0.095   1.939   2.595  1.00  0.00     0.075 C 
BRANCH  10  21
ATOM     21  N   UNL     1       3.344  -0.517  -2.983  1.00  0.00    -0.345 N 
ATOM     22  C   UNL     1       5.130   0.267  -4.526  1.00  0.00     0.114 C 
ATOM     23  C   UNL     1       4.001  -0.645  -4.164  1.00  0.00     0.217 C 
ATOM     24  O   UNL     1       3.716  -1.604  -4.883  1.00  0.00    -0.275 OA
ATOM     25  H   UNL     1       3.294  -1.361  -2.478  1.00  0.00     0.164 HD
ENDBRANCH  10  21
BRANCH  11  26
ATOM     26  O   UNL     1       4.385   2.483  -2.796  1.00  0.00    -0.463 OA
BRANCH  26  27
ATOM     27  C   UNL     1       5.172   2.572  -1.702  1.00  0.00     0.123 A 
ATOM     28  C   UNL     1       5.634   1.430  -1.070  1.00  0.00     0.047 A 
ATOM     29  C   UNL     1       5.507   3.839  -1.235  1.00  0.00     0.050 A 
ATOM     30  C   UNL     1       6.300   1.550   0.138  1.00  0.00     0.007 A 
ATOM     31  C   UNL     1       6.197   3.975  -0.025  1.00  0.00    -0.045 A 
ATOM     32  C   UNL     1       6.540   2.814   0.699  1.00  0.00    -0.048 A 
ATOM     33  C   UNL     1       6.485   5.368   0.459  1.00  0.00     0.045 C 
ATOM     34  C   UNL     1       7.164   2.871   2.061  1.00  0.00     0.044 C 
ENDBRANCH  26  27
ENDBRANCH  11  26
ENDBRANCH   8   9
ENDBRANCH   6   8
ENDBRANCH   3   6
ENDBRANCH   1   2
BRANCH   1  35
ATOM     35  C   UNL     1       0.537   0.636  -5.189  1.00  0.00     0.023 C 
BRANCH  35  36
ATOM     36  C   UNL     1       0.956   2.031  -5.657  1.00  0.00     0.023 C 
BRANCH  36  37
ATOM     37  C   UNL     1      -0.017   3.162  -5.386  1.00  0.00     0.116 C 
BRANCH  37  38
ATOM     38  N   UNL     1       0.539   4.259  -4.598  1.00  0.00    -0.352 N 
ATOM     39  C   UNL     1       0.561   5.617  -4.872  1.00  0.00     0.251 C 
ATOM     40  H   UNL     1       0.961   3.995  -3.748  1.00  0.00     0.163 HD
ATOM     41  O   UNL     1       1.096   6.398  -4.101  1.00  0.00    -0.269 OA
BRANCH  39  42
ATOM     42  C   UNL     1      -0.012   6.109  -6.149  1.00  0.00     0.039 A 
ATOM     43  C   UNL     1       0.729   6.993  -6.935  1.00  0.00     0.014 A 
ATOM     44  C   UNL     1      -1.217   5.600  -6.625  1.00  0.00     0.014 A 
ATOM     45  C   UNL     1       0.328   7.246  -8.251  1.00  0.00     0.010 A 
ATOM     46  C   UNL     1      -1.520   5.720  -7.975  1.00  0.00     0.010 A 
ATOM     47  C   UNL     1      -0.755   6.545  -8.811  1.00  0.00    -0.014 A 
BRANCH  47  48
ATOM     48  C   UNL     1      -1.098   6.657 -10.256  1.00  0.00     0.031 A 
ATOM     49  C   UNL     1      -2.493   7.049 -10.678  1.00  0.00     0.074 A 
ATOM     50  C   UNL     1      -0.183   6.337 -11.196  1.00  0.00     0.049 A 
ATOM     51  N   UNL     1      -3.000   7.138 -11.883  1.00  0.00    -0.248 NA
ATOM     52  C   UNL     1      -3.464   7.329  -9.607  1.00  0.00     0.031 C 
ATOM     53  C   UNL     1       1.173   5.842 -10.936  1.00  0.00     0.029 A 
ATOM     54  N   UNL     1      -0.252   6.385 -12.567  1.00  0.00    -0.354 N 
ATOM     55  C   UNL     1      -4.340   7.459 -11.706  1.00  0.00     0.074 A 
ATOM     56  C   UNL     1      -4.593   7.459 -10.284  1.00  0.00     0.031 C 
ATOM     57  C   UNL     1       1.822   5.693 -12.102  1.00  0.00     0.029 A 
ATOM     58  C   UNL     1       0.924   6.046 -13.195  1.00  0.00     0.049 A 
ATOM     59  H   UNL     1      -1.069   6.638 -13.056  1.00  0.00     0.167 HD
ATOM     60  C   UNL     1      -5.271   7.779 -12.636  1.00  0.00     0.037 A 
ATOM     61  C   UNL     1       1.245   6.038 -14.503  1.00  0.00     0.037 A 
ATOM     62  C   UNL     1      -5.010   7.845 -14.047  1.00  0.00     0.049 A 
ATOM     63  C   UNL     1       0.210   6.456 -15.512  1.00  0.00     0.074 A 
ATOM     64  C   UNL     1      -5.869   8.214 -15.068  1.00  0.00     0.029 A 
ATOM     65  N   UNL     1      -3.789   7.555 -14.634  1.00  0.00    -0.354 N 
ATOM     66  N   UNL     1      -1.031   6.829 -15.319  1.00  0.00    -0.248 NA
ATOM     67  C   UNL     1       0.628   6.466 -16.922  1.00  0.00     0.031 C 
ATOM     68  C   UNL     1      -5.169   8.132 -16.277  1.00  0.00     0.029 A 
ATOM     69  C   UNL     1      -3.869   7.742 -16.003  1.00  0.00     0.049 A 
ATOM     70  H   UNL     1      -2.984   7.260 -14.149  1.00  0.00     0.167 HD
ATOM     71  C   UNL     1      -1.532   7.144 -16.575  1.00  0.00     0.074 A 
ATOM     72  C   UNL     1      -0.454   6.942 -17.520  1.00  0.00     0.031 C 
ATOM     73  C   UNL     1      -2.776   7.556 -16.920  1.00  0.00     0.037 A 
BRANCH  60  74
ATOM     74  C   UNL     1      -6.643   8.134 -12.143  1.00  0.00     0.057 A 
ATOM     75  C   UNL     1      -6.882   9.328 -11.447  1.00  0.00     0.134 A 
ATOM     76  C   UNL     1      -7.737   7.296 -12.382  1.00  0.00     0.134 A 
ATOM     77  F   UNL     1      -5.872  10.167 -11.170  1.00  0.00    -0.206 F 
ATOM     78  C   UNL     1      -8.155   9.662 -10.984  1.00  0.00     0.040 A 
ATOM     79  C   UNL     1      -9.021   7.633 -11.947  1.00  0.00     0.040 A 
ATOM     80  F   UNL     1      -7.580   6.140 -13.044  1.00  0.00    -0.206 F 
ATOM     81  C   UNL     1      -9.231   8.816 -11.241  1.00  0.00     0.006 A 
ENDBRANCH  60  74
BRANCH  61  82
ATOM     82  C   UNL     1       2.617   5.674 -14.946  1.00  0.00     0.057 A 
ATOM     83  C   UNL     1       3.476   6.639 -15.488  1.00  0.00     0.134 A 
ATOM     84  C   UNL     1       3.086   4.358 -14.886  1.00  0.00     0.134 A 
ATOM     85  F   UNL     1       3.077   7.916 -15.590  1.00  0.00    -0.206 F 
ATOM     86  C   UNL     1       4.735   6.303 -15.988  1.00  0.00     0.040 A 
ATOM     87  C   UNL     1       4.354   4.011 -15.358  1.00  0.00     0.040 A 
ATOM     88  F   UNL     1       2.317   3.388 -14.370  1.00  0.00    -0.206 F 
ATOM     89  C   UNL     1       5.177   4.984 -15.923  1.00  0.00     0.006 A 
ENDBRANCH  61  82
BRANCH  73  90
ATOM     90  C   UNL     1      -3.019   7.852 -18.369  1.00  0.00     0.057 A 
ATOM     91  C   UNL     1      -3.116   6.832 -19.324  1.00  0.00     0.134 A 
ATOM     92  C   UNL     1      -3.179   9.171 -18.809  1.00  0.00     0.134 A 
ATOM     93  F   UNL     1      -2.959   5.548 -18.965  1.00  0.00    -0.206 F 
ATOM     94  C   UNL     1      -3.336   7.116 -20.672  1.00  0.00     0.040 A 
ATOM     95  C   UNL     1      -3.425   9.466 -20.150  1.00  0.00     0.040 A 
ATOM     96  F   UNL     1      -3.107  10.193 -17.942  1.00  0.00    -0.206 F 
ATOM     97  C   UNL     1      -3.496   8.437 -21.087  1.00  0.00     0.006 A 
ENDBRANCH  73  90
ENDBRANCH  47  48
ENDBRANCH  39  42
ENDBRANCH  37  38
ENDBRANCH  36  37
ENDBRANCH  35  36
ENDBRANCH   1  35
TORSDOF 16
