REMARK SMILES [NH3+]Cc1ccc(C(=O)N2[C@@H](C(=O)NCCCCNC(=O)c3ccc(-c4c5nc(c(-c6c(F)cccc6F)c6ccc([nH]6)c(-c6c(F)cccc6F)c6nc(c(-c7c(F)cccc7F)c7ccc4[nH]7)C=C6)C=C5)cc3)C[C@H]3CCCC[C@@H]32)o1
REMARK SMILES IDX 14 1 13 2 11 3 12 4 10 6 9 7 81 8 75 9 76 10 80 11 77 12
REMARK SMILES IDX 79 13 78 14 7 15 8 16 6 17 3 18 4 19 82 20 5 21 2 22 1 23
REMARK SMILES IDX 15 27 16 28 17 29 18 30 19 31 20 33 21 34 22 35 74 36 23 37
REMARK SMILES IDX 73 38 24 39 25 40 26 41 67 42 27 43 72 44 66 45 68 46 28 47
REMARK SMILES IDX 71 48 65 49 64 50 29 52 55 53 38 54 54 55 39 56 42 57 53 58
REMARK SMILES IDX 69 59 40 60 41 61 52 63 70 64 43 65 30 66 31 67 36 68 32 69
REMARK SMILES IDX 33 70 35 71 37 72 34 73 56 74 57 75 62 76 58 77 59 78 61 79
REMARK SMILES IDX 63 80 60 81 44 82 45 83 50 84 46 85 47 86 49 87 51 88 48 89
REMARK H PARENT 13 5 1 24 1 25 1 26 18 32 68 51 42 62
REMARK Flexibility Score: inf
ROOT
ATOM      1  C   UNL     1      -0.400  -0.749   8.182  1.00  0.00     0.116 C 
ENDROOT
BRANCH   1   2
ATOM      2  N   UNL     1      -0.355  -2.116   7.699  1.00  0.00    -0.354 N 
ATOM      3  C   UNL     1       0.652  -2.779   7.054  1.00  0.00     0.242 C 
ATOM      4  O   UNL     1       0.443  -3.947   6.725  1.00  0.00    -0.273 OA
ATOM      5  H   UNL     1      -1.170  -2.645   7.859  1.00  0.00     0.163 HD
BRANCH   3   6
ATOM      6  C   UNL     1       2.017  -2.077   6.852  1.00  0.00     0.175 C 
ATOM      7  N   UNL     1       2.868  -2.804   5.883  1.00  0.00    -0.321 N 
ATOM      8  C   UNL     1       3.907  -3.533   6.596  1.00  0.00     0.089 C 
ATOM      9  C   UNL     1       2.794  -2.151   8.192  1.00  0.00     0.041 C 
ATOM     10  C   UNL     1       4.191  -2.570   7.756  1.00  0.00     0.014 C 
ATOM     11  C   UNL     1       5.229  -3.846   5.893  1.00  0.00     0.025 C 
ATOM     12  C   UNL     1       5.093  -3.196   8.806  1.00  0.00     0.006 C 
ATOM     13  C   UNL     1       6.226  -4.451   6.894  1.00  0.00     0.002 C 
ATOM     14  C   UNL     1       6.421  -3.590   8.149  1.00  0.00     0.000 C 
BRANCH   7  15
ATOM     15  C   UNL     1       2.596  -2.998   4.527  1.00  0.00     0.290 C 
ATOM     16  O   UNL     1       3.081  -3.953   3.924  1.00  0.00    -0.265 OA
BRANCH  15  17
ATOM     17  C   UNL     1       1.788  -1.998   3.834  1.00  0.00     0.192 A 
ATOM     18  C   UNL     1       0.470  -1.306   2.190  1.00  0.00     0.159 A 
ATOM     19  C   UNL     1       0.803  -0.182   2.916  1.00  0.00     0.052 A 
ATOM     20  O   UNL     1       1.060  -2.405   2.741  1.00  0.00    -0.450 OA
ATOM     21  C   UNL     1       1.666  -0.622   3.951  1.00  0.00     0.057 A 
BRANCH  18  22
ATOM     22  C   UNL     1      -0.334  -1.518   0.953  1.00  0.00     0.335 C 
BRANCH  22  23
ATOM     23  N   UNL     1       0.324  -0.896  -0.204  1.00  0.00    -0.351 N 
ATOM     24  H   UNL     1      -0.240  -1.051  -1.040  1.00  0.00     0.344 HD
ATOM     25  H   UNL     1       1.246  -1.311  -0.335  1.00  0.00     0.344 HD
ATOM     26  H   UNL     1       0.421   0.106  -0.041  1.00  0.00     0.344 HD
ENDBRANCH  22  23
ENDBRANCH  18  22
ENDBRANCH  15  17
ENDBRANCH   7  15
ENDBRANCH   3   6
ENDBRANCH   1   2
BRANCH   1  27
ATOM     27  C   UNL     1      -1.331   0.118   7.334  1.00  0.00     0.023 C 
BRANCH  27  28
ATOM     28  C   UNL     1      -2.823  -0.247   7.422  1.00  0.00     0.023 C 
BRANCH  28  29
ATOM     29  C   UNL     1      -3.447  -0.174   8.820  1.00  0.00     0.116 C 
BRANCH  29  30
ATOM     30  N   UNL     1      -3.367   1.156   9.402  1.00  0.00    -0.352 N 
ATOM     31  C   UNL     1      -4.214   1.767  10.294  1.00  0.00     0.251 C 
ATOM     32  H   UNL     1      -2.595   1.696   9.116  1.00  0.00     0.163 HD
ATOM     33  O   UNL     1      -4.042   2.947  10.585  1.00  0.00    -0.269 OA
BRANCH  31  34
ATOM     34  C   UNL     1      -5.354   1.028  10.882  1.00  0.00     0.039 A 
ATOM     35  C   UNL     1      -6.614   1.639  10.872  1.00  0.00     0.014 A 
ATOM     36  C   UNL     1      -5.184  -0.221  11.489  1.00  0.00     0.014 A 
ATOM     37  C   UNL     1      -7.717   0.978  11.419  1.00  0.00     0.010 A 
ATOM     38  C   UNL     1      -6.288  -0.887  12.028  1.00  0.00     0.010 A 
ATOM     39  C   UNL     1      -7.562  -0.297  11.984  1.00  0.00    -0.014 A 
BRANCH  39  40
ATOM     40  C   UNL     1      -8.734  -1.048  12.489  1.00  0.00     0.031 A 
ATOM     41  C   UNL     1      -9.059  -1.074  13.952  1.00  0.00     0.074 A 
ATOM     42  C   UNL     1      -9.478  -1.758  11.622  1.00  0.00     0.049 A 
ATOM     43  N   UNL     1      -9.996  -1.743  14.574  1.00  0.00    -0.248 NA
ATOM     44  C   UNL     1      -8.221  -0.244  14.830  1.00  0.00     0.031 C 
ATOM     45  C   UNL     1      -9.262  -1.823  10.176  1.00  0.00     0.029 A 
ATOM     46  N   UNL     1     -10.556  -2.578  11.839  1.00  0.00    -0.354 N 
ATOM     47  C   UNL     1      -9.855  -1.429  15.918  1.00  0.00     0.074 A 
ATOM     48  C   UNL     1      -8.743  -0.506  16.022  1.00  0.00     0.031 C 
ATOM     49  C   UNL     1     -10.171  -2.651   9.636  1.00  0.00     0.029 A 
ATOM     50  C   UNL     1     -11.018  -3.187  10.699  1.00  0.00     0.049 A 
ATOM     51  H   UNL     1     -10.959  -2.716  12.726  1.00  0.00     0.167 HD
ATOM     52  C   UNL     1     -10.590  -1.866  16.968  1.00  0.00     0.037 A 
ATOM     53  C   UNL     1     -11.996  -4.094  10.532  1.00  0.00     0.037 A 
ATOM     54  C   UNL     1     -11.719  -2.751  16.871  1.00  0.00     0.049 A 
ATOM     55  C   UNL     1     -12.760  -4.600  11.717  1.00  0.00     0.074 A 
ATOM     56  C   UNL     1     -12.594  -3.152  17.867  1.00  0.00     0.029 A 
ATOM     57  N   UNL     1     -12.122  -3.383  15.707  1.00  0.00    -0.354 N 
ATOM     58  N   UNL     1     -12.646  -4.257  12.975  1.00  0.00    -0.248 NA
ATOM     59  C   UNL     1     -13.775  -5.632  11.460  1.00  0.00     0.031 C 
ATOM     60  C   UNL     1     -13.516  -4.046  17.307  1.00  0.00     0.029 A 
ATOM     61  C   UNL     1     -13.211  -4.198  15.965  1.00  0.00     0.049 A 
ATOM     62  H   UNL     1     -11.696  -3.270  14.826  1.00  0.00     0.167 HD
ATOM     63  C   UNL     1     -13.572  -5.028  13.661  1.00  0.00     0.074 A 
ATOM     64  C   UNL     1     -14.239  -5.861  12.681  1.00  0.00     0.031 C 
ATOM     65  C   UNL     1     -13.848  -5.037  14.986  1.00  0.00     0.037 A 
BRANCH  52  66
ATOM     66  C   UNL     1     -10.188  -1.384  18.323  1.00  0.00     0.057 A 
ATOM     67  C   UNL     1     -10.720  -0.209  18.864  1.00  0.00     0.134 A 
ATOM     68  C   UNL     1      -9.284  -2.115  19.102  1.00  0.00     0.134 A 
ATOM     69  F   UNL     1     -11.583   0.536  18.156  1.00  0.00    -0.206 F 
ATOM     70  C   UNL     1     -10.365   0.226  20.141  1.00  0.00     0.040 A 
ATOM     71  C   UNL     1      -8.920  -1.691  20.380  1.00  0.00     0.040 A 
ATOM     72  F   UNL     1      -8.735  -3.245  18.628  1.00  0.00    -0.206 F 
ATOM     73  C   UNL     1      -9.464  -0.518  20.904  1.00  0.00     0.006 A 
ENDBRANCH  52  66
BRANCH  53  74
ATOM     74  C   UNL     1     -12.279  -4.617   9.179  1.00  0.00     0.057 A 
ATOM     75  C   UNL     1     -13.254  -4.029   8.368  1.00  0.00     0.134 A 
ATOM     76  C   UNL     1     -11.566  -5.707   8.668  1.00  0.00     0.134 A 
ATOM     77  F   UNL     1     -13.969  -2.988   8.817  1.00  0.00    -0.206 F 
ATOM     78  C   UNL     1     -13.512  -4.510   7.085  1.00  0.00     0.040 A 
ATOM     79  C   UNL     1     -11.813  -6.197   7.386  1.00  0.00     0.040 A 
ATOM     80  F   UNL     1     -10.624  -6.308   9.410  1.00  0.00    -0.206 F 
ATOM     81  C   UNL     1     -12.789  -5.596   6.590  1.00  0.00     0.006 A 
ENDBRANCH  53  74
BRANCH  65  82
ATOM     82  C   UNL     1     -14.903  -5.987  15.448  1.00  0.00     0.057 A 
ATOM     83  C   UNL     1     -14.577  -7.297  15.819  1.00  0.00     0.134 A 
ATOM     84  C   UNL     1     -16.243  -5.594  15.533  1.00  0.00     0.134 A 
ATOM     85  F   UNL     1     -13.310  -7.731  15.742  1.00  0.00    -0.206 F 
ATOM     86  C   UNL     1     -15.556  -8.190  16.257  1.00  0.00     0.040 A 
ATOM     87  C   UNL     1     -17.230  -6.477  15.971  1.00  0.00     0.040 A 
ATOM     88  F   UNL     1     -16.612  -4.353  15.182  1.00  0.00    -0.206 F 
ATOM     89  C   UNL     1     -16.887  -7.779  16.335  1.00  0.00     0.006 A 
ENDBRANCH  65  82
ENDBRANCH  39  40
ENDBRANCH  31  34
ENDBRANCH  29  30
ENDBRANCH  28  29
ENDBRANCH  27  28
ENDBRANCH   1  27
TORSDOF 15
