REMARK SMILES Cc1c(Cl)cccc1NC(=O)NCc1cn([C@@H]2C[NH2+][C@H](C(=O)NCCCCNC(=O)c3ccc(-c4c5nc(c(-c6c(F)cccc6F)c6ccc([nH]6)c(-c6c(F)cccc6F)c6nc(c(-c7c(F)cccc7F)c7ccc4[nH]7)C=C6)C=C5)cc3)C2)nn1
REMARK SMILES IDX 24 1 23 2 21 3 22 4 20 6 17 7 18 8 85 9 19 10 16 13 14 14
REMARK SMILES IDX 15 15 87 16 86 17 13 18 12 19 9 20 10 21 11 23 8 25 1 26
REMARK SMILES IDX 2 27 3 28 4 29 5 30 7 31 6 32 25 33 26 34 27 35 28 36 29 37
REMARK SMILES IDX 30 39 31 40 32 41 84 42 33 43 83 44 34 45 35 46 36 47 77 48
REMARK SMILES IDX 37 49 82 50 76 51 78 52 38 53 81 54 75 55 74 56 39 58 65 59
REMARK SMILES IDX 48 60 64 61 49 62 52 63 63 64 79 65 50 66 51 67 62 69 80 70
REMARK SMILES IDX 53 71 40 72 41 73 46 74 42 75 43 76 45 77 47 78 44 79 66 80
REMARK SMILES IDX 67 81 72 82 68 83 69 84 71 85 73 86 70 87 54 88 55 89 60 90
REMARK SMILES IDX 56 91 57 92 59 93 61 94 58 95
REMARK H PARENT 23 5 19 11 19 12 9 22 12 24 28 38 78 57 52 68
REMARK Flexibility Score: inf
ROOT
ATOM      1  C   UNL     1      -1.785  -6.264   1.593  1.00  0.00     0.116 C 
ENDROOT
BRANCH   1   2
ATOM      2  N   UNL     1      -3.067  -6.854   1.260  1.00  0.00    -0.351 N 
ATOM      3  C   UNL     1      -4.288  -6.824   1.853  1.00  0.00     0.278 C 
ATOM      4  O   UNL     1      -5.175  -7.471   1.275  1.00  0.00    -0.268 OA
ATOM      5  H   UNL     1      -3.049  -7.387   0.432  1.00  0.00     0.163 HD
BRANCH   3   6
ATOM      6  C   UNL     1      -4.681  -6.005   3.103  1.00  0.00     0.274 C 
ATOM      7  C   UNL     1      -5.075  -3.640   3.520  1.00  0.00     0.170 C 
ATOM      8  C   UNL     1      -3.610  -3.993   3.739  1.00  0.00     0.288 C 
ATOM      9  C   UNL     1      -5.583  -4.833   2.712  1.00  0.00     0.109 C 
ATOM     10  N   UNL     1      -3.570  -5.457   3.910  1.00  0.00    -0.334 N 
ATOM     11  H   UNL     1      -3.695  -5.701   4.893  1.00  0.00     0.347 HD
ATOM     12  H   UNL     1      -2.673  -5.839   3.611  1.00  0.00     0.347 HD
BRANCH   7  13
ATOM     13  N   UNL     1      -5.254  -2.365   2.867  1.00  0.00    -0.243 N 
ATOM     14  C   UNL     1      -5.099  -0.706   1.490  1.00  0.00     0.102 A 
ATOM     15  C   UNL     1      -5.017  -2.080   1.563  1.00  0.00     0.137 A 
ATOM     16  N   UNL     1      -5.444  -0.212   2.714  1.00  0.00    -0.134 NA
ATOM     17  N   UNL     1      -5.551  -1.246   3.553  1.00  0.00    -0.067 NA
BRANCH  14  18
ATOM     18  C   UNL     1      -4.559   0.037   0.341  1.00  0.00     0.178 C 
BRANCH  18  19
ATOM     19  N   UNL     1      -4.538   1.458   0.338  1.00  0.00    -0.332 N 
ATOM     20  N   UNL     1      -2.309   2.035  -0.393  1.00  0.00    -0.308 N 
ATOM     21  C   UNL     1      -3.604   2.312  -0.111  1.00  0.00     0.319 C 
ATOM     22  H   UNL     1      -1.828   2.861  -0.631  1.00  0.00     0.171 HD
ATOM     23  O   UNL     1      -3.937   3.501  -0.193  1.00  0.00    -0.248 OA
ATOM     24  H   UNL     1      -5.335   1.885   0.728  1.00  0.00     0.165 HD
BRANCH  20  25
ATOM     25  C   UNL     1      -1.433   0.923  -0.451  1.00  0.00     0.047 A 
ATOM     26  C   UNL     1       0.581   2.409   0.138  1.00  0.00     0.048 C 
ATOM     27  C   UNL     1      -0.076   1.067  -0.073  1.00  0.00    -0.009 A 
ATOM     28  C   UNL     1       0.719  -0.098   0.068  1.00  0.00     0.046 A 
ATOM     29  Cl  UNL     1       2.385  -0.024   0.536  1.00  0.00    -0.084 Cl
ATOM     30  C   UNL     1       0.195  -1.368  -0.164  1.00  0.00     0.021 A 
ATOM     31  C   UNL     1      -1.843  -0.333  -0.901  1.00  0.00     0.026 A 
ATOM     32  C   UNL     1      -1.086  -1.483  -0.670  1.00  0.00     0.004 A 
ENDBRANCH  20  25
ENDBRANCH  18  19
ENDBRANCH  14  18
ENDBRANCH   7  13
ENDBRANCH   3   6
ENDBRANCH   1   2
BRANCH   1  33
ATOM     33  C   UNL     1      -0.763  -7.293   2.084  1.00  0.00     0.023 C 
BRANCH  33  34
ATOM     34  C   UNL     1      -0.167  -8.227   1.019  1.00  0.00     0.023 C 
BRANCH  34  35
ATOM     35  C   UNL     1       0.557  -7.531  -0.127  1.00  0.00     0.116 C 
BRANCH  35  36
ATOM     36  N   UNL     1       1.687  -6.699   0.301  1.00  0.00    -0.352 N 
ATOM     37  C   UNL     1       2.473  -5.855  -0.476  1.00  0.00     0.251 C 
ATOM     38  H   UNL     1       1.917  -6.743   1.257  1.00  0.00     0.163 HD
ATOM     39  O   UNL     1       3.591  -5.520  -0.128  1.00  0.00    -0.269 OA
BRANCH  37  40
ATOM     40  C   UNL     1       1.893  -5.336  -1.728  1.00  0.00     0.039 A 
ATOM     41  C   UNL     1       2.616  -5.210  -2.918  1.00  0.00     0.014 A 
ATOM     42  C   UNL     1       0.545  -5.015  -1.677  1.00  0.00     0.014 A 
ATOM     43  C   UNL     1       1.935  -4.818  -4.071  1.00  0.00     0.010 A 
ATOM     44  C   UNL     1      -0.156  -4.883  -2.836  1.00  0.00     0.010 A 
ATOM     45  C   UNL     1       0.543  -4.666  -4.013  1.00  0.00    -0.014 A 
BRANCH  45  46
ATOM     46  C   UNL     1      -0.275  -4.364  -5.174  1.00  0.00     0.031 A 
ATOM     47  C   UNL     1      -0.236  -5.392  -6.235  1.00  0.00     0.074 A 
ATOM     48  C   UNL     1      -1.211  -3.390  -5.134  1.00  0.00     0.049 A 
ATOM     49  N   UNL     1       0.280  -5.266  -7.410  1.00  0.00    -0.248 NA
ATOM     50  C   UNL     1      -0.662  -6.764  -5.915  1.00  0.00     0.031 C 
ATOM     51  C   UNL     1      -1.552  -2.506  -4.017  1.00  0.00     0.029 A 
ATOM     52  N   UNL     1      -2.161  -3.075  -6.053  1.00  0.00    -0.354 N 
ATOM     53  C   UNL     1       0.022  -6.464  -8.065  1.00  0.00     0.074 A 
ATOM     54  C   UNL     1      -0.339  -7.407  -7.040  1.00  0.00     0.031 C 
ATOM     55  C   UNL     1      -2.766  -1.952  -4.220  1.00  0.00     0.029 A 
ATOM     56  C   UNL     1      -3.210  -2.303  -5.551  1.00  0.00     0.049 A 
ATOM     57  H   UNL     1      -2.113  -3.366  -6.992  1.00  0.00     0.167 HD
ATOM     58  C   UNL     1      -0.145  -6.491  -9.417  1.00  0.00     0.037 A 
ATOM     59  C   UNL     1      -4.372  -2.025  -6.197  1.00  0.00     0.037 A 
ATOM     60  C   UNL     1       0.289  -5.246 -10.010  1.00  0.00     0.049 A 
ATOM     61  C   UNL     1      -4.107  -2.238  -7.648  1.00  0.00     0.074 A 
ATOM     62  C   UNL     1       1.473  -4.531  -9.998  1.00  0.00     0.029 A 
ATOM     63  N   UNL     1      -0.683  -4.348 -10.388  1.00  0.00    -0.354 N 
ATOM     64  N   UNL     1      -3.292  -1.488  -8.342  1.00  0.00    -0.248 NA
ATOM     65  C   UNL     1      -4.320  -3.580  -8.173  1.00  0.00     0.031 C 
ATOM     66  C   UNL     1       1.073  -3.170  -9.850  1.00  0.00     0.029 A 
ATOM     67  C   UNL     1      -0.321  -3.122  -9.891  1.00  0.00     0.049 A 
ATOM     68  H   UNL     1      -1.489  -4.549 -10.916  1.00  0.00     0.167 HD
ATOM     69  C   UNL     1      -2.558  -2.382  -9.111  1.00  0.00     0.074 A 
ATOM     70  C   UNL     1      -3.280  -3.652  -9.009  1.00  0.00     0.031 C 
ATOM     71  C   UNL     1      -1.273  -2.111  -9.491  1.00  0.00     0.037 A 
BRANCH  58  72
ATOM     72  C   UNL     1      -1.051  -7.443 -10.157  1.00  0.00     0.057 A 
ATOM     73  C   UNL     1      -1.032  -7.433 -11.564  1.00  0.00     0.134 A 
ATOM     74  C   UNL     1      -2.132  -8.140  -9.580  1.00  0.00     0.134 A 
ATOM     75  F   UNL     1      -0.056  -6.803 -12.235  1.00  0.00    -0.206 F 
ATOM     76  C   UNL     1      -2.061  -7.986 -12.334  1.00  0.00     0.040 A 
ATOM     77  C   UNL     1      -3.136  -8.743 -10.341  1.00  0.00     0.040 A 
ATOM     78  F   UNL     1      -2.339  -8.192  -8.260  1.00  0.00    -0.206 F 
ATOM     79  C   UNL     1      -3.124  -8.635 -11.721  1.00  0.00     0.006 A 
ENDBRANCH  58  72
BRANCH  59  80
ATOM     80  C   UNL     1      -5.739  -1.935  -5.624  1.00  0.00     0.057 A 
ATOM     81  C   UNL     1      -6.816  -1.464  -6.391  1.00  0.00     0.134 A 
ATOM     82  C   UNL     1      -6.083  -2.557  -4.408  1.00  0.00     0.134 A 
ATOM     83  F   UNL     1      -6.601  -0.884  -7.580  1.00  0.00    -0.206 F 
ATOM     84  C   UNL     1      -8.152  -1.633  -5.992  1.00  0.00     0.040 A 
ATOM     85  C   UNL     1      -7.411  -2.729  -3.998  1.00  0.00     0.040 A 
ATOM     86  F   UNL     1      -5.149  -3.094  -3.610  1.00  0.00    -0.206 F 
ATOM     87  C   UNL     1      -8.453  -2.281  -4.799  1.00  0.00     0.006 A 
ENDBRANCH  59  80
BRANCH  71  88
ATOM     88  C   UNL     1      -0.722  -0.727  -9.264  1.00  0.00     0.057 A 
ATOM     89  C   UNL     1      -0.580  -0.122  -8.005  1.00  0.00     0.134 A 
ATOM     90  C   UNL     1      -0.140  -0.059 -10.348  1.00  0.00     0.134 A 
ATOM     91  F   UNL     1      -1.005  -0.727  -6.891  1.00  0.00    -0.206 F 
ATOM     92  C   UNL     1       0.074   1.104  -7.842  1.00  0.00     0.040 A 
ATOM     93  C   UNL     1       0.546   1.147 -10.194  1.00  0.00     0.040 A 
ATOM     94  F   UNL     1      -0.180  -0.602 -11.575  1.00  0.00    -0.206 F 
ATOM     95  C   UNL     1       0.647   1.739  -8.939  1.00  0.00     0.006 A 
ENDBRANCH  71  88
ENDBRANCH  45  46
ENDBRANCH  37  40
ENDBRANCH  35  36
ENDBRANCH  34  35
ENDBRANCH  33  34
ENDBRANCH   1  33
TORSDOF 15
