REMARK SMILES CCCCCC[C@@H](C)N1C[C@H](C(=O)NCCCCNC(=O)c2ccc(-c3c4nc(c(-c5c(F)cccc5F)c5ccc([nH]5)c(-c5c(F)cccc5F)c5nc(c(-c6c(F)cccc6F)c6ccc3[nH]6)C=C5)C=C4)cc2)CC1=O
REMARK SMILES IDX 12 1 13 2 14 3 11 5 9 6 10 7 77 8 76 9 78 10 7 11 8 12 6 13
REMARK SMILES IDX 5 14 4 15 3 16 2 17 1 18 15 19 16 20 17 21 18 22 19 23 20 24
REMARK SMILES IDX 21 26 22 27 23 28 75 29 24 30 74 31 25 32 26 33 27 34 68 35
REMARK SMILES IDX 28 36 73 37 67 38 69 39 29 40 72 41 66 42 65 43 30 45 56 46
REMARK SMILES IDX 39 47 55 48 40 49 43 50 54 51 70 52 41 53 42 54 53 56 71 57
REMARK SMILES IDX 44 58 31 59 32 60 37 61 33 62 34 63 36 64 38 65 35 66 57 67
REMARK SMILES IDX 58 68 63 69 59 70 60 71 62 72 64 73 61 74 45 75 46 76 51 77
REMARK SMILES IDX 47 78 48 79 50 80 52 81 49 82
REMARK H PARENT 14 4 19 25 69 44 43 55
REMARK Flexibility Score: inf
ROOT
ATOM      1  C   UNL     1      -3.585  -0.837   7.369  1.00  0.00     0.225 C 
ATOM      2  O   UNL     1      -4.471  -0.148   6.864  1.00  0.00    -0.275 OA
ATOM      3  N   UNL     1      -3.839  -2.163   7.536  1.00  0.00    -0.356 N 
ATOM      4  H   UNL     1      -4.662  -2.484   7.103  1.00  0.00     0.163 HD
ENDROOT
BRANCH   1   5
ATOM      5  C   UNL     1      -2.225  -0.269   7.735  1.00  0.00     0.107 C 
ATOM      6  N   UNL     1      -1.688   1.403   6.158  1.00  0.00    -0.339 N 
ATOM      7  C   UNL     1      -1.436   0.009   6.468  1.00  0.00     0.133 C 
ATOM      8  C   UNL     1      -2.196   2.072   7.269  1.00  0.00     0.223 C 
ATOM      9  C   UNL     1      -2.357   1.089   8.399  1.00  0.00     0.115 C 
ATOM     10  O   UNL     1      -2.414   3.268   7.400  1.00  0.00    -0.275 OA
BRANCH   6  11
ATOM     11  C   UNL     1      -1.181   2.022   4.911  1.00  0.00     0.082 C 
ATOM     12  C   UNL     1      -1.498   3.517   4.783  1.00  0.00     0.031 C 
BRANCH  11  13
ATOM     13  C   UNL     1      -1.672   1.258   3.654  1.00  0.00     0.025 C 
BRANCH  13  14
ATOM     14  C   UNL     1      -1.096   1.741   2.313  1.00  0.00     0.002 C 
BRANCH  14  15
ATOM     15  C   UNL     1       0.433   1.695   2.216  1.00  0.00     0.000 C 
BRANCH  15  16
ATOM     16  C   UNL     1       1.043   0.290   2.285  1.00  0.00    -0.000 C 
BRANCH  16  17
ATOM     17  C   UNL     1       0.614  -0.661   1.163  1.00  0.00    -0.003 C 
ATOM     18  C   UNL     1       0.982  -0.161  -0.226  1.00  0.00     0.004 C 
ENDBRANCH  16  17
ENDBRANCH  15  16
ENDBRANCH  14  15
ENDBRANCH  13  14
ENDBRANCH  11  13
ENDBRANCH   6  11
ENDBRANCH   1   5
BRANCH   3  19
ATOM     19  C   UNL     1      -3.091  -3.179   8.251  1.00  0.00     0.116 C 
BRANCH  19  20
ATOM     20  C   UNL     1      -3.695  -3.436   9.631  1.00  0.00     0.023 C 
BRANCH  20  21
ATOM     21  C   UNL     1      -5.115  -4.018   9.606  1.00  0.00     0.023 C 
BRANCH  21  22
ATOM     22  C   UNL     1      -5.289  -5.288   8.778  1.00  0.00     0.116 C 
BRANCH  22  23
ATOM     23  N   UNL     1      -4.404  -6.361   9.199  1.00  0.00    -0.352 N 
ATOM     24  C   UNL     1      -4.665  -7.695   9.384  1.00  0.00     0.251 C 
ATOM     25  H   UNL     1      -3.476  -6.088   9.380  1.00  0.00     0.163 HD
ATOM     26  O   UNL     1      -3.804  -8.412   9.886  1.00  0.00    -0.269 OA
BRANCH  24  27
ATOM     27  C   UNL     1      -5.978  -8.271   9.015  1.00  0.00     0.039 A 
ATOM     28  C   UNL     1      -6.552  -9.210   9.876  1.00  0.00     0.014 A 
ATOM     29  C   UNL     1      -6.635  -7.918   7.832  1.00  0.00     0.014 A 
ATOM     30  C   UNL     1      -7.805  -9.749   9.579  1.00  0.00     0.010 A 
ATOM     31  C   UNL     1      -7.919  -8.400   7.576  1.00  0.00     0.010 A 
ATOM     32  C   UNL     1      -8.519  -9.321   8.447  1.00  0.00    -0.014 A 
BRANCH  32  33
ATOM     33  C   UNL     1      -9.898  -9.819   8.199  1.00  0.00     0.031 A 
ATOM     34  C   UNL     1     -10.217 -10.649   6.984  1.00  0.00     0.074 A 
ATOM     35  C   UNL     1     -10.873  -9.511   9.077  1.00  0.00     0.049 A 
ATOM     36  N   UNL     1     -11.355 -11.198   6.637  1.00  0.00    -0.248 NA
ATOM     37  C   UNL     1      -9.125 -10.879   6.025  1.00  0.00     0.031 C 
ATOM     38  C   UNL     1     -10.707  -8.667  10.264  1.00  0.00     0.029 A 
ATOM     39  N   UNL     1     -12.195  -9.878   9.117  1.00  0.00    -0.354 N 
ATOM     40  C   UNL     1     -11.114 -11.843   5.430  1.00  0.00     0.074 A 
ATOM     41  C   UNL     1      -9.740 -11.563   5.071  1.00  0.00     0.031 C 
ATOM     42  C   UNL     1     -11.867  -8.619  10.936  1.00  0.00     0.029 A 
ATOM     43  C   UNL     1     -12.869  -9.393  10.212  1.00  0.00     0.049 A 
ATOM     44  H   UNL     1     -12.620 -10.436   8.426  1.00  0.00     0.167 HD
ATOM     45  C   UNL     1     -11.950 -12.622   4.703  1.00  0.00     0.037 A 
ATOM     46  C   UNL     1     -14.150  -9.556  10.592  1.00  0.00     0.037 A 
ATOM     47  C   UNL     1     -13.317 -12.904   5.062  1.00  0.00     0.049 A 
ATOM     48  C   UNL     1     -15.060 -10.409   9.751  1.00  0.00     0.074 A 
ATOM     49  C   UNL     1     -14.233 -13.708   4.406  1.00  0.00     0.029 A 
ATOM     50  N   UNL     1     -13.965 -12.389   6.174  1.00  0.00    -0.354 N 
ATOM     51  N   UNL     1     -14.793 -11.074   8.653  1.00  0.00    -0.248 NA
ATOM     52  C   UNL     1     -16.448 -10.545  10.213  1.00  0.00     0.031 C 
ATOM     53  C   UNL     1     -15.449 -13.643   5.094  1.00  0.00     0.029 A 
ATOM     54  C   UNL     1     -15.275 -12.843   6.211  1.00  0.00     0.049 A 
ATOM     55  H   UNL     1     -13.556 -11.790   6.839  1.00  0.00     0.167 HD
ATOM     56  C   UNL     1     -15.970 -11.728   8.310  1.00  0.00     0.074 A 
ATOM     57  C   UNL     1     -16.940 -11.406   9.336  1.00  0.00     0.031 C 
ATOM     58  C   UNL     1     -16.229 -12.518   7.240  1.00  0.00     0.037 A 
BRANCH  45  59
ATOM     59  C   UNL     1     -11.408 -13.246   3.448  1.00  0.00     0.057 A 
ATOM     60  C   UNL     1     -10.462 -14.279   3.491  1.00  0.00     0.134 A 
ATOM     61  C   UNL     1     -11.885 -12.861   2.188  1.00  0.00     0.134 A 
ATOM     62  F   UNL     1      -9.956 -14.689   4.664  1.00  0.00    -0.206 F 
ATOM     63  C   UNL     1      -9.998 -14.896   2.327  1.00  0.00     0.040 A 
ATOM     64  C   UNL     1     -11.449 -13.489   1.019  1.00  0.00     0.040 A 
ATOM     65  F   UNL     1     -12.796 -11.884   2.073  1.00  0.00    -0.206 F 
ATOM     66  C   UNL     1     -10.501 -14.508   1.087  1.00  0.00     0.006 A 
ENDBRANCH  45  59
BRANCH  46  67
ATOM     67  C   UNL     1     -14.659  -8.914  11.834  1.00  0.00     0.057 A 
ATOM     68  C   UNL     1     -15.072  -9.681  12.930  1.00  0.00     0.134 A 
ATOM     69  C   UNL     1     -14.793  -7.524  11.934  1.00  0.00     0.134 A 
ATOM     70  F   UNL     1     -14.985 -11.019  12.890  1.00  0.00    -0.206 F 
ATOM     71  C   UNL     1     -15.639  -9.094  14.063  1.00  0.00     0.040 A 
ATOM     72  C   UNL     1     -15.327  -6.922  13.075  1.00  0.00     0.040 A 
ATOM     73  F   UNL     1     -14.408  -6.731  10.925  1.00  0.00    -0.206 F 
ATOM     74  C   UNL     1     -15.765  -7.709  14.137  1.00  0.00     0.006 A 
ENDBRANCH  46  67
BRANCH  58  75
ATOM     75  C   UNL     1     -17.606 -13.114   7.152  1.00  0.00     0.057 A 
ATOM     76  C   UNL     1     -18.742 -12.328   6.910  1.00  0.00     0.134 A 
ATOM     77  C   UNL     1     -17.800 -14.491   7.322  1.00  0.00     0.134 A 
ATOM     78  F   UNL     1     -18.629 -11.001   6.750  1.00  0.00    -0.206 F 
ATOM     79  C   UNL     1     -20.023 -12.882   6.889  1.00  0.00     0.040 A 
ATOM     80  C   UNL     1     -19.072 -15.062   7.268  1.00  0.00     0.040 A 
ATOM     81  F   UNL     1     -16.757 -15.305   7.544  1.00  0.00    -0.206 F 
ATOM     82  C   UNL     1     -20.190 -14.254   7.065  1.00  0.00     0.006 A 
ENDBRANCH  58  75
ENDBRANCH  32  33
ENDBRANCH  24  27
ENDBRANCH  22  23
ENDBRANCH  21  22
ENDBRANCH  20  21
ENDBRANCH  19  20
ENDBRANCH   3  19
TORSDOF 17
