REMARK SMILES O=C(NCCCCNC(=O)c1cc(N2C(=O)[C@H]3[C@@H]4C=C[C@@H]([C@@H]5C[C@H]45)[C@@H]3C2=O)ccc1Cl)c1ccc(-c2c3nc(c(-c4c(F)cccc4F)c4ccc([nH]4)c(-c4c(F)cccc4F)c4nc(c(-c5c(F)cccc5F)c5ccc2[nH]5)C=C4)C=C3)cc1
REMARK SMILES IDX 5 1 4 2 3 3 1 4 2 5 32 7 33 8 85 9 34 10 84 11 35 12 36 13
REMARK SMILES IDX 37 14 78 15 38 16 83 17 77 18 79 19 39 20 82 21 76 22 75 23
REMARK SMILES IDX 40 25 66 26 49 27 65 28 50 29 53 30 64 31 80 32 51 33 52 34
REMARK SMILES IDX 63 36 81 37 54 38 41 39 42 40 47 41 43 42 44 43 46 44 48 45
REMARK SMILES IDX 45 46 67 47 68 48 73 49 69 50 70 51 72 52 74 53 71 54 55 55
REMARK SMILES IDX 56 56 61 57 57 58 58 59 60 60 62 61 59 62 6 63 7 64 8 65
REMARK SMILES IDX 9 66 10 68 11 69 12 70 30 71 13 72 29 73 31 74 28 75 14 76
REMARK SMILES IDX 15 77 26 78 16 79 17 80 25 81 27 82 18 83 21 84 19 85 24 86
REMARK SMILES IDX 20 87 22 88 23 89
REMARK H PARENT 3 6 79 24 53 35 8 67
REMARK Flexibility Score: inf
ROOT
ATOM      1  C   UNL     1       4.975  -0.396   2.503  1.00  0.00     0.023 C 
ENDROOT
BRANCH   1   2
ATOM      2  C   UNL     1       4.625  -0.732   1.058  1.00  0.00     0.116 C 
BRANCH   2   3
ATOM      3  N   UNL     1       3.191  -0.812   0.833  1.00  0.00    -0.352 N 
ATOM      4  O   UNL     1       1.163  -0.145   0.105  1.00  0.00    -0.269 OA
ATOM      5  C   UNL     1       2.384  -0.034   0.040  1.00  0.00     0.251 C 
ATOM      6  H   UNL     1       2.729  -1.531   1.322  1.00  0.00     0.163 HD
BRANCH   5   7
ATOM      7  C   UNL     1       2.984   0.959  -0.875  1.00  0.00     0.039 A 
ATOM      8  C   UNL     1       4.064   0.622  -1.695  1.00  0.00     0.014 A 
ATOM      9  C   UNL     1       2.442   2.246  -0.919  1.00  0.00     0.014 A 
ATOM     10  C   UNL     1       4.689   1.604  -2.457  1.00  0.00     0.010 A 
ATOM     11  C   UNL     1       3.022   3.211  -1.745  1.00  0.00     0.010 A 
ATOM     12  C   UNL     1       4.168   2.905  -2.497  1.00  0.00    -0.014 A 
BRANCH  12  13
ATOM     13  C   UNL     1       4.788   3.938  -3.362  1.00  0.00     0.031 A 
ATOM     14  C   UNL     1       5.403   5.170  -2.764  1.00  0.00     0.074 A 
ATOM     15  C   UNL     1       4.754   3.781  -4.699  1.00  0.00     0.049 A 
ATOM     16  N   UNL     1       5.885   6.229  -3.364  1.00  0.00    -0.248 NA
ATOM     17  C   UNL     1       5.473   5.225  -1.297  1.00  0.00     0.031 C 
ATOM     18  C   UNL     1       4.187   2.625  -5.396  1.00  0.00     0.029 A 
ATOM     19  N   UNL     1       5.184   4.603  -5.708  1.00  0.00    -0.354 N 
ATOM     20  C   UNL     1       6.292   7.087  -2.351  1.00  0.00     0.074 A 
ATOM     21  C   UNL     1       5.975   6.435  -1.097  1.00  0.00     0.031 C 
ATOM     22  C   UNL     1       4.304   2.811  -6.718  1.00  0.00     0.029 A 
ATOM     23  C   UNL     1       4.891   4.124  -6.961  1.00  0.00     0.049 A 
ATOM     24  H   UNL     1       5.657   5.452  -5.550  1.00  0.00     0.167 HD
ATOM     25  C   UNL     1       6.876   8.305  -2.460  1.00  0.00     0.037 A 
ATOM     26  C   UNL     1       5.036   4.693  -8.172  1.00  0.00     0.037 A 
ATOM     27  C   UNL     1       7.182   8.943  -3.715  1.00  0.00     0.049 A 
ATOM     28  C   UNL     1       5.636   6.065  -8.271  1.00  0.00     0.074 A 
ATOM     29  C   UNL     1       7.809  10.158  -3.935  1.00  0.00     0.029 A 
ATOM     30  N   UNL     1       6.869   8.424  -4.964  1.00  0.00    -0.354 N 
ATOM     31  N   UNL     1       6.050   6.854  -7.309  1.00  0.00    -0.248 NA
ATOM     32  C   UNL     1       5.791   6.627  -9.618  1.00  0.00     0.031 C 
ATOM     33  C   UNL     1       7.815  10.403  -5.311  1.00  0.00     0.029 A 
ATOM     34  C   UNL     1       7.259   9.310  -5.956  1.00  0.00     0.049 A 
ATOM     35  H   UNL     1       6.433   7.556  -5.122  1.00  0.00     0.167 HD
ATOM     36  C   UNL     1       6.543   7.991  -7.934  1.00  0.00     0.074 A 
ATOM     37  C   UNL     1       6.375   7.790  -9.358  1.00  0.00     0.031 C 
ATOM     38  C   UNL     1       7.095   9.095  -7.374  1.00  0.00     0.037 A 
BRANCH  25  39
ATOM     39  C   UNL     1       7.178   9.043  -1.185  1.00  0.00     0.057 A 
ATOM     40  C   UNL     1       8.156   8.607  -0.281  1.00  0.00     0.134 A 
ATOM     41  C   UNL     1       6.482  10.216  -0.862  1.00  0.00     0.134 A 
ATOM     42  F   UNL     1       8.856   7.489  -0.523  1.00  0.00    -0.206 F 
ATOM     43  C   UNL     1       8.398   9.283   0.917  1.00  0.00     0.040 A 
ATOM     44  C   UNL     1       6.739  10.919   0.317  1.00  0.00     0.040 A 
ATOM     45  F   UNL     1       5.541  10.701  -1.686  1.00  0.00    -0.206 F 
ATOM     46  C   UNL     1       7.691  10.445   1.217  1.00  0.00     0.006 A 
ENDBRANCH  25  39
BRANCH  26  47
ATOM     47  C   UNL     1       4.584   3.954  -9.375  1.00  0.00     0.057 A 
ATOM     48  C   UNL     1       5.502   3.410 -10.279  1.00  0.00     0.134 A 
ATOM     49  C   UNL     1       3.223   3.723  -9.617  1.00  0.00     0.134 A 
ATOM     50  F   UNL     1       6.817   3.608 -10.106  1.00  0.00    -0.206 F 
ATOM     51  C   UNL     1       5.085   2.665 -11.383  1.00  0.00     0.040 A 
ATOM     52  C   UNL     1       2.793   2.958 -10.701  1.00  0.00     0.040 A 
ATOM     53  F   UNL     1       2.295   4.207  -8.779  1.00  0.00    -0.206 F 
ATOM     54  C   UNL     1       3.726   2.429 -11.590  1.00  0.00     0.006 A 
ENDBRANCH  26  47
BRANCH  38  55
ATOM     55  C   UNL     1       7.614  10.158  -8.298  1.00  0.00     0.057 A 
ATOM     56  C   UNL     1       6.761  11.012  -9.006  1.00  0.00     0.134 A 
ATOM     57  C   UNL     1       8.993  10.378  -8.414  1.00  0.00     0.134 A 
ATOM     58  F   UNL     1       5.431  10.846  -8.950  1.00  0.00    -0.206 F 
ATOM     59  C   UNL     1       7.261  12.045  -9.801  1.00  0.00     0.040 A 
ATOM     60  C   UNL     1       9.504  11.424  -9.184  1.00  0.00     0.040 A 
ATOM     61  F   UNL     1       9.865   9.598  -7.757  1.00  0.00    -0.206 F 
ATOM     62  C   UNL     1       8.636  12.261  -9.881  1.00  0.00     0.006 A 
ENDBRANCH  38  55
ENDBRANCH  12  13
ENDBRANCH   5   7
ENDBRANCH   2   3
ENDBRANCH   1   2
BRANCH   1  63
ATOM     63  C   UNL     1       4.505  -1.414   3.543  1.00  0.00     0.023 C 
BRANCH  63  64
ATOM     64  C   UNL     1       4.888  -2.861   3.251  1.00  0.00     0.116 C 
BRANCH  64  65
ATOM     65  N   UNL     1       6.323  -3.046   3.136  1.00  0.00    -0.352 N 
ATOM     66  C   UNL     1       7.103  -4.051   3.643  1.00  0.00     0.252 C 
ATOM     67  H   UNL     1       6.801  -2.354   2.624  1.00  0.00     0.163 HD
ATOM     68  O   UNL     1       8.322  -4.023   3.497  1.00  0.00    -0.269 OA
BRANCH  66  69
ATOM     69  C   UNL     1       6.502  -5.146   4.421  1.00  0.00     0.060 A 
ATOM     70  C   UNL     1       6.949  -5.292   5.745  1.00  0.00     0.042 A 
ATOM     71  C   UNL     1       5.598  -6.063   3.870  1.00  0.00     0.053 A 
ATOM     72  C   UNL     1       6.513  -6.376   6.505  1.00  0.00     0.053 A 
ATOM     73  C   UNL     1       5.096  -7.092   4.665  1.00  0.00     0.023 A 
ATOM     74  Cl  UNL     1       5.100  -6.033   2.217  1.00  0.00    -0.083 Cl
ATOM     75  C   UNL     1       5.570  -7.262   5.965  1.00  0.00     0.028 A 
BRANCH  72  76
ATOM     76  N   UNL     1       6.955  -6.568   7.827  1.00  0.00    -0.250 N 
ATOM     77  C   UNL     1       6.856  -5.574   8.815  1.00  0.00     0.238 C 
ATOM     78  C   UNL     1       7.201  -7.846   8.372  1.00  0.00     0.238 C 
ATOM     79  O   UNL     1       6.477  -4.420   8.728  1.00  0.00    -0.274 OA
ATOM     80  C   UNL     1       7.327  -6.263  10.056  1.00  0.00     0.100 C 
ATOM     81  C   UNL     1       6.767  -7.661   9.780  1.00  0.00     0.100 C 
ATOM     82  O   UNL     1       7.487  -8.891   7.824  1.00  0.00    -0.274 OA
ATOM     83  C   UNL     1       7.086  -5.905  11.532  1.00  0.00     0.028 C 
ATOM     84  C   UNL     1       6.776  -8.473  11.065  1.00  0.00     0.028 C 
ATOM     85  C   UNL     1       8.149  -6.812  12.201  1.00  0.00    -0.026 C 
ATOM     86  C   UNL     1       5.749  -6.391  12.124  1.00  0.00     0.001 C 
ATOM     87  C   UNL     1       8.016  -8.127  11.906  1.00  0.00    -0.026 C 
ATOM     88  C   UNL     1       5.555  -7.895  11.873  1.00  0.00     0.001 C 
ATOM     89  C   UNL     1       4.529  -6.865  11.390  1.00  0.00     0.009 C 
ENDBRANCH  72  76
ENDBRANCH  66  69
ENDBRANCH  64  65
ENDBRANCH  63  64
ENDBRANCH   1  63
TORSDOF 12
