REMARK SMILES C[N@@H+]1CCN(C(=O)c2ccc3[nH]c4c(c3c2)CSCC4)C[C@H]1C(=O)NCCCCNC(=O)c1ccc(-c2c3nc(c(-c4c(F)cccc4F)c4ccc([nH]4)c(-c4c(F)cccc4F)c4nc(c(-c5c(F)cccc5F)c5ccc2[nH]5)C=C4)C=C3)cc1
REMARK SMILES IDX 27 1 26 2 25 3 23 4 24 5 22 7 1 8 2 9 3 10 4 12 21 13 5 14
REMARK SMILES IDX 6 15 7 16 8 17 9 18 16 19 10 20 15 21 11 22 14 23 12 24
REMARK SMILES IDX 13 25 17 26 20 28 18 29 19 30 28 31 29 32 30 33 31 34 32 36
REMARK SMILES IDX 33 37 34 38 86 39 35 40 85 41 36 42 37 43 38 44 79 45 39 46
REMARK SMILES IDX 84 47 78 48 80 49 40 50 83 51 77 52 76 53 41 55 67 56 50 57
REMARK SMILES IDX 66 58 51 59 54 60 65 61 81 62 52 63 53 64 64 66 82 67 55 68
REMARK SMILES IDX 42 69 43 70 48 71 44 72 45 73 47 74 49 75 46 76 68 77 69 78
REMARK SMILES IDX 74 79 70 80 71 81 73 82 75 83 72 84 56 85 57 86 62 87 58 88
REMARK SMILES IDX 59 89 61 90 63 91 60 92
REMARK H PARENT 25 6 2 11 12 27 30 35 80 54 54 65
REMARK Flexibility Score: inf
ROOT
ATOM      1  C   UNL     1       1.752  -1.339  -3.755  1.00  0.00     0.023 C 
ENDROOT
BRANCH   1   2
ATOM      2  C   UNL     1       0.629  -1.709  -2.796  1.00  0.00     0.116 C 
BRANCH   2   3
ATOM      3  N   UNL     1       1.077  -2.602  -1.742  1.00  0.00    -0.351 N 
ATOM      4  C   UNL     1       1.022  -2.438  -0.388  1.00  0.00     0.280 C 
ATOM      5  O   UNL     1       1.470  -3.344   0.321  1.00  0.00    -0.268 OA
ATOM      6  H   UNL     1       1.478  -3.447  -2.048  1.00  0.00     0.163 HD
BRANCH   4   7
ATOM      7  C   UNL     1       0.382  -1.193   0.243  1.00  0.00     0.293 C 
ATOM      8  C   UNL     1       2.436   0.130   0.162  1.00  0.00     0.333 C 
ATOM      9  N   UNL     1       1.023   0.073  -0.225  1.00  0.00    -0.324 N 
ATOM     10  C   UNL     1       0.296   1.229   0.348  1.00  0.00     0.284 C 
ATOM     11  H   UNL     1       0.977   0.103  -1.243  1.00  0.00     0.348 HD
ATOM     12  C   UNL     1      -1.211   1.204   0.037  1.00  0.00     0.181 C 
ATOM     13  C   UNL     1      -1.138  -1.256  -0.022  1.00  0.00     0.195 C 
ATOM     14  N   UNL     1      -1.839  -0.055   0.443  1.00  0.00    -0.326 N 
BRANCH  14  15
ATOM     15  C   UNL     1      -3.146  -0.029   0.915  1.00  0.00     0.254 C 
ATOM     16  O   UNL     1      -3.794   1.012   1.061  1.00  0.00    -0.269 OA
BRANCH  15  17
ATOM     17  C   UNL     1      -3.824  -1.305   1.223  1.00  0.00     0.040 A 
ATOM     18  C   UNL     1      -3.289  -2.189   2.164  1.00  0.00     0.016 A 
ATOM     19  C   UNL     1      -5.022  -1.593   0.555  1.00  0.00     0.024 A 
ATOM     20  C   UNL     1      -3.894  -3.425   2.403  1.00  0.00     0.027 A 
ATOM     21  C   UNL     1      -5.662  -2.823   0.804  1.00  0.00     0.004 A 
ATOM     22  C   UNL     1      -5.075  -3.713   1.708  1.00  0.00     0.046 A 
ATOM     23  C   UNL     1      -6.873  -3.422   0.338  1.00  0.00    -0.009 A 
ATOM     24  N   UNL     1      -5.876  -4.831   1.756  1.00  0.00    -0.358 N 
ATOM     25  C   UNL     1      -6.979  -4.647   0.971  1.00  0.00     0.021 A 
ATOM     26  C   UNL     1      -7.875  -2.823  -0.596  1.00  0.00     0.107 C 
ATOM     27  H   UNL     1      -5.683  -5.643   2.278  1.00  0.00     0.166 HD
ATOM     28  C   UNL     1      -8.093  -5.630   0.858  1.00  0.00     0.065 C 
ATOM     29  S   UNL     1      -9.201  -3.982  -1.100  1.00  0.00    -0.157 SA
ATOM     30  C   UNL     1      -9.391  -4.919   0.463  1.00  0.00     0.076 C 
ENDBRANCH  15  17
ENDBRANCH  14  15
ENDBRANCH   4   7
ENDBRANCH   2   3
ENDBRANCH   1   2
BRANCH   1  31
ATOM     31  C   UNL     1       2.355  -2.514  -4.527  1.00  0.00     0.023 C 
BRANCH  31  32
ATOM     32  C   UNL     1       1.345  -3.416  -5.241  1.00  0.00     0.116 C 
BRANCH  32  33
ATOM     33  N   UNL     1       0.452  -2.724  -6.148  1.00  0.00    -0.352 N 
ATOM     34  C   UNL     1       0.504  -2.389  -7.472  1.00  0.00     0.251 C 
ATOM     35  H   UNL     1      -0.381  -2.429  -5.712  1.00  0.00     0.163 HD
ATOM     36  O   UNL     1      -0.551  -1.996  -7.976  1.00  0.00    -0.269 OA
BRANCH  34  37
ATOM     37  C   UNL     1       1.737  -2.382  -8.304  1.00  0.00     0.039 A 
ATOM     38  C   UNL     1       2.988  -2.844  -7.903  1.00  0.00     0.014 A 
ATOM     39  C   UNL     1       1.618  -1.776  -9.571  1.00  0.00     0.014 A 
ATOM     40  C   UNL     1       4.111  -2.591  -8.681  1.00  0.00     0.010 A 
ATOM     41  C   UNL     1       2.733  -1.542 -10.367  1.00  0.00     0.010 A 
ATOM     42  C   UNL     1       3.987  -1.904  -9.892  1.00  0.00    -0.014 A 
BRANCH  42  43
ATOM     43  C   UNL     1       5.192  -1.730 -10.695  1.00  0.00     0.031 A 
ATOM     44  C   UNL     1       5.826  -3.012 -11.106  1.00  0.00     0.074 A 
ATOM     45  C   UNL     1       5.665  -0.536 -11.107  1.00  0.00     0.049 A 
ATOM     46  N   UNL     1       6.984  -3.464 -10.755  1.00  0.00    -0.248 NA
ATOM     47  C   UNL     1       5.018  -3.974 -11.873  1.00  0.00     0.031 C 
ATOM     48  C   UNL     1       5.031   0.777 -10.999  1.00  0.00     0.029 A 
ATOM     49  N   UNL     1       6.808  -0.264 -11.800  1.00  0.00    -0.354 N 
ATOM     50  C   UNL     1       7.137  -4.686 -11.405  1.00  0.00     0.074 A 
ATOM     51  C   UNL     1       5.847  -5.016 -11.949  1.00  0.00     0.031 C 
ATOM     52  C   UNL     1       5.680   1.653 -11.802  1.00  0.00     0.029 A 
ATOM     53  C   UNL     1       6.841   0.998 -12.383  1.00  0.00     0.049 A 
ATOM     54  H   UNL     1       7.548  -0.907 -11.881  1.00  0.00     0.167 HD
ATOM     55  C   UNL     1       8.375  -5.211 -11.625  1.00  0.00     0.037 A 
ATOM     56  C   UNL     1       7.724   1.442 -13.316  1.00  0.00     0.037 A 
ATOM     57  C   UNL     1       9.351  -4.609 -10.750  1.00  0.00     0.049 A 
ATOM     58  C   UNL     1       8.913   0.552 -13.272  1.00  0.00     0.074 A 
ATOM     59  C   UNL     1       9.494  -4.507  -9.379  1.00  0.00     0.029 A 
ATOM     60  N   UNL     1      10.198  -3.668 -11.281  1.00  0.00    -0.354 N 
ATOM     61  N   UNL     1       9.779   0.551 -12.297  1.00  0.00    -0.248 NA
ATOM     62  C   UNL     1       8.880  -0.662 -14.076  1.00  0.00     0.031 C 
ATOM     63  C   UNL     1      10.012  -3.197  -9.161  1.00  0.00     0.029 A 
ATOM     64  C   UNL     1      10.226  -2.613 -10.408  1.00  0.00     0.049 A 
ATOM     65  H   UNL     1      10.692  -3.738 -12.130  1.00  0.00     0.167 HD
ATOM     66  C   UNL     1      10.047  -0.790 -12.073  1.00  0.00     0.074 A 
ATOM     67  C   UNL     1       9.535  -1.486 -13.253  1.00  0.00     0.031 C 
ATOM     68  C   UNL     1      10.385  -1.244 -10.831  1.00  0.00     0.037 A 
BRANCH  55  69
ATOM     69  C   UNL     1       8.781  -5.939 -12.888  1.00  0.00     0.057 A 
ATOM     70  C   UNL     1       8.065  -5.893 -14.101  1.00  0.00     0.134 A 
ATOM     71  C   UNL     1      10.103  -6.414 -12.998  1.00  0.00     0.134 A 
ATOM     72  F   UNL     1       6.804  -5.457 -14.183  1.00  0.00    -0.206 F 
ATOM     73  C   UNL     1       8.645  -6.204 -15.334  1.00  0.00     0.040 A 
ATOM     74  C   UNL     1      10.707  -6.681 -14.232  1.00  0.00     0.040 A 
ATOM     75  F   UNL     1      10.886  -6.532 -11.914  1.00  0.00    -0.206 F 
ATOM     76  C   UNL     1       9.982  -6.555 -15.408  1.00  0.00     0.006 A 
ENDBRANCH  55  69
BRANCH  56  77
ATOM     77  C   UNL     1       7.524   2.424 -14.410  1.00  0.00     0.057 A 
ATOM     78  C   UNL     1       6.255   2.659 -14.967  1.00  0.00     0.134 A 
ATOM     79  C   UNL     1       8.610   2.962 -15.121  1.00  0.00     0.134 A 
ATOM     80  F   UNL     1       5.150   2.130 -14.424  1.00  0.00    -0.206 F 
ATOM     81  C   UNL     1       6.074   3.372 -16.158  1.00  0.00     0.040 A 
ATOM     82  C   UNL     1       8.443   3.670 -16.321  1.00  0.00     0.040 A 
ATOM     83  F   UNL     1       9.868   2.759 -14.704  1.00  0.00    -0.206 F 
ATOM     84  C   UNL     1       7.171   3.869 -16.848  1.00  0.00     0.006 A 
ENDBRANCH  56  77
BRANCH  68  85
ATOM     85  C   UNL     1      10.719  -0.237  -9.768  1.00  0.00     0.057 A 
ATOM     86  C   UNL     1      11.929  -0.373  -9.078  1.00  0.00     0.134 A 
ATOM     87  C   UNL     1       9.842   0.763  -9.319  1.00  0.00     0.134 A 
ATOM     88  F   UNL     1      12.792  -1.346  -9.409  1.00  0.00    -0.206 F 
ATOM     89  C   UNL     1      12.264   0.454  -8.004  1.00  0.00     0.040 A 
ATOM     90  C   UNL     1      10.184   1.624  -8.272  1.00  0.00     0.040 A 
ATOM     91  F   UNL     1       8.615   0.899  -9.838  1.00  0.00    -0.206 F 
ATOM     92  C   UNL     1      11.397   1.468  -7.608  1.00  0.00     0.006 A 
ENDBRANCH  68  85
ENDBRANCH  42  43
ENDBRANCH  34  37
ENDBRANCH  32  33
ENDBRANCH  31  32
ENDBRANCH   1  31
TORSDOF 13
