REMARK SMILES COc1ccc(/C=C2\SC(=O)N(CC(=O)N[C@H](C)C(=O)NCCCCNC(=O)c3ccc(-c4c5nc(c(-c6c(F)cccc6F)c6ccc([nH]6)c(-c6c(F)cccc6F)c6nc(c(-c7c(F)cccc7F)c7ccc4[nH]7)C=C6)C=C5)cc3)C2=O)cc1OC
REMARK SMILES IDX 22 1 21 2 19 3 20 4 17 6 18 7 16 8 14 9 15 10 13 12 12 13
REMARK SMILES IDX 7 14 8 15 9 16 83 17 10 18 84 19 11 20 6 21 3 22 4 23 86 24
REMARK SMILES IDX 5 25 85 26 2 27 1 28 87 29 88 30 23 31 24 32 25 33 26 34
REMARK SMILES IDX 27 35 28 37 29 38 30 39 82 40 31 41 81 42 32 43 33 44 34 45
REMARK SMILES IDX 75 46 35 47 80 48 74 49 76 50 36 51 79 52 73 53 72 54 37 56
REMARK SMILES IDX 63 57 46 58 62 59 47 60 50 61 61 62 77 63 48 64 49 65 60 67
REMARK SMILES IDX 78 68 51 69 38 70 39 71 44 72 40 73 41 74 43 75 45 76 42 77
REMARK SMILES IDX 64 78 65 79 70 80 66 81 67 82 69 83 71 84 68 85 52 86 53 87
REMARK SMILES IDX 58 88 54 89 55 90 57 91 59 92 56 93
REMARK H PARENT 21 5 16 11 26 36 76 55 50 66
REMARK Flexibility Score: inf
ROOT
ATOM      1  C   UNL     1       2.473   3.214  13.015  1.00  0.00     0.116 C 
ENDROOT
BRANCH   1   2
ATOM      2  N   UNL     1       3.728   3.754  12.529  1.00  0.00    -0.354 N 
ATOM      3  C   UNL     1       4.552   3.304  11.544  1.00  0.00     0.242 C 
ATOM      4  O   UNL     1       5.628   3.884  11.376  1.00  0.00    -0.273 OA
ATOM      5  H   UNL     1       4.030   4.574  12.983  1.00  0.00     0.163 HD
BRANCH   3   6
ATOM      6  C   UNL     1       4.136   2.138  10.637  1.00  0.00     0.168 C 
ATOM      7  C   UNL     1       3.935   0.819  11.374  1.00  0.00     0.041 C 
BRANCH   6   8
ATOM      8  N   UNL     1       2.954   2.539   9.875  1.00  0.00    -0.343 N 
ATOM      9  C   UNL     1       2.536   2.212   8.627  1.00  0.00     0.240 C 
ATOM     10  O   UNL     1       1.353   2.436   8.358  1.00  0.00    -0.273 OA
ATOM     11  H   UNL     1       2.355   3.157  10.353  1.00  0.00     0.164 HD
BRANCH   9  12
ATOM     12  C   UNL     1       3.435   1.470   7.645  1.00  0.00     0.229 C 
BRANCH  12  13
ATOM     13  N   UNL     1       4.722   2.113   7.471  1.00  0.00    -0.259 N 
ATOM     14  C   UNL     1       6.634   4.899   6.189  1.00  0.00     0.029 C 
ATOM     15  C   UNL     1       6.251   3.749   6.769  1.00  0.00     0.083 C 
ATOM     16  S   UNL     1       7.251   2.495   7.405  1.00  0.00    -0.022 SA
ATOM     17  C   UNL     1       4.821   3.362   6.899  1.00  0.00     0.268 C 
ATOM     18  C   UNL     1       5.889   1.463   7.752  1.00  0.00     0.294 C 
ATOM     19  O   UNL     1       3.888   4.054   6.522  1.00  0.00    -0.268 OA
ATOM     20  O   UNL     1       6.006   0.331   8.203  1.00  0.00    -0.261 OA
BRANCH  14  21
ATOM     21  C   UNL     1       8.030   5.259   5.903  1.00  0.00    -0.020 A 
ATOM     22  C   UNL     1      10.757   5.774   5.466  1.00  0.00     0.160 A 
ATOM     23  C   UNL     1       9.958   6.694   6.165  1.00  0.00     0.051 A 
ATOM     24  C   UNL     1      10.188   4.608   4.948  1.00  0.00     0.161 A 
ATOM     25  C   UNL     1       8.597   6.440   6.380  1.00  0.00     0.012 A 
ATOM     26  C   UNL     1       8.822   4.386   5.147  1.00  0.00     0.058 A 
BRANCH  22  27
ATOM     27  O   UNL     1      12.109   5.982   5.458  1.00  0.00    -0.493 OA
ATOM     28  C   UNL     1      12.511   6.905   4.447  1.00  0.00     0.278 C 
ENDBRANCH  22  27
BRANCH  24  29
ATOM     29  O   UNL     1      10.781   3.566   4.295  1.00  0.00    -0.493 OA
ATOM     30  C   UNL     1      12.078   3.746   3.758  1.00  0.00     0.278 C 
ENDBRANCH  24  29
ENDBRANCH  14  21
ENDBRANCH  12  13
ENDBRANCH   9  12
ENDBRANCH   6   8
ENDBRANCH   3   6
ENDBRANCH   1   2
BRANCH   1  31
ATOM     31  C   UNL     1       2.636   2.586  14.395  1.00  0.00     0.023 C 
BRANCH  31  32
ATOM     32  C   UNL     1       3.061   3.570  15.485  1.00  0.00     0.023 C 
BRANCH  32  33
ATOM     33  C   UNL     1       2.192   4.814  15.595  1.00  0.00     0.116 C 
BRANCH  33  34
ATOM     34  N   UNL     1       0.793   4.502  15.837  1.00  0.00    -0.352 N 
ATOM     35  C   UNL     1      -0.071   5.067  16.741  1.00  0.00     0.251 C 
ATOM     36  H   UNL     1       0.414   3.787  15.276  1.00  0.00     0.163 HD
ATOM     37  O   UNL     1      -1.179   4.573  16.925  1.00  0.00    -0.269 OA
BRANCH  35  38
ATOM     38  C   UNL     1       0.348   6.258  17.508  1.00  0.00     0.039 A 
ATOM     39  C   UNL     1       0.052   6.320  18.870  1.00  0.00     0.014 A 
ATOM     40  C   UNL     1       1.026   7.310  16.886  1.00  0.00     0.014 A 
ATOM     41  C   UNL     1       0.466   7.425  19.615  1.00  0.00     0.010 A 
ATOM     42  C   UNL     1       1.521   8.362  17.648  1.00  0.00     0.010 A 
ATOM     43  C   UNL     1       1.220   8.447  19.014  1.00  0.00    -0.014 A 
BRANCH  43  44
ATOM     44  C   UNL     1       1.641   9.642  19.788  1.00  0.00     0.031 A 
ATOM     45  C   UNL     1       1.122  11.003  19.401  1.00  0.00     0.074 A 
ATOM     46  C   UNL     1       2.498   9.511  20.819  1.00  0.00     0.049 A 
ATOM     47  N   UNL     1       1.385  12.171  19.930  1.00  0.00    -0.248 NA
ATOM     48  C   UNL     1       0.206  11.063  18.249  1.00  0.00     0.031 C 
ATOM     49  C   UNL     1       3.103   8.255  21.267  1.00  0.00     0.029 A 
ATOM     50  N   UNL     1       3.006  10.450  21.681  1.00  0.00    -0.354 N 
ATOM     51  C   UNL     1       0.671  13.096  19.178  1.00  0.00     0.074 A 
ATOM     52  C   UNL     1       0.029  12.367  18.108  1.00  0.00     0.031 C 
ATOM     53  C   UNL     1       3.869   8.496  22.344  1.00  0.00     0.029 A 
ATOM     54  C   UNL     1       3.841   9.925  22.638  1.00  0.00     0.049 A 
ATOM     55  H   UNL     1       2.793  11.409  21.619  1.00  0.00     0.167 HD
ATOM     56  C   UNL     1       0.527  14.427  19.381  1.00  0.00     0.037 A 
ATOM     57  C   UNL     1       4.504  10.533  23.640  1.00  0.00     0.037 A 
ATOM     58  C   UNL     1       1.151  15.150  20.457  1.00  0.00     0.049 A 
ATOM     59  C   UNL     1       4.349  12.020  23.822  1.00  0.00     0.074 A 
ATOM     60  C   UNL     1       1.053  16.495  20.763  1.00  0.00     0.029 A 
ATOM     61  N   UNL     1       1.986  14.582  21.407  1.00  0.00    -0.354 N 
ATOM     62  N   UNL     1       3.626  12.871  23.137  1.00  0.00    -0.248 NA
ATOM     63  C   UNL     1       5.097  12.627  24.932  1.00  0.00     0.031 C 
ATOM     64  C   UNL     1       1.862  16.750  21.875  1.00  0.00     0.029 A 
ATOM     65  C   UNL     1       2.418  15.553  22.296  1.00  0.00     0.049 A 
ATOM     66  H   UNL     1       2.235  13.630  21.445  1.00  0.00     0.167 HD
ATOM     67  C   UNL     1       3.796  14.102  23.758  1.00  0.00     0.074 A 
ATOM     68  C   UNL     1       4.674  13.880  24.888  1.00  0.00     0.031 C 
ATOM     69  C   UNL     1       3.276  15.310  23.426  1.00  0.00     0.037 A 
BRANCH  56  70
ATOM     70  C   UNL     1      -0.357  15.181  18.428  1.00  0.00     0.057 A 
ATOM     71  C   UNL     1      -1.746  14.992  18.409  1.00  0.00     0.134 A 
ATOM     72  C   UNL     1       0.177  16.129  17.548  1.00  0.00     0.134 A 
ATOM     73  F   UNL     1      -2.321  14.087  19.215  1.00  0.00    -0.206 F 
ATOM     74  C   UNL     1      -2.568  15.701  17.532  1.00  0.00     0.040 A 
ATOM     75  C   UNL     1      -0.639  16.867  16.688  1.00  0.00     0.040 A 
ATOM     76  F   UNL     1       1.498  16.363  17.515  1.00  0.00    -0.206 F 
ATOM     77  C   UNL     1      -2.015  16.649  16.674  1.00  0.00     0.006 A 
ENDBRANCH  56  70
BRANCH  57  78
ATOM     78  C   UNL     1       5.358   9.749  24.571  1.00  0.00     0.057 A 
ATOM     79  C   UNL     1       5.028   9.628  25.927  1.00  0.00     0.134 A 
ATOM     80  C   UNL     1       6.552   9.155  24.146  1.00  0.00     0.134 A 
ATOM     81  F   UNL     1       3.906  10.189  26.401  1.00  0.00    -0.206 F 
ATOM     82  C   UNL     1       5.874   8.988  26.834  1.00  0.00     0.040 A 
ATOM     83  C   UNL     1       7.392   8.483  25.036  1.00  0.00     0.040 A 
ATOM     84  F   UNL     1       6.923   9.223  22.859  1.00  0.00    -0.206 F 
ATOM     85  C   UNL     1       7.062   8.412  26.387  1.00  0.00     0.006 A 
ENDBRANCH  57  78
BRANCH  69  86
ATOM     86  C   UNL     1       3.594  16.465  24.334  1.00  0.00     0.057 A 
ATOM     87  C   UNL     1       4.883  17.005  24.432  1.00  0.00     0.134 A 
ATOM     88  C   UNL     1       2.590  17.046  25.119  1.00  0.00     0.134 A 
ATOM     89  F   UNL     1       5.893  16.489  23.715  1.00  0.00    -0.206 F 
ATOM     90  C   UNL     1       5.171  18.049  25.312  1.00  0.00     0.040 A 
ATOM     91  C   UNL     1       2.858  18.114  25.976  1.00  0.00     0.040 A 
ATOM     92  F   UNL     1       1.330  16.588  25.064  1.00  0.00    -0.206 F 
ATOM     93  C   UNL     1       4.155  18.609  26.084  1.00  0.00     0.006 A 
ENDBRANCH  69  86
ENDBRANCH  43  44
ENDBRANCH  35  38
ENDBRANCH  33  34
ENDBRANCH  32  33
ENDBRANCH  31  32
ENDBRANCH   1  31
TORSDOF 17
