REMARK SMILES CC(C)N(c1cc2c(cc1Cl)C=C(C(=O)NCCCCNC(=O)c1ccc(-c3c4nc(c(-c5c(F)cccc5F)c5ccc([nH]5)c(-c5c(F)cccc5F)c5nc(c(-c6c(F)cccc6F)c6ccc3[nH]6)C=C5)C=C4)cc1)[C@@H](C(F)(F)F)O2)C(C)C
REMARK SMILES IDX 18 1 17 2 16 3 14 4 15 5 13 7 5 8 6 9 10 10 7 11 9 12 11 13
REMARK SMILES IDX 8 14 83 15 12 16 78 17 4 18 2 19 1 20 3 21 84 22 85 23 86 24
REMARK SMILES IDX 79 25 80 26 81 27 82 28 19 29 20 30 21 31 22 32 23 34 24 35
REMARK SMILES IDX 25 36 77 37 26 38 76 39 27 40 28 41 29 42 70 43 30 44 75 45
REMARK SMILES IDX 69 46 71 47 31 48 74 49 68 50 67 51 32 53 58 54 41 55 57 56
REMARK SMILES IDX 42 57 45 58 56 59 72 60 43 61 44 62 55 64 73 65 46 66 33 67
REMARK SMILES IDX 34 68 39 69 35 70 36 71 38 72 40 73 37 74 59 75 60 76 65 77
REMARK SMILES IDX 61 78 62 79 64 80 66 81 63 82 47 83 48 84 53 85 49 86 50 87
REMARK SMILES IDX 52 88 54 89 51 90
REMARK H PARENT 16 6 21 33 71 52 45 63
REMARK Flexibility Score: inf
ROOT
ATOM      1  C   UNL     1      -6.673   5.534   5.409  1.00  0.00     0.023 C 
ENDROOT
BRANCH   1   2
ATOM      2  C   UNL     1      -7.083   5.749   3.954  1.00  0.00     0.116 C 
BRANCH   2   3
ATOM      3  N   UNL     1      -6.259   6.747   3.298  1.00  0.00    -0.352 N 
ATOM      4  C   UNL     1      -5.218   6.754   2.432  1.00  0.00     0.251 C 
ATOM      5  O   UNL     1      -4.802   7.875   2.123  1.00  0.00    -0.270 OA
ATOM      6  H   UNL     1      -6.527   7.661   3.548  1.00  0.00     0.163 HD
BRANCH   4   7
ATOM      7  C   UNL     1      -4.568   5.542   1.852  1.00  0.00     0.067 C 
ATOM      8  C   UNL     1      -1.482   2.359  -0.620  1.00  0.00     0.060 A 
ATOM      9  C   UNL     1      -2.445   2.233   0.398  1.00  0.00     0.074 A 
ATOM     10  C   UNL     1      -1.215   3.669  -1.085  1.00  0.00     0.065 A 
ATOM     11  C   UNL     1      -3.117   3.343   0.910  1.00  0.00     0.130 A 
ATOM     12  C   UNL     1      -1.857   4.789  -0.530  1.00  0.00     0.034 A 
ATOM     13  Cl  UNL     1      -0.152   3.989  -2.416  1.00  0.00    -0.082 Cl
ATOM     14  C   UNL     1      -2.813   4.627   0.470  1.00  0.00     0.019 A 
ATOM     15  O   UNL     1      -4.051   3.104   1.878  1.00  0.00    -0.475 OA
ATOM     16  C   UNL     1      -3.484   5.767   1.085  1.00  0.00     0.025 C 
ATOM     17  C   UNL     1      -5.066   4.136   2.038  1.00  0.00     0.314 C 
BRANCH   8  18
ATOM     18  N   UNL     1      -0.853   1.199  -1.115  1.00  0.00    -0.365 N 
BRANCH  18  19
ATOM     19  C   UNL     1       0.618   1.130  -0.969  1.00  0.00     0.076 C 
ATOM     20  C   UNL     1       1.059   0.222   0.178  1.00  0.00     0.030 C 
ATOM     21  C   UNL     1       1.335   0.761  -2.264  1.00  0.00     0.030 C 
ENDBRANCH  18  19
BRANCH  18  22
ATOM     22  C   UNL     1      -1.745   0.101  -1.554  1.00  0.00     0.076 C 
ATOM     23  C   UNL     1      -1.581  -0.232  -3.034  1.00  0.00     0.030 C 
ATOM     24  C   UNL     1      -1.648  -1.151  -0.689  1.00  0.00     0.030 C 
ENDBRANCH  18  22
ENDBRANCH   8  18
BRANCH  17  25
ATOM     25  C   UNL     1      -6.278   3.821   1.137  1.00  0.00     0.429 C 
ATOM     26  F   UNL     1      -6.894   2.685   1.550  1.00  0.00    -0.167 F 
ATOM     27  F   UNL     1      -7.216   4.798   1.175  1.00  0.00    -0.167 F 
ATOM     28  F   UNL     1      -5.940   3.652  -0.160  1.00  0.00    -0.167 F 
ENDBRANCH  17  25
ENDBRANCH   4   7
ENDBRANCH   2   3
ENDBRANCH   1   2
BRANCH   1  29
ATOM     29  C   UNL     1      -7.264   6.554   6.385  1.00  0.00     0.023 C 
BRANCH  29  30
ATOM     30  C   UNL     1      -8.785   6.679   6.362  1.00  0.00     0.116 C 
BRANCH  30  31
ATOM     31  N   UNL     1      -9.495   5.415   6.510  1.00  0.00    -0.352 N 
ATOM     32  C   UNL     1     -10.742   5.202   7.053  1.00  0.00     0.251 C 
ATOM     33  H   UNL     1      -9.025   4.615   6.181  1.00  0.00     0.163 HD
ATOM     34  O   UNL     1     -11.189   4.067   7.176  1.00  0.00    -0.269 OA
BRANCH  32  35
ATOM     35  C   UNL     1     -11.509   6.365   7.539  1.00  0.00     0.039 A 
ATOM     36  C   UNL     1     -11.680   7.481   6.720  1.00  0.00     0.014 A 
ATOM     37  C   UNL     1     -11.974   6.372   8.857  1.00  0.00     0.014 A 
ATOM     38  C   UNL     1     -12.147   8.665   7.273  1.00  0.00     0.010 A 
ATOM     39  C   UNL     1     -12.521   7.543   9.388  1.00  0.00     0.010 A 
ATOM     40  C   UNL     1     -12.555   8.715   8.617  1.00  0.00    -0.014 A 
BRANCH  40  41
ATOM     41  C   UNL     1     -12.986  10.018   9.184  1.00  0.00     0.031 A 
ATOM     42  C   UNL     1     -12.173  10.707  10.247  1.00  0.00     0.074 A 
ATOM     43  C   UNL     1     -14.068  10.626   8.662  1.00  0.00     0.049 A 
ATOM     44  N   UNL     1     -12.347  11.892  10.778  1.00  0.00    -0.248 NA
ATOM     45  C   UNL     1     -11.020   9.973  10.791  1.00  0.00     0.031 C 
ATOM     46  C   UNL     1     -14.936  10.057   7.628  1.00  0.00     0.029 A 
ATOM     47  N   UNL     1     -14.595  11.870   8.893  1.00  0.00    -0.354 N 
ATOM     48  C   UNL     1     -11.342  12.037  11.727  1.00  0.00     0.074 A 
ATOM     49  C   UNL     1     -10.576  10.809  11.719  1.00  0.00     0.031 C 
ATOM     50  C   UNL     1     -15.841  10.976   7.262  1.00  0.00     0.029 A 
ATOM     51  C   UNL     1     -15.649  12.176   8.069  1.00  0.00     0.049 A 
ATOM     52  H   UNL     1     -14.252  12.482   9.583  1.00  0.00     0.167 HD
ATOM     53  C   UNL     1     -11.076  13.099  12.525  1.00  0.00     0.037 A 
ATOM     54  C   UNL     1     -16.376  13.303   7.967  1.00  0.00     0.037 A 
ATOM     55  C   UNL     1     -11.822  14.331  12.517  1.00  0.00     0.049 A 
ATOM     56  C   UNL     1     -16.059  14.463   8.862  1.00  0.00     0.074 A 
ATOM     57  C   UNL     1     -11.617  15.472  13.274  1.00  0.00     0.029 A 
ATOM     58  N   UNL     1     -12.917  14.584  11.704  1.00  0.00    -0.354 N 
ATOM     59  N   UNL     1     -15.100  14.586   9.748  1.00  0.00    -0.248 NA
ATOM     60  C   UNL     1     -16.932  15.639   8.748  1.00  0.00     0.031 C 
ATOM     61  C   UNL     1     -12.605  16.405  12.939  1.00  0.00     0.029 A 
ATOM     62  C   UNL     1     -13.405  15.857  11.950  1.00  0.00     0.049 A 
ATOM     63  H   UNL     1     -13.291  13.952  11.049  1.00  0.00     0.167 HD
ATOM     64  C   UNL     1     -15.252  15.851  10.296  1.00  0.00     0.074 A 
ATOM     65  C   UNL     1     -16.377  16.468   9.621  1.00  0.00     0.031 C 
ATOM     66  C   UNL     1     -14.533  16.447  11.277  1.00  0.00     0.037 A 
BRANCH  53  67
ATOM     67  C   UNL     1      -9.932  12.970  13.488  1.00  0.00     0.057 A 
ATOM     68  C   UNL     1     -10.168  12.816  14.860  1.00  0.00     0.134 A 
ATOM     69  C   UNL     1      -8.599  13.028  13.064  1.00  0.00     0.134 A 
ATOM     70  F   UNL     1     -11.422  12.757  15.333  1.00  0.00    -0.206 F 
ATOM     71  C   UNL     1      -9.118  12.728  15.776  1.00  0.00     0.040 A 
ATOM     72  C   UNL     1      -7.540  12.921  13.968  1.00  0.00     0.040 A 
ATOM     73  F   UNL     1      -8.305  13.158  11.761  1.00  0.00    -0.206 F 
ATOM     74  C   UNL     1      -7.799  12.775  15.330  1.00  0.00     0.006 A 
ENDBRANCH  53  67
BRANCH  54  75
ATOM     75  C   UNL     1     -17.469  13.388   6.970  1.00  0.00     0.057 A 
ATOM     76  C   UNL     1     -18.653  12.657   7.122  1.00  0.00     0.134 A 
ATOM     77  C   UNL     1     -17.349  14.200   5.837  1.00  0.00     0.134 A 
ATOM     78  F   UNL     1     -18.822  11.857   8.185  1.00  0.00    -0.206 F 
ATOM     79  C   UNL     1     -19.675  12.721   6.176  1.00  0.00     0.040 A 
ATOM     80  C   UNL     1     -18.373  14.291   4.894  1.00  0.00     0.040 A 
ATOM     81  F   UNL     1     -16.243  14.935   5.647  1.00  0.00    -0.206 F 
ATOM     82  C   UNL     1     -19.539  13.545   5.060  1.00  0.00     0.006 A 
ENDBRANCH  54  75
BRANCH  66  83
ATOM     83  C   UNL     1     -14.950  17.832  11.666  1.00  0.00     0.057 A 
ATOM     84  C   UNL     1     -14.198  18.944  11.272  1.00  0.00     0.134 A 
ATOM     85  C   UNL     1     -16.104  18.062  12.426  1.00  0.00     0.134 A 
ATOM     86  F   UNL     1     -13.080  18.789  10.546  1.00  0.00    -0.206 F 
ATOM     87  C   UNL     1     -14.585  20.241  11.613  1.00  0.00     0.040 A 
ATOM     88  C   UNL     1     -16.512  19.355  12.756  1.00  0.00     0.040 A 
ATOM     89  F   UNL     1     -16.875  17.036  12.819  1.00  0.00    -0.206 F 
ATOM     90  C   UNL     1     -15.749  20.449  12.350  1.00  0.00     0.006 A 
ENDBRANCH  66  83
ENDBRANCH  40  41
ENDBRANCH  32  35
ENDBRANCH  30  31
ENDBRANCH  29  30
ENDBRANCH   1  29
TORSDOF 15
