REMARK SMILES N#C/C(=C/c1ccc(-c2cccc(C(=O)NCCCCNC(=O)c3ccc(-c4c5nc(c(-c6c(F)cccc6F)c6ccc([nH]6)c(-c6c(F)cccc6F)c6nc(c(-c7c(F)cccc7F)c7ccc4[nH]7)C=C6)C=C5)cc3)c2)o1)c1ccc(F)cc1
REMARK SMILES IDX 18 1 17 2 16 3 14 4 15 5 13 7 9 8 10 9 78 10 11 11 12 12
REMARK SMILES IDX 8 13 5 14 6 15 79 16 7 17 4 18 3 19 2 20 1 21 80 22 81 23
REMARK SMILES IDX 86 24 82 25 85 26 83 27 84 28 19 29 20 30 21 31 22 32 23 34
REMARK SMILES IDX 24 35 25 36 77 37 26 38 76 39 27 40 28 41 29 42 70 43 30 44
REMARK SMILES IDX 75 45 69 46 71 47 31 48 74 49 68 50 67 51 32 53 58 54 41 55
REMARK SMILES IDX 57 56 42 57 45 58 56 59 72 60 43 61 44 62 55 64 73 65 46 66
REMARK SMILES IDX 33 67 34 68 39 69 35 70 36 71 38 72 40 73 37 74 59 75 60 76
REMARK SMILES IDX 65 77 61 78 62 79 64 80 66 81 63 82 47 83 48 84 53 85 49 86
REMARK SMILES IDX 50 87 52 88 54 89 51 90
REMARK H PARENT 16 6 21 33 71 52 45 63
REMARK Flexibility Score: inf
ROOT
ATOM      1  C   UNL     1       9.831   5.568   1.908  1.00  0.00     0.023 C 
ENDROOT
BRANCH   1   2
ATOM      2  C   UNL     1      10.426   4.194   1.638  1.00  0.00     0.116 C 
BRANCH   2   3
ATOM      3  N   UNL     1      11.634   3.877   2.390  1.00  0.00    -0.352 N 
ATOM      4  C   UNL     1      11.992   2.733   3.083  1.00  0.00     0.251 C 
ATOM      5  O   UNL     1      13.076   2.694   3.660  1.00  0.00    -0.269 OA
ATOM      6  H   UNL     1      12.307   4.595   2.408  1.00  0.00     0.163 HD
BRANCH   4   7
ATOM      7  C   UNL     1      11.062   1.579   3.199  1.00  0.00     0.040 A 
ATOM      8  C   UNL     1       9.080   0.457   2.375  1.00  0.00     0.018 A 
ATOM      9  C   UNL     1       8.946  -0.198   3.601  1.00  0.00     0.012 A 
ATOM     10  C   UNL     1      10.225   1.227   2.146  1.00  0.00     0.025 A 
ATOM     11  C   UNL     1       9.912  -0.021   4.599  1.00  0.00     0.002 A 
ATOM     12  C   UNL     1      10.948   0.900   4.414  1.00  0.00     0.014 A 
BRANCH   8  13
ATOM     13  C   UNL     1       8.016   0.537   1.383  1.00  0.00     0.134 A 
ATOM     14  C   UNL     1       5.889   0.824   0.793  1.00  0.00     0.128 A 
ATOM     15  C   UNL     1       6.683   1.041  -0.329  1.00  0.00     0.051 A 
ATOM     16  O   UNL     1       6.731   0.543   1.849  1.00  0.00    -0.457 OA
ATOM     17  C   UNL     1       8.023   0.806   0.032  1.00  0.00     0.051 A 
BRANCH  14  18
ATOM     18  C   UNL     1       4.463   0.807   0.879  1.00  0.00     0.067 C 
ATOM     19  C   UNL     1       3.739  -0.012   0.090  1.00  0.00     0.063 C 
BRANCH  19  20
ATOM     20  C   UNL     1       2.219  -0.012   0.090  1.00  0.00     0.100 C 
ATOM     21  N   UNL     1       0.958  -0.012   0.090  1.00  0.00    -0.192 NA
ENDBRANCH  19  20
BRANCH  19  22
ATOM     22  C   UNL     1       4.362  -1.022  -0.817  1.00  0.00    -0.007 A 
ATOM     23  C   UNL     1       5.239  -2.000  -0.307  1.00  0.00     0.012 A 
ATOM     24  C   UNL     1       4.116  -0.989  -2.199  1.00  0.00     0.012 A 
ATOM     25  C   UNL     1       5.909  -2.874  -1.165  1.00  0.00     0.040 A 
ATOM     26  C   UNL     1       4.774  -1.879  -3.053  1.00  0.00     0.040 A 
ATOM     27  C   UNL     1       5.674  -2.801  -2.531  1.00  0.00     0.123 A 
ATOM     28  F   UNL     1       6.330  -3.626  -3.357  1.00  0.00    -0.207 F 
ENDBRANCH  19  22
ENDBRANCH  14  18
ENDBRANCH   8  13
ENDBRANCH   4   7
ENDBRANCH   2   3
ENDBRANCH   1   2
BRANCH   1  29
ATOM     29  C   UNL     1      10.680   6.768   1.514  1.00  0.00     0.023 C 
BRANCH  29  30
ATOM     30  C   UNL     1      11.244   6.760   0.098  1.00  0.00     0.116 C 
BRANCH  30  31
ATOM     31  N   UNL     1      10.238   6.631  -0.947  1.00  0.00    -0.352 N 
ATOM     32  C   UNL     1      10.033   7.396  -2.074  1.00  0.00     0.251 C 
ATOM     33  H   UNL     1       9.608   5.883  -0.830  1.00  0.00     0.163 HD
ATOM     34  O   UNL     1       9.089   7.156  -2.815  1.00  0.00    -0.269 OA
BRANCH  32  35
ATOM     35  C   UNL     1      10.926   8.541  -2.363  1.00  0.00     0.039 A 
ATOM     36  C   UNL     1      10.352   9.774  -2.688  1.00  0.00     0.014 A 
ATOM     37  C   UNL     1      12.314   8.416  -2.277  1.00  0.00     0.014 A 
ATOM     38  C   UNL     1      11.165  10.902  -2.825  1.00  0.00     0.010 A 
ATOM     39  C   UNL     1      13.114   9.554  -2.334  1.00  0.00     0.010 A 
ATOM     40  C   UNL     1      12.547  10.811  -2.595  1.00  0.00    -0.014 A 
BRANCH  40  41
ATOM     41  C   UNL     1      13.416  12.016  -2.606  1.00  0.00     0.031 A 
ATOM     42  C   UNL     1      14.519  12.144  -3.620  1.00  0.00     0.074 A 
ATOM     43  C   UNL     1      13.262  12.960  -1.656  1.00  0.00     0.049 A 
ATOM     44  N   UNL     1      15.441  13.067  -3.727  1.00  0.00    -0.248 NA
ATOM     45  C   UNL     1      14.616  11.078  -4.630  1.00  0.00     0.031 C 
ATOM     46  C   UNL     1      12.262  12.934  -0.586  1.00  0.00     0.029 A 
ATOM     47  N   UNL     1      13.957  14.123  -1.429  1.00  0.00    -0.354 N 
ATOM     48  C   UNL     1      16.233  12.686  -4.803  1.00  0.00     0.074 A 
ATOM     49  C   UNL     1      15.716  11.423  -5.283  1.00  0.00     0.031 C 
ATOM     50  C   UNL     1      12.395  14.037   0.169  1.00  0.00     0.029 A 
ATOM     51  C   UNL     1      13.510  14.830  -0.338  1.00  0.00     0.049 A 
ATOM     52  H   UNL     1      14.706  14.421  -1.994  1.00  0.00     0.167 HD
ATOM     53  C   UNL     1      17.281  13.341  -5.357  1.00  0.00     0.037 A 
ATOM     54  C   UNL     1      13.954  15.983   0.197  1.00  0.00     0.037 A 
ATOM     55  C   UNL     1      17.778  14.611  -4.899  1.00  0.00     0.049 A 
ATOM     56  C   UNL     1      15.122  16.687  -0.437  1.00  0.00     0.074 A 
ATOM     57  C   UNL     1      18.805  15.375  -5.426  1.00  0.00     0.029 A 
ATOM     58  N   UNL     1      17.279  15.307  -3.810  1.00  0.00    -0.354 N 
ATOM     59  N   UNL     1      15.825  16.341  -1.488  1.00  0.00    -0.248 NA
ATOM     60  C   UNL     1      15.555  17.946   0.187  1.00  0.00     0.031 C 
ATOM     61  C   UNL     1      18.948  16.521  -4.636  1.00  0.00     0.029 A 
ATOM     62  C   UNL     1      17.984  16.487  -3.642  1.00  0.00     0.049 A 
ATOM     63  H   UNL     1      16.535  15.007  -3.240  1.00  0.00     0.167 HD
ATOM     64  C   UNL     1      16.760  17.352  -1.668  1.00  0.00     0.074 A 
ATOM     65  C   UNL     1      16.527  18.330  -0.627  1.00  0.00     0.031 C 
ATOM     66  C   UNL     1      17.727  17.459  -2.611  1.00  0.00     0.037 A 
BRANCH  53  67
ATOM     67  C   UNL     1      17.950  12.700  -6.536  1.00  0.00     0.057 A 
ATOM     68  C   UNL     1      17.330  12.646  -7.791  1.00  0.00     0.134 A 
ATOM     69  C   UNL     1      19.242  12.171  -6.429  1.00  0.00     0.134 A 
ATOM     70  F   UNL     1      16.087  13.124  -7.956  1.00  0.00    -0.206 F 
ATOM     71  C   UNL     1      17.963  12.071  -8.894  1.00  0.00     0.040 A 
ATOM     72  C   UNL     1      19.896  11.615  -7.531  1.00  0.00     0.040 A 
ATOM     73  F   UNL     1      19.894  12.195  -5.257  1.00  0.00    -0.206 F 
ATOM     74  C   UNL     1      19.254  11.560  -8.767  1.00  0.00     0.006 A 
ENDBRANCH  53  67
BRANCH  54  75
ATOM     75  C   UNL     1      13.287  16.563   1.390  1.00  0.00     0.057 A 
ATOM     76  C   UNL     1      12.535  17.740   1.291  1.00  0.00     0.134 A 
ATOM     77  C   UNL     1      13.409  15.980   2.656  1.00  0.00     0.134 A 
ATOM     78  F   UNL     1      12.399  18.357   0.108  1.00  0.00    -0.206 F 
ATOM     79  C   UNL     1      11.950  18.332   2.412  1.00  0.00     0.040 A 
ATOM     80  C   UNL     1      12.809  16.547   3.782  1.00  0.00     0.040 A 
ATOM     81  F   UNL     1      14.111  14.849   2.816  1.00  0.00    -0.206 F 
ATOM     82  C   UNL     1      12.085  17.732   3.663  1.00  0.00     0.006 A 
ENDBRANCH  54  75
BRANCH  66  83
ATOM     83  C   UNL     1      18.575  18.695  -2.586  1.00  0.00     0.057 A 
ATOM     84  C   UNL     1      19.564  18.894  -1.615  1.00  0.00     0.134 A 
ATOM     85  C   UNL     1      18.425  19.681  -3.570  1.00  0.00     0.134 A 
ATOM     86  F   UNL     1      19.747  17.992  -0.638  1.00  0.00    -0.206 F 
ATOM     87  C   UNL     1      20.360  20.040  -1.610  1.00  0.00     0.040 A 
ATOM     88  C   UNL     1      19.230  20.820  -3.589  1.00  0.00     0.040 A 
ATOM     89  F   UNL     1      17.501  19.547  -4.533  1.00  0.00    -0.206 F 
ATOM     90  C   UNL     1      20.198  21.004  -2.604  1.00  0.00     0.006 A 
ENDBRANCH  66  83
ENDBRANCH  40  41
ENDBRANCH  32  35
ENDBRANCH  30  31
ENDBRANCH  29  30
ENDBRANCH   1  29
TORSDOF 15
