REMARK SMILES CC(C)[C@](C)(CC(=O)NC#N)C(=O)NCCCCNC(=O)c1ccc(-c2c3nc(c(-c4c(F)cccc4F)c4ccc([nH]4)c(-c4c(F)cccc4F)c4nc(c(-c5c(F)cccc5F)c5ccc2[nH]5)C=C4)C=C3)cc1
REMARK SMILES IDX 16 1 15 2 14 3 12 4 13 5 4 7 5 8 2 9 1 10 3 11 6 12 7 13
REMARK SMILES IDX 8 14 9 15 10 17 11 18 17 19 18 20 19 21 20 22 21 24 22 25
REMARK SMILES IDX 23 26 75 27 24 28 74 29 25 30 26 31 27 32 68 33 28 34 73 35
REMARK SMILES IDX 67 36 69 37 29 38 72 39 66 40 65 41 30 43 56 44 39 45 55 46
REMARK SMILES IDX 40 47 43 48 54 49 70 50 41 51 42 52 53 54 71 55 44 56 31 57
REMARK SMILES IDX 32 58 37 59 33 60 34 61 36 62 38 63 35 64 57 65 58 66 63 67
REMARK SMILES IDX 59 68 60 69 62 70 64 71 61 72 45 73 46 74 51 75 47 76 48 77
REMARK SMILES IDX 50 78 52 79 49 80
REMARK H PARENT 14 6 9 16 19 23 69 42 43 53
REMARK Flexibility Score: inf
ROOT
ATOM      1  C   UNL     1      -4.822   2.736  -0.149  1.00  0.00     0.023 C 
ENDROOT
BRANCH   1   2
ATOM      2  C   UNL     1      -3.944   1.524   0.123  1.00  0.00     0.116 C 
BRANCH   2   3
ATOM      3  N   UNL     1      -2.865   1.375  -0.821  1.00  0.00    -0.356 N 
ATOM      4  C   UNL     1      -1.537   1.168  -0.633  1.00  0.00     0.226 C 
ATOM      5  O   UNL     1      -0.857   1.064  -1.659  1.00  0.00    -0.274 OA
ATOM      6  H   UNL     1      -3.138   1.432  -1.765  1.00  0.00     0.163 HD
BRANCH   4   7
ATOM      7  C   UNL     1      -0.891   1.073   0.775  1.00  0.00     0.057 C 
ATOM      8  C   UNL     1       0.638   0.837   0.534  1.00  0.00     0.022 C 
BRANCH   7   9
ATOM      9  C   UNL     1      -1.359  -0.190   1.614  1.00  0.00    -0.002 C 
ATOM     10  C   UNL     1      -2.528  -0.055   2.598  1.00  0.00     0.008 C 
ATOM     11  C   UNL     1      -1.609  -1.431   0.737  1.00  0.00     0.008 C 
ENDBRANCH   7   9
BRANCH   7  12
ATOM     12  C   UNL     1      -1.006   2.429   1.530  1.00  0.00     0.118 C 
BRANCH  12  13
ATOM     13  C   UNL     1      -0.708   3.655   0.671  1.00  0.00     0.234 C 
ATOM     14  O   UNL     1      -1.576   4.191  -0.017  1.00  0.00    -0.274 OA
ATOM     15  N   UNL     1       0.550   4.175   0.688  1.00  0.00    -0.263 N 
ATOM     16  H   UNL     1       0.665   4.941   0.080  1.00  0.00     0.182 HD
BRANCH  15  17
ATOM     17  C   UNL     1       1.663   3.857   1.362  1.00  0.00     0.183 C 
ATOM     18  N   UNL     1       2.621   3.577   1.943  1.00  0.00    -0.172 NA
ENDBRANCH  15  17
ENDBRANCH  12  13
ENDBRANCH   7  12
ENDBRANCH   4   7
ENDBRANCH   2   3
ENDBRANCH   1   2
BRANCH   1  19
ATOM     19  C   UNL     1      -5.639   2.652  -1.431  1.00  0.00     0.023 C 
BRANCH  19  20
ATOM     20  C   UNL     1      -6.488   1.395  -1.561  1.00  0.00     0.116 C 
BRANCH  20  21
ATOM     21  N   UNL     1      -7.444   1.238  -0.473  1.00  0.00    -0.352 N 
ATOM     22  C   UNL     1      -8.808   1.079  -0.538  1.00  0.00     0.251 C 
ATOM     23  H   UNL     1      -7.061   1.248   0.434  1.00  0.00     0.163 HD
ATOM     24  O   UNL     1      -9.492   1.121   0.478  1.00  0.00    -0.269 OA
BRANCH  22  25
ATOM     25  C   UNL     1      -9.444   0.892  -1.857  1.00  0.00     0.039 A 
ATOM     26  C   UNL     1     -10.553   1.669  -2.193  1.00  0.00     0.014 A 
ATOM     27  C   UNL     1      -8.902  -0.008  -2.779  1.00  0.00     0.014 A 
ATOM     28  C   UNL     1     -11.070   1.599  -3.487  1.00  0.00     0.010 A 
ATOM     29  C   UNL     1      -9.355  -0.000  -4.092  1.00  0.00     0.010 A 
ATOM     30  C   UNL     1     -10.446   0.800  -4.460  1.00  0.00    -0.014 A 
BRANCH  30  31
ATOM     31  C   UNL     1     -10.919   0.790  -5.867  1.00  0.00     0.031 A 
ATOM     32  C   UNL     1     -11.419  -0.486  -6.486  1.00  0.00     0.074 A 
ATOM     33  C   UNL     1     -10.845   1.915  -6.606  1.00  0.00     0.049 A 
ATOM     34  N   UNL     1     -11.823  -0.708  -7.711  1.00  0.00    -0.248 NA
ATOM     35  C   UNL     1     -11.442  -1.678  -5.622  1.00  0.00     0.031 C 
ATOM     36  C   UNL     1     -10.335   3.205  -6.137  1.00  0.00     0.029 A 
ATOM     37  N   UNL     1     -11.194   2.153  -7.912  1.00  0.00    -0.354 N 
ATOM     38  C   UNL     1     -12.140  -2.060  -7.764  1.00  0.00     0.074 A 
ATOM     39  C   UNL     1     -11.817  -2.622  -6.472  1.00  0.00     0.031 C 
ATOM     40  C   UNL     1     -10.436   4.105  -7.128  1.00  0.00     0.029 A 
ATOM     41  C   UNL     1     -10.969   3.447  -8.316  1.00  0.00     0.049 A 
ATOM     42  H   UNL     1     -11.570   1.462  -8.504  1.00  0.00     0.167 HD
ATOM     43  C   UNL     1     -12.676  -2.764  -8.789  1.00  0.00     0.037 A 
ATOM     44  C   UNL     1     -11.159   4.035  -9.513  1.00  0.00     0.037 A 
ATOM     45  C   UNL     1     -13.004  -2.198 -10.071  1.00  0.00     0.049 A 
ATOM     46  C   UNL     1     -11.720   3.220 -10.647  1.00  0.00     0.074 A 
ATOM     47  C   UNL     1     -13.595  -2.817 -11.158  1.00  0.00     0.029 A 
ATOM     48  N   UNL     1     -12.757  -0.885 -10.443  1.00  0.00    -0.354 N 
ATOM     49  N   UNL     1     -12.083   1.960 -10.662  1.00  0.00    -0.248 NA
ATOM     50  C   UNL     1     -11.903   3.911 -11.931  1.00  0.00     0.031 C 
ATOM     51  C   UNL     1     -13.645  -1.897 -12.210  1.00  0.00     0.029 A 
ATOM     52  C   UNL     1     -13.154  -0.684 -11.755  1.00  0.00     0.049 A 
ATOM     53  H   UNL     1     -12.358  -0.198  -9.861  1.00  0.00     0.167 HD
ATOM     54  C   UNL     1     -12.569   1.718 -11.941  1.00  0.00     0.074 A 
ATOM     55  C   UNL     1     -12.468   2.966 -12.668  1.00  0.00     0.031 C 
ATOM     56  C   UNL     1     -13.056   0.567 -12.466  1.00  0.00     0.037 A 
BRANCH  43  57
ATOM     57  C   UNL     1     -12.937  -4.227  -8.564  1.00  0.00     0.057 A 
ATOM     58  C   UNL     1     -13.918  -4.678  -7.670  1.00  0.00     0.134 A 
ATOM     59  C   UNL     1     -12.222  -5.198  -9.277  1.00  0.00     0.134 A 
ATOM     60  F   UNL     1     -14.633  -3.803  -6.946  1.00  0.00    -0.206 F 
ATOM     61  C   UNL     1     -14.157  -6.039  -7.471  1.00  0.00     0.040 A 
ATOM     62  C   UNL     1     -12.476  -6.560  -9.113  1.00  0.00     0.040 A 
ATOM     63  F   UNL     1     -11.273  -4.839 -10.155  1.00  0.00    -0.206 F 
ATOM     64  C   UNL     1     -13.440  -6.984  -8.201  1.00  0.00     0.006 A 
ENDBRANCH  43  57
BRANCH  44  65
ATOM     65  C   UNL     1     -10.828   5.471  -9.703  1.00  0.00     0.057 A 
ATOM     66  C   UNL     1     -11.828   6.419  -9.949  1.00  0.00     0.134 A 
ATOM     67  C   UNL     1      -9.505   5.929  -9.666  1.00  0.00     0.134 A 
ATOM     68  F   UNL     1     -13.114   6.043 -10.015  1.00  0.00    -0.206 F 
ATOM     69  C   UNL     1     -11.525   7.763 -10.179  1.00  0.00     0.040 A 
ATOM     70  C   UNL     1      -9.189   7.275  -9.861  1.00  0.00     0.040 A 
ATOM     71  F   UNL     1      -8.498   5.075  -9.426  1.00  0.00    -0.206 F 
ATOM     72  C   UNL     1     -10.201   8.194 -10.130  1.00  0.00     0.006 A 
ENDBRANCH  44  65
BRANCH  56  73
ATOM     73  C   UNL     1     -13.562   0.611 -13.880  1.00  0.00     0.057 A 
ATOM     74  C   UNL     1     -12.705   0.769 -14.976  1.00  0.00     0.134 A 
ATOM     75  C   UNL     1     -14.929   0.450 -14.149  1.00  0.00     0.134 A 
ATOM     76  F   UNL     1     -11.387   0.939 -14.790  1.00  0.00    -0.206 F 
ATOM     77  C   UNL     1     -13.191   0.796 -16.285  1.00  0.00     0.040 A 
ATOM     78  C   UNL     1     -15.422   0.440 -15.454  1.00  0.00     0.040 A 
ATOM     79  F   UNL     1     -15.806   0.281 -13.147  1.00  0.00    -0.206 F 
ATOM     80  C   UNL     1     -14.552   0.622 -16.526  1.00  0.00     0.006 A 
ENDBRANCH  56  73
ENDBRANCH  30  31
ENDBRANCH  22  25
ENDBRANCH  20  21
ENDBRANCH  19  20
ENDBRANCH   1  19
TORSDOF 15
