REMARK SMILES COc1ncccc1CS(=O)(=O)[C@H](C)C(=O)NCCCCNC(=O)c1ccc(-c2c3nc(c(-c4c(F)cccc4F)c4ccc([nH]4)c(-c4c(F)cccc4F)c4nc(c(-c5c(F)cccc5F)c5ccc2[nH]5)C=C4)C=C3)cc1
REMARK SMILES IDX 18 1 17 2 15 3 16 4 13 6 14 7 10 8 11 9 12 10 9 11 8 12 3 13
REMARK SMILES IDX 4 14 5 15 7 16 6 17 2 18 1 19 19 20 20 21 21 22 22 23 23 24
REMARK SMILES IDX 24 26 25 27 26 28 78 29 27 30 77 31 28 32 29 33 30 34 71 35
REMARK SMILES IDX 31 36 76 37 70 38 72 39 32 40 75 41 69 42 68 43 33 45 59 46
REMARK SMILES IDX 42 47 58 48 43 49 46 50 57 51 73 52 44 53 45 54 56 56 74 57
REMARK SMILES IDX 47 58 34 59 35 60 40 61 36 62 37 63 39 64 41 65 38 66 60 67
REMARK SMILES IDX 61 68 66 69 62 70 63 71 65 72 67 73 64 74 48 75 49 76 54 77
REMARK SMILES IDX 50 78 51 79 53 80 55 81 52 82
REMARK H PARENT 17 5 22 25 72 44 46 55
REMARK Flexibility Score: inf
ROOT
ATOM      1  C   UNL     1       2.003  -2.921   1.893  1.00  0.00     0.116 C 
ENDROOT
BRANCH   1   2
ATOM      2  N   UNL     1       1.194  -3.268   0.764  1.00  0.00    -0.355 N 
ATOM      3  C   UNL     1       1.494  -3.134  -0.558  1.00  0.00     0.238 C 
ATOM      4  O   UNL     1       0.658  -3.574  -1.354  1.00  0.00    -0.274 OA
ATOM      5  H   UNL     1       0.310  -3.652   0.969  1.00  0.00     0.163 HD
BRANCH   3   6
ATOM      6  C   UNL     1       2.724  -2.397  -1.054  1.00  0.00     0.194 C 
ATOM      7  C   UNL     1       2.816  -0.927  -0.687  1.00  0.00     0.035 C 
BRANCH   6   8
ATOM      8  S   UNL     1       4.219  -3.381  -1.044  1.00  0.00     0.166 S 
ATOM      9  O   UNL     1       5.052  -2.834  -2.103  1.00  0.00    -0.228 OA
ATOM     10  O   UNL     1       3.799  -4.770  -1.169  1.00  0.00    -0.228 OA
BRANCH   8  11
ATOM     11  C   UNL     1       5.194  -3.353   0.478  1.00  0.00     0.178 C 
BRANCH  11  12
ATOM     12  C   UNL     1       5.403  -2.023   1.137  1.00  0.00     0.029 A 
ATOM     13  C   UNL     1       6.112  -0.988   0.544  1.00  0.00     0.217 A 
ATOM     14  N   UNL     1       6.247   0.245   1.082  1.00  0.00    -0.222 NA
ATOM     15  C   UNL     1       5.721   0.435   2.315  1.00  0.00     0.115 A 
ATOM     16  C   UNL     1       5.003  -1.819   2.465  1.00  0.00     0.012 A 
ATOM     17  C   UNL     1       5.130  -0.570   3.058  1.00  0.00     0.021 A 
BRANCH  13  18
ATOM     18  O   UNL     1       6.960  -1.349  -0.474  1.00  0.00    -0.481 OA
ATOM     19  C   UNL     1       6.855  -0.512  -1.614  1.00  0.00     0.280 C 
ENDBRANCH  13  18
ENDBRANCH  11  12
ENDBRANCH   8  11
ENDBRANCH   6   8
ENDBRANCH   3   6
ENDBRANCH   1   2
BRANCH   1  20
ATOM     20  C   UNL     1       1.303  -2.045   2.921  1.00  0.00     0.023 C 
BRANCH  20  21
ATOM     21  C   UNL     1       0.609  -2.816   4.037  1.00  0.00     0.023 C 
BRANCH  21  22
ATOM     22  C   UNL     1       1.479  -3.817   4.789  1.00  0.00     0.116 C 
BRANCH  22  23
ATOM     23  N   UNL     1       2.709  -3.262   5.338  1.00  0.00    -0.352 N 
ATOM     24  C   UNL     1       3.368  -3.632   6.490  1.00  0.00     0.251 C 
ATOM     25  H   UNL     1       3.120  -2.531   4.823  1.00  0.00     0.163 HD
ATOM     26  O   UNL     1       4.390  -3.049   6.838  1.00  0.00    -0.269 OA
BRANCH  24  27
ATOM     27  C   UNL     1       2.774  -4.687   7.336  1.00  0.00     0.039 A 
ATOM     28  C   UNL     1       2.493  -4.395   8.672  1.00  0.00     0.014 A 
ATOM     29  C   UNL     1       2.367  -5.898   6.772  1.00  0.00     0.014 A 
ATOM     30  C   UNL     1       1.706  -5.275   9.415  1.00  0.00     0.010 A 
ATOM     31  C   UNL     1       1.509  -6.726   7.484  1.00  0.00     0.010 A 
ATOM     32  C   UNL     1       1.159  -6.417   8.809  1.00  0.00    -0.014 A 
BRANCH  32  33
ATOM     33  C   UNL     1       0.209  -7.300   9.532  1.00  0.00     0.031 A 
ATOM     34  C   UNL     1       0.561  -8.741   9.771  1.00  0.00     0.074 A 
ATOM     35  C   UNL     1      -1.003  -6.831   9.894  1.00  0.00     0.049 A 
ATOM     36  N   UNL     1      -0.168  -9.696  10.287  1.00  0.00    -0.248 NA
ATOM     37  C   UNL     1       1.897  -9.174   9.332  1.00  0.00     0.031 C 
ATOM     38  C   UNL     1      -1.495  -5.471   9.659  1.00  0.00     0.029 A 
ATOM     39  N   UNL     1      -2.048  -7.455  10.528  1.00  0.00    -0.354 N 
ATOM     40  C   UNL     1       0.608 -10.845  10.207  1.00  0.00     0.074 A 
ATOM     41  C   UNL     1       1.840 -10.479   9.543  1.00  0.00     0.031 C 
ATOM     42  C   UNL     1      -2.732  -5.356  10.169  1.00  0.00     0.029 A 
ATOM     43  C   UNL     1      -3.134  -6.639  10.737  1.00  0.00     0.049 A 
ATOM     44  H   UNL     1      -2.022  -8.398  10.807  1.00  0.00     0.167 HD
ATOM     45  C   UNL     1       0.333 -12.088  10.667  1.00  0.00     0.037 A 
ATOM     46  C   UNL     1      -4.318  -6.896  11.325  1.00  0.00     0.037 A 
ATOM     47  C   UNL     1      -0.872 -12.440  11.370  1.00  0.00     0.049 A 
ATOM     48  C   UNL     1      -4.578  -8.270  11.880  1.00  0.00     0.074 A 
ATOM     49  C   UNL     1      -1.221 -13.656  11.930  1.00  0.00     0.029 A 
ATOM     50  N   UNL     1      -1.919 -11.566  11.621  1.00  0.00    -0.354 N 
ATOM     51  N   UNL     1      -3.810  -9.331  11.850  1.00  0.00    -0.248 NA
ATOM     52  C   UNL     1      -5.864  -8.477  12.561  1.00  0.00     0.031 C 
ATOM     53  C   UNL     1      -2.491 -13.523  12.503  1.00  0.00     0.029 A 
ATOM     54  C   UNL     1      -2.915 -12.216  12.329  1.00  0.00     0.049 A 
ATOM     55  H   UNL     1      -1.949 -10.624  11.338  1.00  0.00     0.167 HD
ATOM     56  C   UNL     1      -4.502 -10.320  12.536  1.00  0.00     0.074 A 
ATOM     57  C   UNL     1      -5.749  -9.730  12.977  1.00  0.00     0.031 C 
ATOM     58  C   UNL     1      -4.138 -11.603  12.780  1.00  0.00     0.037 A 
BRANCH  45  59
ATOM     59  C   UNL     1       1.366 -13.149  10.434  1.00  0.00     0.057 A 
ATOM     60  C   UNL     1       2.590 -13.148  11.116  1.00  0.00     0.134 A 
ATOM     61  C   UNL     1       1.135 -14.187   9.522  1.00  0.00     0.134 A 
ATOM     62  F   UNL     1       2.880 -12.171  11.989  1.00  0.00    -0.206 F 
ATOM     63  C   UNL     1       3.561 -14.122  10.877  1.00  0.00     0.040 A 
ATOM     64  C   UNL     1       2.087 -15.182   9.294  1.00  0.00     0.040 A 
ATOM     65  F   UNL     1      -0.017 -14.249   8.838  1.00  0.00    -0.206 F 
ATOM     66  C   UNL     1       3.307 -15.146   9.966  1.00  0.00     0.006 A 
ENDBRANCH  45  59
BRANCH  46  67
ATOM     67  C   UNL     1      -5.330  -5.821  11.468  1.00  0.00     0.057 A 
ATOM     68  C   UNL     1      -5.597  -5.248  12.717  1.00  0.00     0.134 A 
ATOM     69  C   UNL     1      -6.061  -5.348  10.372  1.00  0.00     0.134 A 
ATOM     70  F   UNL     1      -4.941  -5.672  13.807  1.00  0.00    -0.206 F 
ATOM     71  C   UNL     1      -6.569  -4.259  12.877  1.00  0.00     0.040 A 
ATOM     72  C   UNL     1      -7.021  -4.345  10.513  1.00  0.00     0.040 A 
ATOM     73  F   UNL     1      -5.845  -5.850   9.147  1.00  0.00    -0.206 F 
ATOM     74  C   UNL     1      -7.283  -3.803  11.770  1.00  0.00     0.006 A 
ENDBRANCH  46  67
BRANCH  58  75
ATOM     75  C   UNL     1      -5.072 -12.435  13.604  1.00  0.00     0.057 A 
ATOM     76  C   UNL     1      -6.272 -12.936  13.085  1.00  0.00     0.134 A 
ATOM     77  C   UNL     1      -4.744 -12.770  14.924  1.00  0.00     0.134 A 
ATOM     78  F   UNL     1      -6.647 -12.639  11.832  1.00  0.00    -0.206 F 
ATOM     79  C   UNL     1      -7.124 -13.725  13.858  1.00  0.00     0.040 A 
ATOM     80  C   UNL     1      -5.578 -13.576  15.699  1.00  0.00     0.040 A 
ATOM     81  F   UNL     1      -3.605 -12.326  15.477  1.00  0.00    -0.206 F 
ATOM     82  C   UNL     1      -6.774 -14.053  15.168  1.00  0.00     0.006 A 
ENDBRANCH  58  75
ENDBRANCH  32  33
ENDBRANCH  24  27
ENDBRANCH  22  23
ENDBRANCH  21  22
ENDBRANCH  20  21
ENDBRANCH   1  20
TORSDOF 15
