REMARK SMILES CCn1ncc(NC(=O)[C@@H]2CCCC[C@@H]2C(=O)NCCCCNC(=O)c2ccc(-c3c4nc(c(-c5c(F)cccc5F)c5ccc([nH]5)c(-c5c(F)cccc5F)c5nc(c(-c6c(F)cccc6F)c6ccc3[nH]6)C=C5)C=C4)cc2)c1C(=O)Nc1cnn(C)c1C
REMARK SMILES IDX 19 1 18 2 16 3 17 4 15 6 10 7 11 8 12 9 14 10 13 11 8 12
REMARK SMILES IDX 7 13 9 15 6 16 3 17 4 18 80 19 5 20 2 21 1 22 81 23 82 24
REMARK SMILES IDX 83 25 84 27 85 28 89 29 86 30 87 31 90 32 88 33 20 34 21 35
REMARK SMILES IDX 22 36 23 37 24 38 25 40 26 41 27 42 79 43 28 44 78 45 29 46
REMARK SMILES IDX 30 47 31 48 72 49 32 50 77 51 71 52 73 53 33 54 76 55 70 56
REMARK SMILES IDX 69 57 34 59 60 60 43 61 59 62 44 63 47 64 58 65 74 66 45 67
REMARK SMILES IDX 46 68 57 70 75 71 48 72 35 73 36 74 41 75 37 76 38 77 40 78
REMARK SMILES IDX 42 79 39 80 61 81 62 82 67 83 63 84 64 85 66 86 68 87 65 88
REMARK SMILES IDX 49 89 50 90 55 91 51 92 52 93 54 94 56 95 53 96
REMARK H PARENT 18 5 7 14 83 26 23 39 73 58 47 69
REMARK Flexibility Score: inf
ROOT
ATOM      1  C   UNL     1       3.291  -6.886  -2.525  1.00  0.00     0.116 C 
ENDROOT
BRANCH   1   2
ATOM      2  N   UNL     1       3.820  -5.823  -3.350  1.00  0.00    -0.356 N 
ATOM      3  C   UNL     1       3.300  -4.650  -3.796  1.00  0.00     0.223 C 
ATOM      4  O   UNL     1       4.064  -3.988  -4.507  1.00  0.00    -0.275 OA
ATOM      5  H   UNL     1       4.745  -5.981  -3.649  1.00  0.00     0.163 HD
BRANCH   3   6
ATOM      6  C   UNL     1       1.868  -4.160  -3.479  1.00  0.00     0.091 C 
ATOM      7  C   UNL     1       1.803  -2.606  -3.534  1.00  0.00     0.091 C 
ATOM      8  C   UNL     1       2.848  -2.008  -2.575  1.00  0.00     0.014 C 
ATOM      9  C   UNL     1       2.605  -2.492  -1.141  1.00  0.00     0.001 C 
ATOM     10  C   UNL     1       1.315  -4.468  -2.074  1.00  0.00     0.014 C 
ATOM     11  C   UNL     1       2.268  -3.973  -0.989  1.00  0.00     0.001 C 
BRANCH   7  12
ATOM     12  C   UNL     1       1.678  -1.983  -4.914  1.00  0.00     0.228 C 
ATOM     13  N   UNL     1       1.350  -0.657  -5.052  1.00  0.00    -0.322 N 
ATOM     14  H   UNL     1       1.307  -0.352  -5.987  1.00  0.00     0.170 HD
ATOM     15  O   UNL     1       1.853  -2.639  -5.944  1.00  0.00    -0.274 OA
BRANCH  13  16
ATOM     16  C   UNL     1       1.066   0.338  -4.123  1.00  0.00     0.092 A 
ATOM     17  N   UNL     1       0.881   1.541  -2.326  1.00  0.00    -0.258 N 
ATOM     18  N   UNL     1       1.268   2.430  -3.267  1.00  0.00    -0.178 NA
ATOM     19  C   UNL     1       0.415   0.355  -2.877  1.00  0.00     0.150 A 
ATOM     20  C   UNL     1       1.411   1.685  -4.355  1.00  0.00     0.162 A 
BRANCH  17  21
ATOM     21  C   UNL     1       1.121   1.955  -0.958  1.00  0.00     0.142 C 
ATOM     22  C   UNL     1       2.145   1.112  -0.220  1.00  0.00     0.029 C 
ENDBRANCH  17  21
BRANCH  19  23
ATOM     23  C   UNL     1      -0.557  -0.620  -2.372  1.00  0.00     0.276 C 
ATOM     24  O   UNL     1      -1.256  -1.286  -3.139  1.00  0.00    -0.267 OA
ATOM     25  N   UNL     1      -0.515  -1.032  -1.058  1.00  0.00    -0.318 N 
ATOM     26  H   UNL     1      -0.166  -1.938  -0.894  1.00  0.00     0.170 HD
BRANCH  25  27
ATOM     27  C   UNL     1      -0.908  -0.317   0.050  1.00  0.00     0.082 A 
ATOM     28  C   UNL     1      -1.795   0.768   0.163  1.00  0.00     0.161 A 
ATOM     29  C   UNL     1      -0.462  -0.562   1.336  1.00  0.00     0.059 A 
ATOM     30  N   UNL     1      -1.792   1.283   1.394  1.00  0.00    -0.179 NA
ATOM     31  N   UNL     1      -0.920   0.508   2.069  1.00  0.00    -0.271 N 
ATOM     32  C   UNL     1       0.460  -1.584   1.897  1.00  0.00     0.068 C 
ATOM     33  C   UNL     1      -0.438   0.972   3.350  1.00  0.00     0.174 C 
ENDBRANCH  25  27
ENDBRANCH  19  23
ENDBRANCH  13  16
ENDBRANCH   7  12
ENDBRANCH   3   6
ENDBRANCH   1   2
BRANCH   1  34
ATOM     34  C   UNL     1       3.519  -8.272  -3.111  1.00  0.00     0.023 C 
BRANCH  34  35
ATOM     35  C   UNL     1       4.975  -8.704  -3.272  1.00  0.00     0.023 C 
BRANCH  35  36
ATOM     36  C   UNL     1       5.792  -8.656  -1.990  1.00  0.00     0.116 C 
BRANCH  36  37
ATOM     37  N   UNL     1       5.266  -9.529  -0.942  1.00  0.00    -0.352 N 
ATOM     38  C   UNL     1       5.811  -9.740   0.305  1.00  0.00     0.251 C 
ATOM     39  H   UNL     1       4.436 -10.017  -1.149  1.00  0.00     0.163 HD
ATOM     40  O   UNL     1       5.529 -10.738   0.971  1.00  0.00    -0.269 OA
BRANCH  38  41
ATOM     41  C   UNL     1       6.721  -8.723   0.846  1.00  0.00     0.039 A 
ATOM     42  C   UNL     1       7.936  -9.065   1.444  1.00  0.00     0.014 A 
ATOM     43  C   UNL     1       6.339  -7.389   0.696  1.00  0.00     0.014 A 
ATOM     44  C   UNL     1       8.797  -8.043   1.832  1.00  0.00     0.010 A 
ATOM     45  C   UNL     1       7.240  -6.390   0.953  1.00  0.00     0.010 A 
ATOM     46  C   UNL     1       8.444  -6.708   1.569  1.00  0.00    -0.014 A 
BRANCH  46  47
ATOM     47  C   UNL     1       9.386  -5.623   1.807  1.00  0.00     0.031 A 
ATOM     48  C   UNL     1      10.664  -5.764   1.060  1.00  0.00     0.074 A 
ATOM     49  C   UNL     1       9.049  -4.489   2.459  1.00  0.00     0.049 A 
ATOM     50  N   UNL     1      11.823  -6.051   1.549  1.00  0.00    -0.248 NA
ATOM     51  C   UNL     1      10.628  -5.749  -0.412  1.00  0.00     0.031 C 
ATOM     52  C   UNL     1       7.733  -4.080   2.964  1.00  0.00     0.029 A 
ATOM     53  N   UNL     1       9.819  -3.403   2.735  1.00  0.00    -0.354 N 
ATOM     54  C   UNL     1      12.708  -6.026   0.475  1.00  0.00     0.074 A 
ATOM     55  C   UNL     1      11.897  -6.037  -0.713  1.00  0.00     0.031 C 
ATOM     56  C   UNL     1       7.752  -2.763   3.272  1.00  0.00     0.029 A 
ATOM     57  C   UNL     1       9.114  -2.277   3.151  1.00  0.00     0.049 A 
ATOM     58  H   UNL     1      10.800  -3.412   2.646  1.00  0.00     0.167 HD
ATOM     59  C   UNL     1      14.024  -5.731   0.667  1.00  0.00     0.037 A 
ATOM     60  C   UNL     1       9.624  -1.037   3.362  1.00  0.00     0.037 A 
ATOM     61  C   UNL     1      14.365  -5.802   2.067  1.00  0.00     0.049 A 
ATOM     62  C   UNL     1      11.090  -1.192   3.537  1.00  0.00     0.074 A 
ATOM     63  C   UNL     1      14.339  -6.792   3.030  1.00  0.00     0.029 A 
ATOM     64  N   UNL     1      14.432  -4.613   2.753  1.00  0.00    -0.354 N 
ATOM     65  N   UNL     1      11.633  -1.788   4.562  1.00  0.00    -0.248 NA
ATOM     66  C   UNL     1      11.919  -1.116   2.345  1.00  0.00     0.031 C 
ATOM     67  C   UNL     1      13.900  -6.136   4.218  1.00  0.00     0.029 A 
ATOM     68  C   UNL     1      13.767  -4.775   3.939  1.00  0.00     0.049 A 
ATOM     69  H   UNL     1      14.877  -3.791   2.446  1.00  0.00     0.167 HD
ATOM     70  C   UNL     1      12.660  -2.547   4.021  1.00  0.00     0.074 A 
ATOM     71  C   UNL     1      12.840  -2.030   2.664  1.00  0.00     0.031 C 
ATOM     72  C   UNL     1      13.058  -3.711   4.612  1.00  0.00     0.037 A 
BRANCH  59  73
ATOM     73  C   UNL     1      14.896  -4.986  -0.315  1.00  0.00     0.057 A 
ATOM     74  C   UNL     1      16.270  -4.854  -0.038  1.00  0.00     0.134 A 
ATOM     75  C   UNL     1      14.409  -4.144  -1.334  1.00  0.00     0.134 A 
ATOM     76  F   UNL     1      16.855  -5.594   0.917  1.00  0.00    -0.206 F 
ATOM     77  C   UNL     1      17.075  -3.894  -0.663  1.00  0.00     0.040 A 
ATOM     78  C   UNL     1      15.216  -3.218  -2.001  1.00  0.00     0.040 A 
ATOM     79  F   UNL     1      13.115  -4.091  -1.667  1.00  0.00    -0.206 F 
ATOM     80  C   UNL     1      16.545  -3.065  -1.643  1.00  0.00     0.006 A 
ENDBRANCH  59  73
BRANCH  60  81
ATOM     81  C   UNL     1       9.006   0.289   3.124  1.00  0.00     0.057 A 
ATOM     82  C   UNL     1       9.572   1.459   3.654  1.00  0.00     0.134 A 
ATOM     83  C   UNL     1       8.031   0.475   2.128  1.00  0.00     0.134 A 
ATOM     84  F   UNL     1      10.536   1.388   4.583  1.00  0.00    -0.206 F 
ATOM     85  C   UNL     1       9.219   2.736   3.195  1.00  0.00     0.040 A 
ATOM     86  C   UNL     1       7.668   1.744   1.661  1.00  0.00     0.040 A 
ATOM     87  F   UNL     1       7.466  -0.573   1.510  1.00  0.00    -0.206 F 
ATOM     88  C   UNL     1       8.274   2.880   2.183  1.00  0.00     0.006 A 
ENDBRANCH  60  81
BRANCH  72  89
ATOM     89  C   UNL     1      12.545  -4.012   5.995  1.00  0.00     0.057 A 
ATOM     90  C   UNL     1      11.195  -4.225   6.317  1.00  0.00     0.134 A 
ATOM     91  C   UNL     1      13.478  -4.244   7.011  1.00  0.00     0.134 A 
ATOM     92  F   UNL     1      10.234  -4.120   5.391  1.00  0.00    -0.206 F 
ATOM     93  C   UNL     1      10.794  -4.615   7.600  1.00  0.00     0.040 A 
ATOM     94  C   UNL     1      13.095  -4.665   8.286  1.00  0.00     0.040 A 
ATOM     95  F   UNL     1      14.791  -4.111   6.764  1.00  0.00    -0.206 F 
ATOM     96  C   UNL     1      11.747  -4.843   8.587  1.00  0.00     0.006 A 
ENDBRANCH  72  89
ENDBRANCH  46  47
ENDBRANCH  38  41
ENDBRANCH  36  37
ENDBRANCH  35  36
ENDBRANCH  34  35
ENDBRANCH   1  34
TORSDOF 16
