REMARK SMILES Cc1c(CC(=O)NCCCCNC(=O)c2ccc(-c3c4nc(c(-c5c(F)cccc5F)c5ccc([nH]5)c(-c5c(F)cccc5F)c5nc(c(-c6c(F)cccc6F)c6ccc3[nH]6)C=C5)C=C4)cc2)c2cc(O)ccc2n1C(=O)c1ccc(Cl)cc1
REMARK SMILES IDX 9 1 8 2 7 3 5 4 6 5 4 7 3 8 1 9 2 10 76 11 69 12 75 13 70 14
REMARK SMILES IDX 74 15 71 16 73 17 77 18 78 19 79 20 80 21 85 22 81 23 84 24
REMARK SMILES IDX 82 25 83 26 72 27 10 29 11 30 12 31 13 32 14 34 15 35 16 36
REMARK SMILES IDX 68 37 17 38 67 39 18 40 19 41 20 42 61 43 21 44 66 45 60 46
REMARK SMILES IDX 62 47 22 48 65 49 59 50 58 51 23 53 49 54 32 55 48 56 33 57
REMARK SMILES IDX 36 58 47 59 63 60 34 61 35 62 46 64 64 65 37 66 24 67 25 68
REMARK SMILES IDX 30 69 26 70 27 71 29 72 31 73 28 74 50 75 51 76 56 77 52 78
REMARK SMILES IDX 53 79 55 80 57 81 54 82 38 83 39 84 44 85 40 86 41 87 43 88
REMARK SMILES IDX 45 89 42 90
REMARK H PARENT 7 6 72 28 12 33 62 52 36 63
REMARK Flexibility Score: inf
ROOT
ATOM      1  C   UNL     1       3.562  -0.690   2.765  1.00  0.00     0.023 C 
ENDROOT
BRANCH   1   2
ATOM      2  C   UNL     1       2.757  -1.855   2.195  1.00  0.00     0.116 C 
BRANCH   2   3
ATOM      3  N   UNL     1       1.931  -2.486   3.202  1.00  0.00    -0.356 N 
ATOM      4  C   UNL     1       0.569  -2.471   3.312  1.00  0.00     0.224 C 
ATOM      5  O   UNL     1       0.054  -3.091   4.244  1.00  0.00    -0.275 OA
ATOM      6  H   UNL     1       2.412  -2.989   3.898  1.00  0.00     0.163 HD
BRANCH   4   7
ATOM      7  C   UNL     1      -0.273  -1.759   2.264  1.00  0.00     0.138 C 
BRANCH   7   8
ATOM      8  C   UNL     1      -0.103  -0.265   2.271  1.00  0.00    -0.009 A 
ATOM      9  C   UNL     1       0.595   0.158  -0.201  1.00  0.00     0.065 C 
ATOM     10  C   UNL     1       0.275   0.549   1.210  1.00  0.00     0.028 A 
ATOM     11  N   UNL     1       0.377   1.872   1.666  1.00  0.00    -0.280 N 
ATOM     12  C   UNL     1      -0.352   0.588   3.384  1.00  0.00     0.008 A 
ATOM     13  C   UNL     1      -0.133   1.908   2.975  1.00  0.00     0.057 A 
ATOM     14  C   UNL     1      -0.780   0.335   4.707  1.00  0.00     0.056 A 
ATOM     15  C   UNL     1      -0.425   2.975   3.853  1.00  0.00     0.031 A 
ATOM     16  C   UNL     1      -0.991   1.395   5.581  1.00  0.00     0.116 A 
ATOM     17  C   UNL     1      -0.833   2.702   5.162  1.00  0.00     0.048 A 
BRANCH  11  18
ATOM     18  C   UNL     1       0.904   2.967   0.921  1.00  0.00     0.262 C 
ATOM     19  O   UNL     1       1.232   2.788  -0.254  1.00  0.00    -0.268 OA
BRANCH  18  20
ATOM     20  C   UNL     1       1.097   4.333   1.430  1.00  0.00     0.040 A 
ATOM     21  C   UNL     1       2.004   4.597   2.462  1.00  0.00     0.015 A 
ATOM     22  C   UNL     1       0.341   5.364   0.859  1.00  0.00     0.015 A 
ATOM     23  C   UNL     1       2.093   5.892   2.978  1.00  0.00     0.021 A 
ATOM     24  C   UNL     1       0.439   6.655   1.375  1.00  0.00     0.021 A 
ATOM     25  C   UNL     1       1.301   6.911   2.442  1.00  0.00     0.041 A 
ATOM     26  Cl  UNL     1       1.374   8.492   3.115  1.00  0.00    -0.084 Cl
ENDBRANCH  18  20
ENDBRANCH  11  18
BRANCH  16  27
ATOM     27  O   UNL     1      -1.377   1.100   6.856  1.00  0.00    -0.508 OA
ATOM     28  H   UNL     1      -1.478   0.207   7.119  1.00  0.00     0.293 HD
ENDBRANCH  16  27
ENDBRANCH   7   8
ENDBRANCH   4   7
ENDBRANCH   2   3
ENDBRANCH   1   2
BRANCH   1  29
ATOM     29  C   UNL     1       4.684  -1.103   3.728  1.00  0.00     0.023 C 
BRANCH  29  30
ATOM     30  C   UNL     1       5.617  -2.191   3.189  1.00  0.00     0.116 C 
BRANCH  30  31
ATOM     31  N   UNL     1       6.171  -1.869   1.889  1.00  0.00    -0.352 N 
ATOM     32  C   UNL     1       7.267  -1.186   1.447  1.00  0.00     0.251 C 
ATOM     33  H   UNL     1       5.628  -2.228   1.150  1.00  0.00     0.163 HD
ATOM     34  O   UNL     1       7.434  -1.169   0.224  1.00  0.00    -0.269 OA
BRANCH  32  35
ATOM     35  C   UNL     1       8.239  -0.460   2.311  1.00  0.00     0.039 A 
ATOM     36  C   UNL     1       8.171  -0.350   3.700  1.00  0.00     0.014 A 
ATOM     37  C   UNL     1       9.291   0.193   1.641  1.00  0.00     0.014 A 
ATOM     38  C   UNL     1       9.095   0.423   4.398  1.00  0.00     0.010 A 
ATOM     39  C   UNL     1      10.223   0.961   2.334  1.00  0.00     0.010 A 
ATOM     40  C   UNL     1      10.103   1.102   3.714  1.00  0.00    -0.014 A 
BRANCH  40  41
ATOM     41  C   UNL     1      11.020   1.924   4.498  1.00  0.00     0.031 A 
ATOM     42  C   UNL     1      11.884   1.219   5.490  1.00  0.00     0.074 A 
ATOM     43  C   UNL     1      11.179   3.245   4.290  1.00  0.00     0.049 A 
ATOM     44  N   UNL     1      11.985   1.434   6.764  1.00  0.00    -0.248 NA
ATOM     45  C   UNL     1      12.720   0.112   5.003  1.00  0.00     0.031 C 
ATOM     46  C   UNL     1      10.633   4.058   3.202  1.00  0.00     0.029 A 
ATOM     47  N   UNL     1      11.966   4.124   4.975  1.00  0.00    -0.354 N 
ATOM     48  C   UNL     1      13.008   0.602   7.220  1.00  0.00     0.074 A 
ATOM     49  C   UNL     1      13.364  -0.250   6.114  1.00  0.00     0.031 C 
ATOM     50  C   UNL     1      11.269   5.249   3.179  1.00  0.00     0.029 A 
ATOM     51  C   UNL     1      12.171   5.325   4.317  1.00  0.00     0.049 A 
ATOM     52  H   UNL     1      12.353   3.923   5.858  1.00  0.00     0.167 HD
ATOM     53  C   UNL     1      13.609   0.779   8.430  1.00  0.00     0.037 A 
ATOM     54  C   UNL     1      13.060   6.293   4.643  1.00  0.00     0.037 A 
ATOM     55  C   UNL     1      12.814   1.577   9.322  1.00  0.00     0.049 A 
ATOM     56  C   UNL     1      13.447   6.110   6.061  1.00  0.00     0.074 A 
ATOM     57  C   UNL     1      11.554   1.464   9.877  1.00  0.00     0.029 A 
ATOM     58  N   UNL     1      13.210   2.865   9.581  1.00  0.00    -0.354 N 
ATOM     59  N   UNL     1      12.668   6.366   7.074  1.00  0.00    -0.248 NA
ATOM     60  C   UNL     1      14.599   5.273   6.359  1.00  0.00     0.031 C 
ATOM     61  C   UNL     1      11.076   2.803   9.989  1.00  0.00     0.029 A 
ATOM     62  C   UNL     1      12.083   3.639   9.508  1.00  0.00     0.049 A 
ATOM     63  H   UNL     1      14.124   3.171   9.780  1.00  0.00     0.167 HD
ATOM     64  C   UNL     1      12.982   5.397   8.014  1.00  0.00     0.074 A 
ATOM     65  C   UNL     1      14.253   4.835   7.571  1.00  0.00     0.031 C 
ATOM     66  C   UNL     1      12.049   4.947   8.904  1.00  0.00     0.037 A 
BRANCH  53  67
ATOM     67  C   UNL     1      15.062   0.486   8.712  1.00  0.00     0.057 A 
ATOM     68  C   UNL     1      16.062   0.486   7.719  1.00  0.00     0.134 A 
ATOM     69  C   UNL     1      15.534   0.508  10.038  1.00  0.00     0.134 A 
ATOM     70  F   UNL     1      15.767   0.548   6.414  1.00  0.00    -0.206 F 
ATOM     71  C   UNL     1      17.427   0.527   8.020  1.00  0.00     0.040 A 
ATOM     72  C   UNL     1      16.897   0.600  10.350  1.00  0.00     0.040 A 
ATOM     73  F   UNL     1      14.681   0.527  11.073  1.00  0.00    -0.206 F 
ATOM     74  C   UNL     1      17.848   0.618   9.338  1.00  0.00     0.006 A 
ENDBRANCH  53  67
BRANCH  54  75
ATOM     75  C   UNL     1      13.739   7.253   3.748  1.00  0.00     0.057 A 
ATOM     76  C   UNL     1      14.035   6.926   2.413  1.00  0.00     0.134 A 
ATOM     77  C   UNL     1      14.324   8.427   4.239  1.00  0.00     0.134 A 
ATOM     78  F   UNL     1      13.607   5.779   1.867  1.00  0.00    -0.206 F 
ATOM     79  C   UNL     1      14.852   7.724   1.608  1.00  0.00     0.040 A 
ATOM     80  C   UNL     1      15.157   9.229   3.449  1.00  0.00     0.040 A 
ATOM     81  F   UNL     1      14.144   8.797   5.515  1.00  0.00    -0.206 F 
ATOM     82  C   UNL     1      15.426   8.876   2.129  1.00  0.00     0.006 A 
ENDBRANCH  54  75
BRANCH  66  83
ATOM     83  C   UNL     1      10.769   5.720   9.021  1.00  0.00     0.057 A 
ATOM     84  C   UNL     1      10.385   6.223  10.268  1.00  0.00     0.134 A 
ATOM     85  C   UNL     1       9.854   5.863   7.967  1.00  0.00     0.134 A 
ATOM     86  F   UNL     1      11.180   6.062  11.338  1.00  0.00    -0.206 F 
ATOM     87  C   UNL     1       9.158   6.864  10.456  1.00  0.00     0.040 A 
ATOM     88  C   UNL     1       8.639   6.533   8.133  1.00  0.00     0.040 A 
ATOM     89  F   UNL     1      10.086   5.313   6.768  1.00  0.00    -0.206 F 
ATOM     90  C   UNL     1       8.287   7.034   9.383  1.00  0.00     0.006 A 
ENDBRANCH  66  83
ENDBRANCH  40  41
ENDBRANCH  32  35
ENDBRANCH  30  31
ENDBRANCH  29  30
ENDBRANCH   1  29
TORSDOF 15
