REMARK SMILES C[C@@H](C(=O)NCCCCNC(=O)c1ccc(-c2c3nc(c(-c4c(F)cccc4F)c4ccc([nH]4)c(-c4c(F)cccc4F)c4nc(c(-c5c(F)cccc5F)c5ccc2[nH]5)C=C4)C=C3)cc1)c1cc(/C=C/S(C)(=O)=O)cc(C(=O)c2ccccc2)c1
REMARK SMILES IDX 7 1 6 2 5 3 3 4 4 5 2 7 1 8 67 9 68 10 86 11 69 12 77 13
REMARK SMILES IDX 76 14 70 15 71 16 72 17 73 18 74 19 75 20 78 21 79 22 80 23
REMARK SMILES IDX 81 24 85 25 82 26 84 27 83 28 8 29 9 30 10 31 11 32 12 34
REMARK SMILES IDX 13 35 14 36 66 37 15 38 65 39 16 40 17 41 18 42 59 43 19 44
REMARK SMILES IDX 64 45 58 46 60 47 20 48 63 49 57 50 56 51 21 53 47 54 30 55
REMARK SMILES IDX 46 56 31 57 34 58 45 59 61 60 32 61 33 62 44 64 62 65 35 66
REMARK SMILES IDX 22 67 23 68 28 69 24 70 25 71 27 72 29 73 26 74 48 75 49 76
REMARK SMILES IDX 54 77 50 78 51 79 53 80 55 81 52 82 36 83 37 84 42 85 38 86
REMARK SMILES IDX 39 87 41 88 43 89 40 90
REMARK H PARENT 5 6 10 33 60 52 34 63
REMARK Flexibility Score: inf
ROOT
ATOM      1  C   UNL     1       4.237  -0.209  -1.266  1.00  0.00     0.023 C 
ENDROOT
BRANCH   1   2
ATOM      2  C   UNL     1       3.463   1.079  -1.550  1.00  0.00     0.116 C 
BRANCH   2   3
ATOM      3  N   UNL     1       2.404   0.841  -2.507  1.00  0.00    -0.356 N 
ATOM      4  C   UNL     1       1.070   0.641  -2.292  1.00  0.00     0.227 C 
ATOM      5  O   UNL     1       0.386   0.322  -3.265  1.00  0.00    -0.274 OA
ATOM      6  H   UNL     1       2.685   0.819  -3.450  1.00  0.00     0.163 HD
BRANCH   4   7
ATOM      7  C   UNL     1       0.491   0.859  -0.889  1.00  0.00     0.105 C 
ATOM      8  C   UNL     1       0.948  -0.207   0.118  1.00  0.00     0.023 C 
BRANCH   7   9
ATOM      9  C   UNL     1      -1.032   0.913  -0.888  1.00  0.00    -0.035 A 
ATOM     10  C   UNL     1      -1.707   2.122  -0.676  1.00  0.00     0.012 A 
ATOM     11  C   UNL     1      -1.780  -0.261  -1.024  1.00  0.00     0.016 A 
ATOM     12  C   UNL     1      -3.103   2.166  -0.535  1.00  0.00    -0.024 A 
ATOM     13  C   UNL     1      -3.157  -0.262  -0.808  1.00  0.00     0.023 A 
ATOM     14  C   UNL     1      -3.818   0.955  -0.584  1.00  0.00     0.020 A 
BRANCH  12  15
ATOM     15  C   UNL     1      -3.837   3.422  -0.276  1.00  0.00     0.020 C 
ATOM     16  C   UNL     1      -3.280   4.642  -0.207  1.00  0.00     0.106 C 
BRANCH  16  17
ATOM     17  S   UNL     1      -4.246   6.037   0.163  1.00  0.00     0.168 S 
ATOM     18  C   UNL     1      -3.421   6.651   1.612  1.00  0.00     0.163 C 
ATOM     19  O   UNL     1      -4.042   7.019  -0.887  1.00  0.00    -0.225 OA
ATOM     20  O   UNL     1      -5.581   5.645   0.564  1.00  0.00    -0.225 OA
ENDBRANCH  16  17
ENDBRANCH  12  15
BRANCH  13  21
ATOM     21  C   UNL     1      -3.919  -1.545  -0.786  1.00  0.00     0.193 C 
ATOM     22  O   UNL     1      -5.141  -1.546  -0.897  1.00  0.00    -0.289 OA
BRANCH  21  23
ATOM     23  C   UNL     1      -3.205  -2.842  -0.640  1.00  0.00     0.022 A 
ATOM     24  C   UNL     1      -3.455  -3.852  -1.573  1.00  0.00     0.012 A 
ATOM     25  C   UNL     1      -2.266  -3.046   0.381  1.00  0.00     0.012 A 
ATOM     26  C   UNL     1      -2.729  -5.043  -1.516  1.00  0.00     0.001 A 
ATOM     27  C   UNL     1      -1.537  -4.236   0.429  1.00  0.00     0.001 A 
ATOM     28  C   UNL     1      -1.764  -5.229  -0.524  1.00  0.00     0.000 A 
ENDBRANCH  21  23
ENDBRANCH  13  21
ENDBRANCH   7   9
ENDBRANCH   4   7
ENDBRANCH   2   3
ENDBRANCH   1   2
BRANCH   1  29
ATOM     29  C   UNL     1       5.038  -0.735  -2.458  1.00  0.00     0.023 C 
BRANCH  29  30
ATOM     30  C   UNL     1       6.037   0.255  -3.042  1.00  0.00     0.116 C 
BRANCH  30  31
ATOM     31  N   UNL     1       7.019   0.704  -2.066  1.00  0.00    -0.352 N 
ATOM     32  C   UNL     1       8.376   0.849  -2.221  1.00  0.00     0.251 C 
ATOM     33  H   UNL     1       6.664   0.933  -1.177  1.00  0.00     0.163 HD
ATOM     34  O   UNL     1       9.089   1.101  -1.256  1.00  0.00    -0.269 OA
BRANCH  32  35
ATOM     35  C   UNL     1       8.971   0.659  -3.559  1.00  0.00     0.039 A 
ATOM     36  C   UNL     1      10.074  -0.186  -3.694  1.00  0.00     0.014 A 
ATOM     37  C   UNL     1       8.406   1.275  -4.680  1.00  0.00     0.014 A 
ATOM     38  C   UNL     1      10.566  -0.474  -4.968  1.00  0.00     0.010 A 
ATOM     39  C   UNL     1       8.850   0.927  -5.951  1.00  0.00     0.010 A 
ATOM     40  C   UNL     1       9.930   0.045  -6.108  1.00  0.00    -0.014 A 
BRANCH  40  41
ATOM     41  C   UNL     1      10.364  -0.336  -7.475  1.00  0.00     0.031 A 
ATOM     42  C   UNL     1      10.894   0.708  -8.417  1.00  0.00     0.074 A 
ATOM     43  C   UNL     1      10.204  -1.607  -7.894  1.00  0.00     0.049 A 
ATOM     44  N   UNL     1      11.234   0.590  -9.675  1.00  0.00    -0.248 NA
ATOM     45  C   UNL     1      11.034   2.072  -7.882  1.00  0.00     0.031 C 
ATOM     46  C   UNL     1       9.658  -2.702  -7.090  1.00  0.00     0.029 A 
ATOM     47  N   UNL     1      10.470  -2.189  -9.108  1.00  0.00    -0.354 N 
ATOM     48  C   UNL     1      11.613   1.862 -10.084  1.00  0.00     0.074 A 
ATOM     49  C   UNL     1      11.412   2.747  -8.957  1.00  0.00     0.031 C 
ATOM     50  C   UNL     1       9.646  -3.825  -7.826  1.00  0.00     0.029 A 
ATOM     51  C   UNL     1      10.138  -3.522  -9.166  1.00  0.00     0.049 A 
ATOM     52  H   UNL     1      10.863  -1.699  -9.867  1.00  0.00     0.167 HD
ATOM     53  C   UNL     1      12.102   2.253 -11.284  1.00  0.00     0.037 A 
ATOM     54  C   UNL     1      10.204  -4.396 -10.188  1.00  0.00     0.037 A 
ATOM     55  C   UNL     1      12.319   1.364 -12.396  1.00  0.00     0.049 A 
ATOM     56  C   UNL     1      10.730  -3.930 -11.518  1.00  0.00     0.074 A 
ATOM     57  C   UNL     1      12.876   1.651 -13.630  1.00  0.00     0.029 A 
ATOM     58  N   UNL     1      11.981   0.019 -12.411  1.00  0.00    -0.354 N 
ATOM     59  N   UNL     1      11.160  -2.742 -11.868  1.00  0.00    -0.248 NA
ATOM     60  C   UNL     1      10.781  -4.927 -12.597  1.00  0.00     0.031 C 
ATOM     61  C   UNL     1      12.822   0.493 -14.412  1.00  0.00     0.029 A 
ATOM     62  C   UNL     1      12.286  -0.529 -13.646  1.00  0.00     0.049 A 
ATOM     63  H   UNL     1      11.583  -0.472 -11.657  1.00  0.00     0.167 HD
ATOM     64  C   UNL     1      11.557  -2.855 -13.194  1.00  0.00     0.074 A 
ATOM     65  C   UNL     1      11.331  -4.232 -13.582  1.00  0.00     0.031 C 
ATOM     66  C   UNL     1      12.062  -1.904 -14.016  1.00  0.00     0.037 A 
BRANCH  53  67
ATOM     67  C   UNL     1      12.434   3.706 -11.461  1.00  0.00     0.057 A 
ATOM     68  C   UNL     1      13.515   4.305 -10.801  1.00  0.00     0.134 A 
ATOM     69  C   UNL     1      11.690   4.507 -12.337  1.00  0.00     0.134 A 
ATOM     70  F   UNL     1      14.263   3.598  -9.940  1.00  0.00    -0.206 F 
ATOM     71  C   UNL     1      13.828   5.653 -10.986  1.00  0.00     0.040 A 
ATOM     72  C   UNL     1      12.011   5.848 -12.553  1.00  0.00     0.040 A 
ATOM     73  F   UNL     1      10.646   3.996 -13.007  1.00  0.00    -0.206 F 
ATOM     74  C   UNL     1      13.079   6.426 -11.870  1.00  0.00     0.006 A 
ENDBRANCH  53  67
BRANCH  54  75
ATOM     75  C   UNL     1       9.765  -5.802  -9.997  1.00  0.00     0.057 A 
ATOM     76  C   UNL     1      10.685  -6.857 -10.022  1.00  0.00     0.134 A 
ATOM     77  C   UNL     1       8.417  -6.128  -9.802  1.00  0.00     0.134 A 
ATOM     78  F   UNL     1      11.988  -6.611 -10.223  1.00  0.00    -0.206 F 
ATOM     79  C   UNL     1      10.279  -8.186  -9.884  1.00  0.00     0.040 A 
ATOM     80  C   UNL     1       8.001  -7.450  -9.634  1.00  0.00     0.040 A 
ATOM     81  F   UNL     1       7.486  -5.164  -9.759  1.00  0.00    -0.206 F 
ATOM     82  C   UNL     1       8.933  -8.484  -9.684  1.00  0.00     0.006 A 
ENDBRANCH  54  75
BRANCH  66  83
ATOM     83  C   UNL     1      12.439  -2.322 -15.408  1.00  0.00     0.057 A 
ATOM     84  C   UNL     1      11.474  -2.622 -16.378  1.00  0.00     0.134 A 
ATOM     85  C   UNL     1      13.784  -2.373 -15.796  1.00  0.00     0.134 A 
ATOM     86  F   UNL     1      10.169  -2.605 -16.067  1.00  0.00    -0.206 F 
ATOM     87  C   UNL     1      11.835  -2.974 -17.680  1.00  0.00     0.040 A 
ATOM     88  C   UNL     1      14.156  -2.695 -17.102  1.00  0.00     0.040 A 
ATOM     89  F   UNL     1      14.758  -2.089 -14.918  1.00  0.00    -0.206 F 
ATOM     90  C   UNL     1      13.179  -3.002 -18.047  1.00  0.00     0.006 A 
ENDBRANCH  66  83
ENDBRANCH  40  41
ENDBRANCH  32  35
ENDBRANCH  30  31
ENDBRANCH  29  30
ENDBRANCH   1  29
TORSDOF 16
