REMARK SMILES C[C@H]1OCC[C@@H]1C(=O)Nc1ccc(Cl)c(C(=O)NCCCCNC(=O)c2ccc(-c3c4nc(c(-c5c(F)cccc5F)c5ccc([nH]5)c(-c5c(F)cccc5F)c5nc(c(-c6c(F)cccc6F)c6ccc3[nH]6)C=C5)C=C4)cc2)c1
REMARK SMILES IDX 20 1 19 2 18 3 16 4 17 5 15 7 10 8 11 9 80 10 12 11 13 12
REMARK SMILES IDX 14 13 9 14 7 15 8 16 6 18 1 19 2 20 3 21 4 22 5 23 21 24
REMARK SMILES IDX 22 25 23 26 24 27 25 29 26 30 27 31 79 32 28 33 78 34 29 35
REMARK SMILES IDX 30 36 31 37 72 38 32 39 77 40 71 41 73 42 33 43 76 44 70 45
REMARK SMILES IDX 69 46 34 48 60 49 43 50 59 51 44 52 47 53 58 54 74 55 45 56
REMARK SMILES IDX 46 57 57 59 75 60 48 61 35 62 36 63 41 64 37 65 38 66 40 67
REMARK SMILES IDX 42 68 39 69 61 70 62 71 67 72 63 73 64 74 66 75 68 76 65 77
REMARK SMILES IDX 49 78 50 79 55 80 51 81 52 82 54 83 56 84 53 85
REMARK H PARENT 18 6 9 17 23 28 73 47 47 58
REMARK Flexibility Score: inf
ROOT
ATOM      1  C   UNL     1      -3.196   3.689   6.887  1.00  0.00     0.023 C 
ENDROOT
BRANCH   1   2
ATOM      2  C   UNL     1      -2.325   3.355   5.688  1.00  0.00     0.116 C 
BRANCH   2   3
ATOM      3  N   UNL     1      -1.034   2.758   5.981  1.00  0.00    -0.352 N 
ATOM      4  C   UNL     1      -0.295   1.865   5.230  1.00  0.00     0.252 C 
ATOM      5  O   UNL     1       0.820   1.532   5.625  1.00  0.00    -0.269 OA
ATOM      6  H   UNL     1      -0.627   3.028   6.836  1.00  0.00     0.163 HD
BRANCH   4   7
ATOM      7  C   UNL     1      -0.868   1.198   4.033  1.00  0.00     0.060 A 
ATOM      8  C   UNL     1      -1.177  -0.868   2.816  1.00  0.00     0.042 A 
ATOM      9  C   UNL     1      -2.201  -0.276   2.091  1.00  0.00     0.028 A 
ATOM     10  C   UNL     1      -0.617  -0.180   3.891  1.00  0.00     0.041 A 
ATOM     11  C   UNL     1      -2.394   1.096   2.172  1.00  0.00     0.023 A 
ATOM     12  C   UNL     1      -1.609   1.846   3.042  1.00  0.00     0.053 A 
ATOM     13  Cl  UNL     1      -1.480   3.534   2.692  1.00  0.00    -0.083 Cl
BRANCH   8  14
ATOM     14  N   UNL     1      -0.681  -2.120   2.450  1.00  0.00    -0.326 N 
ATOM     15  C   UNL     1      -0.256  -2.546   1.216  1.00  0.00     0.230 C 
ATOM     16  O   UNL     1      -0.026  -3.756   1.091  1.00  0.00    -0.274 OA
ATOM     17  H   UNL     1      -0.630  -2.786   3.173  1.00  0.00     0.169 HD
BRANCH  15  18
ATOM     18  C   UNL     1       0.052  -1.611   0.027  1.00  0.00     0.110 C 
ATOM     19  C   UNL     1       2.082  -0.160  -0.472  1.00  0.00     0.039 C 
ATOM     20  C   UNL     1       0.833  -0.349   0.384  1.00  0.00     0.127 C 
ATOM     21  O   UNL     1      -0.042   0.760   0.126  1.00  0.00    -0.378 OA
ATOM     22  C   UNL     1      -0.972   0.370  -0.885  1.00  0.00     0.161 C 
ATOM     23  C   UNL     1      -1.122  -1.138  -0.807  1.00  0.00     0.044 C 
ENDBRANCH  15  18
ENDBRANCH   8  14
ENDBRANCH   4   7
ENDBRANCH   2   3
ENDBRANCH   1   2
BRANCH   1  24
ATOM     24  C   UNL     1      -2.623   4.695   7.879  1.00  0.00     0.023 C 
BRANCH  24  25
ATOM     25  C   UNL     1      -1.950   5.933   7.292  1.00  0.00     0.116 C 
BRANCH  25  26
ATOM     26  N   UNL     1      -2.814   6.745   6.443  1.00  0.00    -0.352 N 
ATOM     27  C   UNL     1      -3.220   8.053   6.578  1.00  0.00     0.251 C 
ATOM     28  H   UNL     1      -3.163   6.284   5.647  1.00  0.00     0.163 HD
ATOM     29  O   UNL     1      -4.004   8.543   5.769  1.00  0.00    -0.269 OA
BRANCH  27  30
ATOM     30  C   UNL     1      -2.763   8.856   7.732  1.00  0.00     0.039 A 
ATOM     31  C   UNL     1      -3.717   9.535   8.495  1.00  0.00     0.014 A 
ATOM     32  C   UNL     1      -1.416   8.894   8.097  1.00  0.00     0.014 A 
ATOM     33  C   UNL     1      -3.338  10.139   9.696  1.00  0.00     0.010 A 
ATOM     34  C   UNL     1      -1.055   9.422   9.332  1.00  0.00     0.010 A 
ATOM     35  C   UNL     1      -2.017  10.024  10.158  1.00  0.00    -0.014 A 
BRANCH  35  36
ATOM     36  C   UNL     1      -1.631  10.464  11.523  1.00  0.00     0.031 A 
ATOM     37  C   UNL     1      -0.596  11.536  11.712  1.00  0.00     0.074 A 
ATOM     38  C   UNL     1      -2.136   9.819  12.594  1.00  0.00     0.049 A 
ATOM     39  N   UNL     1      -0.038  11.959  12.818  1.00  0.00    -0.248 NA
ATOM     40  C   UNL     1      -0.102  12.199  10.496  1.00  0.00     0.031 C 
ATOM     41  C   UNL     1      -3.108   8.724  12.545  1.00  0.00     0.029 A 
ATOM     42  N   UNL     1      -1.887   9.978  13.935  1.00  0.00    -0.354 N 
ATOM     43  C   UNL     1       0.885  12.920  12.430  1.00  0.00     0.074 A 
ATOM     44  C   UNL     1       0.844  12.987  10.985  1.00  0.00     0.031 C 
ATOM     45  C   UNL     1      -3.384   8.322  13.796  1.00  0.00     0.029 A 
ATOM     46  C   UNL     1      -2.579   9.099  14.733  1.00  0.00     0.049 A 
ATOM     47  H   UNL     1      -1.270  10.658  14.291  1.00  0.00     0.167 HD
ATOM     48  C   UNL     1       1.682  13.689  13.209  1.00  0.00     0.037 A 
ATOM     49  C   UNL     1      -2.556   8.924  16.068  1.00  0.00     0.037 A 
ATOM     50  C   UNL     1       1.700  13.644  14.647  1.00  0.00     0.049 A 
ATOM     51  C   UNL     1      -1.658   9.786  16.909  1.00  0.00     0.074 A 
ATOM     52  C   UNL     1       2.416  14.440  15.525  1.00  0.00     0.029 A 
ATOM     53  N   UNL     1       0.971  12.752  15.418  1.00  0.00    -0.354 N 
ATOM     54  N   UNL     1      -0.840  10.738  16.532  1.00  0.00    -0.248 NA
ATOM     55  C   UNL     1      -1.678   9.548  18.359  1.00  0.00     0.031 C 
ATOM     56  C   UNL     1       2.148  14.004  16.827  1.00  0.00     0.029 A 
ATOM     57  C   UNL     1       1.238  12.962  16.761  1.00  0.00     0.049 A 
ATOM     58  H   UNL     1       0.355  12.071  15.064  1.00  0.00     0.167 HD
ATOM     59  C   UNL     1      -0.262  11.225  17.697  1.00  0.00     0.074 A 
ATOM     60  C   UNL     1      -0.834  10.473  18.795  1.00  0.00     0.031 C 
ATOM     61  C   UNL     1       0.661  12.206  17.842  1.00  0.00     0.037 A 
BRANCH  48  62
ATOM     62  C   UNL     1       2.598  14.654  12.517  1.00  0.00     0.057 A 
ATOM     63  C   UNL     1       2.113  15.808  11.888  1.00  0.00     0.134 A 
ATOM     64  C   UNL     1       3.983  14.446  12.508  1.00  0.00     0.134 A 
ATOM     65  F   UNL     1       0.795  16.059  11.851  1.00  0.00    -0.206 F 
ATOM     66  C   UNL     1       2.970  16.708  11.253  1.00  0.00     0.040 A 
ATOM     67  C   UNL     1       4.852  15.351  11.898  1.00  0.00     0.040 A 
ATOM     68  F   UNL     1       4.513  13.364  13.098  1.00  0.00    -0.206 F 
ATOM     69  C   UNL     1       4.345  16.484  11.263  1.00  0.00     0.006 A 
ENDBRANCH  48  62
BRANCH  49  70
ATOM     70  C   UNL     1      -3.421   7.895  16.697  1.00  0.00     0.057 A 
ATOM     71  C   UNL     1      -4.538   8.262  17.455  1.00  0.00     0.134 A 
ATOM     72  C   UNL     1      -3.152   6.528  16.560  1.00  0.00     0.134 A 
ATOM     73  F   UNL     1      -4.833   9.557  17.638  1.00  0.00    -0.206 F 
ATOM     74  C   UNL     1      -5.351   7.307  18.068  1.00  0.00     0.040 A 
ATOM     75  C   UNL     1      -3.969   5.561  17.149  1.00  0.00     0.040 A 
ATOM     76  F   UNL     1      -2.100   6.113  15.840  1.00  0.00    -0.206 F 
ATOM     77  C   UNL     1      -5.069   5.951  17.911  1.00  0.00     0.006 A 
ENDBRANCH  49  70
BRANCH  61  78
ATOM     78  C   UNL     1       1.095  12.538  19.238  1.00  0.00     0.057 A 
ATOM     79  C   UNL     1       1.960  11.704  19.956  1.00  0.00     0.134 A 
ATOM     80  C   UNL     1       0.679  13.726  19.852  1.00  0.00     0.134 A 
ATOM     81  F   UNL     1       2.381  10.544  19.427  1.00  0.00    -0.206 F 
ATOM     82  C   UNL     1       2.388  12.034  21.243  1.00  0.00     0.040 A 
ATOM     83  C   UNL     1       1.117  14.077  21.129  1.00  0.00     0.040 A 
ATOM     84  F   UNL     1      -0.146  14.570  19.215  1.00  0.00    -0.206 F 
ATOM     85  C   UNL     1       1.972  13.228  21.829  1.00  0.00     0.006 A 
ENDBRANCH  61  78
ENDBRANCH  35  36
ENDBRANCH  27  30
ENDBRANCH  25  26
ENDBRANCH  24  25
ENDBRANCH   1  24
TORSDOF 13
