REMARK SMILES Cc1ccc(C[C@H](C(=O)NCCCCNC(=O)c2ccc(-c3c4nc(c(-c5c(F)cccc5F)c5ccc([nH]5)c(-c5c(F)cccc5F)c5nc(c(-c6c(F)cccc6F)c6ccc3[nH]6)C=C5)C=C4)cc2)[C@@H]2CCCC[C@@H]2O)cc1
REMARK SMILES IDX 12 1 11 2 10 3 8 4 9 5 7 7 6 8 5 9 1 10 2 11 3 12 80 13 4 14
REMARK SMILES IDX 79 15 72 16 73 17 77 18 74 19 76 20 75 21 78 22 13 24 14 25
REMARK SMILES IDX 15 26 16 27 17 29 18 30 19 31 71 32 20 33 70 34 21 35 22 36
REMARK SMILES IDX 23 37 64 38 24 39 69 40 63 41 65 42 25 43 68 44 62 45 61 46
REMARK SMILES IDX 26 48 52 49 35 50 51 51 36 52 39 53 50 54 66 55 37 56 38 57
REMARK SMILES IDX 49 59 67 60 40 61 27 62 28 63 33 64 29 65 30 66 32 67 34 68
REMARK SMILES IDX 31 69 53 70 54 71 59 72 55 73 56 74 58 75 60 76 57 77 41 78
REMARK SMILES IDX 42 79 47 80 43 81 44 82 46 83 48 84 45 85
REMARK H PARENT 10 6 78 23 15 28 65 47 39 58
REMARK Flexibility Score: inf
ROOT
ATOM      1  C   UNL     1      -5.887  -2.332   4.352  1.00  0.00     0.023 C 
ENDROOT
BRANCH   1   2
ATOM      2  C   UNL     1      -5.839  -1.454   3.107  1.00  0.00     0.116 C 
BRANCH   2   3
ATOM      3  N   UNL     1      -4.784  -1.709   2.162  1.00  0.00    -0.356 N 
ATOM      4  C   UNL     1      -4.659  -1.246   0.883  1.00  0.00     0.223 C 
ATOM      5  O   UNL     1      -3.608  -1.559   0.308  1.00  0.00    -0.275 OA
ATOM      6  H   UNL     1      -4.057  -2.293   2.479  1.00  0.00     0.163 HD
BRANCH   4   7
ATOM      7  C   UNL     1      -5.782  -0.440   0.148  1.00  0.00     0.088 C 
BRANCH   7   8
ATOM      8  C   UNL     1      -5.881   1.032   0.656  1.00  0.00     0.049 C 
BRANCH   8   9
ATOM      9  C   UNL     1      -6.696   1.276   1.913  1.00  0.00    -0.047 A 
ATOM     10  C   UNL     1      -8.611   1.217   5.773  1.00  0.00     0.044 C 
ATOM     11  C   UNL     1      -8.010   1.368   4.405  1.00  0.00    -0.051 A 
ATOM     12  C   UNL     1      -8.626   0.770   3.301  1.00  0.00     0.004 A 
ATOM     13  C   UNL     1      -6.782   2.017   4.228  1.00  0.00     0.004 A 
ATOM     14  C   UNL     1      -7.988   0.749   2.057  1.00  0.00     0.004 A 
ATOM     15  C   UNL     1      -6.140   1.991   2.984  1.00  0.00     0.004 A 
ENDBRANCH   8   9
ENDBRANCH   7   8
BRANCH   7  16
ATOM     16  C   UNL     1      -5.481  -0.519  -1.416  1.00  0.00     0.030 C 
ATOM     17  C   UNL     1      -6.011   0.616  -2.317  1.00  0.00     0.007 C 
ATOM     18  C   UNL     1      -5.932  -1.870  -2.039  1.00  0.00     0.118 C 
ATOM     19  C   UNL     1      -7.523   0.571  -2.506  1.00  0.00     0.001 C 
ATOM     20  C   UNL     1      -7.444  -1.938  -2.286  1.00  0.00     0.032 C 
ATOM     21  C   UNL     1      -7.949  -0.760  -3.112  1.00  0.00     0.003 C 
BRANCH  18  22
ATOM     22  O   UNL     1      -5.565  -2.979  -1.229  1.00  0.00    -0.393 OA
ATOM     23  H   UNL     1      -6.029  -2.927  -0.379  1.00  0.00     0.210 HD
ENDBRANCH  18  22
ENDBRANCH   7  16
ENDBRANCH   4   7
ENDBRANCH   2   3
ENDBRANCH   1   2
BRANCH   1  24
ATOM     24  C   UNL     1      -4.724  -2.153   5.328  1.00  0.00     0.023 C 
BRANCH  24  25
ATOM     25  C   UNL     1      -4.541  -0.743   5.896  1.00  0.00     0.116 C 
BRANCH  25  26
ATOM     26  N   UNL     1      -5.490  -0.436   6.974  1.00  0.00    -0.352 N 
ATOM     27  C   UNL     1      -5.375   0.333   8.126  1.00  0.00     0.251 C 
ATOM     28  H   UNL     1      -6.374  -0.854   6.859  1.00  0.00     0.163 HD
ATOM     29  O   UNL     1      -6.361   0.599   8.792  1.00  0.00    -0.269 OA
BRANCH  27  30
ATOM     30  C   UNL     1      -4.071   0.955   8.455  1.00  0.00     0.039 A 
ATOM     31  C   UNL     1      -4.041   2.347   8.588  1.00  0.00     0.014 A 
ATOM     32  C   UNL     1      -2.910   0.238   8.227  1.00  0.00     0.014 A 
ATOM     33  C   UNL     1      -2.930   3.034   8.114  1.00  0.00     0.010 A 
ATOM     34  C   UNL     1      -1.877   0.915   7.613  1.00  0.00     0.010 A 
ATOM     35  C   UNL     1      -1.932   2.310   7.471  1.00  0.00    -0.014 A 
BRANCH  35  36
ATOM     36  C   UNL     1      -0.989   2.903   6.521  1.00  0.00     0.031 A 
ATOM     37  C   UNL     1       0.463   2.830   6.798  1.00  0.00     0.074 A 
ATOM     38  C   UNL     1      -1.433   3.420   5.351  1.00  0.00     0.049 A 
ATOM     39  N   UNL     1       1.378   3.458   6.144  1.00  0.00    -0.248 NA
ATOM     40  C   UNL     1       0.990   2.054   7.912  1.00  0.00     0.031 C 
ATOM     41  C   UNL     1      -0.638   3.763   4.173  1.00  0.00     0.029 A 
ATOM     42  N   UNL     1      -2.700   3.963   5.080  1.00  0.00    -0.354 N 
ATOM     43  C   UNL     1       2.605   3.025   6.596  1.00  0.00     0.074 A 
ATOM     44  C   UNL     1       2.303   2.160   7.708  1.00  0.00     0.031 C 
ATOM     45  C   UNL     1      -1.295   4.692   3.464  1.00  0.00     0.029 A 
ATOM     46  C   UNL     1      -2.465   5.075   4.232  1.00  0.00     0.049 A 
ATOM     47  H   UNL     1      -3.569   3.640   5.409  1.00  0.00     0.167 HD
ATOM     48  C   UNL     1       3.730   3.401   5.922  1.00  0.00     0.037 A 
ATOM     49  C   UNL     1      -2.738   6.343   4.655  1.00  0.00     0.037 A 
ATOM     50  C   UNL     1       3.432   4.476   4.973  1.00  0.00     0.049 A 
ATOM     51  C   UNL     1      -1.528   7.249   4.786  1.00  0.00     0.074 A 
ATOM     52  C   UNL     1       3.167   4.550   3.616  1.00  0.00     0.029 A 
ATOM     53  N   UNL     1       3.069   5.704   5.497  1.00  0.00    -0.354 N 
ATOM     54  N   UNL     1      -0.296   6.889   4.549  1.00  0.00    -0.248 NA
ATOM     55  C   UNL     1      -1.620   8.617   5.303  1.00  0.00     0.031 C 
ATOM     56  C   UNL     1       2.566   5.819   3.352  1.00  0.00     0.029 A 
ATOM     57  C   UNL     1       2.483   6.514   4.545  1.00  0.00     0.049 A 
ATOM     58  H   UNL     1       3.212   5.969   6.435  1.00  0.00     0.167 HD
ATOM     59  C   UNL     1       0.546   7.891   4.952  1.00  0.00     0.074 A 
ATOM     60  C   UNL     1      -0.326   8.962   5.395  1.00  0.00     0.031 C 
ATOM     61  C   UNL     1       1.903   7.776   4.967  1.00  0.00     0.037 A 
BRANCH  48  62
ATOM     62  C   UNL     1       5.062   2.685   6.000  1.00  0.00     0.057 A 
ATOM     63  C   UNL     1       5.967   2.756   4.922  1.00  0.00     0.134 A 
ATOM     64  C   UNL     1       5.493   1.851   7.048  1.00  0.00     0.134 A 
ATOM     65  F   UNL     1       5.753   3.566   3.877  1.00  0.00    -0.206 F 
ATOM     66  C   UNL     1       7.141   1.991   4.855  1.00  0.00     0.040 A 
ATOM     67  C   UNL     1       6.633   1.038   6.971  1.00  0.00     0.040 A 
ATOM     68  F   UNL     1       4.883   1.823   8.234  1.00  0.00    -0.206 F 
ATOM     69  C   UNL     1       7.460   1.098   5.865  1.00  0.00     0.006 A 
ENDBRANCH  48  62
BRANCH  49  70
ATOM     70  C   UNL     1      -3.947   6.420   5.515  1.00  0.00     0.057 A 
ATOM     71  C   UNL     1      -5.195   6.093   4.958  1.00  0.00     0.134 A 
ATOM     72  C   UNL     1      -3.861   6.468   6.908  1.00  0.00     0.134 A 
ATOM     73  F   UNL     1      -5.344   6.029   3.625  1.00  0.00    -0.206 F 
ATOM     74  C   UNL     1      -6.282   5.725   5.753  1.00  0.00     0.040 A 
ATOM     75  C   UNL     1      -4.946   6.110   7.715  1.00  0.00     0.040 A 
ATOM     76  F   UNL     1      -2.697   6.745   7.511  1.00  0.00    -0.206 F 
ATOM     77  C   UNL     1      -6.148   5.702   7.138  1.00  0.00     0.006 A 
ENDBRANCH  49  70
BRANCH  61  78
ATOM     78  C   UNL     1       2.779   8.895   5.426  1.00  0.00     0.057 A 
ATOM     79  C   UNL     1       2.724  10.161   4.828  1.00  0.00     0.134 A 
ATOM     80  C   UNL     1       3.773   8.705   6.400  1.00  0.00     0.134 A 
ATOM     81  F   UNL     1       1.814  10.431   3.880  1.00  0.00    -0.206 F 
ATOM     82  C   UNL     1       3.608  11.184   5.182  1.00  0.00     0.040 A 
ATOM     83  C   UNL     1       4.687   9.706   6.736  1.00  0.00     0.040 A 
ATOM     84  F   UNL     1       3.878   7.546   7.068  1.00  0.00    -0.206 F 
ATOM     85  C   UNL     1       4.604  10.953   6.127  1.00  0.00     0.006 A 
ENDBRANCH  61  78
ENDBRANCH  35  36
ENDBRANCH  27  30
ENDBRANCH  25  26
ENDBRANCH  24  25
ENDBRANCH   1  24
TORSDOF 15
