REMARK SMILES C=CC[C@@](CC)(C(=O)NCCCCNC(=O)c1ccc(-c2c3nc(c(-c4c(F)cccc4F)c4ccc([nH]4)c(-c4c(F)cccc4F)c4nc(c(-c5c(F)cccc5F)c5ccc2[nH]5)C=C4)C=C3)cc1)c1ccccc1
REMARK SMILES IDX 11 1 10 2 9 3 7 4 8 5 4 7 3 8 2 9 1 10 5 11 6 12 71 13 72 14
REMARK SMILES IDX 76 15 73 16 75 17 74 18 12 19 13 20 14 21 15 22 16 24 17 25
REMARK SMILES IDX 18 26 70 27 19 28 69 29 20 30 21 31 22 32 63 33 23 34 68 35
REMARK SMILES IDX 62 36 64 37 24 38 67 39 61 40 60 41 25 43 51 44 34 45 50 46
REMARK SMILES IDX 35 47 38 48 49 49 65 50 36 51 37 52 48 54 66 55 39 56 26 57
REMARK SMILES IDX 27 58 32 59 28 60 29 61 31 62 33 63 30 64 52 65 53 66 58 67
REMARK SMILES IDX 54 68 55 69 57 70 59 71 56 72 40 73 41 74 46 75 42 76 43 77
REMARK SMILES IDX 45 78 47 79 44 80
REMARK H PARENT 9 6 14 23 64 42 38 53
REMARK Flexibility Score: inf
ROOT
ATOM      1  C   UNL     1      -3.662  -3.229  -0.553  1.00  0.00     0.023 C 
ENDROOT
BRANCH   1   2
ATOM      2  C   UNL     1      -3.155  -2.602  -1.849  1.00  0.00     0.116 C 
BRANCH   2   3
ATOM      3  N   UNL     1      -3.680  -1.265  -2.061  1.00  0.00    -0.355 N 
ATOM      4  C   UNL     1      -3.133  -0.024  -2.218  1.00  0.00     0.230 C 
ATOM      5  O   UNL     1      -4.005   0.833  -2.392  1.00  0.00    -0.274 OA
ATOM      6  H   UNL     1      -4.663  -1.250  -2.102  1.00  0.00     0.163 HD
BRANCH   4   7
ATOM      7  C   UNL     1      -1.582   0.282  -2.200  1.00  0.00     0.077 C 
BRANCH   7   8
ATOM      8  C   UNL     1      -1.041  -0.307  -0.843  1.00  0.00     0.048 C 
BRANCH   8   9
ATOM      9  C   UNL     1       0.395  -0.760  -0.739  1.00  0.00    -0.033 C 
ATOM     10  C   UNL     1       1.216  -0.362   0.243  1.00  0.00     0.004 C 
ENDBRANCH   8   9
ENDBRANCH   7   8
BRANCH   7  11
ATOM     11  C   UNL     1      -0.935  -0.215  -3.539  1.00  0.00     0.018 C 
ATOM     12  C   UNL     1      -1.024  -1.668  -3.971  1.00  0.00     0.005 C 
ENDBRANCH   7  11
BRANCH   7  13
ATOM     13  C   UNL     1      -1.202   1.829  -2.196  1.00  0.00    -0.032 A 
ATOM     14  C   UNL     1       0.140   2.215  -1.961  1.00  0.00     0.005 A 
ATOM     15  C   UNL     1      -2.090   2.876  -2.489  1.00  0.00     0.005 A 
ATOM     16  C   UNL     1       0.549   3.553  -1.941  1.00  0.00     0.000 A 
ATOM     17  C   UNL     1      -1.685   4.220  -2.471  1.00  0.00     0.000 A 
ATOM     18  C   UNL     1      -0.370   4.560  -2.185  1.00  0.00     0.000 A 
ENDBRANCH   7  13
ENDBRANCH   4   7
ENDBRANCH   2   3
ENDBRANCH   1   2
BRANCH   1  19
ATOM     19  C   UNL     1      -5.164  -3.512  -0.510  1.00  0.00     0.023 C 
BRANCH  19  20
ATOM     20  C   UNL     1      -5.723  -4.290  -1.697  1.00  0.00     0.116 C 
BRANCH  20  21
ATOM     21  N   UNL     1      -5.034  -5.548  -1.942  1.00  0.00    -0.352 N 
ATOM     22  C   UNL     1      -5.562  -6.789  -2.211  1.00  0.00     0.251 C 
ATOM     23  H   UNL     1      -4.051  -5.505  -1.912  1.00  0.00     0.163 HD
ATOM     24  O   UNL     1      -4.832  -7.767  -2.305  1.00  0.00    -0.269 OA
BRANCH  22  25
ATOM     25  C   UNL     1      -7.026  -6.940  -2.341  1.00  0.00     0.039 A 
ATOM     26  C   UNL     1      -7.667  -7.935  -1.600  1.00  0.00     0.014 A 
ATOM     27  C   UNL     1      -7.763  -6.075  -3.153  1.00  0.00     0.014 A 
ATOM     28  C   UNL     1      -9.060  -8.011  -1.610  1.00  0.00     0.010 A 
ATOM     29  C   UNL     1      -9.153  -6.106  -3.106  1.00  0.00     0.010 A 
ATOM     30  C   UNL     1      -9.815  -7.070  -2.329  1.00  0.00    -0.014 A 
BRANCH  30  31
ATOM     31  C   UNL     1     -11.297  -7.066  -2.270  1.00  0.00     0.031 A 
ATOM     32  C   UNL     1     -12.101  -7.334  -3.511  1.00  0.00     0.074 A 
ATOM     33  C   UNL     1     -11.918  -6.747  -1.118  1.00  0.00     0.049 A 
ATOM     34  N   UNL     1     -13.398  -7.295  -3.681  1.00  0.00    -0.248 NA
ATOM     35  C   UNL     1     -11.345  -7.660  -4.731  1.00  0.00     0.031 C 
ATOM     36  C   UNL     1     -11.250  -6.415   0.142  1.00  0.00     0.029 A 
ATOM     37  N   UNL     1     -13.254  -6.637  -0.823  1.00  0.00    -0.354 N 
ATOM     38  C   UNL     1     -13.610  -7.570  -5.025  1.00  0.00     0.074 A 
ATOM     39  C   UNL     1     -12.309  -7.727  -5.637  1.00  0.00     0.031 C 
ATOM     40  C   UNL     1     -12.178  -6.161   1.079  1.00  0.00     0.029 A 
ATOM     41  C   UNL     1     -13.504  -6.278   0.479  1.00  0.00     0.049 A 
ATOM     42  H   UNL     1     -13.966  -6.800  -1.483  1.00  0.00     0.167 HD
ATOM     43  C   UNL     1     -14.785  -7.700  -5.686  1.00  0.00     0.037 A 
ATOM     44  C   UNL     1     -14.670  -6.062   1.116  1.00  0.00     0.037 A 
ATOM     45  C   UNL     1     -16.079  -7.579  -5.069  1.00  0.00     0.049 A 
ATOM     46  C   UNL     1     -15.960  -6.225   0.362  1.00  0.00     0.074 A 
ATOM     47  C   UNL     1     -17.326  -7.765  -5.638  1.00  0.00     0.029 A 
ATOM     48  N   UNL     1     -16.290  -7.241  -3.741  1.00  0.00    -0.354 N 
ATOM     49  N   UNL     1     -16.148  -6.555  -0.893  1.00  0.00    -0.248 NA
ATOM     50  C   UNL     1     -17.201  -5.990   1.114  1.00  0.00     0.031 C 
ATOM     51  C   UNL     1     -18.295  -7.505  -4.662  1.00  0.00     0.029 A 
ATOM     52  C   UNL     1     -17.649  -7.196  -3.476  1.00  0.00     0.049 A 
ATOM     53  H   UNL     1     -15.580  -7.060  -3.083  1.00  0.00     0.167 HD
ATOM     54  C   UNL     1     -17.524  -6.595  -1.074  1.00  0.00     0.074 A 
ATOM     55  C   UNL     1     -18.124  -6.267   0.203  1.00  0.00     0.031 C 
ATOM     56  C   UNL     1     -18.228  -6.879  -2.196  1.00  0.00     0.037 A 
BRANCH  43  57
ATOM     57  C   UNL     1     -14.722  -7.999  -7.155  1.00  0.00     0.057 A 
ATOM     58  C   UNL     1     -14.312  -9.249  -7.636  1.00  0.00     0.134 A 
ATOM     59  C   UNL     1     -15.105  -7.037  -8.097  1.00  0.00     0.134 A 
ATOM     60  F   UNL     1     -13.919 -10.210  -6.785  1.00  0.00    -0.206 F 
ATOM     61  C   UNL     1     -14.261  -9.524  -9.003  1.00  0.00     0.040 A 
ATOM     62  C   UNL     1     -15.083  -7.309  -9.466  1.00  0.00     0.040 A 
ATOM     63  F   UNL     1     -15.513  -5.821  -7.704  1.00  0.00    -0.206 F 
ATOM     64  C   UNL     1     -14.654  -8.554  -9.923  1.00  0.00     0.006 A 
ENDBRANCH  43  57
BRANCH  44  65
ATOM     65  C   UNL     1     -14.678  -5.696   2.554  1.00  0.00     0.057 A 
ATOM     66  C   UNL     1     -15.120  -6.604   3.524  1.00  0.00     0.134 A 
ATOM     67  C   UNL     1     -14.259  -4.435   2.993  1.00  0.00     0.134 A 
ATOM     68  F   UNL     1     -15.552  -7.821   3.161  1.00  0.00    -0.206 F 
ATOM     69  C   UNL     1     -15.165  -6.265   4.877  1.00  0.00     0.040 A 
ATOM     70  C   UNL     1     -14.277  -4.090   4.346  1.00  0.00     0.040 A 
ATOM     71  F   UNL     1     -13.817  -3.524   2.114  1.00  0.00    -0.206 F 
ATOM     72  C   UNL     1     -14.738  -5.005   5.291  1.00  0.00     0.006 A 
ENDBRANCH  44  65
BRANCH  56  73
ATOM     73  C   UNL     1     -19.723  -6.884  -2.084  1.00  0.00     0.057 A 
ATOM     74  C   UNL     1     -20.459  -5.698  -1.977  1.00  0.00     0.134 A 
ATOM     75  C   UNL     1     -20.436  -8.089  -2.126  1.00  0.00     0.134 A 
ATOM     76  F   UNL     1     -19.834  -4.512  -1.918  1.00  0.00    -0.206 F 
ATOM     77  C   UNL     1     -21.852  -5.711  -1.894  1.00  0.00     0.040 A 
ATOM     78  C   UNL     1     -21.829  -8.114  -2.068  1.00  0.00     0.040 A 
ATOM     79  F   UNL     1     -19.789  -9.259  -2.236  1.00  0.00    -0.206 F 
ATOM     80  C   UNL     1     -22.541  -6.922  -1.947  1.00  0.00     0.006 A 
ENDBRANCH  56  73
ENDBRANCH  30  31
ENDBRANCH  22  25
ENDBRANCH  20  21
ENDBRANCH  19  20
ENDBRANCH   1  19
TORSDOF 15
