REMARK SMILES [NH3+][C@@H](CNc1ccc(C(=O)NCCCCNC(=O)c2ccc(-c3c4nc(c(-c5c(F)cccc5F)c5ccc([nH]5)c(-c5c(F)cccc5F)c5nc(c(-c6c(F)cccc6F)c6ccc3[nH]6)C=C5)C=C4)cc2)c(F)c1F)c1ccccc1
REMARK SMILES IDX 12 1 11 2 9 3 10 4 8 6 5 7 6 8 75 9 7 10 73 11 76 12 74 13
REMARK SMILES IDX 4 14 3 16 2 17 1 18 77 22 78 23 82 24 79 25 81 26 80 27
REMARK SMILES IDX 13 28 14 29 15 30 16 31 17 32 18 34 19 35 20 36 72 37 21 38
REMARK SMILES IDX 71 39 22 40 23 41 24 42 65 43 25 44 70 45 64 46 66 47 26 48
REMARK SMILES IDX 69 49 63 50 62 51 27 53 53 54 36 55 52 56 37 57 40 58 51 59
REMARK SMILES IDX 67 60 38 61 39 62 50 64 68 65 41 66 28 67 29 68 34 69 30 70
REMARK SMILES IDX 31 71 33 72 35 73 32 74 54 75 55 76 60 77 56 78 57 79 59 80
REMARK SMILES IDX 61 81 58 82 42 83 43 84 48 85 44 86 45 87 47 88 49 89 46 90
REMARK H PARENT 11 5 4 15 1 19 1 20 1 21 16 33 66 52 40 63
REMARK Flexibility Score: inf
ROOT
ATOM      1  C   UNL     1      -4.465   4.282  -5.011  1.00  0.00     0.116 C 
ENDROOT
BRANCH   1   2
ATOM      2  N   UNL     1      -3.739   5.535  -5.106  1.00  0.00    -0.352 N 
ATOM      3  C   UNL     1      -2.462   5.855  -4.719  1.00  0.00     0.254 C 
ATOM      4  O   UNL     1      -2.060   7.004  -4.894  1.00  0.00    -0.269 OA
ATOM      5  H   UNL     1      -4.245   6.276  -5.513  1.00  0.00     0.163 HD
BRANCH   3   6
ATOM      6  C   UNL     1      -1.576   4.895  -4.027  1.00  0.00     0.078 A 
ATOM      7  C   UNL     1       0.124   3.162  -2.560  1.00  0.00     0.074 A 
ATOM      8  C   UNL     1       0.022   4.515  -2.228  1.00  0.00     0.030 A 
ATOM      9  C   UNL     1      -0.588   2.723  -3.692  1.00  0.00     0.182 A 
ATOM     10  C   UNL     1      -0.820   5.373  -2.948  1.00  0.00     0.019 A 
ATOM     11  C   UNL     1      -1.410   3.575  -4.426  1.00  0.00     0.173 A 
ATOM     12  F   UNL     1      -0.487   1.435  -4.063  1.00  0.00    -0.201 F 
ATOM     13  F   UNL     1      -2.023   3.097  -5.520  1.00  0.00    -0.203 F 
BRANCH   7  14
ATOM     14  N   UNL     1       0.891   2.257  -1.842  1.00  0.00    -0.376 N 
ATOM     15  H   UNL     1       1.262   1.485  -2.326  1.00  0.00     0.160 HD
BRANCH  14  16
ATOM     16  C   UNL     1       1.186   2.373  -0.414  1.00  0.00     0.183 C 
BRANCH  16  17
ATOM     17  C   UNL     1       0.538   1.214   0.419  1.00  0.00     0.231 C 
BRANCH  17  18
ATOM     18  N   UNL     1       1.071  -0.089  -0.040  1.00  0.00    -0.350 N 
ATOM     19  H   UNL     1       2.091  -0.053  -0.058  1.00  0.00     0.345 HD
ATOM     20  H   UNL     1       0.722  -0.289  -0.977  1.00  0.00     0.345 HD
ATOM     21  H   UNL     1       0.769  -0.825   0.600  1.00  0.00     0.345 HD
ENDBRANCH  17  18
BRANCH  17  22
ATOM     22  C   UNL     1      -0.992   1.222   0.468  1.00  0.00     0.011 A 
ATOM     23  C   UNL     1      -1.719   2.425   0.526  1.00  0.00     0.010 A 
ATOM     24  C   UNL     1      -1.726   0.022   0.536  1.00  0.00     0.010 A 
ATOM     25  C   UNL     1      -3.116   2.428   0.593  1.00  0.00     0.001 A 
ATOM     26  C   UNL     1      -3.123   0.024   0.602  1.00  0.00     0.001 A 
ATOM     27  C   UNL     1      -3.818   1.228   0.623  1.00  0.00     0.000 A 
ENDBRANCH  17  22
ENDBRANCH  16  17
ENDBRANCH  14  16
ENDBRANCH   7  14
ENDBRANCH   3   6
ENDBRANCH   1   2
BRANCH   1  28
ATOM     28  C   UNL     1      -5.934   4.452  -4.627  1.00  0.00     0.023 C 
BRANCH  28  29
ATOM     29  C   UNL     1      -6.785   5.322  -5.552  1.00  0.00     0.023 C 
BRANCH  29  30
ATOM     30  C   UNL     1      -6.710   5.004  -7.042  1.00  0.00     0.116 C 
BRANCH  30  31
ATOM     31  N   UNL     1      -7.086   3.637  -7.369  1.00  0.00    -0.352 N 
ATOM     32  C   UNL     1      -8.081   3.151  -8.186  1.00  0.00     0.251 C 
ATOM     33  H   UNL     1      -6.538   2.945  -6.933  1.00  0.00     0.163 HD
ATOM     34  O   UNL     1      -8.278   1.942  -8.253  1.00  0.00    -0.269 OA
BRANCH  32  35
ATOM     35  C   UNL     1      -8.951   4.075  -8.946  1.00  0.00     0.039 A 
ATOM     36  C   UNL     1     -10.333   3.861  -8.920  1.00  0.00     0.014 A 
ATOM     37  C   UNL     1      -8.427   5.150  -9.667  1.00  0.00     0.014 A 
ATOM     38  C   UNL     1     -11.192   4.787  -9.518  1.00  0.00     0.010 A 
ATOM     39  C   UNL     1      -9.284   6.110 -10.201  1.00  0.00     0.010 A 
ATOM     40  C   UNL     1     -10.676   5.951 -10.109  1.00  0.00    -0.014 A 
BRANCH  40  41
ATOM     41  C   UNL     1     -11.572   7.042 -10.573  1.00  0.00     0.031 A 
ATOM     42  C   UNL     1     -11.624   7.431 -12.022  1.00  0.00     0.074 A 
ATOM     43  C   UNL     1     -12.278   7.743  -9.663  1.00  0.00     0.049 A 
ATOM     44  N   UNL     1     -12.273   8.417 -12.589  1.00  0.00    -0.248 NA
ATOM     45  C   UNL     1     -10.823   6.623 -12.954  1.00  0.00     0.031 C 
ATOM     46  C   UNL     1     -12.275   7.502  -8.218  1.00  0.00     0.029 A 
ATOM     47  N   UNL     1     -13.124   8.814  -9.816  1.00  0.00    -0.354 N 
ATOM     48  C   UNL     1     -11.948   8.358 -13.938  1.00  0.00     0.074 A 
ATOM     49  C   UNL     1     -11.013   7.265 -14.099  1.00  0.00     0.031 C 
ATOM     50  C   UNL     1     -13.091   8.385  -7.622  1.00  0.00     0.029 A 
ATOM     51  C   UNL     1     -13.646   9.278  -8.633  1.00  0.00     0.049 A 
ATOM     52  H   UNL     1     -13.336   9.212 -10.692  1.00  0.00     0.167 HD
ATOM     53  C   UNL     1     -12.402   9.133 -14.952  1.00  0.00     0.037 A 
ATOM     54  C   UNL     1     -14.470  10.314  -8.387  1.00  0.00     0.037 A 
ATOM     55  C   UNL     1     -13.353  10.203 -14.798  1.00  0.00     0.049 A 
ATOM     56  C   UNL     1     -14.957  11.158  -9.530  1.00  0.00     0.074 A 
ATOM     57  C   UNL     1     -13.924  10.997 -15.778  1.00  0.00     0.029 A 
ATOM     58  N   UNL     1     -13.871  10.630 -13.585  1.00  0.00    -0.354 N 
ATOM     59  N   UNL     1     -14.691  11.048 -10.808  1.00  0.00    -0.248 NA
ATOM     60  C   UNL     1     -15.859  12.269  -9.196  1.00  0.00     0.031 C 
ATOM     61  C   UNL     1     -14.762  11.927 -15.155  1.00  0.00     0.029 A 
ATOM     62  C   UNL     1     -14.740  11.690 -13.790  1.00  0.00     0.049 A 
ATOM     63  H   UNL     1     -13.654  10.239 -12.708  1.00  0.00     0.167 HD
ATOM     64  C   UNL     1     -15.404  12.062 -11.432  1.00  0.00     0.074 A 
ATOM     65  C   UNL     1     -16.128  12.767 -10.395  1.00  0.00     0.031 C 
ATOM     66  C   UNL     1     -15.453  12.382 -12.748  1.00  0.00     0.037 A 
BRANCH  53  67
ATOM     67  C   UNL     1     -11.882   8.843 -16.328  1.00  0.00     0.057 A 
ATOM     68  C   UNL     1     -12.289   7.711 -17.044  1.00  0.00     0.134 A 
ATOM     69  C   UNL     1     -10.999   9.727 -16.961  1.00  0.00     0.134 A 
ATOM     70  F   UNL     1     -13.125   6.821 -16.489  1.00  0.00    -0.206 F 
ATOM     71  C   UNL     1     -11.821   7.456 -18.334  1.00  0.00     0.040 A 
ATOM     72  C   UNL     1     -10.541   9.495 -18.259  1.00  0.00     0.040 A 
ATOM     73  F   UNL     1     -10.575  10.834 -16.332  1.00  0.00    -0.206 F 
ATOM     74  C   UNL     1     -10.949   8.354 -18.948  1.00  0.00     0.006 A 
ENDBRANCH  53  67
BRANCH  54  75
ATOM     75  C   UNL     1     -14.900  10.607  -6.997  1.00  0.00     0.057 A 
ATOM     76  C   UNL     1     -16.213  10.354  -6.584  1.00  0.00     0.134 A 
ATOM     77  C   UNL     1     -14.019  11.152  -6.057  1.00  0.00     0.134 A 
ATOM     78  F   UNL     1     -17.107   9.851  -7.447  1.00  0.00    -0.206 F 
ATOM     79  C   UNL     1     -16.640  10.649  -5.288  1.00  0.00     0.040 A 
ATOM     80  C   UNL     1     -14.427  11.432  -4.752  1.00  0.00     0.040 A 
ATOM     81  F   UNL     1     -12.746  11.411  -6.391  1.00  0.00    -0.206 F 
ATOM     82  C   UNL     1     -15.743  11.186  -4.367  1.00  0.00     0.006 A 
ENDBRANCH  54  75
BRANCH  66  83
ATOM     83  C   UNL     1     -16.332  13.531 -13.139  1.00  0.00     0.057 A 
ATOM     84  C   UNL     1     -15.961  14.858 -12.886  1.00  0.00     0.134 A 
ATOM     85  C   UNL     1     -17.545  13.311 -13.801  1.00  0.00     0.134 A 
ATOM     86  F   UNL     1     -14.818  15.133 -12.240  1.00  0.00    -0.206 F 
ATOM     87  C   UNL     1     -16.776  15.925 -13.264  1.00  0.00     0.040 A 
ATOM     88  C   UNL     1     -18.358  14.371 -14.204  1.00  0.00     0.040 A 
ATOM     89  F   UNL     1     -17.954  12.063 -14.077  1.00  0.00    -0.206 F 
ATOM     90  C   UNL     1     -17.976  15.683 -13.931  1.00  0.00     0.006 A 
ENDBRANCH  66  83
ENDBRANCH  40  41
ENDBRANCH  32  35
ENDBRANCH  30  31
ENDBRANCH  29  30
ENDBRANCH  28  29
ENDBRANCH   1  28
TORSDOF 16
