REMARK SMILES Cc1ccc(S(C)(=O)=O)cc1C(=O)NCCOCC(=O)NCCCCNC(=O)c1ccc(-c2c3nc(c(-c4c(F)cccc4F)c4ccc([nH]4)c(-c4c(F)cccc4F)c4nc(c(-c5c(F)cccc5F)c5ccc2[nH]5)C=C4)C=C3)cc1
REMARK SMILES IDX 19 1 20 2 21 3 18 5 17 6 16 7 15 8 14 9 12 10 13 11 11 13
REMARK SMILES IDX 1 14 2 15 3 16 4 17 10 18 5 19 6 20 7 21 8 22 9 23 22 24
REMARK SMILES IDX 23 25 24 26 25 27 26 28 27 29 28 31 29 32 30 33 82 34 31 35
REMARK SMILES IDX 81 36 32 37 33 38 34 39 75 40 35 41 80 42 74 43 76 44 36 45
REMARK SMILES IDX 79 46 73 47 72 48 37 50 63 51 46 52 62 53 47 54 50 55 61 56
REMARK SMILES IDX 77 57 48 58 49 59 60 61 78 62 51 63 38 64 39 65 44 66 40 67
REMARK SMILES IDX 41 68 43 69 45 70 42 71 64 72 65 73 70 74 66 75 67 76 69 77
REMARK SMILES IDX 71 78 68 79 52 80 53 81 58 82 54 83 55 84 57 85 59 86 56 87
REMARK H PARENT 21 4 14 12 26 30 76 49 50 60
REMARK Flexibility Score: inf
ROOT
ATOM      1  C   UNL     1       3.909   3.910  -2.483  1.00  0.00     0.245 C 
ATOM      2  O   UNL     1       2.712   4.200  -2.492  1.00  0.00    -0.272 OA
ATOM      3  N   UNL     1       4.504   3.578  -3.665  1.00  0.00    -0.354 N 
ATOM      4  H   UNL     1       3.909   3.559  -4.449  1.00  0.00     0.163 HD
ENDROOT
BRANCH   1   5
ATOM      5  C   UNL     1       4.729   3.937  -1.184  1.00  0.00     0.260 C 
BRANCH   5   6
ATOM      6  O   UNL     1       5.301   2.729  -0.710  1.00  0.00    -0.370 OA
BRANCH   6   7
ATOM      7  C   UNL     1       4.387   1.639  -0.544  1.00  0.00     0.182 C 
BRANCH   7   8
ATOM      8  C   UNL     1       3.378   1.797   0.612  1.00  0.00     0.144 C 
BRANCH   8   9
ATOM      9  N   UNL     1       2.171   2.477   0.179  1.00  0.00    -0.350 N 
ATOM     10  C   UNL     1       0.884   2.146  -0.127  1.00  0.00     0.251 C 
ATOM     11  O   UNL     1       0.180   3.104  -0.465  1.00  0.00    -0.269 OA
ATOM     12  H   UNL     1       2.323   3.445   0.078  1.00  0.00     0.163 HD
BRANCH  10  13
ATOM     13  C   UNL     1       0.215   0.806  -0.031  1.00  0.00     0.044 A 
ATOM     14  C   UNL     1       2.119  -0.800  -0.729  1.00  0.00     0.045 C 
ATOM     15  C   UNL     1       0.737  -0.485  -0.249  1.00  0.00    -0.038 A 
ATOM     16  C   UNL     1      -0.109  -1.613  -0.095  1.00  0.00     0.005 A 
ATOM     17  C   UNL     1      -1.477  -1.478   0.116  1.00  0.00     0.020 A 
ATOM     18  C   UNL     1      -1.184   0.917   0.174  1.00  0.00     0.034 A 
ATOM     19  C   UNL     1      -2.016  -0.204   0.190  1.00  0.00     0.067 A 
BRANCH  19  20
ATOM     20  S   UNL     1      -3.782  -0.013   0.210  1.00  0.00     0.175 S 
ATOM     21  C   UNL     1      -4.276  -0.642  -1.378  1.00  0.00     0.163 C 
ATOM     22  O   UNL     1      -4.290  -0.905   1.235  1.00  0.00    -0.224 OA
ATOM     23  O   UNL     1      -4.085   1.403   0.232  1.00  0.00    -0.224 OA
ENDBRANCH  19  20
ENDBRANCH  10  13
ENDBRANCH   8   9
ENDBRANCH   7   8
ENDBRANCH   6   7
ENDBRANCH   5   6
ENDBRANCH   1   5
BRANCH   3  24
ATOM     24  C   UNL     1       5.892   3.249  -3.926  1.00  0.00     0.116 C 
BRANCH  24  25
ATOM     25  C   UNL     1       6.095   1.778  -4.306  1.00  0.00     0.023 C 
BRANCH  25  26
ATOM     26  C   UNL     1       5.274   1.278  -5.500  1.00  0.00     0.023 C 
BRANCH  26  27
ATOM     27  C   UNL     1       5.570   1.964  -6.829  1.00  0.00     0.116 C 
BRANCH  27  28
ATOM     28  N   UNL     1       6.697   1.410  -7.570  1.00  0.00    -0.352 N 
ATOM     29  C   UNL     1       7.289   1.863  -8.738  1.00  0.00     0.251 C 
ATOM     30  H   UNL     1       7.095   0.597  -7.185  1.00  0.00     0.163 HD
ATOM     31  O   UNL     1       8.205   1.222  -9.246  1.00  0.00    -0.269 OA
BRANCH  29  32
ATOM     32  C   UNL     1       6.931   3.196  -9.287  1.00  0.00     0.039 A 
ATOM     33  C   UNL     1       7.982   4.041  -9.665  1.00  0.00     0.014 A 
ATOM     34  C   UNL     1       5.635   3.696  -9.196  1.00  0.00     0.014 A 
ATOM     35  C   UNL     1       7.789   5.419  -9.645  1.00  0.00     0.010 A 
ATOM     36  C   UNL     1       5.461   5.061  -9.079  1.00  0.00     0.010 A 
ATOM     37  C   UNL     1       6.563   5.911  -9.208  1.00  0.00    -0.014 A 
BRANCH  37  38
ATOM     38  C   UNL     1       6.383   7.264  -8.702  1.00  0.00     0.031 A 
ATOM     39  C   UNL     1       5.657   8.271  -9.493  1.00  0.00     0.074 A 
ATOM     40  C   UNL     1       6.799   7.550  -7.446  1.00  0.00     0.049 A 
ATOM     41  N   UNL     1       5.643   9.527  -9.205  1.00  0.00    -0.248 NA
ATOM     42  C   UNL     1       4.940   7.956 -10.727  1.00  0.00     0.031 C 
ATOM     43  C   UNL     1       6.455   8.710  -6.626  1.00  0.00     0.029 A 
ATOM     44  N   UNL     1       7.848   6.935  -6.746  1.00  0.00    -0.354 N 
ATOM     45  C   UNL     1       4.697  10.120  -9.999  1.00  0.00     0.074 A 
ATOM     46  C   UNL     1       4.399   9.145 -11.017  1.00  0.00     0.031 C 
ATOM     47  C   UNL     1       7.436   8.911  -5.733  1.00  0.00     0.029 A 
ATOM     48  C   UNL     1       8.505   7.985  -6.059  1.00  0.00     0.049 A 
ATOM     49  H   UNL     1       8.079   5.978  -6.734  1.00  0.00     0.167 HD
ATOM     50  C   UNL     1       4.186  11.319  -9.612  1.00  0.00     0.037 A 
ATOM     51  C   UNL     1       9.777   8.345  -6.402  1.00  0.00     0.037 A 
ATOM     52  C   UNL     1       5.042  11.960  -8.612  1.00  0.00     0.049 A 
ATOM     53  C   UNL     1       9.918   9.764  -6.923  1.00  0.00     0.074 A 
ATOM     54  C   UNL     1       4.961  12.237  -7.259  1.00  0.00     0.029 A 
ATOM     55  N   UNL     1       6.355  12.220  -8.972  1.00  0.00    -0.354 N 
ATOM     56  N   UNL     1       8.929  10.600  -7.083  1.00  0.00    -0.248 NA
ATOM     57  C   UNL     1      11.190  10.315  -7.396  1.00  0.00     0.031 C 
ATOM     58  C   UNL     1       6.274  12.588  -6.804  1.00  0.00     0.029 A 
ATOM     59  C   UNL     1       7.134  12.565  -7.888  1.00  0.00     0.049 A 
ATOM     60  H   UNL     1       6.693  12.164  -9.895  1.00  0.00     0.167 HD
ATOM     61  C   UNL     1       9.383  11.728  -7.714  1.00  0.00     0.074 A 
ATOM     62  C   UNL     1      10.807  11.506  -7.884  1.00  0.00     0.031 C 
ATOM     63  C   UNL     1       8.562  12.749  -8.100  1.00  0.00     0.037 A 
BRANCH  50  64
ATOM     64  C   UNL     1       2.851  11.867 -10.061  1.00  0.00     0.057 A 
ATOM     65  C   UNL     1       2.465  13.174  -9.709  1.00  0.00     0.134 A 
ATOM     66  C   UNL     1       1.849  11.125 -10.723  1.00  0.00     0.134 A 
ATOM     67  F   UNL     1       3.296  13.992  -9.047  1.00  0.00    -0.206 F 
ATOM     68  C   UNL     1       1.195  13.697  -9.999  1.00  0.00     0.040 A 
ATOM     69  C   UNL     1       0.598  11.655 -11.067  1.00  0.00     0.040 A 
ATOM     70  F   UNL     1       1.989   9.828 -11.017  1.00  0.00    -0.206 F 
ATOM     71  C   UNL     1       0.261  12.943 -10.693  1.00  0.00     0.006 A 
ENDBRANCH  50  64
BRANCH  51  72
ATOM     72  C   UNL     1      10.603   7.185  -6.834  1.00  0.00     0.057 A 
ATOM     73  C   UNL     1      10.827   6.139  -5.919  1.00  0.00     0.134 A 
ATOM     74  C   UNL     1      10.849   6.913  -8.181  1.00  0.00     0.134 A 
ATOM     75  F   UNL     1      10.611   6.331  -4.607  1.00  0.00    -0.206 F 
ATOM     76  C   UNL     1      11.156   4.848  -6.338  1.00  0.00     0.040 A 
ATOM     77  C   UNL     1      11.201   5.628  -8.611  1.00  0.00     0.040 A 
ATOM     78  F   UNL     1      10.638   7.848  -9.118  1.00  0.00    -0.206 F 
ATOM     79  C   UNL     1      11.311   4.583  -7.694  1.00  0.00     0.006 A 
ENDBRANCH  51  72
BRANCH  63  80
ATOM     80  C   UNL     1       9.075  13.995  -8.767  1.00  0.00     0.057 A 
ATOM     81  C   UNL     1      10.191  14.697  -8.289  1.00  0.00     0.134 A 
ATOM     82  C   UNL     1       8.400  14.592  -9.850  1.00  0.00     0.134 A 
ATOM     83  F   UNL     1      10.877  14.258  -7.223  1.00  0.00    -0.206 F 
ATOM     84  C   UNL     1      10.635  15.888  -8.878  1.00  0.00     0.040 A 
ATOM     85  C   UNL     1       8.803  15.805 -10.415  1.00  0.00     0.040 A 
ATOM     86  F   UNL     1       7.336  14.010 -10.423  1.00  0.00    -0.206 F 
ATOM     87  C   UNL     1       9.934  16.452  -9.937  1.00  0.00     0.006 A 
ENDBRANCH  63  80
ENDBRANCH  37  38
ENDBRANCH  29  32
ENDBRANCH  27  28
ENDBRANCH  26  27
ENDBRANCH  25  26
ENDBRANCH  24  25
ENDBRANCH   3  24
TORSDOF 17
