REMARK SMILES C[C@]([NH2+]Cc1noc(C2CC2)n1)(C(=O)NCCCCNC(=O)c1ccc(-c2c3nc(c(-c4c(F)cccc4F)c4ccc([nH]4)c(-c4c(F)cccc4F)c4nc(c(-c5c(F)cccc5F)c5ccc2[nH]5)C=C4)C=C3)cc1)C(F)(F)F
REMARK SMILES IDX 16 1 15 2 13 3 14 4 2 6 1 7 77 8 78 9 79 10 80 11 3 12 4 15
REMARK SMILES IDX 5 16 6 17 12 18 7 19 8 20 9 21 10 22 11 23 17 24 18 25 19 26
REMARK SMILES IDX 20 27 21 28 22 30 23 31 24 32 76 33 25 34 75 35 26 36 27 37
REMARK SMILES IDX 28 38 69 39 29 40 74 41 68 42 70 43 30 44 73 45 67 46 66 47
REMARK SMILES IDX 31 49 57 50 40 51 56 52 41 53 44 54 55 55 71 56 42 57 43 58
REMARK SMILES IDX 54 60 72 61 45 62 32 63 33 64 38 65 34 66 35 67 37 68 39 69
REMARK SMILES IDX 36 70 58 71 59 72 64 73 60 74 61 75 63 76 65 77 62 78 46 79
REMARK SMILES IDX 47 80 52 81 48 82 49 83 51 84 53 85 50 86
REMARK H PARENT 15 5 3 13 3 14 20 29 70 48 44 59
REMARK Flexibility Score: inf
ROOT
ATOM      1  C   UNL     1      -0.923  -1.457  -1.576  1.00  0.00     0.116 C 
ENDROOT
BRANCH   1   2
ATOM      2  N   UNL     1      -1.460  -0.134  -1.297  1.00  0.00    -0.350 N 
ATOM      3  C   UNL     1      -0.864   1.075  -1.038  1.00  0.00     0.290 C 
ATOM      4  O   UNL     1      -1.636   2.023  -0.877  1.00  0.00    -0.267 OA
ATOM      5  H   UNL     1      -2.444  -0.099  -1.294  1.00  0.00     0.163 HD
BRANCH   3   6
ATOM      6  C   UNL     1       0.677   1.216  -0.978  1.00  0.00     0.268 C 
ATOM      7  C   UNL     1       1.247   0.958  -2.390  1.00  0.00     0.101 C 
BRANCH   6   8
ATOM      8  C   UNL     1       0.973   2.710  -0.647  1.00  0.00     0.453 C 
ATOM      9  F   UNL     1       0.501   3.096   0.558  1.00  0.00    -0.164 F 
ATOM     10  F   UNL     1       2.322   2.913  -0.616  1.00  0.00    -0.164 F 
ATOM     11  F   UNL     1       0.493   3.557  -1.587  1.00  0.00    -0.164 F 
ENDBRANCH   6   8
BRANCH   6  12
ATOM     12  N   UNL     1       1.170   0.298   0.100  1.00  0.00    -0.320 N 
ATOM     13  H   UNL     1       0.577  -0.532   0.092  1.00  0.00     0.347 HD
ATOM     14  H   UNL     1       1.126   0.850   0.957  1.00  0.00     0.347 HD
BRANCH  12  15
ATOM     15  C   UNL     1       2.560  -0.151   0.008  1.00  0.00     0.344 C 
BRANCH  15  16
ATOM     16  C   UNL     1       2.820  -1.229   1.023  1.00  0.00     0.226 A 
ATOM     17  N   UNL     1       1.887  -2.134   1.360  1.00  0.00    -0.056 NA
ATOM     18  N   UNL     1       4.052  -1.437   1.590  1.00  0.00    -0.190 NA
ATOM     19  O   UNL     1       2.562  -2.970   2.247  1.00  0.00    -0.339 OA
ATOM     20  C   UNL     1       3.847  -2.509   2.326  1.00  0.00     0.229 A 
BRANCH  20  21
ATOM     21  C   UNL     1       4.915  -3.218   3.146  1.00  0.00     0.079 C 
ATOM     22  C   UNL     1       6.335  -3.219   2.613  1.00  0.00     0.014 C 
ATOM     23  C   UNL     1       6.004  -2.410   3.820  1.00  0.00     0.014 C 
ENDBRANCH  20  21
ENDBRANCH  15  16
ENDBRANCH  12  15
ENDBRANCH   6  12
ENDBRANCH   3   6
ENDBRANCH   1   2
BRANCH   1  24
ATOM     24  C   UNL     1      -1.354  -2.484  -0.532  1.00  0.00     0.023 C 
BRANCH  24  25
ATOM     25  C   UNL     1      -2.850  -2.799  -0.513  1.00  0.00     0.023 C 
BRANCH  25  26
ATOM     26  C   UNL     1      -3.439  -3.257  -1.843  1.00  0.00     0.116 C 
BRANCH  26  27
ATOM     27  N   UNL     1      -2.793  -4.446  -2.377  1.00  0.00    -0.352 N 
ATOM     28  C   UNL     1      -3.359  -5.598  -2.869  1.00  0.00     0.251 C 
ATOM     29  H   UNL     1      -1.809  -4.423  -2.388  1.00  0.00     0.163 HD
ATOM     30  O   UNL     1      -2.650  -6.554  -3.168  1.00  0.00    -0.269 OA
BRANCH  28  31
ATOM     31  C   UNL     1      -4.828  -5.697  -3.005  1.00  0.00     0.039 A 
ATOM     32  C   UNL     1      -5.472  -6.843  -2.533  1.00  0.00     0.014 A 
ATOM     33  C   UNL     1      -5.569  -4.657  -3.573  1.00  0.00     0.014 A 
ATOM     34  C   UNL     1      -6.866  -6.915  -2.563  1.00  0.00     0.010 A 
ATOM     35  C   UNL     1      -6.959  -4.697  -3.531  1.00  0.00     0.010 A 
ATOM     36  C   UNL     1      -7.623  -5.824  -3.023  1.00  0.00    -0.014 A 
BRANCH  36  37
ATOM     37  C   UNL     1      -9.107  -5.840  -2.973  1.00  0.00     0.031 A 
ATOM     38  C   UNL     1      -9.909  -5.769  -4.243  1.00  0.00     0.074 A 
ATOM     39  C   UNL     1      -9.734  -5.849  -1.780  1.00  0.00     0.049 A 
ATOM     40  N   UNL     1     -11.207  -5.698  -4.399  1.00  0.00    -0.248 NA
ATOM     41  C   UNL     1      -9.151  -5.748  -5.504  1.00  0.00     0.031 C 
ATOM     42  C   UNL     1      -9.071  -5.868  -0.474  1.00  0.00     0.029 A 
ATOM     43  N   UNL     1     -11.072  -5.831  -1.471  1.00  0.00    -0.354 N 
ATOM     44  C   UNL     1     -11.418  -5.610  -5.769  1.00  0.00     0.074 A 
ATOM     45  C   UNL     1     -10.115  -5.581  -6.397  1.00  0.00     0.031 C 
ATOM     46  C   UNL     1     -10.003  -5.883   0.492  1.00  0.00     0.029 A 
ATOM     47  C   UNL     1     -11.326  -5.834  -0.121  1.00  0.00     0.049 A 
ATOM     48  H   UNL     1     -11.781  -5.817  -2.153  1.00  0.00     0.167 HD
ATOM     49  C   UNL     1     -12.592  -5.580  -6.444  1.00  0.00     0.037 A 
ATOM     50  C   UNL     1     -12.494  -5.792   0.548  1.00  0.00     0.037 A 
ATOM     51  C   UNL     1     -13.887  -5.630  -5.819  1.00  0.00     0.049 A 
ATOM     52  C   UNL     1     -13.783  -5.748  -0.226  1.00  0.00     0.074 A 
ATOM     53  C   UNL     1     -15.134  -5.664  -6.420  1.00  0.00     0.029 A 
ATOM     54  N   UNL     1     -14.104  -5.650  -4.449  1.00  0.00    -0.354 N 
ATOM     55  N   UNL     1     -13.969  -5.737  -1.523  1.00  0.00    -0.248 NA
ATOM     56  C   UNL     1     -15.026  -5.717   0.559  1.00  0.00     0.031 C 
ATOM     57  C   UNL     1     -16.105  -5.658  -5.414  1.00  0.00     0.029 A 
ATOM     58  C   UNL     1     -15.463  -5.673  -4.186  1.00  0.00     0.049 A 
ATOM     59  H   UNL     1     -13.395  -5.648  -3.765  1.00  0.00     0.167 HD
ATOM     60  C   UNL     1     -15.345  -5.728  -1.711  1.00  0.00     0.074 A 
ATOM     61  C   UNL     1     -15.947  -5.750  -0.394  1.00  0.00     0.031 C 
ATOM     62  C   UNL     1     -16.048  -5.704  -2.870  1.00  0.00     0.037 A 
BRANCH  49  63
ATOM     63  C   UNL     1     -12.527  -5.492  -7.942  1.00  0.00     0.057 A 
ATOM     64  C   UNL     1     -12.077  -6.563  -8.726  1.00  0.00     0.134 A 
ATOM     65  C   UNL     1     -12.953  -4.338  -8.611  1.00  0.00     0.134 A 
ATOM     66  F   UNL     1     -11.644  -7.694  -8.148  1.00  0.00    -0.206 F 
ATOM     67  C   UNL     1     -12.028  -6.480 -10.118  1.00  0.00     0.040 A 
ATOM     68  C   UNL     1     -12.935  -4.253 -10.004  1.00  0.00     0.040 A 
ATOM     69  F   UNL     1     -13.401  -3.277  -7.923  1.00  0.00    -0.206 F 
ATOM     70  C   UNL     1     -12.465  -5.324 -10.762  1.00  0.00     0.006 A 
ENDBRANCH  49  63
BRANCH  50  71
ATOM     71  C   UNL     1     -12.504  -5.809   2.033  1.00  0.00     0.057 A 
ATOM     72  C   UNL     1     -12.980  -6.920   2.740  1.00  0.00     0.134 A 
ATOM     73  C   UNL     1     -12.055  -4.714   2.781  1.00  0.00     0.134 A 
ATOM     74  F   UNL     1     -13.441  -7.992   2.079  1.00  0.00    -0.206 F 
ATOM     75  C   UNL     1     -13.030  -6.934   4.134  1.00  0.00     0.040 A 
ATOM     76  C   UNL     1     -12.074  -4.724   4.177  1.00  0.00     0.040 A 
ATOM     77  F   UNL     1     -11.580  -3.621   2.165  1.00  0.00    -0.206 F 
ATOM     78  C   UNL     1     -12.571  -5.834   4.857  1.00  0.00     0.006 A 
ENDBRANCH  50  71
BRANCH  62  79
ATOM     79  C   UNL     1     -17.545  -5.741  -2.768  1.00  0.00     0.057 A 
ATOM     80  C   UNL     1     -18.285  -4.641  -2.315  1.00  0.00     0.134 A 
ATOM     81  C   UNL     1     -18.257  -6.880  -3.165  1.00  0.00     0.134 A 
ATOM     82  F   UNL     1     -17.663  -3.524  -1.908  1.00  0.00    -0.206 F 
ATOM     83  C   UNL     1     -19.678  -4.681  -2.240  1.00  0.00     0.040 A 
ATOM     84  C   UNL     1     -19.651  -6.922  -3.120  1.00  0.00     0.040 A 
ATOM     85  F   UNL     1     -17.610  -7.965  -3.616  1.00  0.00    -0.206 F 
ATOM     86  C   UNL     1     -20.365  -5.822  -2.650  1.00  0.00     0.006 A 
ENDBRANCH  62  79
ENDBRANCH  36  37
ENDBRANCH  28  31
ENDBRANCH  26  27
ENDBRANCH  25  26
ENDBRANCH  24  25
ENDBRANCH   1  24
TORSDOF 16
