REMARK SMILES Cc1ccc(C2=NN(C(=O)CCC(=O)NCCCCNC(=O)c3ccc(-c4c5nc(c(-c6c(F)cccc6F)c6ccc([nH]6)c(-c6c(F)cccc6F)c6nc(c(-c7c(F)cccc7F)c7ccc4[nH]7)C=C6)C=C5)cc3)[C@H](C[C@@H]3C=c4cccc(C)c4=NC3=O)C2)cc1
REMARK SMILES IDX 16 1 15 2 13 3 14 4 12 6 11 7 9 8 10 9 8 10 6 11 7 12 91 13
REMARK SMILES IDX 77 14 5 15 1 16 2 17 3 18 93 19 4 20 92 21 78 22 79 23 80 24
REMARK SMILES IDX 89 25 81 26 88 27 90 28 82 29 87 30 83 31 85 32 84 33 86 34
REMARK SMILES IDX 17 35 18 36 19 37 20 38 21 39 22 41 23 42 24 43 76 44 25 45
REMARK SMILES IDX 75 46 26 47 27 48 28 49 69 50 29 51 74 52 68 53 70 54 30 55
REMARK SMILES IDX 73 56 67 57 66 58 31 60 57 61 40 62 56 63 41 64 44 65 55 66
REMARK SMILES IDX 71 67 42 68 43 69 54 71 72 72 45 73 32 74 33 75 38 76 34 77
REMARK SMILES IDX 35 78 37 79 39 80 36 81 58 82 59 83 64 84 60 85 61 86 63 87
REMARK SMILES IDX 65 88 62 89 46 90 47 91 52 92 48 93 49 94 51 95 53 96 50 97
REMARK H PARENT 15 5 20 40 70 59 44 70
REMARK Flexibility Score: inf
ROOT
ATOM      1  C   UNL     1      -4.830   0.457   0.876  1.00  0.00     0.116 C 
ENDROOT
BRANCH   1   2
ATOM      2  N   UNL     1      -5.824   1.707   1.092  1.00  0.00    -0.356 N 
ATOM      3  C   UNL     1      -7.073   1.904   1.585  1.00  0.00     0.220 C 
ATOM      4  O   UNL     1      -7.531   3.044   1.452  1.00  0.00    -0.275 OA
ATOM      5  H   UNL     1      -5.418   2.550   0.786  1.00  0.00     0.163 HD
BRANCH   3   6
ATOM      6  C   UNL     1      -7.899   0.832   2.256  1.00  0.00     0.110 C 
BRANCH   6   7
ATOM      7  C   UNL     1      -8.001  -0.549   1.635  1.00  0.00     0.112 C 
BRANCH   7   8
ATOM      8  C   UNL     1      -6.720  -1.358   1.683  1.00  0.00     0.243 C 
ATOM      9  O   UNL     1      -6.423  -2.019   2.675  1.00  0.00    -0.273 OA
BRANCH   8  10
ATOM     10  N   UNL     1      -5.866  -1.165   0.562  1.00  0.00    -0.230 N 
ATOM     11  C   UNL     1      -3.155  -0.384   0.265  1.00  0.00     0.070 C 
ATOM     12  N   UNL     1      -4.091  -1.416   0.943  1.00  0.00    -0.174 NA
ATOM     13  C   UNL     1      -4.321   1.064  -0.779  1.00  0.00     0.086 C 
ATOM     14  C   UNL     1      -6.175   0.181  -0.703  1.00  0.00     0.118 C 
BRANCH  11  15
ATOM     15  C   UNL     1      -1.578  -1.132   0.045  1.00  0.00    -0.002 A 
ATOM     16  C   UNL     1       2.739  -1.788   0.318  1.00  0.00     0.044 C 
ATOM     17  C   UNL     1       1.246  -1.807   0.183  1.00  0.00    -0.051 A 
ATOM     18  C   UNL     1       0.340  -2.190   1.182  1.00  0.00     0.004 A 
ATOM     19  C   UNL     1       0.719  -1.304  -0.977  1.00  0.00     0.004 A 
ATOM     20  C   UNL     1      -1.054  -1.870   1.112  1.00  0.00     0.010 A 
ATOM     21  C   UNL     1      -0.648  -1.031  -1.042  1.00  0.00     0.010 A 
ENDBRANCH  11  15
BRANCH  14  22
ATOM     22  C   UNL     1      -7.018  -0.584  -2.006  1.00  0.00     0.045 C 
BRANCH  22  23
ATOM     23  C   UNL     1      -7.916  -1.835  -1.660  1.00  0.00     0.106 C 
ATOM     24  C   UNL     1      -7.284  -2.954  -0.870  1.00  0.00    -0.003 C 
ATOM     25  C   UNL     1      -8.658  -2.574  -2.790  1.00  0.00     0.253 C 
ATOM     26  C   UNL     1      -8.085  -3.887  -0.358  1.00  0.00    -0.003 A 
ATOM     27  N   UNL     1      -9.432  -3.680  -2.420  1.00  0.00    -0.212 NA
ATOM     28  O   UNL     1      -8.615  -2.158  -3.945  1.00  0.00    -0.272 OA
ATOM     29  C   UNL     1      -7.922  -4.505   0.932  1.00  0.00     0.010 A 
ATOM     30  C   UNL     1      -9.175  -4.284  -1.294  1.00  0.00     0.077 A 
ATOM     31  C   UNL     1      -8.781  -5.448   1.333  1.00  0.00     0.001 A 
ATOM     32  C   UNL     1      -9.862  -5.561  -0.866  1.00  0.00    -0.025 A 
ATOM     33  C   UNL     1      -9.692  -6.038   0.384  1.00  0.00     0.005 A 
ATOM     34  C   UNL     1     -10.535  -6.369  -1.926  1.00  0.00     0.047 C 
ENDBRANCH  22  23
ENDBRANCH  14  22
ENDBRANCH   8  10
ENDBRANCH   7   8
ENDBRANCH   6   7
ENDBRANCH   3   6
ENDBRANCH   1   2
BRANCH   1  35
ATOM     35  C   UNL     1      -4.443  -0.722  -0.950  1.00  0.00     0.023 C 
BRANCH  35  36
ATOM     36  C   UNL     1      -3.010  -0.090  -2.073  1.00  0.00     0.023 C 
BRANCH  36  37
ATOM     37  C   UNL     1      -1.966   1.315  -1.584  1.00  0.00     0.116 C 
BRANCH  37  38
ATOM     38  N   UNL     1      -1.633   1.553  -0.113  1.00  0.00    -0.352 N 
ATOM     39  C   UNL     1      -0.566   1.295   0.760  1.00  0.00     0.251 C 
ATOM     40  H   UNL     1      -2.370   2.013   0.351  1.00  0.00     0.163 HD
ATOM     41  O   UNL     1      -0.846   0.973   1.921  1.00  0.00    -0.269 OA
BRANCH  39  42
ATOM     42  C   UNL     1       0.866   1.728   0.424  1.00  0.00     0.039 A 
ATOM     43  C   UNL     1       1.543   2.002   1.637  1.00  0.00     0.014 A 
ATOM     44  C   UNL     1       0.724   2.803  -0.422  1.00  0.00     0.014 A 
ATOM     45  C   UNL     1       1.208   3.177   2.300  1.00  0.00     0.010 A 
ATOM     46  C   UNL     1       0.171   3.882   0.220  1.00  0.00     0.010 A 
ATOM     47  C   UNL     1       0.359   4.029   1.611  1.00  0.00    -0.014 A 
BRANCH  47  48
ATOM     48  C   UNL     1      -0.333   5.162   2.173  1.00  0.00     0.031 A 
ATOM     49  C   UNL     1       0.213   6.468   1.760  1.00  0.00     0.074 A 
ATOM     50  C   UNL     1      -1.490   5.011   2.859  1.00  0.00     0.049 A 
ATOM     51  N   UNL     1       0.057   7.566   2.406  1.00  0.00    -0.248 NA
ATOM     52  C   UNL     1       1.116   6.617   0.610  1.00  0.00     0.031 C 
ATOM     53  C   UNL     1      -2.482   6.048   3.122  1.00  0.00     0.029 A 
ATOM     54  N   UNL     1      -1.962   3.919   3.595  1.00  0.00    -0.354 N 
ATOM     55  C   UNL     1       0.462   8.569   1.552  1.00  0.00     0.074 A 
ATOM     56  C   UNL     1       1.312   7.931   0.596  1.00  0.00     0.031 C 
ATOM     57  C   UNL     1      -3.252   5.664   4.153  1.00  0.00     0.029 A 
ATOM     58  C   UNL     1      -2.667   4.450   4.694  1.00  0.00     0.049 A 
ATOM     59  H   UNL     1      -1.828   2.966   3.386  1.00  0.00     0.167 HD
ATOM     60  C   UNL     1      -0.175   9.768   1.625  1.00  0.00     0.037 A 
ATOM     61  C   UNL     1      -2.286   4.294   6.000  1.00  0.00     0.037 A 
ATOM     62  C   UNL     1      -1.014   9.800   2.830  1.00  0.00     0.049 A 
ATOM     63  C   UNL     1      -1.889   5.602   6.665  1.00  0.00     0.074 A 
ATOM     64  C   UNL     1      -2.379   9.696   3.039  1.00  0.00     0.029 A 
ATOM     65  N   UNL     1      -0.417   9.573   4.068  1.00  0.00    -0.354 N 
ATOM     66  N   UNL     1      -1.762   6.733   6.024  1.00  0.00    -0.248 NA
ATOM     67  C   UNL     1      -1.556   5.742   8.081  1.00  0.00     0.031 C 
ATOM     68  C   UNL     1      -2.589   9.329   4.399  1.00  0.00     0.029 A 
ATOM     69  C   UNL     1      -1.357   9.242   5.026  1.00  0.00     0.049 A 
ATOM     70  H   UNL     1       0.550   9.641   4.239  1.00  0.00     0.167 HD
ATOM     71  C   UNL     1      -1.275   7.703   6.860  1.00  0.00     0.074 A 
ATOM     72  C   UNL     1      -1.217   7.043   8.152  1.00  0.00     0.031 C 
ATOM     73  C   UNL     1      -0.924   8.941   6.392  1.00  0.00     0.037 A 
BRANCH  60  74
ATOM     74  C   UNL     1      -0.269  10.775   0.487  1.00  0.00     0.057 A 
ATOM     75  C   UNL     1      -1.137  11.877   0.612  1.00  0.00     0.134 A 
ATOM     76  C   UNL     1       0.365  10.705  -0.775  1.00  0.00     0.134 A 
ATOM     77  F   UNL     1      -1.803  12.118   1.749  1.00  0.00    -0.206 F 
ATOM     78  C   UNL     1      -1.380  12.791  -0.426  1.00  0.00     0.040 A 
ATOM     79  C   UNL     1       0.143  11.620  -1.815  1.00  0.00     0.040 A 
ATOM     80  F   UNL     1       1.232   9.751  -1.113  1.00  0.00    -0.206 F 
ATOM     81  C   UNL     1      -0.742  12.665  -1.648  1.00  0.00     0.006 A 
ENDBRANCH  60  74
BRANCH  61  82
ATOM     82  C   UNL     1      -1.687   2.965   6.283  1.00  0.00     0.057 A 
ATOM     83  C   UNL     1      -2.549   1.856   6.241  1.00  0.00     0.134 A 
ATOM     84  C   UNL     1      -0.327   2.738   6.048  1.00  0.00     0.134 A 
ATOM     85  F   UNL     1      -3.852   2.005   6.525  1.00  0.00    -0.206 F 
ATOM     86  C   UNL     1      -2.116   0.619   5.762  1.00  0.00     0.040 A 
ATOM     87  C   UNL     1       0.117   1.503   5.568  1.00  0.00     0.040 A 
ATOM     88  F   UNL     1       0.551   3.750   6.097  1.00  0.00    -0.206 F 
ATOM     89  C   UNL     1      -0.791   0.462   5.367  1.00  0.00     0.006 A 
ENDBRANCH  61  82
BRANCH  73  90
ATOM     90  C   UNL     1      -0.159  10.015   7.146  1.00  0.00     0.057 A 
ATOM     91  C   UNL     1       0.678   9.791   8.248  1.00  0.00     0.134 A 
ATOM     92  C   UNL     1      -0.142  11.348   6.660  1.00  0.00     0.134 A 
ATOM     93  F   UNL     1       0.875   8.568   8.752  1.00  0.00    -0.206 F 
ATOM     94  C   UNL     1       1.418  10.818   8.856  1.00  0.00     0.040 A 
ATOM     95  C   UNL     1       0.653  12.358   7.207  1.00  0.00     0.040 A 
ATOM     96  F   UNL     1      -0.881  11.731   5.609  1.00  0.00    -0.206 F 
ATOM     97  C   UNL     1       1.421  12.102   8.327  1.00  0.00     0.006 A 
ENDBRANCH  73  90
ENDBRANCH  47  48
ENDBRANCH  39  42
ENDBRANCH  37  38
ENDBRANCH  36  37
ENDBRANCH  35  36
ENDBRANCH   1  35
TORSDOF 17
