REMARK SMILES Cc1ccc(N)c(SCCOc2ccccc2C(=O)NCCCCNC(=O)c2ccc(-c3c4nc(c(-c5c(F)cccc5F)c5ccc([nH]5)c(-c5c(F)cccc5F)c5nc(c(-c6c(F)cccc6F)c6ccc3[nH]6)C=C5)C=C4)cc2)c1
REMARK SMILES IDX 18 1 19 2 20 3 17 5 12 6 13 7 14 8 16 9 15 10 11 11 10 12
REMARK SMILES IDX 9 13 8 14 7 15 1 16 2 17 3 18 82 19 4 20 5 21 6 22 21 25
REMARK SMILES IDX 22 26 23 27 24 28 25 29 26 30 27 32 28 33 29 34 81 35 30 36
REMARK SMILES IDX 80 37 31 38 32 39 33 40 74 41 34 42 79 43 73 44 75 45 35 46
REMARK SMILES IDX 78 47 72 48 71 49 36 51 62 52 45 53 61 54 46 55 49 56 60 57
REMARK SMILES IDX 76 58 47 59 48 60 59 62 77 63 50 64 37 65 38 66 43 67 39 68
REMARK SMILES IDX 40 69 42 70 44 71 41 72 63 73 64 74 69 75 65 76 66 77 68 78
REMARK SMILES IDX 70 79 67 80 51 81 52 82 57 83 53 84 54 85 56 86 58 87 55 88
REMARK H PARENT 20 4 6 23 6 24 25 31 75 50 49 61
REMARK Flexibility Score: inf
ROOT
ATOM      1  C   UNL     1      -0.739   2.703   0.058  1.00  0.00     0.255 C 
ATOM      2  O   UNL     1       0.176   2.844   0.894  1.00  0.00    -0.269 OA
ATOM      3  N   UNL     1      -1.755   3.515   0.384  1.00  0.00    -0.352 N 
ATOM      4  H   UNL     1      -1.704   3.865   1.302  1.00  0.00     0.163 HD
ENDROOT
BRANCH   1   5
ATOM      5  C   UNL     1      -0.702   1.851  -1.161  1.00  0.00     0.081 A 
ATOM      6  C   UNL     1      -0.789   2.528  -2.338  1.00  0.00     0.132 A 
ATOM      7  C   UNL     1      -1.184   1.862  -3.505  1.00  0.00     0.047 A 
ATOM      8  C   UNL     1      -1.036   0.475  -3.573  1.00  0.00     0.004 A 
ATOM      9  C   UNL     1      -0.149   0.598  -1.381  1.00  0.00     0.018 A 
ATOM     10  C   UNL     1      -0.337  -0.128  -2.553  1.00  0.00     0.001 A 
BRANCH   6  11
ATOM     11  O   UNL     1      -0.019   3.679  -2.372  1.00  0.00    -0.492 OA
BRANCH  11  12
ATOM     12  C   UNL     1       1.417   3.347  -2.158  1.00  0.00     0.241 C 
BRANCH  12  13
ATOM     13  C   UNL     1       2.085   3.301  -0.700  1.00  0.00     0.116 C 
BRANCH  13  14
ATOM     14  S   UNL     1       2.887   1.830   0.486  1.00  0.00    -0.120 SA
BRANCH  14  15
ATOM     15  C   UNL     1       1.848   0.395   1.079  1.00  0.00     0.031 A 
ATOM     16  C   UNL     1      -1.845  -0.428   1.457  1.00  0.00     0.044 C 
ATOM     17  C   UNL     1      -0.349  -0.657   1.477  1.00  0.00    -0.050 A 
ATOM     18  C   UNL     1       0.144  -1.881   1.035  1.00  0.00     0.005 A 
ATOM     19  C   UNL     1       0.564   0.413   1.675  1.00  0.00     0.020 A 
ATOM     20  C   UNL     1       1.508  -2.011   0.772  1.00  0.00     0.027 A 
ATOM     21  C   UNL     1       2.369  -0.895   0.802  1.00  0.00     0.045 A 
BRANCH  21  22
ATOM     22  N   UNL     1       3.683  -1.065   0.354  1.00  0.00    -0.398 N 
ATOM     23  H   UNL     1       4.026  -1.969   0.167  1.00  0.00     0.156 HD
ATOM     24  H   UNL     1       4.265  -0.281   0.227  1.00  0.00     0.156 HD
ENDBRANCH  21  22
ENDBRANCH  14  15
ENDBRANCH  13  14
ENDBRANCH  12  13
ENDBRANCH  11  12
ENDBRANCH   6  11
ENDBRANCH   1   5
BRANCH   3  25
ATOM     25  C   UNL     1      -2.901   3.974  -0.346  1.00  0.00     0.116 C 
BRANCH  25  26
ATOM     26  C   UNL     1      -3.641   5.000   0.511  1.00  0.00     0.023 C 
BRANCH  26  27
ATOM     27  C   UNL     1      -2.785   6.185   1.008  1.00  0.00     0.023 C 
BRANCH  27  28
ATOM     28  C   UNL     1      -1.896   6.836  -0.048  1.00  0.00     0.116 C 
BRANCH  28  29
ATOM     29  N   UNL     1      -2.668   7.240  -1.213  1.00  0.00    -0.352 N 
ATOM     30  C   UNL     1      -3.212   8.452  -1.511  1.00  0.00     0.251 C 
ATOM     31  H   UNL     1      -2.820   6.535  -1.883  1.00  0.00     0.163 HD
ATOM     32  O   UNL     1      -4.116   8.530  -2.359  1.00  0.00    -0.269 OA
BRANCH  30  33
ATOM     33  C   UNL     1      -2.730   9.674  -0.847  1.00  0.00     0.039 A 
ATOM     34  C   UNL     1      -3.650  10.647  -0.454  1.00  0.00     0.014 A 
ATOM     35  C   UNL     1      -1.359   9.891  -0.677  1.00  0.00     0.014 A 
ATOM     36  C   UNL     1      -3.196  11.830   0.128  1.00  0.00     0.010 A 
ATOM     37  C   UNL     1      -0.913  11.032  -0.019  1.00  0.00     0.010 A 
ATOM     38  C   UNL     1      -1.825  12.028   0.359  1.00  0.00    -0.014 A 
BRANCH  38  39
ATOM     39  C   UNL     1      -1.325  13.302   0.933  1.00  0.00     0.031 A 
ATOM     40  C   UNL     1      -0.438  14.197   0.109  1.00  0.00     0.074 A 
ATOM     41  C   UNL     1      -1.643  13.637   2.197  1.00  0.00     0.049 A 
ATOM     42  N   UNL     1       0.122  15.334   0.435  1.00  0.00    -0.248 NA
ATOM     43  C   UNL     1      -0.114  13.740  -1.253  1.00  0.00     0.031 C 
ATOM     44  C   UNL     1      -2.456  12.830   3.109  1.00  0.00     0.029 A 
ATOM     45  N   UNL     1      -1.318  14.747   2.935  1.00  0.00    -0.354 N 
ATOM     46  C   UNL     1       0.872  15.716  -0.671  1.00  0.00     0.074 A 
ATOM     47  C   UNL     1       0.749  14.662  -1.652  1.00  0.00     0.031 C 
ATOM     48  C   UNL     1      -2.591  13.486   4.273  1.00  0.00     0.029 A 
ATOM     49  C   UNL     1      -1.847  14.740   4.202  1.00  0.00     0.049 A 
ATOM     50  H   UNL     1      -0.758  15.479   2.589  1.00  0.00     0.167 HD
ATOM     51  C   UNL     1       1.574  16.857  -0.866  1.00  0.00     0.037 A 
ATOM     52  C   UNL     1      -1.743  15.645   5.193  1.00  0.00     0.037 A 
ATOM     53  C   UNL     1       1.670  17.917   0.102  1.00  0.00     0.049 A 
ATOM     54  C   UNL     1      -0.960  16.907   4.950  1.00  0.00     0.074 A 
ATOM     55  C   UNL     1       2.314  19.136  -0.013  1.00  0.00     0.029 A 
ATOM     56  N   UNL     1       1.101  17.882   1.367  1.00  0.00    -0.354 N 
ATOM     57  N   UNL     1      -0.311  17.286   3.875  1.00  0.00    -0.248 NA
ATOM     58  C   UNL     1      -0.906  17.873   6.055  1.00  0.00     0.031 C 
ATOM     59  C   UNL     1       2.174  19.820   1.199  1.00  0.00     0.029 A 
ATOM     60  C   UNL     1       1.392  19.052   2.047  1.00  0.00     0.049 A 
ATOM     61  H   UNL     1       0.569  17.136   1.727  1.00  0.00     0.167 HD
ATOM     62  C   UNL     1       0.192  18.549   4.160  1.00  0.00     0.074 A 
ATOM     63  C   UNL     1      -0.237  18.875   5.503  1.00  0.00     0.031 C 
ATOM     64  C   UNL     1       0.941  19.367   3.379  1.00  0.00     0.037 A 
BRANCH  51  65
ATOM     65  C   UNL     1       2.288  17.018  -2.178  1.00  0.00     0.057 A 
ATOM     66  C   UNL     1       1.594  17.197  -3.382  1.00  0.00     0.134 A 
ATOM     67  C   UNL     1       3.688  17.023  -2.236  1.00  0.00     0.134 A 
ATOM     68  F   UNL     1       0.252  17.188  -3.402  1.00  0.00    -0.206 F 
ATOM     69  C   UNL     1       2.264  17.345  -4.598  1.00  0.00     0.040 A 
ATOM     70  C   UNL     1       4.369  17.202  -3.441  1.00  0.00     0.040 A 
ATOM     71  F   UNL     1       4.417  16.863  -1.121  1.00  0.00    -0.206 F 
ATOM     72  C   UNL     1       3.656  17.356  -4.628  1.00  0.00     0.006 A 
ENDBRANCH  51  65
BRANCH  52  73
ATOM     73  C   UNL     1      -2.421  15.412   6.494  1.00  0.00     0.057 A 
ATOM     74  C   UNL     1      -3.505  16.201   6.898  1.00  0.00     0.134 A 
ATOM     75  C   UNL     1      -1.990  14.412   7.375  1.00  0.00     0.134 A 
ATOM     76  F   UNL     1      -3.955  17.186   6.106  1.00  0.00    -0.206 F 
ATOM     77  C   UNL     1      -4.115  16.027   8.141  1.00  0.00     0.040 A 
ATOM     78  C   UNL     1      -2.610  14.208   8.608  1.00  0.00     0.040 A 
ATOM     79  F   UNL     1      -0.965  13.614   7.044  1.00  0.00    -0.206 F 
ATOM     80  C   UNL     1      -3.669  15.024   8.999  1.00  0.00     0.006 A 
ENDBRANCH  52  73
BRANCH  64  81
ATOM     81  C   UNL     1       1.292  20.716   3.937  1.00  0.00     0.057 A 
ATOM     82  C   UNL     1       2.204  20.875   4.987  1.00  0.00     0.134 A 
ATOM     83  C   UNL     1       0.727  21.876   3.389  1.00  0.00     0.134 A 
ATOM     84  F   UNL     1       2.772  19.805   5.563  1.00  0.00    -0.206 F 
ATOM     85  C   UNL     1       2.516  22.137   5.496  1.00  0.00     0.040 A 
ATOM     86  C   UNL     1       1.056  23.145   3.867  1.00  0.00     0.040 A 
ATOM     87  F   UNL     1      -0.145  21.796   2.373  1.00  0.00    -0.206 F 
ATOM     88  C   UNL     1       1.946  23.277   4.931  1.00  0.00     0.006 A 
ENDBRANCH  64  81
ENDBRANCH  38  39
ENDBRANCH  30  33
ENDBRANCH  28  29
ENDBRANCH  27  28
ENDBRANCH  26  27
ENDBRANCH  25  26
ENDBRANCH   3  25
TORSDOF 17
