REMARK SMILES Cc1cc([C@@H]([NH2+]CC[NH+](C)C)C(=O)NCCCCNC(=O)c2ccc(-c3c4nc(c(-c5c(F)cccc5F)c5ccc([nH]5)c(-c5c(F)cccc5F)c5nc(c(-c6c(F)cccc6F)c6ccc3[nH]6)C=C5)C=C4)cc2)ccc1Br
REMARK SMILES IDX 15 1 14 2 12 3 13 4 5 6 4 7 1 8 2 9 3 10 78 11 77 12 79 13
REMARK SMILES IDX 76 14 6 15 7 18 8 19 9 20 10 21 11 22 16 24 17 25 18 26
REMARK SMILES IDX 19 27 20 28 21 30 22 31 23 32 75 33 24 34 74 35 25 36 26 37
REMARK SMILES IDX 27 38 68 39 28 40 73 41 67 42 69 43 29 44 72 45 66 46 65 47
REMARK SMILES IDX 30 49 56 50 39 51 55 52 40 53 43 54 54 55 70 56 41 57 42 58
REMARK SMILES IDX 53 60 71 61 44 62 31 63 32 64 37 65 33 66 34 67 36 68 38 69
REMARK SMILES IDX 35 70 57 71 58 72 63 73 59 74 60 75 62 76 64 77 61 78 45 79
REMARK SMILES IDX 46 80 51 81 47 82 48 83 50 84 52 85 49 86
REMARK H PARENT 14 5 6 16 6 17 9 23 19 29 69 48 43 59
REMARK Flexibility Score: inf
ROOT
ATOM      1  C   UNL     1       4.217   3.335   0.867  1.00  0.00     0.116 C 
ENDROOT
BRANCH   1   2
ATOM      2  N   UNL     1       4.803   2.237   1.603  1.00  0.00    -0.351 N 
ATOM      3  C   UNL     1       4.850   0.910   1.281  1.00  0.00     0.283 C 
ATOM      4  O   UNL     1       5.315   0.146   2.137  1.00  0.00    -0.268 OA
ATOM      5  H   UNL     1       5.228   2.480   2.457  1.00  0.00     0.163 HD
BRANCH   3   6
ATOM      6  C   UNL     1       4.380   0.354  -0.090  1.00  0.00     0.304 C 
BRANCH   6   7
ATOM      7  C   UNL     1       2.867   0.184  -0.208  1.00  0.00     0.019 A 
ATOM      8  C   UNL     1       0.363  -2.650   0.318  1.00  0.00     0.045 C 
ATOM      9  C   UNL     1       0.903  -1.276   0.037  1.00  0.00    -0.036 A 
ATOM     10  C   UNL     1       2.289  -1.054   0.131  1.00  0.00     0.015 A 
ATOM     11  C   UNL     1       0.077  -0.204  -0.322  1.00  0.00     0.020 A 
ATOM     12  C   UNL     1       0.633   1.022  -0.683  1.00  0.00     0.016 A 
ATOM     13  Br  UNL     1      -1.816  -0.351  -0.344  1.00  0.00    -0.051 Br
ATOM     14  C   UNL     1       2.018   1.195  -0.670  1.00  0.00     0.011 A 
ENDBRANCH   6   7
BRANCH   6  15
ATOM     15  N   UNL     1       4.967   1.082  -1.237  1.00  0.00    -0.328 N 
ATOM     16  H   UNL     1       4.768   2.076  -1.123  1.00  0.00     0.347 HD
ATOM     17  H   UNL     1       4.546   0.694  -2.081  1.00  0.00     0.347 HD
BRANCH  15  18
ATOM     18  C   UNL     1       6.423   0.912  -1.366  1.00  0.00     0.323 C 
BRANCH  18  19
ATOM     19  C   UNL     1       7.024  -0.521  -1.419  1.00  0.00     0.323 C 
BRANCH  19  20
ATOM     20  N   UNL     1       6.760  -1.347  -2.617  1.00  0.00    -0.335 N 
ATOM     21  C   UNL     1       7.516  -2.603  -2.500  1.00  0.00     0.332 C 
ATOM     22  C   UNL     1       5.352  -1.667  -2.834  1.00  0.00     0.332 C 
ATOM     23  H   UNL     1       7.055  -0.790  -3.419  1.00  0.00     0.347 HD
ENDBRANCH  19  20
ENDBRANCH  18  19
ENDBRANCH  15  18
ENDBRANCH   6  15
ENDBRANCH   3   6
ENDBRANCH   1   2
BRANCH   1  24
ATOM     24  C   UNL     1       2.795   3.613   1.352  1.00  0.00     0.023 C 
BRANCH  24  25
ATOM     25  C   UNL     1       2.707   4.545   2.554  1.00  0.00     0.023 C 
BRANCH  25  26
ATOM     26  C   UNL     1       3.260   5.940   2.308  1.00  0.00     0.116 C 
BRANCH  26  27
ATOM     27  N   UNL     1       2.646   6.623   1.179  1.00  0.00    -0.352 N 
ATOM     28  C   UNL     1       2.450   7.974   1.012  1.00  0.00     0.251 C 
ATOM     29  H   UNL     1       2.332   6.048   0.444  1.00  0.00     0.163 HD
ATOM     30  O   UNL     1       1.828   8.405   0.053  1.00  0.00    -0.269 OA
BRANCH  28  31
ATOM     31  C   UNL     1       2.975   8.894   2.041  1.00  0.00     0.039 A 
ATOM     32  C   UNL     1       2.129   9.872   2.565  1.00  0.00     0.014 A 
ATOM     33  C   UNL     1       4.282   8.754   2.515  1.00  0.00     0.014 A 
ATOM     34  C   UNL     1       2.585  10.684   3.603  1.00  0.00     0.010 A 
ATOM     35  C   UNL     1       4.698   9.495   3.612  1.00  0.00     0.010 A 
ATOM     36  C   UNL     1       3.865  10.486   4.149  1.00  0.00    -0.014 A 
BRANCH  36  37
ATOM     37  C   UNL     1       4.369  11.350   5.242  1.00  0.00     0.031 A 
ATOM     38  C   UNL     1       5.561  12.236   5.000  1.00  0.00     0.074 A 
ATOM     39  C   UNL     1       3.783  11.309   6.454  1.00  0.00     0.049 A 
ATOM     40  N   UNL     1       6.163  13.055   5.823  1.00  0.00    -0.248 NA
ATOM     41  C   UNL     1       6.180  12.168   3.665  1.00  0.00     0.031 C 
ATOM     42  C   UNL     1       2.666  10.439   6.829  1.00  0.00     0.029 A 
ATOM     43  N   UNL     1       4.049  12.020   7.596  1.00  0.00    -0.354 N 
ATOM     44  C   UNL     1       7.235  13.581   5.112  1.00  0.00     0.074 A 
ATOM     45  C   UNL     1       7.244  12.939   3.818  1.00  0.00     0.031 C 
ATOM     46  C   UNL     1       2.319  10.694   8.101  1.00  0.00     0.029 A 
ATOM     47  C   UNL     1       3.203  11.725   8.637  1.00  0.00     0.049 A 
ATOM     48  H   UNL     1       4.777  12.679   7.663  1.00  0.00     0.167 HD
ATOM     49  C   UNL     1       8.113  14.539   5.491  1.00  0.00     0.037 A 
ATOM     50  C   UNL     1       3.143  12.240   9.879  1.00  0.00     0.037 A 
ATOM     51  C   UNL     1       8.074  15.204   6.765  1.00  0.00     0.049 A 
ATOM     52  C   UNL     1       4.101  13.336  10.259  1.00  0.00     0.074 A 
ATOM     53  C   UNL     1       8.879  16.229   7.229  1.00  0.00     0.029 A 
ATOM     54  N   UNL     1       7.171  14.911   7.776  1.00  0.00    -0.354 N 
ATOM     55  N   UNL     1       5.062  13.879   9.551  1.00  0.00    -0.248 NA
ATOM     56  C   UNL     1       3.950  13.907  11.604  1.00  0.00     0.031 C 
ATOM     57  C   UNL     1       8.484  16.534   8.536  1.00  0.00     0.029 A 
ATOM     58  C   UNL     1       7.403  15.732   8.866  1.00  0.00     0.049 A 
ATOM     59  H   UNL     1       6.470  14.222   7.726  1.00  0.00     0.167 HD
ATOM     60  C   UNL     1       5.606  14.877  10.349  1.00  0.00     0.074 A 
ATOM     61  C   UNL     1       4.856  14.873  11.588  1.00  0.00     0.031 C 
ATOM     62  C   UNL     1       6.633  15.722  10.083  1.00  0.00     0.037 A 
BRANCH  49  63
ATOM     63  C   UNL     1       9.175  14.931   4.505  1.00  0.00     0.057 A 
ATOM     64  C   UNL     1       8.870  15.630   3.329  1.00  0.00     0.134 A 
ATOM     65  C   UNL     1      10.520  14.624   4.741  1.00  0.00     0.134 A 
ATOM     66  F   UNL     1       7.598  15.940   3.033  1.00  0.00    -0.206 F 
ATOM     67  C   UNL     1       9.859  15.985   2.411  1.00  0.00     0.040 A 
ATOM     68  C   UNL     1      11.523  14.999   3.845  1.00  0.00     0.040 A 
ATOM     69  F   UNL     1      10.884  13.958   5.847  1.00  0.00    -0.206 F 
ATOM     70  C   UNL     1      11.192  15.676   2.672  1.00  0.00     0.006 A 
ENDBRANCH  49  63
BRANCH  50  71
ATOM     71  C   UNL     1       2.112  11.768  10.837  1.00  0.00     0.057 A 
ATOM     72  C   UNL     1       1.047  12.593  11.218  1.00  0.00     0.134 A 
ATOM     73  C   UNL     1       2.175  10.493  11.409  1.00  0.00     0.134 A 
ATOM     74  F   UNL     1       0.940  13.832  10.716  1.00  0.00    -0.206 F 
ATOM     75  C   UNL     1       0.100  12.181  12.157  1.00  0.00     0.040 A 
ATOM     76  C   UNL     1       1.220  10.057  12.330  1.00  0.00     0.040 A 
ATOM     77  F   UNL     1       3.163   9.649  11.077  1.00  0.00    -0.206 F 
ATOM     78  C   UNL     1       0.184  10.906  12.714  1.00  0.00     0.006 A 
ENDBRANCH  50  71
BRANCH  62  79
ATOM     79  C   UNL     1       6.964  16.743  11.131  1.00  0.00     0.057 A 
ATOM     80  C   UNL     1       7.567  16.393  12.346  1.00  0.00     0.134 A 
ATOM     81  C   UNL     1       6.691  18.099  10.910  1.00  0.00     0.134 A 
ATOM     82  F   UNL     1       7.844  15.110  12.623  1.00  0.00    -0.206 F 
ATOM     83  C   UNL     1       7.852  17.352  13.319  1.00  0.00     0.040 A 
ATOM     84  C   UNL     1       6.999  19.070  11.863  1.00  0.00     0.040 A 
ATOM     85  F   UNL     1       6.126  18.502   9.762  1.00  0.00    -0.206 F 
ATOM     86  C   UNL     1       7.572  18.695  13.076  1.00  0.00     0.006 A 
ENDBRANCH  62  79
ENDBRANCH  36  37
ENDBRANCH  28  31
ENDBRANCH  26  27
ENDBRANCH  25  26
ENDBRANCH  24  25
ENDBRANCH   1  24
TORSDOF 16
