REMARK SMILES Cc1ccc(C)c(N2C(=O)S[C@H](CC(=O)Nc3ccc(C(=O)NCCCCNC(=O)c4ccc(-c5c6nc(c(-c7c(F)cccc7F)c7ccc([nH]7)c(-c7c(F)cccc7F)c7nc(c(-c8c(F)cccc8F)c8ccc5[nH]8)C=C7)C=C6)cc4)c(O)c3)C2=O)c1
REMARK SMILES IDX 24 1 23 2 21 3 22 4 20 6 17 7 18 8 87 9 19 10 85 11 16 12
REMARK SMILES IDX 14 13 15 14 13 16 12 17 8 18 9 19 88 20 10 21 11 22 89 23
REMARK SMILES IDX 7 24 1 25 2 26 3 27 90 28 4 29 5 30 6 31 86 32 25 34 26 35
REMARK SMILES IDX 27 36 28 37 29 38 30 40 31 41 32 42 84 43 33 44 83 45 34 46
REMARK SMILES IDX 35 47 36 48 77 49 37 50 82 51 76 52 78 53 38 54 81 55 75 56
REMARK SMILES IDX 74 57 39 59 65 60 48 61 64 62 49 63 52 64 63 65 79 66 50 67
REMARK SMILES IDX 51 68 62 70 80 71 53 72 40 73 41 74 46 75 42 76 43 77 45 78
REMARK SMILES IDX 47 79 44 80 66 81 67 82 72 83 68 84 69 85 71 86 73 87 70 88
REMARK SMILES IDX 54 89 55 90 60 91 56 92 57 93 59 94 61 95 58 96
REMARK H PARENT 23 5 16 15 86 33 28 39 78 58 52 69
REMARK Flexibility Score: inf
ROOT
ATOM      1  C   UNL     1       2.846   7.406  -2.642  1.00  0.00     0.116 C 
ENDROOT
BRANCH   1   2
ATOM      2  N   UNL     1       2.219   6.302  -3.339  1.00  0.00    -0.352 N 
ATOM      3  C   UNL     1       0.879   5.971  -3.442  1.00  0.00     0.255 C 
ATOM      4  O   UNL     1       0.583   5.073  -4.232  1.00  0.00    -0.269 OA
ATOM      5  H   UNL     1       2.837   5.697  -3.809  1.00  0.00     0.163 HD
BRANCH   3   6
ATOM      6  C   UNL     1      -0.200   6.554  -2.575  1.00  0.00     0.081 A 
ATOM      7  C   UNL     1      -2.010   7.116  -0.485  1.00  0.00     0.044 A 
ATOM      8  C   UNL     1      -2.229   6.069  -1.363  1.00  0.00     0.027 A 
ATOM      9  C   UNL     1      -1.069   8.064  -0.850  1.00  0.00     0.073 A 
ATOM     10  C   UNL     1      -1.304   5.734  -2.347  1.00  0.00     0.020 A 
ATOM     11  C   UNL     1      -0.227   7.805  -1.947  1.00  0.00     0.130 A 
BRANCH   7  12
ATOM     12  N   UNL     1      -2.797   7.241   0.672  1.00  0.00    -0.326 N 
ATOM     13  C   UNL     1      -3.322   6.209   1.431  1.00  0.00     0.226 C 
ATOM     14  O   UNL     1      -4.310   6.400   2.140  1.00  0.00    -0.275 OA
ATOM     15  H   UNL     1      -2.997   8.156   0.973  1.00  0.00     0.169 HD
BRANCH  13  16
ATOM     16  C   UNL     1      -2.513   4.917   1.552  1.00  0.00     0.125 C 
BRANCH  16  17
ATOM     17  C   UNL     1      -3.251   3.599   1.319  1.00  0.00     0.156 C 
ATOM     18  N   UNL     1      -1.662   2.036   0.420  1.00  0.00    -0.240 N 
ATOM     19  C   UNL     1      -2.211   2.487  -0.762  1.00  0.00     0.293 C 
ATOM     20  C   UNL     1      -2.283   2.449   1.589  1.00  0.00     0.248 C 
ATOM     21  O   UNL     1      -1.803   2.356  -1.885  1.00  0.00    -0.261 OA
ATOM     22  S   UNL     1      -3.741   3.282  -0.401  1.00  0.00    -0.050 SA
ATOM     23  O   UNL     1      -2.100   1.992   2.712  1.00  0.00    -0.273 OA
BRANCH  18  24
ATOM     24  C   UNL     1      -0.832   0.893   0.373  1.00  0.00     0.056 A 
ATOM     25  C   UNL     1       2.885   0.027   0.072  1.00  0.00     0.044 C 
ATOM     26  C   UNL     1       1.390  -0.087   0.165  1.00  0.00    -0.049 A 
ATOM     27  C   UNL     1       0.805  -1.354   0.076  1.00  0.00     0.004 A 
ATOM     28  C   UNL     1       0.566   1.039   0.326  1.00  0.00     0.030 A 
ATOM     29  C   UNL     1      -0.580  -1.500   0.116  1.00  0.00     0.006 A 
ATOM     30  C   UNL     1      -1.415  -0.384   0.246  1.00  0.00    -0.027 A 
ATOM     31  C   UNL     1      -2.901  -0.622   0.214  1.00  0.00     0.046 C 
ENDBRANCH  18  24
ENDBRANCH  16  17
ENDBRANCH  13  16
ENDBRANCH   7  12
BRANCH  11  32
ATOM     32  O   UNL     1       0.471   8.885  -2.413  1.00  0.00    -0.507 OA
ATOM     33  H   UNL     1       1.051   8.788  -3.142  1.00  0.00     0.293 HD
ENDBRANCH  11  32
ENDBRANCH   3   6
ENDBRANCH   1   2
BRANCH   1  34
ATOM     34  C   UNL     1       4.280   7.243  -2.140  1.00  0.00     0.023 C 
BRANCH  34  35
ATOM     35  C   UNL     1       5.437   7.006  -3.112  1.00  0.00     0.023 C 
BRANCH  35  36
ATOM     36  C   UNL     1       5.409   7.771  -4.422  1.00  0.00     0.116 C 
BRANCH  36  37
ATOM     37  N   UNL     1       5.371   9.237  -4.322  1.00  0.00    -0.352 N 
ATOM     38  C   UNL     1       5.100  10.176  -5.321  1.00  0.00     0.251 C 
ATOM     39  H   UNL     1       5.563   9.608  -3.431  1.00  0.00     0.163 HD
ATOM     40  O   UNL     1       5.466  11.340  -5.200  1.00  0.00    -0.269 OA
BRANCH  38  41
ATOM     41  C   UNL     1       4.345   9.764  -6.525  1.00  0.00     0.039 A 
ATOM     42  C   UNL     1       4.225  10.480  -7.712  1.00  0.00     0.014 A 
ATOM     43  C   UNL     1       3.582   8.628  -6.404  1.00  0.00     0.014 A 
ATOM     44  C   UNL     1       3.337   9.993  -8.685  1.00  0.00     0.010 A 
ATOM     45  C   UNL     1       3.206   7.933  -7.498  1.00  0.00     0.010 A 
ATOM     46  C   UNL     1       2.790   8.706  -8.538  1.00  0.00    -0.014 A 
BRANCH  46  47
ATOM     47  C   UNL     1       2.023   7.997  -9.541  1.00  0.00     0.031 A 
ATOM     48  C   UNL     1       2.747   7.939 -10.818  1.00  0.00     0.074 A 
ATOM     49  C   UNL     1       0.901   7.280  -9.295  1.00  0.00     0.049 A 
ATOM     50  N   UNL     1       2.613   8.773 -11.790  1.00  0.00    -0.248 NA
ATOM     51  C   UNL     1       3.925   7.065 -10.930  1.00  0.00     0.031 C 
ATOM     52  C   UNL     1       0.273   6.947  -8.008  1.00  0.00     0.029 A 
ATOM     53  N   UNL     1       0.091   6.643 -10.189  1.00  0.00    -0.354 N 
ATOM     54  C   UNL     1       3.490   8.329 -12.763  1.00  0.00     0.074 A 
ATOM     55  C   UNL     1       4.440   7.487 -12.089  1.00  0.00     0.031 C 
ATOM     56  C   UNL     1      -0.707   6.029  -8.197  1.00  0.00     0.029 A 
ATOM     57  C   UNL     1      -0.888   5.827  -9.623  1.00  0.00     0.049 A 
ATOM     58  H   UNL     1       0.191   6.752 -11.162  1.00  0.00     0.167 HD
ATOM     59  C   UNL     1       3.124   8.405 -14.070  1.00  0.00     0.037 A 
ATOM     60  C   UNL     1      -1.778   5.054 -10.298  1.00  0.00     0.037 A 
ATOM     61  C   UNL     1       1.949   9.241 -14.211  1.00  0.00     0.049 A 
ATOM     62  C   UNL     1      -1.878   5.616 -11.663  1.00  0.00     0.074 A 
ATOM     63  C   UNL     1       1.639  10.565 -13.975  1.00  0.00     0.029 A 
ATOM     64  N   UNL     1       0.761   8.554 -14.231  1.00  0.00    -0.354 N 
ATOM     65  N   UNL     1      -2.408   6.776 -11.932  1.00  0.00    -0.248 NA
ATOM     66  C   UNL     1      -1.024   5.065 -12.703  1.00  0.00     0.031 C 
ATOM     67  C   UNL     1       0.277  10.571 -13.541  1.00  0.00     0.029 A 
ATOM     68  C   UNL     1      -0.218   9.267 -13.594  1.00  0.00     0.049 A 
ATOM     69  H   UNL     1       0.630   7.671 -14.647  1.00  0.00     0.167 HD
ATOM     70  C   UNL     1      -1.606   7.298 -12.932  1.00  0.00     0.074 A 
ATOM     71  C   UNL     1      -0.886   6.148 -13.473  1.00  0.00     0.031 C 
ATOM     72  C   UNL     1      -1.383   8.644 -13.001  1.00  0.00     0.037 A 
BRANCH  59  73
ATOM     73  C   UNL     1       3.470   7.360 -15.107  1.00  0.00     0.057 A 
ATOM     74  C   UNL     1       3.099   7.601 -16.442  1.00  0.00     0.134 A 
ATOM     75  C   UNL     1       3.862   6.033 -14.830  1.00  0.00     0.134 A 
ATOM     76  F   UNL     1       2.690   8.818 -16.832  1.00  0.00    -0.206 F 
ATOM     77  C   UNL     1       3.049   6.585 -17.404  1.00  0.00     0.040 A 
ATOM     78  C   UNL     1       3.864   5.023 -15.795  1.00  0.00     0.040 A 
ATOM     79  F   UNL     1       4.165   5.604 -13.601  1.00  0.00    -0.206 F 
ATOM     80  C   UNL     1       3.426   5.289 -17.080  1.00  0.00     0.006 A 
ENDBRANCH  59  73
BRANCH  60  81
ATOM     81  C   UNL     1      -2.376   3.737  -9.970  1.00  0.00     0.057 A 
ATOM     82  C   UNL     1      -3.471   3.236 -10.696  1.00  0.00     0.134 A 
ATOM     83  C   UNL     1      -1.687   2.806  -9.179  1.00  0.00     0.134 A 
ATOM     84  F   UNL     1      -4.176   4.037 -11.509  1.00  0.00    -0.206 F 
ATOM     85  C   UNL     1      -3.825   1.879 -10.678  1.00  0.00     0.040 A 
ATOM     86  C   UNL     1      -2.034   1.449  -9.147  1.00  0.00     0.040 A 
ATOM     87  F   UNL     1      -0.590   3.163  -8.496  1.00  0.00    -0.206 F 
ATOM     88  C   UNL     1      -3.093   0.977  -9.915  1.00  0.00     0.006 A 
ENDBRANCH  60  81
BRANCH  72  89
ATOM     89  C   UNL     1      -2.347   9.533 -12.261  1.00  0.00     0.057 A 
ATOM     90  C   UNL     1      -2.505   9.572 -10.867  1.00  0.00     0.134 A 
ATOM     91  C   UNL     1      -3.096  10.453 -13.004  1.00  0.00     0.134 A 
ATOM     92  F   UNL     1      -1.776   8.790 -10.061  1.00  0.00    -0.206 F 
ATOM     93  C   UNL     1      -3.399  10.454 -10.249  1.00  0.00     0.040 A 
ATOM     94  C   UNL     1      -3.965  11.362 -12.399  1.00  0.00     0.040 A 
ATOM     95  F   UNL     1      -2.968  10.504 -14.339  1.00  0.00    -0.206 F 
ATOM     96  C   UNL     1      -4.129  11.357 -11.017  1.00  0.00     0.006 A 
ENDBRANCH  72  89
ENDBRANCH  46  47
ENDBRANCH  38  41
ENDBRANCH  36  37
ENDBRANCH  35  36
ENDBRANCH  34  35
ENDBRANCH   1  34
TORSDOF 16
