REMARK SMILES C[NH+](C)CCNC(=O)NC1(CC(=O)NCCCCNC(=O)c2ccc(-c3c4nc(c(-c5c(F)cccc5F)c5ccc([nH]5)c(-c5c(F)cccc5F)c5nc(c(-c6c(F)cccc6F)c6ccc3[nH]6)C=C5)C=C4)cc2)CCC1
REMARK SMILES IDX 15 1 14 2 12 3 13 4 11 6 10 7 76 8 78 9 77 10 9 11 6 12 7 13
REMARK SMILES IDX 8 15 5 17 4 18 2 19 1 20 3 21 16 23 17 24 18 25 19 26 20 27
REMARK SMILES IDX 21 29 22 30 23 31 75 32 24 33 74 34 25 35 26 36 27 37 68 38
REMARK SMILES IDX 28 39 73 40 67 41 69 42 29 43 72 44 66 45 65 46 30 48 56 49
REMARK SMILES IDX 39 50 55 51 40 52 43 53 54 54 70 55 41 56 42 57 53 59 71 60
REMARK SMILES IDX 44 61 31 62 32 63 37 64 33 65 34 66 36 67 38 68 35 69 57 70
REMARK SMILES IDX 58 71 63 72 59 73 60 74 62 75 64 76 61 77 45 78 46 79 51 80
REMARK SMILES IDX 47 81 48 82 50 83 52 84 49 85
REMARK H PARENT 14 5 6 14 9 16 2 22 19 28 69 47 43 58
REMARK Flexibility Score: inf
ROOT
ATOM      1  C   UNL     1       1.093  -3.063   3.415  1.00  0.00     0.116 C 
ENDROOT
BRANCH   1   2
ATOM      2  N   UNL     1       0.290  -2.772   2.245  1.00  0.00    -0.356 N 
ATOM      3  C   UNL     1      -0.161  -3.544   1.219  1.00  0.00     0.222 C 
ATOM      4  O   UNL     1      -1.090  -3.077   0.550  1.00  0.00    -0.275 OA
ATOM      5  H   UNL     1       0.018  -1.828   2.179  1.00  0.00     0.163 HD
BRANCH   3   6
ATOM      6  C   UNL     1       0.315  -4.947   0.958  1.00  0.00     0.128 C 
BRANCH   6   7
ATOM      7  C   UNL     1       1.726  -5.244   0.429  1.00  0.00     0.051 C 
ATOM      8  C   UNL     1       1.864  -6.838   0.309  1.00  0.00     0.029 C 
ATOM      9  C   UNL     1       2.935  -5.394   1.416  1.00  0.00     0.029 C 
ATOM     10  C   UNL     1       2.520  -6.844   1.689  1.00  0.00     0.005 C 
BRANCH   7  11
ATOM     11  N   UNL     1       2.076  -4.692  -0.922  1.00  0.00    -0.332 N 
ATOM     12  N   UNL     1       1.224  -2.499  -1.158  1.00  0.00    -0.332 N 
ATOM     13  C   UNL     1       1.633  -3.669  -1.685  1.00  0.00     0.315 C 
ATOM     14  H   UNL     1       0.306  -2.192  -1.342  1.00  0.00     0.165 HD
ATOM     15  O   UNL     1       1.655  -3.802  -2.909  1.00  0.00    -0.249 OA
ATOM     16  H   UNL     1       2.803  -5.196  -1.356  1.00  0.00     0.165 HD
BRANCH  12  17
ATOM     17  C   UNL     1       2.077  -1.678  -0.334  1.00  0.00     0.179 C 
BRANCH  17  18
ATOM     18  C   UNL     1       1.472  -0.401   0.311  1.00  0.00     0.283 C 
BRANCH  18  19
ATOM     19  N   UNL     1       0.429   0.460  -0.236  1.00  0.00    -0.338 N 
ATOM     20  C   UNL     1       0.570   0.830  -1.628  1.00  0.00     0.332 C 
ATOM     21  C   UNL     1      -0.932   0.079   0.113  1.00  0.00     0.332 C 
ATOM     22  H   UNL     1       0.608   1.329   0.268  1.00  0.00     0.347 HD
ENDBRANCH  18  19
ENDBRANCH  17  18
ENDBRANCH  12  17
ENDBRANCH   7  11
ENDBRANCH   6   7
ENDBRANCH   3   6
ENDBRANCH   1   2
BRANCH   1  23
ATOM     23  C   UNL     1       2.558  -2.599   3.384  1.00  0.00     0.023 C 
BRANCH  23  24
ATOM     24  C   UNL     1       2.959  -1.128   3.326  1.00  0.00     0.023 C 
BRANCH  24  25
ATOM     25  C   UNL     1       2.077  -0.126   4.039  1.00  0.00     0.116 C 
BRANCH  25  26
ATOM     26  N   UNL     1       2.378  -0.111   5.457  1.00  0.00    -0.352 N 
ATOM     27  C   UNL     1       2.952   0.898   6.194  1.00  0.00     0.251 C 
ATOM     28  H   UNL     1       2.142  -0.926   5.955  1.00  0.00     0.163 HD
ATOM     29  O   UNL     1       3.461   0.640   7.279  1.00  0.00    -0.269 OA
BRANCH  27  30
ATOM     30  C   UNL     1       2.952   2.295   5.691  1.00  0.00     0.039 A 
ATOM     31  C   UNL     1       4.057   3.110   5.954  1.00  0.00     0.014 A 
ATOM     32  C   UNL     1       1.841   2.826   5.027  1.00  0.00     0.014 A 
ATOM     33  C   UNL     1       4.056   4.445   5.538  1.00  0.00     0.010 A 
ATOM     34  C   UNL     1       1.869   4.135   4.550  1.00  0.00     0.010 A 
ATOM     35  C   UNL     1       2.965   4.966   4.824  1.00  0.00    -0.014 A 
BRANCH  35  36
ATOM     36  C   UNL     1       2.931   6.390   4.402  1.00  0.00     0.031 A 
ATOM     37  C   UNL     1       1.913   7.328   4.995  1.00  0.00     0.074 A 
ATOM     38  C   UNL     1       3.782   6.831   3.456  1.00  0.00     0.049 A 
ATOM     39  N   UNL     1       1.689   8.589   4.723  1.00  0.00    -0.248 NA
ATOM     40  C   UNL     1       1.010   6.766   6.013  1.00  0.00     0.031 C 
ATOM     41  C   UNL     1       4.788   6.015   2.778  1.00  0.00     0.029 A 
ATOM     42  N   UNL     1       3.929   8.076   2.896  1.00  0.00    -0.354 N 
ATOM     43  C   UNL     1       0.617   8.965   5.523  1.00  0.00     0.074 A 
ATOM     44  C   UNL     1       0.201   7.787   6.252  1.00  0.00     0.031 C 
ATOM     45  C   UNL     1       5.462   6.783   1.907  1.00  0.00     0.029 A 
ATOM     46  C   UNL     1       4.913   8.136   1.940  1.00  0.00     0.049 A 
ATOM     47  H   UNL     1       3.381   8.851   3.155  1.00  0.00     0.167 HD
ATOM     48  C   UNL     1       0.045  10.185   5.656  1.00  0.00     0.037 A 
ATOM     49  C   UNL     1       5.321   9.164   1.172  1.00  0.00     0.037 A 
ATOM     50  C   UNL     1       0.475  11.361   4.946  1.00  0.00     0.049 A 
ATOM     51  C   UNL     1       4.662  10.507   1.329  1.00  0.00     0.074 A 
ATOM     52  C   UNL     1       0.000  12.657   5.055  1.00  0.00     0.029 A 
ATOM     53  N   UNL     1       1.479  11.383   3.990  1.00  0.00    -0.354 N 
ATOM     54  N   UNL     1       3.694  10.864   2.138  1.00  0.00    -0.248 NA
ATOM     55  C   UNL     1       5.156  11.591   0.468  1.00  0.00     0.031 C 
ATOM     56  C   UNL     1       0.687  13.453   4.133  1.00  0.00     0.029 A 
ATOM     57  C   UNL     1       1.623  12.664   3.484  1.00  0.00     0.049 A 
ATOM     58  H   UNL     1       2.012  10.602   3.713  1.00  0.00     0.167 HD
ATOM     59  C   UNL     1       3.479  12.215   1.901  1.00  0.00     0.074 A 
ATOM     60  C   UNL     1       4.429  12.618   0.885  1.00  0.00     0.031 C 
ATOM     61  C   UNL     1       2.575  13.048   2.473  1.00  0.00     0.037 A 
BRANCH  48  62
ATOM     62  C   UNL     1      -1.110  10.309   6.608  1.00  0.00     0.057 A 
ATOM     63  C   UNL     1      -0.937  10.220   7.996  1.00  0.00     0.134 A 
ATOM     64  C   UNL     1      -2.406  10.550   6.135  1.00  0.00     0.134 A 
ATOM     65  F   UNL     1       0.276   9.979   8.516  1.00  0.00    -0.206 F 
ATOM     66  C   UNL     1      -2.015  10.336   8.876  1.00  0.00     0.040 A 
ATOM     67  C   UNL     1      -3.487  10.695   7.006  1.00  0.00     0.040 A 
ATOM     68  F   UNL     1      -2.643  10.654   4.818  1.00  0.00    -0.206 F 
ATOM     69  C   UNL     1      -3.294  10.581   8.382  1.00  0.00     0.006 A 
ENDBRANCH  48  62
BRANCH  49  70
ATOM     70  C   UNL     1       6.426   8.970   0.199  1.00  0.00     0.057 A 
ATOM     71  C   UNL     1       7.679   9.559   0.402  1.00  0.00     0.134 A 
ATOM     72  C   UNL     1       6.255   8.198  -0.957  1.00  0.00     0.134 A 
ATOM     73  F   UNL     1       7.897  10.326   1.481  1.00  0.00    -0.206 F 
ATOM     74  C   UNL     1       8.719   9.402  -0.515  1.00  0.00     0.040 A 
ATOM     75  C   UNL     1       7.294   8.012  -1.871  1.00  0.00     0.040 A 
ATOM     76  F   UNL     1       5.080   7.602  -1.206  1.00  0.00    -0.206 F 
ATOM     77  C   UNL     1       8.528   8.621  -1.654  1.00  0.00     0.006 A 
ENDBRANCH  49  70
BRANCH  61  78
ATOM     78  C   UNL     1       2.588  14.482   2.030  1.00  0.00     0.057 A 
ATOM     79  C   UNL     1       2.118  14.870   0.769  1.00  0.00     0.134 A 
ATOM     80  C   UNL     1       3.042  15.490   2.889  1.00  0.00     0.134 A 
ATOM     81  F   UNL     1       1.681  13.951  -0.106  1.00  0.00    -0.206 F 
ATOM     82  C   UNL     1       2.120  16.207   0.370  1.00  0.00     0.040 A 
ATOM     83  C   UNL     1       3.025  16.833   2.512  1.00  0.00     0.040 A 
ATOM     84  F   UNL     1       3.498  15.187   4.115  1.00  0.00    -0.206 F 
ATOM     85  C   UNL     1       2.569  17.194   1.246  1.00  0.00     0.006 A 
ENDBRANCH  61  78
ENDBRANCH  35  36
ENDBRANCH  27  30
ENDBRANCH  25  26
ENDBRANCH  24  25
ENDBRANCH  23  24
ENDBRANCH   1  23
TORSDOF 16
