REMARK SMILES Cc1nc(CCC(F)(F)F)[nH]c(=O)c1CCC(=O)NCCCCNC(=O)c1ccc(-c2c3nc(c(-c4c(F)cccc4F)c4ccc([nH]4)c(-c4c(F)cccc4F)c4nc(c(-c5c(F)cccc5F)c5ccc2[nH]5)C=C4)C=C3)cc1
REMARK SMILES IDX 20 1 19 2 17 3 18 4 16 6 15 7 14 8 1 9 2 10 3 11 4 12 12 13
REMARK SMILES IDX 11 14 13 15 5 17 6 18 7 19 8 20 9 21 10 22 21 23 22 24 23 25
REMARK SMILES IDX 24 26 25 27 26 29 27 30 28 31 80 32 29 33 79 34 30 35 31 36
REMARK SMILES IDX 32 37 73 38 33 39 78 40 72 41 74 42 34 43 77 44 71 45 70 46
REMARK SMILES IDX 35 48 61 49 44 50 60 51 45 52 48 53 59 54 75 55 46 56 47 57
REMARK SMILES IDX 58 59 76 60 49 61 36 62 37 63 42 64 38 65 39 66 41 67 43 68
REMARK SMILES IDX 40 69 62 70 63 71 68 72 64 73 65 74 67 75 69 76 66 77 50 78
REMARK SMILES IDX 51 79 56 80 52 81 53 82 55 83 57 84 54 85
REMARK H PARENT 19 5 11 16 24 28 74 47 48 58
REMARK Flexibility Score: inf
ROOT
ATOM      1  C   UNL     1       2.584  -0.592  -1.532  1.00  0.00     0.116 C 
ENDROOT
BRANCH   1   2
ATOM      2  N   UNL     1       2.668  -2.009  -1.225  1.00  0.00    -0.356 N 
ATOM      3  C   UNL     1       1.721  -2.971  -1.081  1.00  0.00     0.220 C 
ATOM      4  O   UNL     1       2.091  -4.112  -0.797  1.00  0.00    -0.275 OA
ATOM      5  H   UNL     1       3.589  -2.334  -1.095  1.00  0.00     0.163 HD
BRANCH   3   6
ATOM      6  C   UNL     1       0.253  -2.675  -1.299  1.00  0.00     0.105 C 
BRANCH   6   7
ATOM      7  C   UNL     1      -0.544  -2.657   0.017  1.00  0.00     0.053 C 
BRANCH   7   8
ATOM      8  C   UNL     1      -0.869  -1.245   0.422  1.00  0.00     0.039 A 
ATOM      9  C   UNL     1      -3.249  -1.254  -0.323  1.00  0.00     0.067 C 
ATOM     10  C   UNL     1      -2.017  -0.572   0.210  1.00  0.00     0.048 A 
ATOM     11  N   UNL     1      -2.139   0.795   0.357  1.00  0.00    -0.240 NA
ATOM     12  C   UNL     1      -1.106   1.461   0.762  1.00  0.00     0.109 A 
ATOM     13  C   UNL     1       0.195  -0.501   1.119  1.00  0.00     0.254 A 
ATOM     14  N   UNL     1       0.039   0.848   1.155  1.00  0.00    -0.310 N 
ATOM     15  O   UNL     1       1.176  -1.052   1.603  1.00  0.00    -0.269 OA
ATOM     16  H   UNL     1       0.785   1.402   1.479  1.00  0.00     0.171 HD
BRANCH  12  17
ATOM     17  C   UNL     1      -1.107   2.977   0.682  1.00  0.00     0.084 C 
BRANCH  17  18
ATOM     18  C   UNL     1      -0.707   3.772   1.920  1.00  0.00     0.123 C 
BRANCH  18  19
ATOM     19  C   UNL     1       0.767   3.739   2.258  1.00  0.00     0.389 C 
ATOM     20  F   UNL     1       1.546   4.031   1.202  1.00  0.00    -0.171 F 
ATOM     21  F   UNL     1       1.060   4.614   3.242  1.00  0.00    -0.171 F 
ATOM     22  F   UNL     1       1.137   2.511   2.690  1.00  0.00    -0.171 F 
ENDBRANCH  18  19
ENDBRANCH  17  18
ENDBRANCH  12  17
ENDBRANCH   7   8
ENDBRANCH   6   7
ENDBRANCH   3   6
ENDBRANCH   1   2
BRANCH   1  23
ATOM     23  C   UNL     1       3.187   0.254  -0.406  1.00  0.00     0.023 C 
BRANCH  23  24
ATOM     24  C   UNL     1       4.073   1.415  -0.832  1.00  0.00     0.023 C 
BRANCH  24  25
ATOM     25  C   UNL     1       3.588   2.240  -2.015  1.00  0.00     0.116 C 
BRANCH  25  26
ATOM     26  N   UNL     1       2.373   3.013  -1.782  1.00  0.00    -0.352 N 
ATOM     27  C   UNL     1       2.186   4.376  -1.659  1.00  0.00     0.251 C 
ATOM     28  H   UNL     1       1.553   2.475  -1.699  1.00  0.00     0.163 HD
ATOM     29  O   UNL     1       1.060   4.830  -1.470  1.00  0.00    -0.269 OA
BRANCH  27  30
ATOM     30  C   UNL     1       3.348   5.290  -1.698  1.00  0.00     0.039 A 
ATOM     31  C   UNL     1       3.499   6.261  -0.705  1.00  0.00     0.014 A 
ATOM     32  C   UNL     1       4.327   5.141  -2.675  1.00  0.00     0.014 A 
ATOM     33  C   UNL     1       4.698   6.979  -0.614  1.00  0.00     0.010 A 
ATOM     34  C   UNL     1       5.566   5.737  -2.492  1.00  0.00     0.010 A 
ATOM     35  C   UNL     1       5.775   6.663  -1.457  1.00  0.00    -0.014 A 
BRANCH  35  36
ATOM     36  C   UNL     1       7.131   7.263  -1.309  1.00  0.00     0.031 A 
ATOM     37  C   UNL     1       7.802   7.880  -2.511  1.00  0.00     0.074 A 
ATOM     38  C   UNL     1       7.822   7.133  -0.157  1.00  0.00     0.049 A 
ATOM     39  N   UNL     1       9.060   8.191  -2.694  1.00  0.00    -0.248 NA
ATOM     40  C   UNL     1       6.952   8.109  -3.691  1.00  0.00     0.031 C 
ATOM     41  C   UNL     1       7.331   6.504   1.072  1.00  0.00     0.029 A 
ATOM     42  N   UNL     1       9.107   7.505   0.158  1.00  0.00    -0.354 N 
ATOM     43  C   UNL     1       9.161   8.578  -4.025  1.00  0.00     0.074 A 
ATOM     44  C   UNL     1       7.850   8.413  -4.614  1.00  0.00     0.031 C 
ATOM     45  C   UNL     1       8.289   6.561   2.012  1.00  0.00     0.029 A 
ATOM     46  C   UNL     1       9.480   7.177   1.440  1.00  0.00     0.049 A 
ATOM     47  H   UNL     1       9.705   7.963  -0.476  1.00  0.00     0.167 HD
ATOM     48  C   UNL     1      10.239   9.053  -4.693  1.00  0.00     0.037 A 
ATOM     49  C   UNL     1      10.655   7.341   2.078  1.00  0.00     0.037 A 
ATOM     50  C   UNL     1      11.513   9.315  -4.081  1.00  0.00     0.049 A 
ATOM     51  C   UNL     1      11.812   7.959   1.343  1.00  0.00     0.074 A 
ATOM     52  C   UNL     1      12.642   9.880  -4.646  1.00  0.00     0.029 A 
ATOM     53  N   UNL     1      11.813   9.059  -2.752  1.00  0.00    -0.354 N 
ATOM     54  N   UNL     1      11.886   8.343   0.092  1.00  0.00    -0.248 NA
ATOM     55  C   UNL     1      13.050   8.167   2.109  1.00  0.00     0.031 C 
ATOM     56  C   UNL     1      13.631   9.957  -3.660  1.00  0.00     0.029 A 
ATOM     57  C   UNL     1      13.107   9.465  -2.476  1.00  0.00     0.049 A 
ATOM     58  H   UNL     1      11.198   8.649  -2.102  1.00  0.00     0.167 HD
ATOM     59  C   UNL     1      13.164   8.860  -0.072  1.00  0.00     0.074 A 
ATOM     60  C   UNL     1      13.828   8.754   1.210  1.00  0.00     0.031 C 
ATOM     61  C   UNL     1      13.739   9.373  -1.186  1.00  0.00     0.037 A 
BRANCH  48  62
ATOM     62  C   UNL     1      10.072   9.348  -6.155  1.00  0.00     0.057 A 
ATOM     63  C   UNL     1       9.286  10.415  -6.609  1.00  0.00     0.134 A 
ATOM     64  C   UNL     1      10.716   8.564  -7.121  1.00  0.00     0.134 A 
ATOM     65  F   UNL     1       8.630  11.196  -5.736  1.00  0.00    -0.206 F 
ATOM     66  C   UNL     1       9.116  10.671  -7.971  1.00  0.00     0.040 A 
ATOM     67  C   UNL     1      10.578   8.829  -8.485  1.00  0.00     0.040 A 
ATOM     68  F   UNL     1      11.489   7.531  -6.757  1.00  0.00    -0.206 F 
ATOM     69  C   UNL     1       9.768   9.879  -8.913  1.00  0.00     0.006 A 
ENDBRANCH  48  62
BRANCH  49  70
ATOM     70  C   UNL     1      10.796   6.940   3.501  1.00  0.00     0.057 A 
ATOM     71  C   UNL     1      10.889   7.907   4.509  1.00  0.00     0.134 A 
ATOM     72  C   UNL     1      10.859   5.597   3.887  1.00  0.00     0.134 A 
ATOM     73  F   UNL     1      10.855   9.211   4.198  1.00  0.00    -0.206 F 
ATOM     74  C   UNL     1      11.061   7.554   5.848  1.00  0.00     0.040 A 
ATOM     75  C   UNL     1      11.008   5.229   5.226  1.00  0.00     0.040 A 
ATOM     76  F   UNL     1      10.768   4.623   2.970  1.00  0.00    -0.206 F 
ATOM     77  C   UNL     1      11.118   6.210   6.210  1.00  0.00     0.006 A 
ENDBRANCH  49  70
BRANCH  61  78
ATOM     78  C   UNL     1      15.135   9.901  -1.057  1.00  0.00     0.057 A 
ATOM     79  C   UNL     1      16.241   9.048  -0.969  1.00  0.00     0.134 A 
ATOM     80  C   UNL     1      15.376  11.281  -1.069  1.00  0.00     0.134 A 
ATOM     81  F   UNL     1      16.072   7.717  -0.940  1.00  0.00    -0.206 F 
ATOM     82  C   UNL     1      17.540   9.550  -0.882  1.00  0.00     0.040 A 
ATOM     83  C   UNL     1      16.671  11.794  -1.004  1.00  0.00     0.040 A 
ATOM     84  F   UNL     1      14.357  12.149  -1.159  1.00  0.00    -0.206 F 
ATOM     85  C   UNL     1      17.758  10.927  -0.907  1.00  0.00     0.006 A 
ENDBRANCH  61  78
ENDBRANCH  35  36
ENDBRANCH  27  30
ENDBRANCH  25  26
ENDBRANCH  24  25
ENDBRANCH  23  24
ENDBRANCH   1  23
TORSDOF 16
