REMARK SMILES [NH3+][C@H]1CN(C(=O)OCC2c3ccccc3-c3ccccc32)C[C@@H]1C(=O)NCCCCNC(=O)c1ccc(-c2c3nc(c(-c4c(F)cccc4F)c4ccc([nH]4)c(-c4c(F)cccc4F)c4nc(c(-c5c(F)cccc5F)c5ccc2[nH]5)C=C4)C=C3)cc1
REMARK SMILES IDX 27 1 26 2 24 3 25 4 23 6 2 7 3 8 4 9 22 10 1 11 5 15 6 16
REMARK SMILES IDX 7 17 8 18 9 19 10 20 21 21 11 22 15 23 16 24 20 25 12 26
REMARK SMILES IDX 14 27 17 28 19 29 13 30 18 31 28 32 29 33 30 34 31 35 32 36
REMARK SMILES IDX 33 38 34 39 35 40 87 41 36 42 86 43 37 44 38 45 39 46 80 47
REMARK SMILES IDX 40 48 85 49 79 50 81 51 41 52 84 53 78 54 77 55 42 57 68 58
REMARK SMILES IDX 51 59 67 60 52 61 55 62 66 63 82 64 53 65 54 66 65 68 83 69
REMARK SMILES IDX 56 70 43 71 44 72 49 73 45 74 46 75 48 76 50 77 47 78 69 79
REMARK SMILES IDX 70 80 75 81 71 82 72 83 74 84 76 85 73 86 57 87 58 88 63 89
REMARK SMILES IDX 59 90 60 91 62 92 64 93 61 94
REMARK H PARENT 26 5 1 12 1 13 1 14 31 37 81 56 55 67
REMARK Flexibility Score: inf
ROOT
ATOM      1  C   UNL     1       2.317  -3.786   2.543  1.00  0.00     0.116 C 
ENDROOT
BRANCH   1   2
ATOM      2  N   UNL     1       2.938  -2.687   1.819  1.00  0.00    -0.356 N 
ATOM      3  C   UNL     1       2.413  -1.469   1.481  1.00  0.00     0.231 C 
ATOM      4  O   UNL     1       3.076  -0.712   0.775  1.00  0.00    -0.274 OA
ATOM      5  H   UNL     1       3.867  -2.842   1.532  1.00  0.00     0.163 HD
BRANCH   3   6
ATOM      6  C   UNL     1       1.033  -1.114   2.001  1.00  0.00     0.158 C 
ATOM      7  C   UNL     1       0.471   0.193   1.411  1.00  0.00     0.215 C 
ATOM      8  C   UNL     1       1.009   1.295   2.355  1.00  0.00     0.188 C 
ATOM      9  N   UNL     1       1.430   0.602   3.557  1.00  0.00    -0.301 N 
ATOM     10  C   UNL     1       1.144  -0.812   3.488  1.00  0.00     0.143 C 
BRANCH   7  11
ATOM     11  N   UNL     1      -1.006   0.154   1.420  1.00  0.00    -0.353 N 
ATOM     12  H   UNL     1      -1.372   1.022   1.028  1.00  0.00     0.344 HD
ATOM     13  H   UNL     1      -1.338   0.047   2.378  1.00  0.00     0.344 HD
ATOM     14  H   UNL     1      -1.329  -0.635   0.859  1.00  0.00     0.344 HD
ENDBRANCH   7  11
BRANCH   9  15
ATOM     15  C   UNL     1       2.204   1.146   4.542  1.00  0.00     0.410 C 
ATOM     16  O   UNL     1       2.950   0.480   5.253  1.00  0.00    -0.224 OA
BRANCH  15  17
ATOM     17  O   UNL     1       1.972   2.473   4.697  1.00  0.00    -0.448 OA
BRANCH  17  18
ATOM     18  C   UNL     1       2.536   3.077   5.882  1.00  0.00     0.248 C 
BRANCH  18  19
ATOM     19  C   UNL     1       1.539   3.070   7.063  1.00  0.00     0.088 C 
ATOM     20  C   UNL     1       1.636   1.834   7.962  1.00  0.00    -0.029 A 
ATOM     21  C   UNL     1       1.865   4.182   8.063  1.00  0.00    -0.029 A 
ATOM     22  C   UNL     1       1.318   0.515   7.677  1.00  0.00     0.005 A 
ATOM     23  C   UNL     1       2.091   2.195   9.248  1.00  0.00    -0.014 A 
ATOM     24  C   UNL     1       2.202   3.633   9.319  1.00  0.00    -0.014 A 
ATOM     25  C   UNL     1       1.828   5.556   7.869  1.00  0.00     0.005 A 
ATOM     26  C   UNL     1       1.562  -0.460   8.645  1.00  0.00     0.000 A 
ATOM     27  C   UNL     1       2.323   1.230  10.217  1.00  0.00     0.009 A 
ATOM     28  C   UNL     1       2.512   4.455  10.390  1.00  0.00     0.009 A 
ATOM     29  C   UNL     1       2.140   6.384   8.951  1.00  0.00     0.000 A 
ATOM     30  C   UNL     1       2.074  -0.108   9.902  1.00  0.00     0.001 A 
ATOM     31  C   UNL     1       2.479   5.839  10.200  1.00  0.00     0.001 A 
ENDBRANCH  18  19
ENDBRANCH  17  18
ENDBRANCH  15  17
ENDBRANCH   9  15
ENDBRANCH   3   6
ENDBRANCH   1   2
BRANCH   1  32
ATOM     32  C   UNL     1       2.123  -5.008   1.649  1.00  0.00     0.023 C 
BRANCH  32  33
ATOM     33  C   UNL     1       3.424  -5.649   1.159  1.00  0.00     0.023 C 
BRANCH  33  34
ATOM     34  C   UNL     1       4.372  -6.117   2.258  1.00  0.00     0.116 C 
BRANCH  34  35
ATOM     35  N   UNL     1       3.803  -7.162   3.094  1.00  0.00    -0.352 N 
ATOM     36  C   UNL     1       4.382  -8.329   3.531  1.00  0.00     0.251 C 
ATOM     37  H   UNL     1       2.874  -7.013   3.386  1.00  0.00     0.163 HD
ATOM     38  O   UNL     1       3.711  -9.167   4.125  1.00  0.00    -0.269 OA
BRANCH  36  39
ATOM     39  C   UNL     1       5.812  -8.589   3.256  1.00  0.00     0.039 A 
ATOM     40  C   UNL     1       6.188  -9.839   2.756  1.00  0.00     0.014 A 
ATOM     41  C   UNL     1       6.777  -7.604   3.480  1.00  0.00     0.014 A 
ATOM     42  C   UNL     1       7.521 -10.079   2.416  1.00  0.00     0.010 A 
ATOM     43  C   UNL     1       8.092  -7.820   3.079  1.00  0.00     0.010 A 
ATOM     44  C   UNL     1       8.478  -9.059   2.543  1.00  0.00    -0.014 A 
BRANCH  44  45
ATOM     45  C   UNL     1       9.891  -9.263   2.133  1.00  0.00     0.031 A 
ATOM     46  C   UNL     1      10.986  -9.204   3.161  1.00  0.00     0.074 A 
ATOM     47  C   UNL     1      10.198  -9.420   0.831  1.00  0.00     0.049 A 
ATOM     48  N   UNL     1      12.284  -9.233   2.993  1.00  0.00    -0.248 NA
ATOM     49  C   UNL     1      10.565  -9.064   4.564  1.00  0.00     0.031 C 
ATOM     50  C   UNL     1       9.233  -9.460  -0.269  1.00  0.00     0.029 A 
ATOM     51  N   UNL     1      11.415  -9.556   0.210  1.00  0.00    -0.354 N 
ATOM     52  C   UNL     1      12.832  -9.092   4.261  1.00  0.00     0.074 A 
ATOM     53  C   UNL     1      11.729  -8.934   5.184  1.00  0.00     0.031 C 
ATOM     54  C   UNL     1       9.894  -9.624  -1.427  1.00  0.00     0.029 A 
ATOM     55  C   UNL     1      11.328  -9.660  -1.157  1.00  0.00     0.049 A 
ATOM     56  H   UNL     1      12.269  -9.577   0.699  1.00  0.00     0.167 HD
ATOM     57  C   UNL     1      14.136  -9.112   4.627  1.00  0.00     0.037 A 
ATOM     58  C   UNL     1      12.296  -9.760  -2.088  1.00  0.00     0.037 A 
ATOM     59  C   UNL     1      15.231  -9.301   3.713  1.00  0.00     0.049 A 
ATOM     60  C   UNL     1      13.736  -9.777  -1.657  1.00  0.00     0.074 A 
ATOM     61  C   UNL     1      16.584  -9.390   3.995  1.00  0.00     0.029 A 
ATOM     62  N   UNL     1      15.099  -9.432   2.339  1.00  0.00    -0.354 N 
ATOM     63  N   UNL     1      14.238  -9.694  -0.449  1.00  0.00    -0.248 NA
ATOM     64  C   UNL     1      14.745  -9.904  -2.719  1.00  0.00     0.031 C 
ATOM     65  C   UNL     1      17.273  -9.540   2.787  1.00  0.00     0.029 A 
ATOM     66  C   UNL     1      16.346  -9.588   1.758  1.00  0.00     0.049 A 
ATOM     67  H   UNL     1      14.245  -9.416   1.849  1.00  0.00     0.167 HD
ATOM     68  C   UNL     1      15.615  -9.793  -0.602  1.00  0.00     0.074 A 
ATOM     69  C   UNL     1      15.870  -9.948  -2.019  1.00  0.00     0.031 C 
ATOM     70  C   UNL     1      16.582  -9.759   0.347  1.00  0.00     0.037 A 
BRANCH  57  71
ATOM     71  C   UNL     1      14.447  -8.926   6.083  1.00  0.00     0.057 A 
ATOM     72  C   UNL     1      14.161  -9.917   7.031  1.00  0.00     0.134 A 
ATOM     73  C   UNL     1      15.064  -7.755   6.539  1.00  0.00     0.134 A 
ATOM     74  F   UNL     1      13.559 -11.058   6.661  1.00  0.00    -0.206 F 
ATOM     75  C   UNL     1      14.453  -9.739   8.384  1.00  0.00     0.040 A 
ATOM     76  C   UNL     1      15.385  -7.576   7.885  1.00  0.00     0.040 A 
ATOM     77  F   UNL     1      15.371  -6.768   5.683  1.00  0.00    -0.206 F 
ATOM     78  C   UNL     1      15.073  -8.567   8.813  1.00  0.00     0.006 A 
ENDBRANCH  57  71
BRANCH  58  79
ATOM     79  C   UNL     1      11.937  -9.873  -3.524  1.00  0.00     0.057 A 
ATOM     80  C   UNL     1      12.118 -11.076  -4.217  1.00  0.00     0.134 A 
ATOM     81  C   UNL     1      11.419  -8.787  -4.238  1.00  0.00     0.134 A 
ATOM     82  F   UNL     1      12.629 -12.145  -3.591  1.00  0.00    -0.206 F 
ATOM     83  C   UNL     1      11.814 -11.190  -5.575  1.00  0.00     0.040 A 
ATOM     84  C   UNL     1      11.089  -8.893  -5.590  1.00  0.00     0.040 A 
ATOM     85  F   UNL     1      11.216  -7.610  -3.629  1.00  0.00    -0.206 F 
ATOM     86  C   UNL     1      11.293 -10.096  -6.264  1.00  0.00     0.006 A 
ENDBRANCH  58  79
BRANCH  70  87
ATOM     87  C   UNL     1      18.000  -9.943  -0.107  1.00  0.00     0.057 A 
ATOM     88  C   UNL     1      18.698  -8.934  -0.780  1.00  0.00     0.134 A 
ATOM     89  C   UNL     1      18.687 -11.130   0.177  1.00  0.00     0.134 A 
ATOM     90  F   UNL     1      18.092  -7.779  -1.093  1.00  0.00    -0.206 F 
ATOM     91  C   UNL     1      20.027  -9.105  -1.171  1.00  0.00     0.040 A 
ATOM     92  C   UNL     1      20.023 -11.304  -0.187  1.00  0.00     0.040 A 
ATOM     93  F   UNL     1      18.077 -12.133   0.826  1.00  0.00    -0.206 F 
ATOM     94  C   UNL     1      20.695 -10.291  -0.867  1.00  0.00     0.006 A 
ENDBRANCH  70  87
ENDBRANCH  44  45
ENDBRANCH  36  39
ENDBRANCH  34  35
ENDBRANCH  33  34
ENDBRANCH  32  33
ENDBRANCH   1  32
TORSDOF 16
