REMARK SMILES Cc1ccc(S(=O)(=O)n2cc(C(=O)C(=O)NCC(=O)NCCCCNC(=O)c3ccc(-c4c5nc(c(-c6c(F)cccc6F)c6ccc([nH]6)c(-c6c(F)cccc6F)c6nc(c(-c7c(F)cccc7F)c7ccc4[nH]7)C=C6)C=C5)cc3)c3ccccc32)cc1
REMARK SMILES IDX 21 1 20 2 18 3 19 4 17 6 16 7 14 8 15 9 12 11 13 12 11 13
REMARK SMILES IDX 9 14 10 15 87 16 82 17 86 18 83 19 85 20 84 21 6 22 7 23
REMARK SMILES IDX 8 24 5 25 1 26 2 27 3 28 89 29 4 30 88 31 22 32 23 33 24 34
REMARK SMILES IDX 25 35 26 36 27 38 28 39 29 40 81 41 30 42 80 43 31 44 32 45
REMARK SMILES IDX 33 46 74 47 34 48 79 49 73 50 75 51 35 52 78 53 72 54 71 55
REMARK SMILES IDX 36 57 62 58 45 59 61 60 46 61 49 62 60 63 76 64 47 65 48 66
REMARK SMILES IDX 59 68 77 69 50 70 37 71 38 72 43 73 39 74 40 75 42 76 44 77
REMARK SMILES IDX 41 78 63 79 64 80 69 81 65 82 66 83 68 84 70 85 67 86 51 87
REMARK SMILES IDX 52 88 57 89 53 90 54 91 56 92 58 93 55 94
REMARK H PARENT 20 5 16 10 25 37 75 56 49 67
REMARK Flexibility Score: inf
ROOT
ATOM      1  C   UNL     1      -9.338   4.766   0.973  1.00  0.00     0.116 C 
ENDROOT
BRANCH   1   2
ATOM      2  N   UNL     1      -9.877   5.786   1.851  1.00  0.00    -0.355 N 
ATOM      3  C   UNL     1      -9.259   6.509   2.829  1.00  0.00     0.239 C 
ATOM      4  O   UNL     1      -9.914   7.382   3.402  1.00  0.00    -0.273 OA
ATOM      5  H   UNL     1     -10.833   5.987   1.722  1.00  0.00     0.163 HD
BRANCH   3   6
ATOM      6  C   UNL     1      -7.762   6.333   3.107  1.00  0.00     0.216 C 
BRANCH   6   7
ATOM      7  N   UNL     1      -7.382   4.963   3.434  1.00  0.00    -0.340 N 
ATOM      8  C   UNL     1      -6.479   4.101   2.848  1.00  0.00     0.292 C 
ATOM      9  O   UNL     1      -6.348   2.982   3.333  1.00  0.00    -0.265 OA
ATOM     10  H   UNL     1      -7.854   4.587   4.212  1.00  0.00     0.164 HD
BRANCH   8  11
ATOM     11  C   UNL     1      -5.675   4.509   1.586  1.00  0.00     0.252 C 
ATOM     12  O   UNL     1      -5.580   5.704   1.322  1.00  0.00    -0.283 OA
BRANCH  11  13
ATOM     13  C   UNL     1      -5.046   3.509   0.706  1.00  0.00     0.054 A 
ATOM     14  N   UNL     1      -4.165   1.617  -0.093  1.00  0.00    -0.240 N 
ATOM     15  C   UNL     1      -4.850   2.163   0.963  1.00  0.00     0.117 A 
ATOM     16  C   UNL     1      -3.930   2.553  -1.075  1.00  0.00     0.065 A 
ATOM     17  C   UNL     1      -4.469   3.755  -0.595  1.00  0.00     0.012 A 
ATOM     18  C   UNL     1      -3.266   2.476  -2.314  1.00  0.00     0.028 A 
ATOM     19  C   UNL     1      -4.345   4.909  -1.400  1.00  0.00     0.011 A 
ATOM     20  C   UNL     1      -3.138   3.643  -3.071  1.00  0.00     0.002 A 
ATOM     21  C   UNL     1      -3.674   4.843  -2.625  1.00  0.00     0.001 A 
BRANCH  14  22
ATOM     22  S   UNL     1      -3.585   0.014  -0.104  1.00  0.00     0.268 S 
ATOM     23  O   UNL     1      -3.929  -0.499  -1.425  1.00  0.00    -0.201 OA
ATOM     24  O   UNL     1      -4.082  -0.597   1.105  1.00  0.00    -0.201 OA
BRANCH  22  25
ATOM     25  C   UNL     1      -1.815   0.068   0.009  1.00  0.00     0.088 A 
ATOM     26  C   UNL     1       2.487  -0.047   0.022  1.00  0.00     0.044 C 
ATOM     27  C   UNL     1       0.987  -0.002   0.039  1.00  0.00    -0.051 A 
ATOM     28  C   UNL     1       0.252  -1.191  -0.041  1.00  0.00     0.005 A 
ATOM     29  C   UNL     1       0.305   1.217   0.135  1.00  0.00     0.005 A 
ATOM     30  C   UNL     1      -1.143  -1.158  -0.061  1.00  0.00     0.022 A 
ATOM     31  C   UNL     1      -1.092   1.255   0.134  1.00  0.00     0.022 A 
ENDBRANCH  22  25
ENDBRANCH  14  22
ENDBRANCH  11  13
ENDBRANCH   8  11
ENDBRANCH   6   7
ENDBRANCH   3   6
ENDBRANCH   1   2
BRANCH   1  32
ATOM     32  C   UNL     1      -9.668   3.350   1.458  1.00  0.00     0.023 C 
BRANCH  32  33
ATOM     33  C   UNL     1     -11.160   3.022   1.477  1.00  0.00     0.023 C 
BRANCH  33  34
ATOM     34  C   UNL     1     -11.810   2.957   0.105  1.00  0.00     0.116 C 
BRANCH  34  35
ATOM     35  N   UNL     1     -11.634   1.687  -0.589  1.00  0.00    -0.352 N 
ATOM     36  C   UNL     1     -12.192   1.226  -1.772  1.00  0.00     0.251 C 
ATOM     37  H   UNL     1     -11.022   1.056  -0.147  1.00  0.00     0.163 HD
ATOM     38  O   UNL     1     -11.962   0.076  -2.139  1.00  0.00    -0.269 OA
BRANCH  36  39
ATOM     39  C   UNL     1     -12.883   2.162  -2.700  1.00  0.00     0.039 A 
ATOM     40  C   UNL     1     -12.523   2.054  -4.051  1.00  0.00     0.014 A 
ATOM     41  C   UNL     1     -13.438   3.338  -2.223  1.00  0.00     0.014 A 
ATOM     42  C   UNL     1     -12.336   3.213  -4.787  1.00  0.00     0.010 A 
ATOM     43  C   UNL     1     -13.094   4.494  -2.870  1.00  0.00     0.010 A 
ATOM     44  C   UNL     1     -12.464   4.417  -4.113  1.00  0.00    -0.014 A 
BRANCH  44  45
ATOM     45  C   UNL     1     -12.032   5.694  -4.628  1.00  0.00     0.031 A 
ATOM     46  C   UNL     1     -13.058   6.528  -5.254  1.00  0.00     0.074 A 
ATOM     47  C   UNL     1     -10.792   6.125  -4.314  1.00  0.00     0.049 A 
ATOM     48  N   UNL     1     -12.813   7.572  -5.952  1.00  0.00    -0.248 NA
ATOM     49  C   UNL     1     -14.479   6.205  -5.174  1.00  0.00     0.031 C 
ATOM     50  C   UNL     1     -10.244   7.473  -4.390  1.00  0.00     0.029 A 
ATOM     51  N   UNL     1      -9.679   5.320  -4.041  1.00  0.00    -0.354 N 
ATOM     52  C   UNL     1     -14.008   8.224  -6.150  1.00  0.00     0.074 A 
ATOM     53  C   UNL     1     -15.019   7.278  -5.753  1.00  0.00     0.031 C 
ATOM     54  C   UNL     1      -8.903   7.388  -4.480  1.00  0.00     0.029 A 
ATOM     55  C   UNL     1      -8.580   5.981  -4.642  1.00  0.00     0.049 A 
ATOM     56  H   UNL     1      -9.663   4.474  -3.538  1.00  0.00     0.167 HD
ATOM     57  C   UNL     1     -13.954   9.542  -6.491  1.00  0.00     0.037 A 
ATOM     58  C   UNL     1      -8.000   5.429  -5.752  1.00  0.00     0.037 A 
ATOM     59  C   UNL     1     -12.559   9.924  -6.747  1.00  0.00     0.049 A 
ATOM     60  C   UNL     1      -8.182   6.265  -7.011  1.00  0.00     0.074 A 
ATOM     61  C   UNL     1     -11.569  10.542  -6.002  1.00  0.00     0.029 A 
ATOM     62  N   UNL     1     -11.905   9.303  -7.795  1.00  0.00    -0.354 N 
ATOM     63  N   UNL     1      -8.960   7.311  -7.101  1.00  0.00    -0.248 NA
ATOM     64  C   UNL     1      -7.549   5.941  -8.287  1.00  0.00     0.031 C 
ATOM     65  C   UNL     1     -10.309  10.255  -6.616  1.00  0.00     0.029 A 
ATOM     66  C   UNL     1     -10.540   9.492  -7.748  1.00  0.00     0.049 A 
ATOM     67  H   UNL     1     -12.362   8.784  -8.495  1.00  0.00     0.167 HD
ATOM     68  C   UNL     1      -8.972   7.781  -8.390  1.00  0.00     0.074 A 
ATOM     69  C   UNL     1      -8.090   6.868  -9.099  1.00  0.00     0.031 C 
ATOM     70  C   UNL     1      -9.724   8.860  -8.778  1.00  0.00     0.037 A 
BRANCH  57  71
ATOM     71  C   UNL     1     -15.090  10.536  -6.386  1.00  0.00     0.057 A 
ATOM     72  C   UNL     1     -14.810  11.917  -6.402  1.00  0.00     0.134 A 
ATOM     73  C   UNL     1     -16.454  10.236  -6.208  1.00  0.00     0.134 A 
ATOM     74  F   UNL     1     -13.574  12.382  -6.631  1.00  0.00    -0.206 F 
ATOM     75  C   UNL     1     -15.783  12.902  -6.181  1.00  0.00     0.040 A 
ATOM     76  C   UNL     1     -17.435  11.209  -5.961  1.00  0.00     0.040 A 
ATOM     77  F   UNL     1     -16.939   8.998  -6.303  1.00  0.00    -0.206 F 
ATOM     78  C   UNL     1     -17.100  12.550  -5.937  1.00  0.00     0.006 A 
ENDBRANCH  57  71
BRANCH  58  79
ATOM     79  C   UNL     1      -8.014   3.931  -5.687  1.00  0.00     0.057 A 
ATOM     80  C   UNL     1      -7.419   3.314  -4.565  1.00  0.00     0.134 A 
ATOM     81  C   UNL     1      -8.952   3.177  -6.395  1.00  0.00     0.134 A 
ATOM     82  F   UNL     1      -6.500   3.976  -3.845  1.00  0.00    -0.206 F 
ATOM     83  C   UNL     1      -7.878   2.095  -4.060  1.00  0.00     0.040 A 
ATOM     84  C   UNL     1      -9.391   1.935  -5.917  1.00  0.00     0.040 A 
ATOM     85  F   UNL     1      -9.559   3.681  -7.478  1.00  0.00    -0.206 F 
ATOM     86  C   UNL     1      -8.903   1.424  -4.714  1.00  0.00     0.006 A 
ENDBRANCH  58  79
BRANCH  70  87
ATOM     87  C   UNL     1      -9.799   9.386 -10.197  1.00  0.00     0.057 A 
ATOM     88  C   UNL     1      -8.701   9.409 -11.065  1.00  0.00     0.134 A 
ATOM     89  C   UNL     1     -10.976   9.971 -10.724  1.00  0.00     0.134 A 
ATOM     90  F   UNL     1      -7.480   9.044 -10.650  1.00  0.00    -0.206 F 
ATOM     91  C   UNL     1      -8.801   9.850 -12.393  1.00  0.00     0.040 A 
ATOM     92  C   UNL     1     -11.073  10.465 -12.026  1.00  0.00     0.040 A 
ATOM     93  F   UNL     1     -12.108  10.085 -10.018  1.00  0.00    -0.206 F 
ATOM     94  C   UNL     1      -9.992  10.373 -12.880  1.00  0.00     0.006 A 
ENDBRANCH  70  87
ENDBRANCH  44  45
ENDBRANCH  36  39
ENDBRANCH  34  35
ENDBRANCH  33  34
ENDBRANCH  32  33
ENDBRANCH   1  32
TORSDOF 16
