REMARK SMILES Cc1nnc(SCC2=C(C(=O)NCCCCNC(=O)c3ccc(-c4c5nc(c(-c6c(F)cccc6F)c6ccc([nH]6)c(-c6c(F)cccc6F)c6nc(c(-c7c(F)cccc7F)c7ccc4[nH]7)C=C6)C=C5)cc3)N3C(=O)[C@H](NC(=O)c4cn(C)nc4C)[C@@H]3SC2)s1
REMARK SMILES IDX 14 1 13 2 12 3 10 4 11 5 9 7 8 8 90 9 74 10 89 11 75 12
REMARK SMILES IDX 88 13 76 14 77 15 7 16 6 17 5 18 1 19 2 20 3 21 91 22 4 23
REMARK SMILES IDX 78 24 79 25 80 27 81 28 82 29 86 30 83 31 85 32 87 33 84 34
REMARK SMILES IDX 15 35 16 36 17 37 18 38 19 40 20 41 21 42 73 43 22 44 72 45
REMARK SMILES IDX 23 46 24 47 25 48 66 49 26 50 71 51 65 52 67 53 27 54 70 55
REMARK SMILES IDX 64 56 63 57 28 59 54 60 37 61 53 62 38 63 41 64 52 65 68 66
REMARK SMILES IDX 39 67 40 68 51 70 69 71 42 72 29 73 30 74 35 75 31 76 32 77
REMARK SMILES IDX 34 78 36 79 33 80 55 81 56 82 61 83 57 84 58 85 60 86 62 87
REMARK SMILES IDX 59 88 43 89 44 90 49 91 45 92 46 93 48 94 50 95 47 96
REMARK H PARENT 12 6 78 26 17 39 67 58 41 69
REMARK Flexibility Score: inf
ROOT
ATOM      1  C   UNL     1       7.249  -0.274  -1.746  1.00  0.00     0.023 C 
ENDROOT
BRANCH   1   2
ATOM      2  C   UNL     1       6.046  -0.696  -0.909  1.00  0.00     0.116 C 
BRANCH   2   3
ATOM      3  N   UNL     1       5.696  -2.096  -0.845  1.00  0.00    -0.351 N 
ATOM      4  C   UNL     1       4.821  -2.792  -0.045  1.00  0.00     0.268 C 
ATOM      5  O   UNL     1       4.518  -3.912  -0.460  1.00  0.00    -0.268 OA
ATOM      6  H   UNL     1       6.174  -2.657  -1.498  1.00  0.00     0.163 HD
BRANCH   4   7
ATOM      7  C   UNL     1       4.316  -2.313   1.333  1.00  0.00     0.111 C 
ATOM      8  C   UNL     1       3.762  -1.089   1.607  1.00  0.00    -0.020 C 
ATOM      9  C   UNL     1       3.323  -0.668   3.002  1.00  0.00     0.106 C 
ATOM     10  N   UNL     1       4.340  -3.269   2.331  1.00  0.00    -0.290 N 
ATOM     11  S   UNL     1       2.778  -2.004   4.072  1.00  0.00    -0.129 SA
ATOM     12  C   UNL     1       4.438  -4.619   2.454  1.00  0.00     0.253 C 
ATOM     13  C   UNL     1       4.238  -2.999   3.752  1.00  0.00     0.181 C 
ATOM     14  O   UNL     1       4.644  -5.542   1.706  1.00  0.00    -0.272 OA
ATOM     15  C   UNL     1       4.080  -4.531   3.974  1.00  0.00     0.206 C 
BRANCH   8  16
ATOM     16  C   UNL     1       3.534  -0.038   0.536  1.00  0.00     0.111 C 
BRANCH  16  17
ATOM     17  S   UNL     1       2.300   1.254   0.762  1.00  0.00    -0.089 SA
BRANCH  17  18
ATOM     18  C   UNL     1       0.825   0.421   0.381  1.00  0.00     0.174 A 
ATOM     19  C   UNL     1      -2.858  -0.434  -0.145  1.00  0.00     0.081 C 
ATOM     20  C   UNL     1      -1.390  -0.302  -0.000  1.00  0.00     0.115 A 
ATOM     21  N   UNL     1      -0.519  -1.278  -0.151  1.00  0.00    -0.143 NA
ATOM     22  S   UNL     1      -0.690   1.213   0.398  1.00  0.00    -0.091 S 
ATOM     23  N   UNL     1       0.775  -0.855   0.074  1.00  0.00    -0.132 NA
ENDBRANCH  17  18
ENDBRANCH  16  17
ENDBRANCH   8  16
BRANCH  15  24
ATOM     24  N   UNL     1       2.721  -5.018   4.348  1.00  0.00    -0.337 N 
ATOM     25  C   UNL     1       2.283  -5.571   5.527  1.00  0.00     0.255 C 
ATOM     26  H   UNL     1       2.036  -4.930   3.646  1.00  0.00     0.164 HD
ATOM     27  O   UNL     1       1.113  -5.935   5.618  1.00  0.00    -0.269 OA
BRANCH  25  28
ATOM     28  C   UNL     1       3.226  -5.752   6.612  1.00  0.00     0.080 A 
ATOM     29  C   UNL     1       4.112  -4.834   7.146  1.00  0.00     0.122 A 
ATOM     30  C   UNL     1       3.403  -6.913   7.417  1.00  0.00     0.072 A 
ATOM     31  N   UNL     1       4.794  -5.488   8.128  1.00  0.00    -0.275 N 
ATOM     32  N   UNL     1       4.381  -6.749   8.319  1.00  0.00    -0.178 NA
ATOM     33  C   UNL     1       2.695  -8.217   7.335  1.00  0.00     0.069 C 
ATOM     34  C   UNL     1       5.894  -4.982   8.913  1.00  0.00     0.173 C 
ENDBRANCH  25  28
ENDBRANCH  15  24
ENDBRANCH   4   7
ENDBRANCH   2   3
ENDBRANCH   1   2
BRANCH   1  35
ATOM     35  C   UNL     1       7.250  -0.604  -3.240  1.00  0.00     0.023 C 
BRANCH  35  36
ATOM     36  C   UNL     1       5.941  -0.473  -4.017  1.00  0.00     0.116 C 
BRANCH  36  37
ATOM     37  N   UNL     1       5.390   0.876  -4.084  1.00  0.00    -0.352 N 
ATOM     38  C   UNL     1       5.265   1.754  -5.140  1.00  0.00     0.251 C 
ATOM     39  H   UNL     1       5.048   1.219  -3.227  1.00  0.00     0.163 HD
ATOM     40  O   UNL     1       4.776   2.865  -4.952  1.00  0.00    -0.269 OA
BRANCH  38  41
ATOM     41  C   UNL     1       5.775   1.401  -6.483  1.00  0.00     0.039 A 
ATOM     42  C   UNL     1       6.603   2.313  -7.147  1.00  0.00     0.014 A 
ATOM     43  C   UNL     1       5.485   0.172  -7.072  1.00  0.00     0.014 A 
ATOM     44  C   UNL     1       7.256   1.930  -8.322  1.00  0.00     0.010 A 
ATOM     45  C   UNL     1       6.204  -0.243  -8.190  1.00  0.00     0.010 A 
ATOM     46  C   UNL     1       7.124   0.619  -8.808  1.00  0.00    -0.014 A 
BRANCH  46  47
ATOM     47  C   UNL     1       7.980   0.104  -9.910  1.00  0.00     0.031 A 
ATOM     48  C   UNL     1       7.361  -0.413 -11.179  1.00  0.00     0.074 A 
ATOM     49  C   UNL     1       9.311  -0.003  -9.721  1.00  0.00     0.049 A 
ATOM     50  N   UNL     1       7.931  -1.023 -12.187  1.00  0.00    -0.248 NA
ATOM     51  C   UNL     1       5.906  -0.253 -11.317  1.00  0.00     0.031 C 
ATOM     52  C   UNL     1      10.034   0.405  -8.514  1.00  0.00     0.029 A 
ATOM     53  N   UNL     1      10.295  -0.509 -10.536  1.00  0.00    -0.354 N 
ATOM     54  C   UNL     1       6.904  -1.341 -13.065  1.00  0.00     0.074 A 
ATOM     55  C   UNL     1       5.670  -0.898 -12.450  1.00  0.00     0.031 C 
ATOM     56  C   UNL     1      11.343   0.153  -8.675  1.00  0.00     0.029 A 
ATOM     57  C   UNL     1      11.550  -0.476  -9.975  1.00  0.00     0.049 A 
ATOM     58  H   UNL     1      10.118  -0.863 -11.438  1.00  0.00     0.167 HD
ATOM     59  C   UNL     1       6.981  -1.928 -14.283  1.00  0.00     0.037 A 
ATOM     60  C   UNL     1      12.732  -0.916 -10.445  1.00  0.00     0.037 A 
ATOM     61  C   UNL     1       8.210  -2.336 -14.911  1.00  0.00     0.049 A 
ATOM     62  C   UNL     1      12.791  -1.566 -11.798  1.00  0.00     0.074 A 
ATOM     63  C   UNL     1       8.398  -2.864 -16.176  1.00  0.00     0.029 A 
ATOM     64  N   UNL     1       9.462  -2.263 -14.318  1.00  0.00    -0.354 N 
ATOM     65  N   UNL     1      11.820  -1.792 -12.648  1.00  0.00    -0.248 NA
ATOM     66  C   UNL     1      14.111  -2.026 -12.257  1.00  0.00     0.031 C 
ATOM     67  C   UNL     1       9.758  -3.147 -16.335  1.00  0.00     0.029 A 
ATOM     68  C   UNL     1      10.423  -2.759 -15.184  1.00  0.00     0.049 A 
ATOM     69  H   UNL     1       9.640  -1.911 -13.416  1.00  0.00     0.167 HD
ATOM     70  C   UNL     1      12.411  -2.400 -13.748  1.00  0.00     0.074 A 
ATOM     71  C   UNL     1      13.828  -2.493 -13.465  1.00  0.00     0.031 C 
ATOM     72  C   UNL     1      11.830  -2.842 -14.889  1.00  0.00     0.037 A 
BRANCH  59  73
ATOM     73  C   UNL     1       5.697  -2.156 -15.023  1.00  0.00     0.057 A 
ATOM     74  C   UNL     1       4.968  -1.096 -15.578  1.00  0.00     0.134 A 
ATOM     75  C   UNL     1       5.200  -3.451 -15.214  1.00  0.00     0.134 A 
ATOM     76  F   UNL     1       5.384   0.170 -15.422  1.00  0.00    -0.206 F 
ATOM     77  C   UNL     1       3.777  -1.313 -16.272  1.00  0.00     0.040 A 
ATOM     78  C   UNL     1       4.023  -3.683 -15.928  1.00  0.00     0.040 A 
ATOM     79  F   UNL     1       5.852  -4.512 -14.715  1.00  0.00    -0.206 F 
ATOM     80  C   UNL     1       3.305  -2.611 -16.454  1.00  0.00     0.006 A 
ENDBRANCH  59  73
BRANCH  60  81
ATOM     81  C   UNL     1      13.966  -0.747  -9.635  1.00  0.00     0.057 A 
ATOM     82  C   UNL     1      14.954   0.169 -10.013  1.00  0.00     0.134 A 
ATOM     83  C   UNL     1      14.192  -1.499  -8.476  1.00  0.00     0.134 A 
ATOM     84  F   UNL     1      14.802   0.903 -11.125  1.00  0.00    -0.206 F 
ATOM     85  C   UNL     1      16.131   0.320  -9.279  1.00  0.00     0.040 A 
ATOM     86  C   UNL     1      15.355  -1.342  -7.720  1.00  0.00     0.040 A 
ATOM     87  F   UNL     1      13.281  -2.389  -8.057  1.00  0.00    -0.206 F 
ATOM     88  C   UNL     1      16.332  -0.435  -8.125  1.00  0.00     0.006 A 
ENDBRANCH  60  81
BRANCH  72  89
ATOM     89  C   UNL     1      12.727  -3.446 -15.928  1.00  0.00     0.057 A 
ATOM     90  C   UNL     1      13.273  -4.726 -15.774  1.00  0.00     0.134 A 
ATOM     91  C   UNL     1      13.007  -2.760 -17.116  1.00  0.00     0.134 A 
ATOM     92  F   UNL     1      13.054  -5.428 -14.651  1.00  0.00    -0.206 F 
ATOM     93  C   UNL     1      14.076  -5.298 -16.761  1.00  0.00     0.040 A 
ATOM     94  C   UNL     1      13.790  -3.331 -18.120  1.00  0.00     0.040 A 
ATOM     95  F   UNL     1      12.510  -1.532 -17.328  1.00  0.00    -0.206 F 
ATOM     96  C   UNL     1      14.330  -4.603 -17.942  1.00  0.00     0.006 A 
ENDBRANCH  72  89
ENDBRANCH  46  47
ENDBRANCH  38  41
ENDBRANCH  36  37
ENDBRANCH  35  36
ENDBRANCH   1  35
TORSDOF 16
