REMARK SMILES C/C=C/C[N@H+]1CCC[C@H](C(=O)NCCCCNC(=O)c2ccc(-c3c4nc(c(-c5c(F)cccc5F)c5ccc([nH]5)c(-c5c(F)cccc5F)c5nc(c(-c6c(F)cccc6F)c6ccc3[nH]6)C=C5)C=C4)cc2)C1
REMARK SMILES IDX 14 1 13 2 12 3 10 4 11 5 9 7 5 8 6 9 74 10 7 12 8 13 4 14
REMARK SMILES IDX 3 15 1 16 2 17 15 18 16 19 17 20 18 21 19 23 20 24 21 25
REMARK SMILES IDX 73 26 22 27 72 28 23 29 24 30 25 31 66 32 26 33 71 34 65 35
REMARK SMILES IDX 67 36 27 37 70 38 64 39 63 40 28 42 54 43 37 44 53 45 38 46
REMARK SMILES IDX 41 47 52 48 68 49 39 50 40 51 51 53 69 54 42 55 29 56 30 57
REMARK SMILES IDX 35 58 31 59 32 60 34 61 36 62 33 63 55 64 56 65 61 66 57 67
REMARK SMILES IDX 58 68 60 69 62 70 59 71 43 72 44 73 49 74 45 75 46 76 48 77
REMARK SMILES IDX 50 78 47 79
REMARK H PARENT 12 6 5 11 17 22 67 41 41 52
REMARK Flexibility Score: inf
ROOT
ATOM      1  C   UNL     1       2.895   4.781   4.191  1.00  0.00     0.023 C 
ENDROOT
BRANCH   1   2
ATOM      2  C   UNL     1       1.429   4.474   4.475  1.00  0.00     0.116 C 
BRANCH   2   3
ATOM      3  N   UNL     1       0.679   5.647   4.860  1.00  0.00    -0.356 N 
ATOM      4  C   UNL     1      -0.320   6.317   4.233  1.00  0.00     0.228 C 
ATOM      5  O   UNL     1      -0.821   7.258   4.862  1.00  0.00    -0.275 OA
ATOM      6  H   UNL     1       0.938   6.028   5.730  1.00  0.00     0.163 HD
BRANCH   4   7
ATOM      7  C   UNL     1      -0.821   6.012   2.819  1.00  0.00     0.133 C 
ATOM      8  N   UNL     1      -0.476   3.639   1.982  1.00  0.00    -0.331 N 
ATOM      9  C   UNL     1       0.160   4.152   0.772  1.00  0.00     0.262 C 
ATOM     10  C   UNL     1      -1.398   4.608   2.594  1.00  0.00     0.276 C 
ATOM     11  H   UNL     1       0.327   3.507   2.598  1.00  0.00     0.348 HD
ATOM     12  C   UNL     1       0.952   5.424   1.069  1.00  0.00     0.062 C 
ATOM     13  C   UNL     1       0.103   6.511   1.707  1.00  0.00     0.025 C 
BRANCH   8  14
ATOM     14  C   UNL     1      -1.080   2.304   1.910  1.00  0.00     0.290 C 
BRANCH  14  15
ATOM     15  C   UNL     1      -0.533   1.408   0.838  1.00  0.00     0.029 C 
ATOM     16  C   UNL     1       0.907  -0.394  -0.105  1.00  0.00     0.035 C 
ATOM     17  C   UNL     1       0.364   0.427   1.019  1.00  0.00    -0.029 C 
ENDBRANCH  14  15
ENDBRANCH   8  14
ENDBRANCH   4   7
ENDBRANCH   2   3
ENDBRANCH   1   2
BRANCH   1  18
ATOM     18  C   UNL     1       3.816   4.623   5.395  1.00  0.00     0.023 C 
BRANCH  18  19
ATOM     19  C   UNL     1       3.818   3.239   6.035  1.00  0.00     0.116 C 
BRANCH  19  20
ATOM     20  N   UNL     1       4.131   2.150   5.120  1.00  0.00    -0.352 N 
ATOM     21  C   UNL     1       4.820   0.985   5.394  1.00  0.00     0.251 C 
ATOM     22  H   UNL     1       3.813   2.257   4.194  1.00  0.00     0.163 HD
ATOM     23  O   UNL     1       5.067   0.172   4.522  1.00  0.00    -0.269 OA
BRANCH  21  24
ATOM     24  C   UNL     1       5.298   0.773   6.777  1.00  0.00     0.039 A 
ATOM     25  C   UNL     1       6.661   0.564   6.995  1.00  0.00     0.014 A 
ATOM     26  C   UNL     1       4.414   0.898   7.850  1.00  0.00     0.014 A 
ATOM     27  C   UNL     1       7.154   0.573   8.300  1.00  0.00     0.010 A 
ATOM     28  C   UNL     1       4.917   0.989   9.141  1.00  0.00     0.010 A 
ATOM     29  C   UNL     1       6.293   0.837   9.379  1.00  0.00    -0.014 A 
BRANCH  29  30
ATOM     30  C   UNL     1       6.807   0.973  10.764  1.00  0.00     0.031 A 
ATOM     31  C   UNL     1       6.351   0.017  11.830  1.00  0.00     0.074 A 
ATOM     32  C   UNL     1       7.607   2.009  11.084  1.00  0.00     0.049 A 
ATOM     33  N   UNL     1       6.606   0.025  13.113  1.00  0.00    -0.248 NA
ATOM     34  C   UNL     1       5.456  -1.071  11.402  1.00  0.00     0.031 C 
ATOM     35  C   UNL     1       8.062   3.049  10.157  1.00  0.00     0.029 A 
ATOM     36  N   UNL     1       8.167   2.369  12.284  1.00  0.00    -0.354 N 
ATOM     37  C   UNL     1       5.882  -1.033  13.646  1.00  0.00     0.074 A 
ATOM     38  C   UNL     1       5.139  -1.630  12.559  1.00  0.00     0.031 C 
ATOM     39  C   UNL     1       8.848   3.914  10.819  1.00  0.00     0.029 A 
ATOM     40  C   UNL     1       8.928   3.511  12.219  1.00  0.00     0.049 A 
ATOM     41  H   UNL     1       8.035   1.856  13.114  1.00  0.00     0.167 HD
ATOM     42  C   UNL     1       5.858  -1.482  14.923  1.00  0.00     0.037 A 
ATOM     43  C   UNL     1       9.611   4.159  13.181  1.00  0.00     0.037 A 
ATOM     44  C   UNL     1       6.636  -0.918  15.993  1.00  0.00     0.049 A 
ATOM     45  C   UNL     1       9.607   3.613  14.581  1.00  0.00     0.074 A 
ATOM     46  C   UNL     1       6.749  -1.356  17.300  1.00  0.00     0.029 A 
ATOM     47  N   UNL     1       7.438   0.206  15.875  1.00  0.00    -0.354 N 
ATOM     48  N   UNL     1       8.983   2.563  15.055  1.00  0.00    -0.248 NA
ATOM     49  C   UNL     1      10.411   4.336  15.577  1.00  0.00     0.031 C 
ATOM     50  C   UNL     1       7.598  -0.478  17.983  1.00  0.00     0.029 A 
ATOM     51  C   UNL     1       8.040   0.486  17.090  1.00  0.00     0.049 A 
ATOM     52  H   UNL     1       7.561   0.728  15.049  1.00  0.00     0.167 HD
ATOM     53  C   UNL     1       9.334   2.485  16.396  1.00  0.00     0.074 A 
ATOM     54  C   UNL     1      10.238   3.586  16.657  1.00  0.00     0.031 C 
ATOM     55  C   UNL     1       8.943   1.582  17.328  1.00  0.00     0.037 A 
BRANCH  42  56
ATOM     56  C   UNL     1       4.967  -2.651  15.223  1.00  0.00     0.057 A 
ATOM     57  C   UNL     1       5.263  -3.941  14.762  1.00  0.00     0.134 A 
ATOM     58  C   UNL     1       3.809  -2.489  15.993  1.00  0.00     0.134 A 
ATOM     59  F   UNL     1       6.349  -4.161  14.007  1.00  0.00    -0.206 F 
ATOM     60  C   UNL     1       4.422  -5.022  15.030  1.00  0.00     0.040 A 
ATOM     61  C   UNL     1       2.974  -3.567  16.290  1.00  0.00     0.040 A 
ATOM     62  F   UNL     1       3.470  -1.281  16.468  1.00  0.00    -0.206 F 
ATOM     63  C   UNL     1       3.276  -4.837  15.801  1.00  0.00     0.006 A 
ENDBRANCH  42  56
BRANCH  43  64
ATOM     64  C   UNL     1      10.385   5.380  12.846  1.00  0.00     0.057 A 
ATOM     65  C   UNL     1      11.784   5.355  12.803  1.00  0.00     0.134 A 
ATOM     66  C   UNL     1       9.751   6.596  12.564  1.00  0.00     0.134 A 
ATOM     67  F   UNL     1      12.447   4.223  13.081  1.00  0.00    -0.206 F 
ATOM     68  C   UNL     1      12.527   6.499  12.508  1.00  0.00     0.040 A 
ATOM     69  C   UNL     1      10.481   7.743  12.247  1.00  0.00     0.040 A 
ATOM     70  F   UNL     1       8.413   6.682  12.582  1.00  0.00    -0.206 F 
ATOM     71  C   UNL     1      11.874   7.697  12.224  1.00  0.00     0.006 A 
ENDBRANCH  43  64
BRANCH  55  72
ATOM     72  C   UNL     1       9.511   1.731  18.707  1.00  0.00     0.057 A 
ATOM     73  C   UNL     1       9.075   2.735  19.579  1.00  0.00     0.134 A 
ATOM     74  C   UNL     1      10.474   0.831  19.181  1.00  0.00     0.134 A 
ATOM     75  F   UNL     1       8.165   3.636  19.178  1.00  0.00    -0.206 F 
ATOM     76  C   UNL     1       9.589   2.850  20.871  1.00  0.00     0.040 A 
ATOM     77  C   UNL     1      10.979   0.922  20.478  1.00  0.00     0.040 A 
ATOM     78  F   UNL     1      10.927  -0.159  18.396  1.00  0.00    -0.206 F 
ATOM     79  C   UNL     1      10.539   1.937  21.326  1.00  0.00     0.006 A 
ENDBRANCH  55  72
ENDBRANCH  29  30
ENDBRANCH  21  24
ENDBRANCH  19  20
ENDBRANCH  18  19
ENDBRANCH   1  18
TORSDOF 13
