REMARK SMILES O=C(NCCCCNC(=O)[C@H](CO)NC(=O)[C@H](CS)NC(=O)[C@H](Cc1ccccc1)NC(=O)c1ccc(F)cc1)c1ccc(-c2c3nc(c(-c4c(F)cccc4F)c4ccc([nH]4)c(-c4c(F)cccc4F)c4nc(c(-c5c(F)cccc5F)c5ccc2[nH]5)C=C4)C=C3)cc1
REMARK SMILES IDX 8 1 9 2 10 3 7 5 6 6 5 7 4 8 3 9 1 10 2 11 41 13 42 14 94 15
REMARK SMILES IDX 43 16 93 17 44 18 45 19 46 20 87 21 47 22 92 23 86 24 88 25
REMARK SMILES IDX 48 26 91 27 85 28 84 29 49 31 75 32 58 33 74 34 59 35 62 36
REMARK SMILES IDX 73 37 89 38 60 39 61 40 72 42 90 43 63 44 50 45 51 46 56 47
REMARK SMILES IDX 52 48 53 49 55 50 57 51 54 52 76 53 77 54 82 55 78 56 79 57
REMARK SMILES IDX 81 58 83 59 80 60 64 61 65 62 70 63 66 64 67 65 69 66 71 67
REMARK SMILES IDX 68 68 11 69 14 70 15 71 16 73 17 74 20 75 21 76 22 78 23 79
REMARK SMILES IDX 31 80 32 81 33 83 34 84 35 85 40 86 36 87 39 88 37 89 38 90
REMARK SMILES IDX 24 91 25 92 26 93 30 94 27 95 29 96 28 97 18 98 19 99 12 101
REMARK SMILES IDX 13 102
REMARK H PARENT 8 4 3 12 88 30 62 41 14 72 20 77 31 82 19 100 13 103
REMARK Flexibility Score: inf
ROOT
ATOM      1  N   UNL     1      10.831 -10.219  -2.667  1.00  0.00    -0.354 N 
ATOM      2  C   UNL     1      10.039  -9.579  -1.759  1.00  0.00     0.244 C 
ATOM      3  O   UNL     1      10.530  -8.628  -1.146  1.00  0.00    -0.273 OA
ATOM      4  H   UNL     1      11.783  -9.968  -2.637  1.00  0.00     0.163 HD
ENDROOT
BRANCH   1   5
ATOM      5  C   UNL     1      10.493 -11.211  -3.668  1.00  0.00     0.116 C 
BRANCH   5   6
ATOM      6  C   UNL     1      10.658 -10.620  -5.067  1.00  0.00     0.023 C 
BRANCH   6   7
ATOM      7  C   UNL     1      12.112 -10.583  -5.536  1.00  0.00     0.023 C 
BRANCH   7   8
ATOM      8  C   UNL     1      12.792 -11.946  -5.563  1.00  0.00     0.116 C 
BRANCH   8   9
ATOM      9  N   UNL     1      12.060 -12.923  -6.357  1.00  0.00    -0.352 N 
ATOM     10  O   UNL     1      11.784 -14.412  -8.037  1.00  0.00    -0.269 OA
ATOM     11  C   UNL     1      12.538 -13.743  -7.352  1.00  0.00     0.251 C 
ATOM     12  H   UNL     1      11.100 -13.007  -6.156  1.00  0.00     0.163 HD
BRANCH  11  13
ATOM     13  C   UNL     1      13.992 -13.765  -7.582  1.00  0.00     0.039 A 
ATOM     14  C   UNL     1      14.855 -13.982  -6.504  1.00  0.00     0.014 A 
ATOM     15  C   UNL     1      14.482 -13.473  -8.854  1.00  0.00     0.014 A 
ATOM     16  C   UNL     1      16.214 -13.762  -6.669  1.00  0.00     0.010 A 
ATOM     17  C   UNL     1      15.857 -13.335  -9.035  1.00  0.00     0.010 A 
ATOM     18  C   UNL     1      16.727 -13.446  -7.937  1.00  0.00    -0.014 A 
BRANCH  18  19
ATOM     19  C   UNL     1      18.186 -13.276  -8.114  1.00  0.00     0.031 A 
ATOM     20  C   UNL     1      18.764 -11.952  -8.518  1.00  0.00     0.074 A 
ATOM     21  C   UNL     1      18.983 -14.340  -7.914  1.00  0.00     0.049 A 
ATOM     22  N   UNL     1      20.003 -11.648  -8.805  1.00  0.00    -0.248 NA
ATOM     23  C   UNL     1      17.828 -10.821  -8.622  1.00  0.00     0.031 C 
ATOM     24  C   UNL     1      18.524 -15.672  -7.511  1.00  0.00     0.029 A 
ATOM     25  N   UNL     1      20.341 -14.473  -8.022  1.00  0.00    -0.354 N 
ATOM     26  C   UNL     1      19.994 -10.305  -9.155  1.00  0.00     0.074 A 
ATOM     27  C   UNL     1      18.622  -9.852  -9.056  1.00  0.00     0.031 C 
ATOM     28  C   UNL     1      19.584 -16.482  -7.385  1.00  0.00     0.029 A 
ATOM     29  C   UNL     1      20.784 -15.747  -7.766  1.00  0.00     0.049 A 
ATOM     30  H   UNL     1      20.941 -13.730  -8.259  1.00  0.00     0.167 HD
ATOM     31  C   UNL     1      21.038  -9.526  -9.527  1.00  0.00     0.037 A 
ATOM     32  C   UNL     1      22.015 -16.277  -7.864  1.00  0.00     0.037 A 
ATOM     33  C   UNL     1      22.401  -9.988  -9.604  1.00  0.00     0.049 A 
ATOM     34  C   UNL     1      23.149 -15.402  -8.302  1.00  0.00     0.074 A 
ATOM     35  C   UNL     1      23.537  -9.273  -9.939  1.00  0.00     0.029 A 
ATOM     36  N   UNL     1      22.809 -11.289  -9.344  1.00  0.00    -0.354 N 
ATOM     37  N   UNL     1      23.130 -14.132  -8.624  1.00  0.00    -0.248 NA
ATOM     38  C   UNL     1      24.471 -16.032  -8.396  1.00  0.00     0.031 C 
ATOM     39  C   UNL     1      24.627 -10.150  -9.920  1.00  0.00     0.029 A 
ATOM     40  C   UNL     1      24.177 -11.402  -9.529  1.00  0.00     0.049 A 
ATOM     41  H   UNL     1      22.214 -12.023  -9.069  1.00  0.00     0.167 HD
ATOM     42  C   UNL     1      24.438 -13.802  -8.942  1.00  0.00     0.074 A 
ATOM     43  C   UNL     1      25.226 -15.006  -8.765  1.00  0.00     0.031 C 
ATOM     44  C   UNL     1      24.942 -12.609  -9.343  1.00  0.00     0.037 A 
BRANCH  31  45
ATOM     45  C   UNL     1      20.742  -8.105  -9.909  1.00  0.00     0.057 A 
ATOM     46  C   UNL     1      20.391  -7.136  -8.960  1.00  0.00     0.134 A 
ATOM     47  C   UNL     1      20.835  -7.694 -11.245  1.00  0.00     0.134 A 
ATOM     48  F   UNL     1      20.270  -7.465  -7.665  1.00  0.00    -0.206 F 
ATOM     49  C   UNL     1      20.119  -5.816  -9.330  1.00  0.00     0.040 A 
ATOM     50  C   UNL     1      20.589  -6.373 -11.624  1.00  0.00     0.040 A 
ATOM     51  F   UNL     1      21.172  -8.569 -12.205  1.00  0.00    -0.206 F 
ATOM     52  C   UNL     1      20.224  -5.431 -10.665  1.00  0.00     0.006 A 
ENDBRANCH  31  45
BRANCH  32  53
ATOM     53  C   UNL     1      22.210 -17.712  -7.552  1.00  0.00     0.057 A 
ATOM     54  C   UNL     1      22.852 -18.114  -6.377  1.00  0.00     0.134 A 
ATOM     55  C   UNL     1      21.700 -18.713  -8.389  1.00  0.00     0.134 A 
ATOM     56  F   UNL     1      23.367 -17.200  -5.543  1.00  0.00    -0.206 F 
ATOM     57  C   UNL     1      22.982 -19.463  -6.044  1.00  0.00     0.040 A 
ATOM     58  C   UNL     1      21.802 -20.064  -8.057  1.00  0.00     0.040 A 
ATOM     59  F   UNL     1      21.060 -18.387  -9.522  1.00  0.00    -0.206 F 
ATOM     60  C   UNL     1      22.447 -20.442  -6.881  1.00  0.00     0.006 A 
ENDBRANCH  32  53
BRANCH  44  61
ATOM     61  C   UNL     1      26.419 -12.542  -9.582  1.00  0.00     0.057 A 
ATOM     62  C   UNL     1      27.007 -13.096 -10.725  1.00  0.00     0.134 A 
ATOM     63  C   UNL     1      27.255 -11.879  -8.675  1.00  0.00     0.134 A 
ATOM     64  F   UNL     1      26.261 -13.757 -11.622  1.00  0.00    -0.206 F 
ATOM     65  C   UNL     1      28.381 -13.005 -10.951  1.00  0.00     0.040 A 
ATOM     66  C   UNL     1      28.626 -11.763  -8.900  1.00  0.00     0.040 A 
ATOM     67  F   UNL     1      26.749 -11.324  -7.563  1.00  0.00    -0.206 F 
ATOM     68  C   UNL     1      29.193 -12.330 -10.040  1.00  0.00     0.006 A 
ENDBRANCH  44  61
ENDBRANCH  18  19
ENDBRANCH  11  13
ENDBRANCH   8   9
ENDBRANCH   7   8
ENDBRANCH   6   7
ENDBRANCH   5   6
ENDBRANCH   1   5
BRANCH   2  69
ATOM     69  C   UNL     1       8.618 -10.098  -1.456  1.00  0.00     0.197 C 
BRANCH  69  70
ATOM     70  N   UNL     1       8.045  -9.290  -0.374  1.00  0.00    -0.340 N 
ATOM     71  C   UNL     1       7.079  -9.535   0.545  1.00  0.00     0.244 C 
ATOM     72  H   UNL     1       8.441  -8.391  -0.300  1.00  0.00     0.164 HD
ATOM     73  O   UNL     1       6.463  -8.537   0.942  1.00  0.00    -0.273 OA
BRANCH  71  74
ATOM     74  C   UNL     1       6.921 -10.897   1.266  1.00  0.00     0.181 C 
BRANCH  74  75
ATOM     75  N   UNL     1       5.736 -10.810   2.143  1.00  0.00    -0.342 N 
ATOM     76  C   UNL     1       5.508 -11.276   3.398  1.00  0.00     0.243 C 
ATOM     77  H   UNL     1       4.974 -10.328   1.746  1.00  0.00     0.164 HD
ATOM     78  O   UNL     1       4.354 -11.639   3.645  1.00  0.00    -0.273 OA
BRANCH  76  79
ATOM     79  C   UNL     1       6.545 -11.132   4.538  1.00  0.00     0.176 C 
BRANCH  79  80
ATOM     80  N   UNL     1       7.921 -11.394   4.121  1.00  0.00    -0.340 N 
ATOM     81  C   UNL     1       8.634 -12.564   4.136  1.00  0.00     0.251 C 
ATOM     82  H   UNL     1       8.410 -10.612   3.778  1.00  0.00     0.164 HD
ATOM     83  O   UNL     1       9.746 -12.598   3.616  1.00  0.00    -0.269 OA
BRANCH  81  84
ATOM     84  C   UNL     1       8.122 -13.762   4.838  1.00  0.00     0.040 A 
ATOM     85  C   UNL     1       8.966 -14.350   5.791  1.00  0.00     0.017 A 
ATOM     86  C   UNL     1       6.867 -14.322   4.574  1.00  0.00     0.017 A 
ATOM     87  C   UNL     1       8.534 -15.460   6.516  1.00  0.00     0.040 A 
ATOM     88  C   UNL     1       6.434 -15.426   5.312  1.00  0.00     0.040 A 
ATOM     89  C   UNL     1       7.267 -15.981   6.278  1.00  0.00     0.123 A 
ATOM     90  F   UNL     1       6.846 -17.036   6.986  1.00  0.00    -0.207 F 
ENDBRANCH  81  84
ENDBRANCH  79  80
BRANCH  79  91
ATOM     91  C   UNL     1       6.420  -9.721   5.148  1.00  0.00     0.070 C 
BRANCH  91  92
ATOM     92  C   UNL     1       5.155  -9.582   5.966  1.00  0.00    -0.045 A 
ATOM     93  C   UNL     1       5.080 -10.143   7.249  1.00  0.00     0.004 A 
ATOM     94  C   UNL     1       4.011  -8.991   5.413  1.00  0.00     0.004 A 
ATOM     95  C   UNL     1       3.876 -10.137   7.953  1.00  0.00     0.000 A 
ATOM     96  C   UNL     1       2.807  -8.989   6.119  1.00  0.00     0.000 A 
ATOM     97  C   UNL     1       2.739  -9.567   7.385  1.00  0.00     0.000 A 
ENDBRANCH  91  92
ENDBRANCH  79  91
ENDBRANCH  76  79
ENDBRANCH  74  75
BRANCH  74  98
ATOM     98  C   UNL     1       6.818 -12.209   0.481  1.00  0.00     0.101 C 
BRANCH  98  99
ATOM     99  S   UNL     1       5.282 -12.396  -0.485  1.00  0.00    -0.177 SA
ATOM    100  H   UNL     1       4.215 -12.409   0.357  1.00  0.00     0.102 HD
ENDBRANCH  98  99
ENDBRANCH  74  98
ENDBRANCH  71  74
ENDBRANCH  69  70
BRANCH  69 101
ATOM    101  C   UNL     1       7.676 -10.015  -2.671  1.00  0.00     0.191 C 
BRANCH 101 102
ATOM    102  O   UNL     1       6.945 -11.231  -2.841  1.00  0.00    -0.394 OA
ATOM    103  H   UNL     1       7.564 -11.963  -2.990  1.00  0.00     0.210 HD
ENDBRANCH 101 102
ENDBRANCH  69 101
ENDBRANCH   2  69
TORSDOF 23
