REMARK SMILES CC(C)[C@H](NC(=O)CCNC(=O)c1ccoc1)C(=O)NCCCCNC(=O)c1ccc(-c2c3nc(c(-c4c(F)cccc4F)c4ccc([nH]4)c(-c4c(F)cccc4F)c4nc(c(-c5c(F)cccc5F)c5ccc2[nH]5)C=C4)C=C3)cc1
REMARK SMILES IDX 21 1 20 2 18 3 19 4 4 6 2 7 1 8 3 9 5 10 6 11 7 13 8 14 9 15
REMARK SMILES IDX 10 16 11 17 12 19 13 20 14 21 17 22 15 23 16 24 22 25 23 26
REMARK SMILES IDX 24 27 25 28 26 29 27 31 28 32 29 33 81 34 30 35 80 36 31 37
REMARK SMILES IDX 32 38 33 39 74 40 34 41 79 42 73 43 75 44 35 45 78 46 72 47
REMARK SMILES IDX 71 48 36 50 62 51 45 52 61 53 46 54 49 55 60 56 76 57 47 58
REMARK SMILES IDX 48 59 59 61 77 62 50 63 37 64 38 65 43 66 39 67 40 68 42 69
REMARK SMILES IDX 44 70 41 71 63 72 64 73 69 74 65 75 66 76 68 77 70 78 67 79
REMARK SMILES IDX 51 80 52 81 57 82 53 83 54 84 56 85 58 86 55 87
REMARK H PARENT 20 5 5 12 10 18 25 30 75 49 49 60
REMARK Flexibility Score: inf
ROOT
ATOM      1  C   UNL     1       0.422   4.017  -0.609  1.00  0.00     0.116 C 
ENDROOT
BRANCH   1   2
ATOM      2  N   UNL     1      -0.646   3.654  -1.514  1.00  0.00    -0.354 N 
ATOM      3  C   UNL     1      -1.414   2.538  -1.592  1.00  0.00     0.242 C 
ATOM      4  O   UNL     1      -2.401   2.603  -2.334  1.00  0.00    -0.273 OA
ATOM      5  H   UNL     1      -0.851   4.336  -2.194  1.00  0.00     0.163 HD
BRANCH   3   6
ATOM      6  C   UNL     1      -1.161   1.265  -0.753  1.00  0.00     0.173 C 
BRANCH   6   7
ATOM      7  C   UNL     1      -1.731   1.277   0.688  1.00  0.00     0.015 C 
ATOM      8  C   UNL     1      -0.948   2.081   1.725  1.00  0.00     0.010 C 
ATOM      9  C   UNL     1      -3.198   1.722   0.709  1.00  0.00     0.010 C 
ENDBRANCH   6   7
BRANCH   6  10
ATOM     10  N   UNL     1       0.232   0.814  -0.815  1.00  0.00    -0.344 N 
ATOM     11  C   UNL     1       0.858   0.111  -1.798  1.00  0.00     0.222 C 
ATOM     12  H   UNL     1       0.791   1.051  -0.040  1.00  0.00     0.164 HD
ATOM     13  O   UNL     1       2.065  -0.103  -1.685  1.00  0.00    -0.275 OA
BRANCH  11  14
ATOM     14  C   UNL     1       0.074  -0.444  -2.966  1.00  0.00     0.121 C 
BRANCH  14  15
ATOM     15  C   UNL     1      -0.268  -1.911  -2.716  1.00  0.00     0.126 C 
BRANCH  15  16
ATOM     16  N   UNL     1      -1.320  -2.068  -1.721  1.00  0.00    -0.351 N 
ATOM     17  C   UNL     1      -2.681  -2.036  -1.893  1.00  0.00     0.254 C 
ATOM     18  H   UNL     1      -1.012  -2.217  -0.798  1.00  0.00     0.163 HD
ATOM     19  O   UNL     1      -3.389  -1.759  -0.927  1.00  0.00    -0.269 OA
BRANCH  17  20
ATOM     20  C   UNL     1      -3.232  -2.314  -3.200  1.00  0.00     0.077 A 
ATOM     21  C   UNL     1      -2.932  -3.362  -4.119  1.00  0.00     0.056 A 
ATOM     22  C   UNL     1      -4.277  -1.617  -3.774  1.00  0.00     0.208 A 
ATOM     23  C   UNL     1      -3.787  -3.208  -5.184  1.00  0.00     0.195 A 
ATOM     24  O   UNL     1      -4.603  -2.142  -4.984  1.00  0.00    -0.472 OA
ENDBRANCH  17  20
ENDBRANCH  15  16
ENDBRANCH  14  15
ENDBRANCH  11  14
ENDBRANCH   6  10
ENDBRANCH   3   6
ENDBRANCH   1   2
BRANCH   1  25
ATOM     25  C   UNL     1       1.548   4.787  -1.291  1.00  0.00     0.023 C 
BRANCH  25  26
ATOM     26  C   UNL     1       1.127   6.065  -2.018  1.00  0.00     0.023 C 
BRANCH  26  27
ATOM     27  C   UNL     1       0.185   6.989  -1.252  1.00  0.00     0.116 C 
BRANCH  27  28
ATOM     28  N   UNL     1       0.729   7.444   0.018  1.00  0.00    -0.352 N 
ATOM     29  C   UNL     1       0.911   8.729   0.473  1.00  0.00     0.251 C 
ATOM     30  H   UNL     1       1.005   6.733   0.640  1.00  0.00     0.163 HD
ATOM     31  O   UNL     1       1.463   8.942   1.547  1.00  0.00    -0.269 OA
BRANCH  29  32
ATOM     32  C   UNL     1       0.479   9.855  -0.375  1.00  0.00     0.039 A 
ATOM     33  C   UNL     1       1.425  10.811  -0.753  1.00  0.00     0.014 A 
ATOM     34  C   UNL     1      -0.830   9.913  -0.861  1.00  0.00     0.014 A 
ATOM     35  C   UNL     1       1.087  11.769  -1.709  1.00  0.00     0.010 A 
ATOM     36  C   UNL     1      -1.146  10.830  -1.857  1.00  0.00     0.010 A 
ATOM     37  C   UNL     1      -0.183  11.747  -2.308  1.00  0.00    -0.014 A 
BRANCH  37  38
ATOM     38  C   UNL     1      -0.513  12.635  -3.449  1.00  0.00     0.031 A 
ATOM     39  C   UNL     1      -1.572  13.686  -3.304  1.00  0.00     0.074 A 
ATOM     40  C   UNL     1       0.074  12.423  -4.643  1.00  0.00     0.049 A 
ATOM     41  N   UNL     1      -2.093  14.463  -4.219  1.00  0.00    -0.248 NA
ATOM     42  C   UNL     1      -2.137  13.870  -1.959  1.00  0.00     0.031 C 
ATOM     43  C   UNL     1       1.092  11.406  -4.920  1.00  0.00     0.029 A 
ATOM     44  N   UNL     1      -0.115  13.040  -5.853  1.00  0.00    -0.354 N 
ATOM     45  C   UNL     1      -3.061  15.213  -3.566  1.00  0.00     0.074 A 
ATOM     46  C   UNL     1      -3.078  14.775  -2.186  1.00  0.00     0.031 C 
ATOM     47  C   UNL     1       1.448  11.482  -6.212  1.00  0.00     0.029 A 
ATOM     48  C   UNL     1       0.656  12.520  -6.863  1.00  0.00     0.049 A 
ATOM     49  H   UNL     1      -0.745  13.786  -5.985  1.00  0.00     0.167 HD
ATOM     50  C   UNL     1      -3.852  16.190  -4.068  1.00  0.00     0.037 A 
ATOM     51  C   UNL     1       0.708  12.833  -8.171  1.00  0.00     0.037 A 
ATOM     52  C   UNL     1      -3.811  16.647  -5.431  1.00  0.00     0.049 A 
ATOM     53  C   UNL     1      -0.199  13.902  -8.709  1.00  0.00     0.074 A 
ATOM     54  C   UNL     1      -4.511  17.689  -6.013  1.00  0.00     0.029 A 
ATOM     55  N   UNL     1      -3.025  16.086  -6.426  1.00  0.00    -0.354 N 
ATOM     56  N   UNL     1      -1.074  14.638  -8.070  1.00  0.00    -0.248 NA
ATOM     57  C   UNL     1      -0.120  14.172 -10.152  1.00  0.00     0.031 C 
ATOM     58  C   UNL     1      -4.172  17.738  -7.370  1.00  0.00     0.029 A 
ATOM     59  C   UNL     1      -3.241  16.744  -7.625  1.00  0.00     0.049 A 
ATOM     60  H   UNL     1      -2.404  15.333  -6.299  1.00  0.00     0.167 HD
ATOM     61  C   UNL     1      -1.643  15.467  -9.027  1.00  0.00     0.074 A 
ATOM     62  C   UNL     1      -1.006  15.150 -10.289  1.00  0.00     0.031 C 
ATOM     63  C   UNL     1      -2.606  16.407  -8.872  1.00  0.00     0.037 A 
BRANCH  50  64
ATOM     64  C   UNL     1      -4.826  16.829  -3.128  1.00  0.00     0.057 A 
ATOM     65  C   UNL     1      -4.410  17.730  -2.140  1.00  0.00     0.134 A 
ATOM     66  C   UNL     1      -6.195  16.550  -3.219  1.00  0.00     0.134 A 
ATOM     67  F   UNL     1      -3.110  18.025  -1.994  1.00  0.00    -0.206 F 
ATOM     68  C   UNL     1      -5.320  18.313  -1.257  1.00  0.00     0.040 A 
ATOM     69  C   UNL     1      -7.117  17.142  -2.354  1.00  0.00     0.040 A 
ATOM     70  F   UNL     1      -6.657  15.696  -4.145  1.00  0.00    -0.206 F 
ATOM     71  C   UNL     1      -6.679  18.023  -1.366  1.00  0.00     0.006 A 
ENDBRANCH  50  64
BRANCH  51  72
ATOM     72  C   UNL     1       1.658  12.128  -9.062  1.00  0.00     0.057 A 
ATOM     73  C   UNL     1       2.819  12.763  -9.514  1.00  0.00     0.134 A 
ATOM     74  C   UNL     1       1.437  10.809  -9.474  1.00  0.00     0.134 A 
ATOM     75  F   UNL     1       3.072  14.033  -9.166  1.00  0.00    -0.206 F 
ATOM     76  C   UNL     1       3.727  12.114 -10.352  1.00  0.00     0.040 A 
ATOM     77  C   UNL     1       2.344  10.142 -10.299  1.00  0.00     0.040 A 
ATOM     78  F   UNL     1       0.343  10.147  -9.070  1.00  0.00    -0.206 F 
ATOM     79  C   UNL     1       3.493  10.797 -10.742  1.00  0.00     0.006 A 
ENDBRANCH  51  72
BRANCH  63  80
ATOM     80  C   UNL     1      -3.023  17.161 -10.096  1.00  0.00     0.057 A 
ATOM     81  C   UNL     1      -3.886  16.595 -11.042  1.00  0.00     0.134 A 
ATOM     82  C   UNL     1      -2.593  18.475 -10.310  1.00  0.00     0.134 A 
ATOM     83  F   UNL     1      -4.318  15.333 -10.899  1.00  0.00    -0.206 F 
ATOM     84  C   UNL     1      -4.302  17.310 -12.166  1.00  0.00     0.040 A 
ATOM     85  C   UNL     1      -3.015  19.206 -11.421  1.00  0.00     0.040 A 
ATOM     86  F   UNL     1      -1.768  19.072  -9.437  1.00  0.00    -0.206 F 
ATOM     87  C   UNL     1      -3.871  18.623 -12.353  1.00  0.00     0.006 A 
ENDBRANCH  63  80
ENDBRANCH  37  38
ENDBRANCH  29  32
ENDBRANCH  27  28
ENDBRANCH  26  27
ENDBRANCH  25  26
ENDBRANCH   1  25
TORSDOF 17
