REMARK SMILES CN1C(=O)/C(=C\c2ccc(-c3ccccc3C(=O)NCCCCNC(=O)c3ccc(-c4c5nc(c(-c6c(F)cccc6F)c6ccc([nH]6)c(-c6c(F)cccc6F)c6nc(c(-c7c(F)cccc7F)c7ccc4[nH]7)C=C6)C=C5)cc3)o2)C(=O)[NH+]=C1S
REMARK SMILES IDX 21 1 20 2 19 3 17 4 18 5 16 7 11 8 12 9 13 10 15 11 14 12
REMARK SMILES IDX 10 13 7 14 8 15 81 16 9 17 6 18 1 19 2 20 3 21 85 22 4 23
REMARK SMILES IDX 5 24 84 25 82 26 83 28 86 29 22 31 23 32 24 33 25 34 26 36
REMARK SMILES IDX 27 37 28 38 80 39 29 40 79 41 30 42 31 43 32 44 73 45 33 46
REMARK SMILES IDX 78 47 72 48 74 49 34 50 77 51 71 52 70 53 35 55 61 56 44 57
REMARK SMILES IDX 60 58 45 59 48 60 59 61 75 62 46 63 47 64 58 66 76 67 49 68
REMARK SMILES IDX 36 69 37 70 42 71 38 72 39 73 41 74 43 75 40 76 62 77 63 78
REMARK SMILES IDX 68 79 64 80 65 81 67 82 69 83 66 84 50 85 51 86 56 87 52 88
REMARK SMILES IDX 53 89 55 90 57 91 54 92
REMARK H PARENT 19 6 84 27 86 30 24 35 74 54 48 65
REMARK Flexibility Score: inf
ROOT
ATOM      1  C   UNL     1      -0.314  -1.077   7.036  1.00  0.00     0.023 C 
ENDROOT
BRANCH   1   2
ATOM      2  C   UNL     1      -0.915  -2.303   6.375  1.00  0.00     0.116 C 
BRANCH   2   3
ATOM      3  N   UNL     1      -1.194  -3.464   7.165  1.00  0.00    -0.352 N 
ATOM      4  C   UNL     1      -2.225  -4.374   7.049  1.00  0.00     0.252 C 
ATOM      5  O   UNL     1      -2.113  -5.372   7.773  1.00  0.00    -0.269 OA
ATOM      6  H   UNL     1      -0.558  -3.638   7.897  1.00  0.00     0.163 HD
BRANCH   4   7
ATOM      7  C   UNL     1      -3.491  -4.243   6.216  1.00  0.00     0.050 A 
ATOM      8  C   UNL     1      -3.746  -3.591   4.983  1.00  0.00     0.030 A 
ATOM      9  C   UNL     1      -5.053  -3.623   4.434  1.00  0.00     0.013 A 
ATOM     10  C   UNL     1      -6.093  -4.325   5.036  1.00  0.00     0.001 A 
ATOM     11  C   UNL     1      -4.579  -4.952   6.796  1.00  0.00     0.014 A 
ATOM     12  C   UNL     1      -5.851  -5.005   6.216  1.00  0.00     0.001 A 
BRANCH   8  13
ATOM     13  C   UNL     1      -2.775  -2.923   4.135  1.00  0.00     0.135 A 
ATOM     14  C   UNL     1      -1.822  -1.057   3.343  1.00  0.00     0.128 A 
ATOM     15  C   UNL     1      -1.107  -2.160   2.877  1.00  0.00     0.051 A 
ATOM     16  O   UNL     1      -2.882  -1.560   4.072  1.00  0.00    -0.457 OA
ATOM     17  C   UNL     1      -1.733  -3.341   3.347  1.00  0.00     0.051 A 
BRANCH  14  18
ATOM     18  C   UNL     1      -1.535   0.343   3.297  1.00  0.00     0.071 C 
ATOM     19  C   UNL     1       1.266   0.235  -0.623  1.00  0.00     0.301 C 
ATOM     20  N   UNL     1       0.591   1.004   0.411  1.00  0.00    -0.189 N 
ATOM     21  C   UNL     1      -0.459   0.388   1.045  1.00  0.00     0.349 C 
ATOM     22  C   UNL     1       0.853   2.320   0.689  1.00  0.00     0.318 C 
ATOM     23  O   UNL     1      -1.077  -0.548   0.543  1.00  0.00    -0.240 OA
ATOM     24  C   UNL     1      -0.852   0.991   2.330  1.00  0.00     0.157 C 
ATOM     25  N   UNL     1       0.349   2.995   1.658  1.00  0.00    -0.200 N 
ATOM     26  C   UNL     1      -0.418   2.385   2.613  1.00  0.00     0.347 C 
ATOM     27  H   UNL     1       0.517   3.964   1.714  1.00  0.00     0.316 HD
ATOM     28  O   UNL     1      -0.720   2.945   3.657  1.00  0.00    -0.241 OA
BRANCH  22  29
ATOM     29  S   UNL     1       1.901   3.198  -0.403  1.00  0.00    -0.055 SA
ATOM     30  H   UNL     1       2.355   2.356  -1.370  1.00  0.00     0.116 HD
ENDBRANCH  22  29
ENDBRANCH  14  18
ENDBRANCH   8  13
ENDBRANCH   4   7
ENDBRANCH   2   3
ENDBRANCH   1   2
BRANCH   1  31
ATOM     31  C   UNL     1       1.200  -0.992   7.161  1.00  0.00     0.023 C 
BRANCH  31  32
ATOM     32  C   UNL     1       2.045  -1.374   5.951  1.00  0.00     0.116 C 
BRANCH  32  33
ATOM     33  N   UNL     1       1.774  -0.629   4.726  1.00  0.00    -0.352 N 
ATOM     34  C   UNL     1       2.670  -0.071   3.835  1.00  0.00     0.251 C 
ATOM     35  H   UNL     1       0.823  -0.508   4.505  1.00  0.00     0.163 HD
ATOM     36  O   UNL     1       2.277   0.487   2.816  1.00  0.00    -0.269 OA
BRANCH  34  37
ATOM     37  C   UNL     1       4.113  -0.108   4.151  1.00  0.00     0.039 A 
ATOM     38  C   UNL     1       4.826   1.092   4.221  1.00  0.00     0.014 A 
ATOM     39  C   UNL     1       4.715  -1.313   4.515  1.00  0.00     0.014 A 
ATOM     40  C   UNL     1       6.101   1.097   4.791  1.00  0.00     0.010 A 
ATOM     41  C   UNL     1       5.935  -1.287   5.180  1.00  0.00     0.010 A 
ATOM     42  C   UNL     1       6.633  -0.079   5.344  1.00  0.00    -0.014 A 
BRANCH  42  43
ATOM     43  C   UNL     1       7.896  -0.069   6.128  1.00  0.00     0.031 A 
ATOM     44  C   UNL     1       9.062  -0.906   5.682  1.00  0.00     0.074 A 
ATOM     45  C   UNL     1       7.961   0.621   7.285  1.00  0.00     0.049 A 
ATOM     46  N   UNL     1      10.216  -1.098   6.269  1.00  0.00    -0.248 NA
ATOM     47  C   UNL     1       8.896  -1.657   4.426  1.00  0.00     0.031 C 
ATOM     48  C   UNL     1       6.875   1.419   7.860  1.00  0.00     0.029 A 
ATOM     49  N   UNL     1       8.981   0.754   8.194  1.00  0.00    -0.354 N 
ATOM     50  C   UNL     1      10.902  -1.999   5.464  1.00  0.00     0.074 A 
ATOM     51  C   UNL     1      10.012  -2.368   4.386  1.00  0.00     0.031 C 
ATOM     52  C   UNL     1       7.298   1.986   9.002  1.00  0.00     0.029 A 
ATOM     53  C   UNL     1       8.667   1.556   9.267  1.00  0.00     0.049 A 
ATOM     54  H   UNL     1       9.857   0.317   8.088  1.00  0.00     0.167 HD
ATOM     55  C   UNL     1      12.170  -2.455   5.594  1.00  0.00     0.037 A 
ATOM     56  C   UNL     1       9.398   1.902  10.344  1.00  0.00     0.037 A 
ATOM     57  C   UNL     1      13.058  -2.066   6.657  1.00  0.00     0.049 A 
ATOM     58  C   UNL     1      10.802   1.375  10.470  1.00  0.00     0.074 A 
ATOM     59  C   UNL     1      14.381  -2.423   6.848  1.00  0.00     0.029 A 
ATOM     60  N   UNL     1      12.709  -1.237   7.713  1.00  0.00    -0.354 N 
ATOM     61  N   UNL     1      11.466   0.587   9.658  1.00  0.00    -0.248 NA
ATOM     62  C   UNL     1      11.562   1.790  11.657  1.00  0.00     0.031 C 
ATOM     63  C   UNL     1      14.816  -1.852   8.048  1.00  0.00     0.029 A 
ATOM     64  C   UNL     1      13.784  -1.090   8.573  1.00  0.00     0.049 A 
ATOM     65  H   UNL     1      11.827  -0.815   7.832  1.00  0.00     0.167 HD
ATOM     66  C   UNL     1      12.728   0.438  10.219  1.00  0.00     0.074 A 
ATOM     67  C   UNL     1      12.742   1.230  11.431  1.00  0.00     0.031 C 
ATOM     68  C   UNL     1      13.781  -0.289   9.771  1.00  0.00     0.037 A 
BRANCH  55  69
ATOM     69  C   UNL     1      12.667  -3.422   4.557  1.00  0.00     0.057 A 
ATOM     70  C   UNL     1      12.887  -3.035   3.228  1.00  0.00     0.134 A 
ATOM     71  C   UNL     1      12.948  -4.751   4.896  1.00  0.00     0.134 A 
ATOM     72  F   UNL     1      12.624  -1.781   2.832  1.00  0.00    -0.206 F 
ATOM     73  C   UNL     1      13.338  -3.942   2.267  1.00  0.00     0.040 A 
ATOM     74  C   UNL     1      13.430  -5.660   3.951  1.00  0.00     0.040 A 
ATOM     75  F   UNL     1      12.765  -5.189   6.150  1.00  0.00    -0.206 F 
ATOM     76  C   UNL     1      13.617  -5.258   2.630  1.00  0.00     0.006 A 
ENDBRANCH  55  69
BRANCH  56  77
ATOM     77  C   UNL     1       8.832   2.809  11.378  1.00  0.00     0.057 A 
ATOM     78  C   UNL     1       9.337   4.103  11.559  1.00  0.00     0.134 A 
ATOM     79  C   UNL     1       7.790   2.404  12.220  1.00  0.00     0.134 A 
ATOM     80  F   UNL     1      10.348   4.545  10.797  1.00  0.00    -0.206 F 
ATOM     81  C   UNL     1       8.843   4.951  12.553  1.00  0.00     0.040 A 
ATOM     82  C   UNL     1       7.267   3.251  13.200  1.00  0.00     0.040 A 
ATOM     83  F   UNL     1       7.256   1.180  12.096  1.00  0.00    -0.206 F 
ATOM     84  C   UNL     1       7.801   4.526  13.374  1.00  0.00     0.006 A 
ENDBRANCH  56  77
BRANCH  68  85
ATOM     85  C   UNL     1      15.049  -0.228  10.572  1.00  0.00     0.057 A 
ATOM     86  C   UNL     1      15.166  -0.838  11.828  1.00  0.00     0.134 A 
ATOM     87  C   UNL     1      16.184   0.413  10.057  1.00  0.00     0.134 A 
ATOM     88  F   UNL     1      14.114  -1.458  12.383  1.00  0.00    -0.206 F 
ATOM     89  C   UNL     1      16.357  -0.790  12.553  1.00  0.00     0.040 A 
ATOM     90  C   UNL     1      17.389   0.440  10.758  1.00  0.00     0.040 A 
ATOM     91  F   UNL     1      16.144   1.008   8.855  1.00  0.00    -0.206 F 
ATOM     92  C   UNL     1      17.476  -0.156  12.014  1.00  0.00     0.006 A 
ENDBRANCH  68  85
ENDBRANCH  42  43
ENDBRANCH  34  37
ENDBRANCH  32  33
ENDBRANCH  31  32
ENDBRANCH   1  31
TORSDOF 14
