REMARK SMILES C=C1C[C@@]23CC[C@H]4[C@@](C)(CCC[C@@]4(C)C(=O)NCCCCNC(=O)c4ccc(-c5c6nc(c(-c7c(F)cccc7F)c7ccc([nH]7)c(-c7c(F)cccc7F)c7nc(c(-c8c(F)cccc8F)c8ccc5[nH]8)C=C7)C=C6)cc4)[C@H]2CC[C@]1(O)C3
REMARK SMILES IDX 20 1 19 2 18 3 17 4 15 5 16 6 13 8 1 9 2 10 3 11 82 12 4 13
REMARK SMILES IDX 81 14 84 15 5 16 79 17 80 18 6 19 8 20 7 21 9 22 10 23 11 24
REMARK SMILES IDX 12 25 14 26 83 27 21 29 22 30 23 31 24 33 25 34 26 35 78 36
REMARK SMILES IDX 27 37 77 38 28 39 29 40 30 41 71 42 31 43 76 44 70 45 72 46
REMARK SMILES IDX 32 47 75 48 69 49 68 50 33 52 59 53 42 54 58 55 43 56 46 57
REMARK SMILES IDX 57 58 73 59 44 60 45 61 56 63 74 64 47 65 34 66 35 67 40 68
REMARK SMILES IDX 36 69 37 70 39 71 41 72 38 73 60 74 61 75 66 76 62 77 63 78
REMARK SMILES IDX 65 79 67 80 64 81 48 82 49 83 54 84 50 85 51 86 53 87 55 88
REMARK SMILES IDX 52 89
REMARK H PARENT 17 7 83 28 22 32 72 51 46 62
REMARK Flexibility Score: inf
ROOT
ATOM      1  C   UNL     1      -4.697  -5.951   6.422  1.00  0.00     0.023 C 
ENDROOT
BRANCH   1   2
ATOM      2  C   UNL     1      -4.730  -5.555   4.937  1.00  0.00     0.023 C 
BRANCH   2   3
ATOM      3  C   UNL     1      -3.385  -5.647   4.231  1.00  0.00     0.116 C 
BRANCH   3   4
ATOM      4  N   UNL     1      -2.832  -6.981   4.325  1.00  0.00    -0.356 N 
ATOM      5  C   UNL     1      -2.159  -7.766   3.453  1.00  0.00     0.226 C 
ATOM      6  O   UNL     1      -1.758  -8.835   3.927  1.00  0.00    -0.274 OA
ATOM      7  H   UNL     1      -2.974  -7.404   5.203  1.00  0.00     0.163 HD
BRANCH   5   8
ATOM      8  C   UNL     1      -1.946  -7.410   1.971  1.00  0.00     0.050 C 
ATOM      9  C   UNL     1       1.352  -0.200  -0.005  1.00  0.00     0.011 C 
ATOM     10  C   UNL     1       0.837  -1.246   0.658  1.00  0.00    -0.045 C 
ATOM     11  C   UNL     1       1.251  -2.694   0.456  1.00  0.00     0.040 C 
ATOM     12  C   UNL     1      -0.428  -1.237   1.473  1.00  0.00     0.086 C 
ATOM     13  C   UNL     1      -0.042  -3.483   0.824  1.00  0.00    -0.020 C 
ATOM     14  C   UNL     1      -0.203  -1.571   2.965  1.00  0.00     0.040 C 
ATOM     15  C   UNL     1      -1.125  -2.376   0.763  1.00  0.00     0.047 C 
ATOM     16  C   UNL     1      -0.414  -4.538  -0.188  1.00  0.00     0.008 C 
ATOM     17  C   UNL     1      -0.073  -4.036   2.292  1.00  0.00     0.002 C 
ATOM     18  C   UNL     1       0.474  -2.952   3.263  1.00  0.00     0.008 C 
ATOM     19  C   UNL     1      -1.644  -5.290   0.358  1.00  0.00     0.006 C 
ATOM     20  C   UNL     1      -0.035  -5.635   2.538  1.00  0.00    -0.025 C 
ATOM     21  C   UNL     1      -1.180  -6.135   1.575  1.00  0.00     0.010 C 
ATOM     22  C   UNL     1      -0.081  -5.752   4.087  1.00  0.00     0.012 C 
ATOM     23  C   UNL     1       1.084  -6.721   2.206  1.00  0.00     0.007 C 
ATOM     24  C   UNL     1       0.561  -8.190   1.705  1.00  0.00     0.002 C 
ATOM     25  C   UNL     1      -0.977  -8.498   1.401  1.00  0.00     0.017 C 
ATOM     26  C   UNL     1      -3.347  -7.443   1.322  1.00  0.00     0.022 C 
BRANCH  12  27
ATOM     27  O   UNL     1      -1.188  -0.052   1.330  1.00  0.00    -0.386 OA
ATOM     28  H   UNL     1      -0.740   0.677   1.786  1.00  0.00     0.211 HD
ENDBRANCH  12  27
ENDBRANCH   5   8
ENDBRANCH   3   4
ENDBRANCH   2   3
ENDBRANCH   1   2
BRANCH   1  29
ATOM     29  C   UNL     1      -3.653  -5.239   7.281  1.00  0.00     0.116 C 
BRANCH  29  30
ATOM     30  N   UNL     1      -3.845  -3.796   7.308  1.00  0.00    -0.352 N 
ATOM     31  C   UNL     1      -4.120  -2.979   8.374  1.00  0.00     0.251 C 
ATOM     32  H   UNL     1      -3.768  -3.343   6.437  1.00  0.00     0.163 HD
ATOM     33  O   UNL     1      -4.453  -1.806   8.186  1.00  0.00    -0.269 OA
BRANCH  31  34
ATOM     34  C   UNL     1      -4.039  -3.507   9.749  1.00  0.00     0.039 A 
ATOM     35  C   UNL     1      -5.090  -3.261  10.635  1.00  0.00     0.014 A 
ATOM     36  C   UNL     1      -2.931  -4.254  10.160  1.00  0.00     0.014 A 
ATOM     37  C   UNL     1      -5.062  -3.825  11.912  1.00  0.00     0.010 A 
ATOM     38  C   UNL     1      -2.941  -4.877  11.405  1.00  0.00     0.010 A 
ATOM     39  C   UNL     1      -4.007  -4.671  12.294  1.00  0.00    -0.014 A 
BRANCH  39  40
ATOM     40  C   UNL     1      -4.009  -5.354  13.614  1.00  0.00     0.031 A 
ATOM     41  C   UNL     1      -2.934  -5.057  14.624  1.00  0.00     0.074 A 
ATOM     42  C   UNL     1      -4.946  -6.286  13.881  1.00  0.00     0.049 A 
ATOM     43  N   UNL     1      -2.737  -5.592  15.803  1.00  0.00    -0.248 NA
ATOM     44  C   UNL     1      -1.933  -4.044  14.251  1.00  0.00     0.031 C 
ATOM     45  C   UNL     1      -6.016  -6.696  12.969  1.00  0.00     0.029 A 
ATOM     46  N   UNL     1      -5.145  -7.064  14.994  1.00  0.00    -0.354 N 
ATOM     47  C   UNL     1      -1.588  -4.993  16.303  1.00  0.00     0.074 A 
ATOM     48  C   UNL     1      -1.101  -4.093  15.281  1.00  0.00     0.031 C 
ATOM     49  C   UNL     1      -6.774  -7.628  13.570  1.00  0.00     0.029 A 
ATOM     50  C   UNL     1      -6.220  -7.914  14.889  1.00  0.00     0.049 A 
ATOM     51  H   UNL     1      -4.571  -7.017  15.793  1.00  0.00     0.167 HD
ATOM     52  C   UNL     1      -1.004  -5.162  17.513  1.00  0.00     0.037 A 
ATOM     53  C   UNL     1      -6.699  -8.828  15.755  1.00  0.00     0.037 A 
ATOM     54  C   UNL     1      -1.503  -6.042  18.537  1.00  0.00     0.049 A 
ATOM     55  C   UNL     1      -6.016  -9.009  17.083  1.00  0.00     0.074 A 
ATOM     56  C   UNL     1      -1.018  -6.232  19.820  1.00  0.00     0.029 A 
ATOM     57  N   UNL     1      -2.597  -6.882  18.394  1.00  0.00    -0.354 N 
ATOM     58  N   UNL     1      -4.976  -8.379  17.573  1.00  0.00    -0.248 NA
ATOM     59  C   UNL     1      -6.577 -10.027  17.983  1.00  0.00     0.031 C 
ATOM     60  C   UNL     1      -1.783  -7.229  20.432  1.00  0.00     0.029 A 
ATOM     61  C   UNL     1      -2.783  -7.615  19.555  1.00  0.00     0.049 A 
ATOM     62  H   UNL     1      -3.158  -6.947  17.588  1.00  0.00     0.167 HD
ATOM     63  C   UNL     1      -4.782  -8.897  18.847  1.00  0.00     0.074 A 
ATOM     64  C   UNL     1      -5.821  -9.883  19.061  1.00  0.00     0.031 C 
ATOM     65  C   UNL     1      -3.830  -8.584  19.760  1.00  0.00     0.037 A 
BRANCH  52  66
ATOM     66  C   UNL     1       0.246  -4.380  17.801  1.00  0.00     0.057 A 
ATOM     67  C   UNL     1       0.225  -2.991  17.989  1.00  0.00     0.134 A 
ATOM     68  C   UNL     1       1.478  -5.031  17.948  1.00  0.00     0.134 A 
ATOM     69  F   UNL     1      -0.919  -2.304  17.853  1.00  0.00    -0.206 F 
ATOM     70  C   UNL     1       1.386  -2.277  18.290  1.00  0.00     0.040 A 
ATOM     71  C   UNL     1       2.639  -4.332  18.278  1.00  0.00     0.040 A 
ATOM     72  F   UNL     1       1.569  -6.360  17.789  1.00  0.00    -0.206 F 
ATOM     73  C   UNL     1       2.596  -2.950  18.445  1.00  0.00     0.006 A 
ENDBRANCH  52  66
BRANCH  53  74
ATOM     74  C   UNL     1      -7.896  -9.638  15.407  1.00  0.00     0.057 A 
ATOM     75  C   UNL     1      -9.102  -9.479  16.102  1.00  0.00     0.134 A 
ATOM     76  C   UNL     1      -7.858 -10.610  14.401  1.00  0.00     0.134 A 
ATOM     77  F   UNL     1      -9.197  -8.577  17.090  1.00  0.00    -0.206 F 
ATOM     78  C   UNL     1     -10.215 -10.277  15.831  1.00  0.00     0.040 A 
ATOM     79  C   UNL     1      -8.972 -11.395  14.098  1.00  0.00     0.040 A 
ATOM     80  F   UNL     1      -6.737 -10.808  13.692  1.00  0.00    -0.206 F 
ATOM     81  C   UNL     1     -10.152 -11.237  14.823  1.00  0.00     0.006 A 
ENDBRANCH  53  74
BRANCH  65  82
ATOM     82  C   UNL     1      -3.894  -9.277  21.090  1.00  0.00     0.057 A 
ATOM     83  C   UNL     1      -3.589 -10.636  21.237  1.00  0.00     0.134 A 
ATOM     84  C   UNL     1      -4.228  -8.562  22.248  1.00  0.00     0.134 A 
ATOM     85  F   UNL     1      -3.273 -11.382  20.167  1.00  0.00    -0.206 F 
ATOM     86  C   UNL     1      -3.641 -11.265  22.482  1.00  0.00     0.040 A 
ATOM     87  C   UNL     1      -4.252  -9.172  23.503  1.00  0.00     0.040 A 
ATOM     88  F   UNL     1      -4.521  -7.254  22.181  1.00  0.00    -0.206 F 
ATOM     89  C   UNL     1      -3.965 -10.530  23.621  1.00  0.00     0.006 A 
ENDBRANCH  65  82
ENDBRANCH  39  40
ENDBRANCH  31  34
ENDBRANCH  29  30
ENDBRANCH   1  29
TORSDOF 12
