REMARK SMILES CNC(=O)NC1=[NH+]N=CN[C@@H]1C(=O)NCCCCNC(=O)c1ccc(-c2c3nc(c(-c4c(F)cccc4F)c4ccc([nH]4)c(-c4c(F)cccc4F)c4nc(c(-c5c(F)cccc5F)c5ccc2[nH]5)C=C4)C=C3)cc1
REMARK SMILES IDX 17 1 16 2 15 3 14 4 12 5 13 6 11 8 1 9 2 10 3 11 4 13 5 14
REMARK SMILES IDX 6 15 7 17 8 18 10 20 9 21 18 23 19 24 20 25 21 27 22 28
REMARK SMILES IDX 23 29 75 30 24 31 74 32 25 33 26 34 27 35 68 36 28 37 73 38
REMARK SMILES IDX 67 39 69 40 29 41 72 42 66 43 65 44 30 46 56 47 39 48 55 49
REMARK SMILES IDX 40 50 43 51 54 52 70 53 41 54 42 55 53 57 71 58 44 59 31 60
REMARK SMILES IDX 32 61 37 62 33 63 34 64 36 65 38 66 35 67 57 68 58 69 63 70
REMARK SMILES IDX 59 71 60 72 62 73 64 74 61 75 45 76 46 77 51 78 47 79 48 80
REMARK SMILES IDX 50 81 52 82 49 83
REMARK H PARENT 14 7 2 12 5 16 7 19 10 22 19 26 69 45 43 56
REMARK Flexibility Score: inf
ROOT
ATOM      1  C   UNL     1      -4.186  -2.106  -4.638  1.00  0.00     0.023 C 
ENDROOT
BRANCH   1   2
ATOM      2  C   UNL     1      -2.737  -1.637  -4.501  1.00  0.00     0.023 C 
BRANCH   2   3
ATOM      3  C   UNL     1      -2.568  -0.313  -3.756  1.00  0.00     0.116 C 
BRANCH   3   4
ATOM      4  N   UNL     1      -2.843  -0.454  -2.340  1.00  0.00    -0.354 N 
ATOM      5  C   UNL     1      -1.984  -0.635  -1.295  1.00  0.00     0.255 C 
ATOM      6  O   UNL     1      -2.493  -0.828  -0.184  1.00  0.00    -0.272 OA
ATOM      7  H   UNL     1      -3.795  -0.413  -2.095  1.00  0.00     0.163 HD
BRANCH   5   8
ATOM      8  C   UNL     1      -0.455  -0.659  -1.461  1.00  0.00     0.287 C 
ATOM      9  C   UNL     1       1.823   0.520   0.772  1.00  0.00     0.147 C 
ATOM     10  N   UNL     1       0.551   1.177   1.005  1.00  0.00    -0.321 N 
ATOM     11  C   UNL     1      -0.195   1.908   0.134  1.00  0.00     0.406 C 
ATOM     12  H   UNL     1       0.179   1.082   1.912  1.00  0.00     0.167 HD
ATOM     13  O   UNL     1      -1.059   2.676   0.543  1.00  0.00    -0.221 OA
ATOM     14  N   UNL     1       0.085   1.784  -1.195  1.00  0.00    -0.191 N 
ATOM     15  C   UNL     1       0.137   0.653  -1.970  1.00  0.00     0.309 C 
ATOM     16  H   UNL     1       0.276   2.627  -1.666  1.00  0.00     0.317 HD
ATOM     17  N   UNL     1       0.738   0.798  -3.112  1.00  0.00    -0.148 N 
ATOM     18  N   UNL     1       0.984  -0.337  -3.910  1.00  0.00    -0.077 NA
ATOM     19  H   UNL     1       1.018   1.691  -3.417  1.00  0.00     0.342 HD
ATOM     20  N   UNL     1      -0.041  -1.762  -2.314  1.00  0.00    -0.352 N 
ATOM     21  C   UNL     1       0.627  -1.495  -3.463  1.00  0.00     0.241 C 
ATOM     22  H   UNL     1      -0.243  -2.691  -2.060  1.00  0.00     0.163 HD
ENDBRANCH   5   8
ENDBRANCH   3   4
ENDBRANCH   2   3
ENDBRANCH   1   2
BRANCH   1  23
ATOM     23  C   UNL     1      -5.133  -1.101  -5.282  1.00  0.00     0.116 C 
BRANCH  23  24
ATOM     24  N   UNL     1      -4.699  -0.656  -6.598  1.00  0.00    -0.352 N 
ATOM     25  C   UNL     1      -5.480  -0.323  -7.679  1.00  0.00     0.251 C 
ATOM     26  H   UNL     1      -3.726  -0.584  -6.729  1.00  0.00     0.163 HD
ATOM     27  O   UNL     1      -4.974  -0.060  -8.764  1.00  0.00    -0.269 OA
BRANCH  25  28
ATOM     28  C   UNL     1      -6.947  -0.330  -7.524  1.00  0.00     0.039 A 
ATOM     29  C   UNL     1      -7.715  -1.076  -8.419  1.00  0.00     0.014 A 
ATOM     30  C   UNL     1      -7.548   0.349  -6.461  1.00  0.00     0.014 A 
ATOM     31  C   UNL     1      -9.088  -1.200  -8.206  1.00  0.00     0.010 A 
ATOM     32  C   UNL     1      -8.904   0.167  -6.211  1.00  0.00     0.010 A 
ATOM     33  C   UNL     1      -9.685  -0.611  -7.079  1.00  0.00    -0.014 A 
BRANCH  33  34
ATOM     34  C   UNL     1     -11.128  -0.796  -6.790  1.00  0.00     0.031 A 
ATOM     35  C   UNL     1     -12.056   0.384  -6.816  1.00  0.00     0.074 A 
ATOM     36  C   UNL     1     -11.585  -2.013  -6.437  1.00  0.00     0.049 A 
ATOM     37  N   UNL     1     -13.330   0.440  -6.522  1.00  0.00    -0.248 NA
ATOM     38  C   UNL     1     -11.468   1.679  -7.194  1.00  0.00     0.031 C 
ATOM     39  C   UNL     1     -10.772  -3.226  -6.325  1.00  0.00     0.029 A 
ATOM     40  N   UNL     1     -12.848  -2.428  -6.097  1.00  0.00    -0.354 N 
ATOM     41  C   UNL     1     -13.691   1.773  -6.668  1.00  0.00     0.074 A 
ATOM     42  C   UNL     1     -12.491   2.501  -7.020  1.00  0.00     0.031 C 
ATOM     43  C   UNL     1     -11.560  -4.252  -5.964  1.00  0.00     0.029 A 
ATOM     44  C   UNL     1     -12.924  -3.764  -5.787  1.00  0.00     0.049 A 
ATOM     45  H   UNL     1     -13.626  -1.825  -6.077  1.00  0.00     0.167 HD
ATOM     46  C   UNL     1     -14.916   2.336  -6.544  1.00  0.00     0.037 A 
ATOM     47  C   UNL     1     -13.976  -4.509  -5.399  1.00  0.00     0.037 A 
ATOM     48  C   UNL     1     -16.111   1.605  -6.219  1.00  0.00     0.049 A 
ATOM     49  C   UNL     1     -15.327  -3.861  -5.272  1.00  0.00     0.074 A 
ATOM     50  C   UNL     1     -17.410   2.074  -6.122  1.00  0.00     0.029 A 
ATOM     51  N   UNL     1     -16.152   0.248  -5.937  1.00  0.00    -0.354 N 
ATOM     52  N   UNL     1     -15.667  -2.612  -5.476  1.00  0.00    -0.248 NA
ATOM     53  C   UNL     1     -16.442  -4.729  -4.867  1.00  0.00     0.031 C 
ATOM     54  C   UNL     1     -18.232   1.006  -5.749  1.00  0.00     0.029 A 
ATOM     55  C   UNL     1     -17.452  -0.136  -5.653  1.00  0.00     0.049 A 
ATOM     56  H   UNL     1     -15.373  -0.354  -5.939  1.00  0.00     0.167 HD
ATOM     57  C   UNL     1     -17.036  -2.548  -5.253  1.00  0.00     0.074 A 
ATOM     58  C   UNL     1     -17.466  -3.888  -4.910  1.00  0.00     0.031 C 
ATOM     59  C   UNL     1     -17.863  -1.477  -5.324  1.00  0.00     0.037 A 
BRANCH  46  60
ATOM     60  C   UNL     1     -15.020   3.815  -6.775  1.00  0.00     0.057 A 
ATOM     61  C   UNL     1     -14.876   4.372  -8.053  1.00  0.00     0.134 A 
ATOM     62  C   UNL     1     -15.289   4.689  -5.715  1.00  0.00     0.134 A 
ATOM     63  F   UNL     1     -14.603   3.590  -9.108  1.00  0.00    -0.206 F 
ATOM     64  C   UNL     1     -14.968   5.748  -8.264  1.00  0.00     0.040 A 
ATOM     65  C   UNL     1     -15.410   6.065  -5.918  1.00  0.00     0.040 A 
ATOM     66  F   UNL     1     -15.443   4.222  -4.467  1.00  0.00    -0.206 F 
ATOM     67  C   UNL     1     -15.242   6.599  -7.195  1.00  0.00     0.006 A 
ENDBRANCH  46  60
BRANCH  47  68
ATOM     68  C   UNL     1     -13.804  -5.958  -5.129  1.00  0.00     0.057 A 
ATOM     69  C   UNL     1     -14.339  -6.921  -5.994  1.00  0.00     0.134 A 
ATOM     70  C   UNL     1     -13.114  -6.417  -4.001  1.00  0.00     0.134 A 
ATOM     71  F   UNL     1     -15.026  -6.543  -7.081  1.00  0.00    -0.206 F 
ATOM     72  C   UNL     1     -14.213  -8.287  -5.736  1.00  0.00     0.040 A 
ATOM     73  C   UNL     1     -12.960  -7.780  -3.743  1.00  0.00     0.040 A 
ATOM     74  F   UNL     1     -12.570  -5.545  -3.139  1.00  0.00    -0.206 F 
ATOM     75  C   UNL     1     -13.517  -8.719  -4.608  1.00  0.00     0.006 A 
ENDBRANCH  47  68
BRANCH  59  76
ATOM     76  C   UNL     1     -19.319  -1.718  -5.062  1.00  0.00     0.057 A 
ATOM     77  C   UNL     1     -19.807  -1.958  -3.772  1.00  0.00     0.134 A 
ATOM     78  C   UNL     1     -20.248  -1.669  -6.109  1.00  0.00     0.134 A 
ATOM     79  F   UNL     1     -18.966  -2.030  -2.729  1.00  0.00    -0.206 F 
ATOM     80  C   UNL     1     -21.168  -2.162  -3.535  1.00  0.00     0.040 A 
ATOM     81  C   UNL     1     -21.613  -1.846  -5.881  1.00  0.00     0.040 A 
ATOM     82  F   UNL     1     -19.846  -1.435  -7.367  1.00  0.00    -0.206 F 
ATOM     83  C   UNL     1     -22.075  -2.099  -4.591  1.00  0.00     0.006 A 
ENDBRANCH  59  76
ENDBRANCH  33  34
ENDBRANCH  25  28
ENDBRANCH  23  24
ENDBRANCH   1  23
TORSDOF 11
