REMARK SMILES C/C(=N\Nc1ccc(C(=O)NCCCCNC(=O)c2ccc(-c3c4nc(c(-c5c(F)cccc5F)c5ccc([nH]5)c(-c5c(F)cccc5F)c5nc(c(-c6c(F)cccc6F)c6ccc3[nH]6)C=C5)C=C4)cc2)cc1)c1cccc(S(=O)(=O)N(C)C)c1
REMARK SMILES IDX 12 1 11 2 9 3 10 4 8 6 5 7 6 8 74 9 7 10 73 11 4 12 3 14
REMARK SMILES IDX 1 15 2 16 75 17 76 18 86 19 77 20 79 21 78 22 80 23 81 24
REMARK SMILES IDX 82 25 83 26 84 27 85 28 13 29 14 30 15 31 16 32 17 33 18 35
REMARK SMILES IDX 19 36 20 37 72 38 21 39 71 40 22 41 23 42 24 43 65 44 25 45
REMARK SMILES IDX 70 46 64 47 66 48 26 49 69 50 63 51 62 52 27 54 53 55 36 56
REMARK SMILES IDX 52 57 37 58 40 59 51 60 67 61 38 62 39 63 50 65 68 66 41 67
REMARK SMILES IDX 28 68 29 69 34 70 30 71 31 72 33 73 35 74 32 75 54 76 55 77
REMARK SMILES IDX 60 78 56 79 57 80 59 81 61 82 58 83 42 84 43 85 48 86 44 87
REMARK SMILES IDX 45 88 47 89 49 90 46 91
REMARK H PARENT 11 5 4 13 16 34 66 53 40 64
REMARK Flexibility Score: inf
ROOT
ATOM      1  C   UNL     1       0.423   3.897   2.831  1.00  0.00     0.116 C 
ENDROOT
BRANCH   1   2
ATOM      2  N   UNL     1       0.363   3.363   4.179  1.00  0.00    -0.352 N 
ATOM      3  C   UNL     1       0.049   2.107   4.638  1.00  0.00     0.251 C 
ATOM      4  O   UNL     1       0.130   1.887   5.846  1.00  0.00    -0.269 OA
ATOM      5  H   UNL     1       0.585   4.012   4.885  1.00  0.00     0.163 HD
BRANCH   3   6
ATOM      6  C   UNL     1      -0.288   0.992   3.715  1.00  0.00     0.039 A 
ATOM      7  C   UNL     1      -0.535  -1.124   1.885  1.00  0.00     0.056 A 
ATOM      8  C   UNL     1       0.079  -1.328   3.128  1.00  0.00     0.028 A 
ATOM      9  C   UNL     1      -1.136   0.107   1.626  1.00  0.00     0.028 A 
ATOM     10  C   UNL     1       0.220  -0.272   4.030  1.00  0.00     0.016 A 
ATOM     11  C   UNL     1      -1.046   1.146   2.553  1.00  0.00     0.016 A 
BRANCH   7  12
ATOM     12  N   UNL     1      -0.343  -2.086   0.883  1.00  0.00    -0.278 N 
ATOM     13  H   UNL     1      -0.327  -3.031   1.157  1.00  0.00     0.190 HD
BRANCH  12  14
ATOM     14  N   UNL     1      -0.179  -1.812  -0.434  1.00  0.00    -0.180 NA
ATOM     15  C   UNL     1       1.761  -0.307   0.096  1.00  0.00     0.069 C 
ATOM     16  C   UNL     1       0.815  -1.058  -0.833  1.00  0.00     0.065 C 
BRANCH  16  17
ATOM     17  C   UNL     1       1.073  -0.982  -2.317  1.00  0.00    -0.001 A 
ATOM     18  C   UNL     1       0.114  -1.482  -3.211  1.00  0.00     0.010 A 
ATOM     19  C   UNL     1       2.317  -0.589  -2.819  1.00  0.00     0.031 A 
ATOM     20  C   UNL     1       0.415  -1.642  -4.569  1.00  0.00     0.002 A 
ATOM     21  C   UNL     1       2.643  -0.831  -4.156  1.00  0.00     0.083 A 
ATOM     22  C   UNL     1       1.694  -1.349  -5.039  1.00  0.00     0.022 A 
BRANCH  21  23
ATOM     23  S   UNL     1       4.313  -0.597  -4.724  1.00  0.00     0.242 S 
ATOM     24  O   UNL     1       4.696  -1.792  -5.454  1.00  0.00    -0.207 OA
ATOM     25  O   UNL     1       4.357   0.711  -5.330  1.00  0.00    -0.207 OA
BRANCH  23  26
ATOM     26  N   UNL     1       5.271  -0.562  -3.296  1.00  0.00    -0.204 NA
ATOM     27  C   UNL     1       5.376  -1.844  -2.555  1.00  0.00     0.124 C 
ATOM     28  C   UNL     1       6.615   0.025  -3.519  1.00  0.00     0.124 C 
ENDBRANCH  23  26
ENDBRANCH  21  23
ENDBRANCH  16  17
ENDBRANCH  12  14
ENDBRANCH   7  12
ENDBRANCH   3   6
ENDBRANCH   1   2
BRANCH   1  29
ATOM     29  C   UNL     1      -0.854   4.670   2.494  1.00  0.00     0.023 C 
BRANCH  29  30
ATOM     30  C   UNL     1      -0.976   6.026   3.191  1.00  0.00     0.023 C 
BRANCH  30  31
ATOM     31  C   UNL     1       0.073   7.052   2.787  1.00  0.00     0.116 C 
BRANCH  31  32
ATOM     32  N   UNL     1       0.067   7.339   1.362  1.00  0.00    -0.352 N 
ATOM     33  C   UNL     1       0.300   8.524   0.714  1.00  0.00     0.251 C 
ATOM     34  H   UNL     1      -0.133   6.571   0.779  1.00  0.00     0.163 HD
ATOM     35  O   UNL     1       0.136   8.597  -0.501  1.00  0.00    -0.269 OA
BRANCH  33  36
ATOM     36  C   UNL     1       0.718   9.723   1.473  1.00  0.00     0.039 A 
ATOM     37  C   UNL     1       0.149  10.954   1.135  1.00  0.00     0.014 A 
ATOM     38  C   UNL     1       1.679   9.650   2.485  1.00  0.00     0.014 A 
ATOM     39  C   UNL     1       0.519  12.105   1.833  1.00  0.00     0.010 A 
ATOM     40  C   UNL     1       1.998  10.785   3.225  1.00  0.00     0.010 A 
ATOM     41  C   UNL     1       1.435  12.025   2.893  1.00  0.00    -0.014 A 
BRANCH  41  42
ATOM     42  C   UNL     1       1.851  13.244   3.627  1.00  0.00     0.031 A 
ATOM     43  C   UNL     1       3.263  13.747   3.507  1.00  0.00     0.074 A 
ATOM     44  C   UNL     1       0.971  13.876   4.426  1.00  0.00     0.049 A 
ATOM     45  N   UNL     1       3.823  14.783   4.079  1.00  0.00    -0.248 NA
ATOM     46  C   UNL     1       4.173  12.966   2.654  1.00  0.00     0.031 C 
ATOM     47  C   UNL     1      -0.409  13.454   4.668  1.00  0.00     0.029 A 
ATOM     48  N   UNL     1       1.112  15.009   5.185  1.00  0.00    -0.354 N 
ATOM     49  C   UNL     1       5.149  14.768   3.668  1.00  0.00     0.074 A 
ATOM     50  C   UNL     1       5.325  13.594   2.841  1.00  0.00     0.031 C 
ATOM     51  C   UNL     1      -0.997  14.333   5.496  1.00  0.00     0.029 A 
ATOM     52  C   UNL     1      -0.031  15.367   5.856  1.00  0.00     0.049 A 
ATOM     53  H   UNL     1       1.953  15.518   5.243  1.00  0.00     0.167 HD
ATOM     54  C   UNL     1       6.128  15.664   3.935  1.00  0.00     0.037 A 
ATOM     55  C   UNL     1      -0.273  16.418   6.660  1.00  0.00     0.037 A 
ATOM     56  C   UNL     1       5.944  16.851   4.726  1.00  0.00     0.049 A 
ATOM     57  C   UNL     1       0.815  17.426   6.901  1.00  0.00     0.074 A 
ATOM     58  C   UNL     1       6.859  17.848   5.015  1.00  0.00     0.029 A 
ATOM     59  N   UNL     1       4.756  17.204   5.348  1.00  0.00    -0.354 N 
ATOM     60  N   UNL     1       2.048  17.433   6.455  1.00  0.00    -0.248 NA
ATOM     61  C   UNL     1       0.471  18.582   7.740  1.00  0.00     0.031 C 
ATOM     62  C   UNL     1       6.230  18.796   5.830  1.00  0.00     0.029 A 
ATOM     63  C   UNL     1       4.915  18.404   6.021  1.00  0.00     0.049 A 
ATOM     64  H   UNL     1       3.924  16.680   5.316  1.00  0.00     0.167 HD
ATOM     65  C   UNL     1       2.617  18.606   6.934  1.00  0.00     0.074 A 
ATOM     66  C   UNL     1       1.592  19.289   7.695  1.00  0.00     0.031 C 
ATOM     67  C   UNL     1       3.876  19.076   6.757  1.00  0.00     0.037 A 
BRANCH  54  68
ATOM     68  C   UNL     1       7.483  15.394   3.351  1.00  0.00     0.057 A 
ATOM     69  C   UNL     1       7.734  15.536   1.979  1.00  0.00     0.134 A 
ATOM     70  C   UNL     1       8.551  15.003   4.167  1.00  0.00     0.134 A 
ATOM     71  F   UNL     1       6.748  15.893   1.142  1.00  0.00    -0.206 F 
ATOM     72  C   UNL     1       8.992  15.271   1.436  1.00  0.00     0.040 A 
ATOM     73  C   UNL     1       9.820  14.758   3.639  1.00  0.00     0.040 A 
ATOM     74  F   UNL     1       8.379  14.851   5.488  1.00  0.00    -0.206 F 
ATOM     75  C   UNL     1      10.041  14.886   2.269  1.00  0.00     0.006 A 
ENDBRANCH  54  68
BRANCH  55  76
ATOM     76  C   UNL     1      -1.620  16.603   7.253  1.00  0.00     0.057 A 
ATOM     77  C   UNL     1      -2.481  17.601   6.782  1.00  0.00     0.134 A 
ATOM     78  C   UNL     1      -2.076  15.795   8.300  1.00  0.00     0.134 A 
ATOM     79  F   UNL     1      -2.091  18.416   5.791  1.00  0.00    -0.206 F 
ATOM     80  C   UNL     1      -3.741  17.803   7.345  1.00  0.00     0.040 A 
ATOM     81  C   UNL     1      -3.342  15.973   8.859  1.00  0.00     0.040 A 
ATOM     82  F   UNL     1      -1.300  14.816   8.787  1.00  0.00    -0.206 F 
ATOM     83  C   UNL     1      -4.176  16.985   8.386  1.00  0.00     0.006 A 
ENDBRANCH  55  76
BRANCH  67  84
ATOM     84  C   UNL     1       4.197  20.409   7.361  1.00  0.00     0.057 A 
ATOM     85  C   UNL     1       4.389  20.569   8.739  1.00  0.00     0.134 A 
ATOM     86  C   UNL     1       4.342  21.540   6.548  1.00  0.00     0.134 A 
ATOM     87  F   UNL     1       4.252  19.526   9.570  1.00  0.00    -0.206 F 
ATOM     88  C   UNL     1       4.692  21.815   9.290  1.00  0.00     0.040 A 
ATOM     89  C   UNL     1       4.666  22.786   7.086  1.00  0.00     0.040 A 
ATOM     90  F   UNL     1       4.177  21.451   5.220  1.00  0.00    -0.206 F 
ATOM     91  C   UNL     1       4.836  22.927   8.462  1.00  0.00     0.006 A 
ENDBRANCH  67  84
ENDBRANCH  41  42
ENDBRANCH  33  36
ENDBRANCH  31  32
ENDBRANCH  30  31
ENDBRANCH  29  30
ENDBRANCH   1  29
TORSDOF 16
