REMARK SMILES COc1ccc2c(c1)c(CC(=O)NCCCCNC(=O)c1ccc(-c3c4nc(c(-c5c(F)cccc5F)c5ccc([nH]5)c(-c5c(F)cccc5F)c5nc(c(-c6c(F)cccc6F)c6ccc3[nH]6)C=C5)C=C4)cc1)c(C)n2Cc1ccc(Br)cc1
REMARK SMILES IDX 15 1 14 2 13 3 11 4 12 5 10 7 9 8 3 9 4 10 8 11 5 12 7 13
REMARK SMILES IDX 6 14 77 15 75 16 76 17 2 18 1 19 78 20 79 21 80 22 85 23
REMARK SMILES IDX 81 24 84 25 82 26 83 27 16 28 17 29 18 30 19 31 20 33 21 34
REMARK SMILES IDX 22 35 74 36 23 37 73 38 24 39 25 40 26 41 67 42 27 43 72 44
REMARK SMILES IDX 66 45 68 46 28 47 71 48 65 49 64 50 29 52 55 53 38 54 54 55
REMARK SMILES IDX 39 56 42 57 53 58 69 59 40 60 41 61 52 63 70 64 43 65 30 66
REMARK SMILES IDX 31 67 36 68 32 69 33 70 35 71 37 72 34 73 56 74 57 75 62 76
REMARK SMILES IDX 58 77 59 78 61 79 63 80 60 81 44 82 45 83 50 84 46 85 47 86
REMARK SMILES IDX 49 87 51 88 48 89
REMARK H PARENT 13 6 18 32 68 51 42 62
REMARK Flexibility Score: inf
ROOT
ATOM      1  C   UNL     1       1.046   7.246  -2.861  1.00  0.00     0.023 C 
ENDROOT
BRANCH   1   2
ATOM      2  C   UNL     1      -0.312   7.652  -2.286  1.00  0.00     0.116 C 
BRANCH   2   3
ATOM      3  N   UNL     1      -1.307   6.603  -2.417  1.00  0.00    -0.356 N 
ATOM      4  C   UNL     1      -1.927   5.866  -1.447  1.00  0.00     0.224 C 
ATOM      5  O   UNL     1      -2.764   5.031  -1.805  1.00  0.00    -0.275 OA
ATOM      6  H   UNL     1      -1.574   6.391  -3.340  1.00  0.00     0.163 HD
BRANCH   4   7
ATOM      7  C   UNL     1      -1.658   6.123   0.030  1.00  0.00     0.138 C 
BRANCH   7   8
ATOM      8  C   UNL     1      -0.235   5.877   0.425  1.00  0.00    -0.010 A 
ATOM      9  C   UNL     1       1.112   2.380  -0.291  1.00  0.00     0.119 A 
ATOM     10  C   UNL     1       2.420   2.638   0.107  1.00  0.00     0.048 A 
ATOM     11  C   UNL     1       0.160   3.400  -0.266  1.00  0.00     0.057 A 
ATOM     12  C   UNL     1       2.799   3.911   0.564  1.00  0.00     0.031 A 
ATOM     13  C   UNL     1       0.505   4.676   0.229  1.00  0.00     0.007 A 
ATOM     14  C   UNL     1       1.821   4.920   0.633  1.00  0.00     0.049 A 
ATOM     15  N   UNL     1       1.879   6.249   1.035  1.00  0.00    -0.340 N 
ATOM     16  C   UNL     1       0.591   6.753   1.117  1.00  0.00     0.020 A 
ATOM     17  C   UNL     1       0.210   8.036   1.773  1.00  0.00     0.065 C 
BRANCH   9  18
ATOM     18  O   UNL     1       0.681   1.180  -0.790  1.00  0.00    -0.497 OA
ATOM     19  C   UNL     1       1.131   0.042  -0.063  1.00  0.00     0.278 C 
ENDBRANCH   9  18
BRANCH  15  20
ATOM     20  C   UNL     1       3.107   6.969   1.384  1.00  0.00     0.157 C 
BRANCH  20  21
ATOM     21  C   UNL     1       3.558   7.937   0.305  1.00  0.00    -0.028 A 
ATOM     22  C   UNL     1       2.957   9.199   0.157  1.00  0.00     0.007 A 
ATOM     23  C   UNL     1       4.614   7.605  -0.557  1.00  0.00     0.007 A 
ATOM     24  C   UNL     1       3.372  10.091  -0.836  1.00  0.00     0.016 A 
ATOM     25  C   UNL     1       5.052   8.508  -1.535  1.00  0.00     0.016 A 
ATOM     26  C   UNL     1       4.426   9.744  -1.672  1.00  0.00     0.017 A 
ATOM     27  Br  UNL     1       5.032  10.969  -2.974  1.00  0.00    -0.051 Br
ENDBRANCH  20  21
ENDBRANCH  15  20
ENDBRANCH   7   8
ENDBRANCH   4   7
ENDBRANCH   2   3
ENDBRANCH   1   2
BRANCH   1  28
ATOM     28  C   UNL     1       1.092   7.086  -4.388  1.00  0.00     0.023 C 
BRANCH  28  29
ATOM     29  C   UNL     1       0.641   8.308  -5.188  1.00  0.00     0.116 C 
BRANCH  29  30
ATOM     30  N   UNL     1       1.377   9.524  -4.906  1.00  0.00    -0.352 N 
ATOM     31  C   UNL     1       2.327  10.222  -5.603  1.00  0.00     0.251 C 
ATOM     32  H   UNL     1       1.148   9.931  -4.039  1.00  0.00     0.163 HD
ATOM     33  O   UNL     1       2.378  11.439  -5.391  1.00  0.00    -0.269 OA
BRANCH  31  34
ATOM     34  C   UNL     1       3.349   9.610  -6.497  1.00  0.00     0.039 A 
ATOM     35  C   UNL     1       3.314   8.312  -6.997  1.00  0.00     0.014 A 
ATOM     36  C   UNL     1       4.469  10.415  -6.800  1.00  0.00     0.014 A 
ATOM     37  C   UNL     1       4.387   7.819  -7.737  1.00  0.00     0.010 A 
ATOM     38  C   UNL     1       5.545   9.927  -7.540  1.00  0.00     0.010 A 
ATOM     39  C   UNL     1       5.513   8.617  -7.995  1.00  0.00    -0.014 A 
BRANCH  39  40
ATOM     40  C   UNL     1       6.522   8.074  -8.906  1.00  0.00     0.031 A 
ATOM     41  C   UNL     1       5.976   7.711 -10.242  1.00  0.00     0.074 A 
ATOM     42  C   UNL     1       7.843   7.944  -8.666  1.00  0.00     0.049 A 
ATOM     43  N   UNL     1       5.814   6.522 -10.721  1.00  0.00    -0.248 NA
ATOM     44  C   UNL     1       5.417   8.780 -11.081  1.00  0.00     0.031 C 
ATOM     45  C   UNL     1       8.615   8.479  -7.546  1.00  0.00     0.029 A 
ATOM     46  N   UNL     1       8.799   7.341  -9.442  1.00  0.00    -0.354 N 
ATOM     47  C   UNL     1       5.310   6.693 -12.007  1.00  0.00     0.074 A 
ATOM     48  C   UNL     1       4.945   8.081 -12.116  1.00  0.00     0.031 C 
ATOM     49  C   UNL     1       9.937   8.355  -7.814  1.00  0.00     0.029 A 
ATOM     50  C   UNL     1      10.106   7.611  -9.053  1.00  0.00     0.049 A 
ATOM     51  H   UNL     1       8.578   6.766 -10.209  1.00  0.00     0.167 HD
ATOM     52  C   UNL     1       5.471   5.723 -12.948  1.00  0.00     0.037 A 
ATOM     53  C   UNL     1      11.243   7.276  -9.716  1.00  0.00     0.037 A 
ATOM     54  C   UNL     1       5.780   4.453 -12.334  1.00  0.00     0.049 A 
ATOM     55  C   UNL     1      10.927   6.146 -10.617  1.00  0.00     0.074 A 
ATOM     56  C   UNL     1       5.163   3.607 -11.433  1.00  0.00     0.029 A 
ATOM     57  N   UNL     1       7.084   4.037 -12.403  1.00  0.00    -0.354 N 
ATOM     58  N   UNL     1      10.685   4.933 -10.213  1.00  0.00    -0.248 NA
ATOM     59  C   UNL     1      10.537   6.435 -11.987  1.00  0.00     0.031 C 
ATOM     60  C   UNL     1       6.226   3.015 -10.684  1.00  0.00     0.029 A 
ATOM     61  C   UNL     1       7.430   3.495 -11.198  1.00  0.00     0.049 A 
ATOM     62  H   UNL     1       7.672   4.115 -13.189  1.00  0.00     0.167 HD
ATOM     63  C   UNL     1       9.711   4.470 -11.080  1.00  0.00     0.074 A 
ATOM     64  C   UNL     1       9.774   5.367 -12.229  1.00  0.00     0.031 C 
ATOM     65  C   UNL     1       8.761   3.590 -10.647  1.00  0.00     0.037 A 
BRANCH  52  66
ATOM     66  C   UNL     1       5.838   6.005 -14.394  1.00  0.00     0.057 A 
ATOM     67  C   UNL     1       6.373   7.224 -14.856  1.00  0.00     0.134 A 
ATOM     68  C   UNL     1       6.019   4.911 -15.265  1.00  0.00     0.134 A 
ATOM     69  F   UNL     1       6.296   8.361 -14.158  1.00  0.00    -0.206 F 
ATOM     70  C   UNL     1       7.117   7.325 -16.035  1.00  0.00     0.040 A 
ATOM     71  C   UNL     1       6.804   4.991 -16.421  1.00  0.00     0.040 A 
ATOM     72  F   UNL     1       5.537   3.697 -14.956  1.00  0.00    -0.206 F 
ATOM     73  C   UNL     1       7.377   6.198 -16.797  1.00  0.00     0.006 A 
ENDBRANCH  52  66
BRANCH  53  74
ATOM     74  C   UNL     1      12.547   7.976  -9.792  1.00  0.00     0.057 A 
ATOM     75  C   UNL     1      12.639   9.369  -9.640  1.00  0.00     0.134 A 
ATOM     76  C   UNL     1      13.688   7.339 -10.312  1.00  0.00     0.134 A 
ATOM     77  F   UNL     1      11.592  10.089  -9.215  1.00  0.00    -0.206 F 
ATOM     78  C   UNL     1      13.779  10.090 -10.012  1.00  0.00     0.040 A 
ATOM     79  C   UNL     1      14.833   8.051 -10.695  1.00  0.00     0.040 A 
ATOM     80  F   UNL     1      13.693   6.016 -10.530  1.00  0.00    -0.206 F 
ATOM     81  C   UNL     1      14.875   9.434 -10.559  1.00  0.00     0.006 A 
ENDBRANCH  53  74
BRANCH  65  82
ATOM     82  C   UNL     1       9.040   2.834  -9.382  1.00  0.00     0.057 A 
ATOM     83  C   UNL     1       9.029   1.435  -9.435  1.00  0.00     0.134 A 
ATOM     84  C   UNL     1       9.233   3.422  -8.123  1.00  0.00     0.134 A 
ATOM     85  F   UNL     1       8.800   0.804 -10.598  1.00  0.00    -0.206 F 
ATOM     86  C   UNL     1       9.223   0.651  -8.297  1.00  0.00     0.040 A 
ATOM     87  C   UNL     1       9.467   2.647  -6.982  1.00  0.00     0.040 A 
ATOM     88  F   UNL     1       9.161   4.749  -7.953  1.00  0.00    -0.206 F 
ATOM     89  C   UNL     1       9.460   1.258  -7.067  1.00  0.00     0.006 A 
ENDBRANCH  65  82
ENDBRANCH  39  40
ENDBRANCH  31  34
ENDBRANCH  29  30
ENDBRANCH  28  29
ENDBRANCH   1  28
TORSDOF 15
