REMARK SMILES O=C(/C=C\N1[C@@H]2CC[C@H]1C[C@H](O)C2)NCCCCNC(=O)c1ccc(-c2c3nc(c(-c4c(F)cccc4F)c4ccc([nH]4)c(-c4c(F)cccc4F)c4nc(c(-c5c(F)cccc5F)c5ccc2[nH]5)C=C4)C=C3)cc1
REMARK SMILES IDX 16 1 15 2 14 3 1 4 2 5 3 7 4 8 5 9 6 10 9 11 7 12 13 13 8 14
REMARK SMILES IDX 10 15 11 16 12 17 17 19 18 20 19 21 20 22 21 24 22 25 23 26
REMARK SMILES IDX 75 27 24 28 74 29 25 30 26 31 27 32 68 33 28 34 73 35 67 36
REMARK SMILES IDX 69 37 29 38 72 39 66 40 65 41 30 43 56 44 39 45 55 46 40 47
REMARK SMILES IDX 43 48 54 49 70 50 41 51 42 52 53 54 71 55 44 56 31 57 32 58
REMARK SMILES IDX 37 59 33 60 34 61 36 62 38 63 35 64 57 65 58 66 63 67 59 68
REMARK SMILES IDX 60 69 62 70 64 71 61 72 45 73 46 74 51 75 47 76 48 77 50 78
REMARK SMILES IDX 52 79 49 80
REMARK H PARENT 14 6 12 18 19 23 69 42 43 53
REMARK Flexibility Score: inf
ROOT
ATOM      1  C   UNL     1       1.708  -3.547   1.560  1.00  0.00     0.023 C 
ENDROOT
BRANCH   1   2
ATOM      2  C   UNL     1       1.450  -2.041   1.751  1.00  0.00     0.116 C 
BRANCH   2   3
ATOM      3  N   UNL     1       2.287  -1.119   1.004  1.00  0.00    -0.353 N 
ATOM      4  O   UNL     1       1.019  -0.921  -0.897  1.00  0.00    -0.270 OA
ATOM      5  C   UNL     1       2.006  -0.619  -0.240  1.00  0.00     0.245 C 
ATOM      6  H   UNL     1       3.128  -0.828   1.427  1.00  0.00     0.163 HD
BRANCH   5   7
ATOM      7  C   UNL     1       2.905   0.481  -0.715  1.00  0.00     0.088 C 
ATOM      8  C   UNL     1       4.208   0.741  -0.521  1.00  0.00     0.087 C 
BRANCH   8   9
ATOM      9  N   UNL     1       5.239   0.085   0.115  1.00  0.00    -0.371 N 
ATOM     10  C   UNL     1       6.508   0.670   0.580  1.00  0.00     0.084 C 
ATOM     11  C   UNL     1       5.317  -1.318   0.485  1.00  0.00     0.084 C 
ATOM     12  C   UNL     1       7.539  -0.478   0.398  1.00  0.00     0.027 C 
ATOM     13  C   UNL     1       6.312   0.981   2.078  1.00  0.00     0.056 C 
ATOM     14  C   UNL     1       6.707  -1.683  -0.028  1.00  0.00     0.027 C 
ATOM     15  C   UNL     1       5.295  -1.389   2.025  1.00  0.00     0.056 C 
ATOM     16  C   UNL     1       5.366  -0.034   2.742  1.00  0.00     0.118 C 
BRANCH  16  17
ATOM     17  O   UNL     1       4.032   0.503   2.800  1.00  0.00    -0.393 OA
ATOM     18  H   UNL     1       3.700   0.642   1.899  1.00  0.00     0.210 HD
ENDBRANCH  16  17
ENDBRANCH   8   9
ENDBRANCH   5   7
ENDBRANCH   2   3
ENDBRANCH   1   2
BRANCH   1  19
ATOM     19  C   UNL     1       3.071  -4.165   1.931  1.00  0.00     0.023 C 
BRANCH  19  20
ATOM     20  C   UNL     1       3.690  -3.860   3.304  1.00  0.00     0.116 C 
BRANCH  20  21
ATOM     21  N   UNL     1       3.424  -4.798   4.367  1.00  0.00    -0.352 N 
ATOM     22  C   UNL     1       4.281  -5.317   5.315  1.00  0.00     0.251 C 
ATOM     23  H   UNL     1       2.493  -5.114   4.424  1.00  0.00     0.163 HD
ATOM     24  O   UNL     1       3.812  -6.028   6.203  1.00  0.00    -0.269 OA
BRANCH  22  25
ATOM     25  C   UNL     1       5.763  -5.115   5.283  1.00  0.00     0.039 A 
ATOM     26  C   UNL     1       6.560  -6.245   5.512  1.00  0.00     0.014 A 
ATOM     27  C   UNL     1       6.397  -3.877   5.124  1.00  0.00     0.014 A 
ATOM     28  C   UNL     1       7.959  -6.152   5.535  1.00  0.00     0.010 A 
ATOM     29  C   UNL     1       7.806  -3.791   5.102  1.00  0.00     0.010 A 
ATOM     30  C   UNL     1       8.608  -4.930   5.302  1.00  0.00    -0.014 A 
BRANCH  30  31
ATOM     31  C   UNL     1      10.105  -4.879   5.249  1.00  0.00     0.031 A 
ATOM     32  C   UNL     1      10.914  -4.153   6.295  1.00  0.00     0.074 A 
ATOM     33  C   UNL     1      10.763  -5.516   4.256  1.00  0.00     0.049 A 
ATOM     34  N   UNL     1      12.217  -4.050   6.412  1.00  0.00    -0.248 NA
ATOM     35  C   UNL     1      10.163  -3.444   7.340  1.00  0.00     0.031 C 
ATOM     36  C   UNL     1      10.127  -6.250   3.162  1.00  0.00     0.029 A 
ATOM     37  N   UNL     1      12.110  -5.655   4.008  1.00  0.00    -0.354 N 
ATOM     38  C   UNL     1      12.444  -3.273   7.543  1.00  0.00     0.074 A 
ATOM     39  C   UNL     1      11.140  -2.889   8.046  1.00  0.00     0.031 C 
ATOM     40  C   UNL     1      11.078  -6.780   2.377  1.00  0.00     0.029 A 
ATOM     41  C   UNL     1      12.393  -6.395   2.884  1.00  0.00     0.049 A 
ATOM     42  H   UNL     1      12.806  -5.261   4.582  1.00  0.00     0.167 HD
ATOM     43  C   UNL     1      13.621  -2.925   8.123  1.00  0.00     0.037 A 
ATOM     44  C   UNL     1      13.569  -6.725   2.312  1.00  0.00     0.037 A 
ATOM     45  C   UNL     1      14.926  -3.300   7.634  1.00  0.00     0.049 A 
ATOM     46  C   UNL     1      14.862  -6.287   2.947  1.00  0.00     0.074 A 
ATOM     47  C   UNL     1      16.167  -3.019   8.185  1.00  0.00     0.029 A 
ATOM     48  N   UNL     1      15.165  -4.027   6.478  1.00  0.00    -0.354 N 
ATOM     49  N   UNL     1      15.053  -5.602   4.047  1.00  0.00    -0.248 NA
ATOM     50  C   UNL     1      16.105  -6.676   2.262  1.00  0.00     0.031 C 
ATOM     51  C   UNL     1      17.155  -3.522   7.332  1.00  0.00     0.029 A 
ATOM     52  C   UNL     1      16.532  -4.174   6.282  1.00  0.00     0.049 A 
ATOM     53  H   UNL     1      14.468  -4.386   5.882  1.00  0.00     0.167 HD
ATOM     54  C   UNL     1      16.431  -5.503   4.201  1.00  0.00     0.074 A 
ATOM     55  C   UNL     1      17.029  -6.212   3.091  1.00  0.00     0.031 C 
ATOM     56  C   UNL     1      17.133  -4.880   5.179  1.00  0.00     0.037 A 
BRANCH  43  57
ATOM     57  C   UNL     1      13.560  -2.078   9.366  1.00  0.00     0.057 A 
ATOM     58  C   UNL     1      13.091  -2.585  10.585  1.00  0.00     0.134 A 
ATOM     59  C   UNL     1      14.029  -0.757   9.358  1.00  0.00     0.134 A 
ATOM     60  F   UNL     1      12.626  -3.841  10.664  1.00  0.00    -0.206 F 
ATOM     61  C   UNL     1      13.059  -1.801  11.740  1.00  0.00     0.040 A 
ATOM     62  C   UNL     1      14.031   0.027  10.514  1.00  0.00     0.040 A 
ATOM     63  F   UNL     1      14.510  -0.211   8.230  1.00  0.00    -0.206 F 
ATOM     64  C   UNL     1      13.537  -0.493  11.708  1.00  0.00     0.006 A 
ENDBRANCH  43  57
BRANCH  44  65
ATOM     65  C   UNL     1      13.586  -7.519   1.055  1.00  0.00     0.057 A 
ATOM     66  C   UNL     1      14.076  -8.830   1.025  1.00  0.00     0.134 A 
ATOM     67  C   UNL     1      13.131  -6.975  -0.153  1.00  0.00     0.134 A 
ATOM     68  F   UNL     1      14.550  -9.399   2.144  1.00  0.00    -0.206 F 
ATOM     69  C   UNL     1      14.132  -9.564  -0.161  1.00  0.00     0.040 A 
ATOM     70  C   UNL     1      13.152  -7.708  -1.341  1.00  0.00     0.040 A 
ATOM     71  F   UNL     1      12.647  -5.725  -0.193  1.00  0.00    -0.206 F 
ATOM     72  C   UNL     1      13.662  -9.005  -1.348  1.00  0.00     0.006 A 
ENDBRANCH  44  65
BRANCH  56  73
ATOM     73  C   UNL     1      18.634  -4.963   5.119  1.00  0.00     0.057 A 
ATOM     74  C   UNL     1      19.379  -4.286   4.144  1.00  0.00     0.134 A 
ATOM     75  C   UNL     1      19.347  -5.705   6.070  1.00  0.00     0.134 A 
ATOM     76  F   UNL     1      18.761  -3.567   3.194  1.00  0.00    -0.206 F 
ATOM     77  C   UNL     1      20.773  -4.364   4.102  1.00  0.00     0.040 A 
ATOM     78  C   UNL     1      20.742  -5.767   6.057  1.00  0.00     0.040 A 
ATOM     79  F   UNL     1      18.701  -6.372   7.038  1.00  0.00    -0.206 F 
ATOM     80  C   UNL     1      21.459  -5.101   5.065  1.00  0.00     0.006 A 
ENDBRANCH  56  73
ENDBRANCH  30  31
ENDBRANCH  22  25
ENDBRANCH  20  21
ENDBRANCH  19  20
ENDBRANCH   1  19
TORSDOF 13
