REMARK SMILES Cc1cc(Cl)cc2c1O[C@H](C(F)(F)F)C(C(=O)NCCCCNC(=O)c1ccc(-c3c4nc(c(-c5c(F)cccc5F)c5ccc([nH]5)c(-c5c(F)cccc5F)c5nc(c(-c6c(F)cccc6F)c6ccc3[nH]6)C=C5)C=C4)cc1)=C2
REMARK SMILES IDX 21 1 20 2 19 3 18 4 16 5 17 6 15 8 1 9 2 10 3 11 8 12 4 13
REMARK SMILES IDX 7 14 9 15 5 16 6 17 80 18 10 19 11 20 12 21 13 22 14 23
REMARK SMILES IDX 22 24 23 25 24 26 25 28 26 29 27 30 79 31 28 32 78 33 29 34
REMARK SMILES IDX 30 35 31 36 72 37 32 38 77 39 71 40 73 41 33 42 76 43 70 44
REMARK SMILES IDX 69 45 34 47 60 48 43 49 59 50 44 51 47 52 58 53 74 54 45 55
REMARK SMILES IDX 46 56 57 58 75 59 48 60 35 61 36 62 41 63 37 64 38 65 40 66
REMARK SMILES IDX 42 67 39 68 61 69 62 70 67 71 63 72 64 73 66 74 68 75 65 76
REMARK SMILES IDX 49 77 50 78 55 79 51 80 52 81 54 82 56 83 53 84
REMARK H PARENT 18 7 23 27 73 46 47 57
REMARK Flexibility Score: inf
ROOT
ATOM      1  C   UNL     1      -5.398  -0.898   6.141  1.00  0.00     0.023 C 
ENDROOT
BRANCH   1   2
ATOM      2  C   UNL     1      -4.342  -0.762   5.042  1.00  0.00     0.023 C 
BRANCH   2   3
ATOM      3  C   UNL     1      -4.851  -0.094   3.768  1.00  0.00     0.116 C 
BRANCH   3   4
ATOM      4  N   UNL     1      -4.778   1.353   3.849  1.00  0.00    -0.352 N 
ATOM      5  C   UNL     1      -3.979   2.330   3.360  1.00  0.00     0.251 C 
ATOM      6  O   UNL     1      -4.288   3.477   3.699  1.00  0.00    -0.270 OA
ATOM      7  H   UNL     1      -5.501   1.722   4.407  1.00  0.00     0.163 HD
BRANCH   5   8
ATOM      8  C   UNL     1      -2.796   2.117   2.474  1.00  0.00     0.067 C 
ATOM      9  C   UNL     1       1.216   0.307  -0.206  1.00  0.00     0.048 C 
ATOM     10  C   UNL     1       0.722   1.666   0.201  1.00  0.00    -0.007 A 
ATOM     11  C   UNL     1       1.378   2.814  -0.264  1.00  0.00     0.027 A 
ATOM     12  C   UNL     1      -0.429   1.820   0.988  1.00  0.00     0.131 A 
ATOM     13  C   UNL     1       0.910   4.081   0.085  1.00  0.00     0.042 A 
ATOM     14  C   UNL     1      -0.892   3.091   1.347  1.00  0.00     0.019 A 
ATOM     15  O   UNL     1      -1.044   0.682   1.428  1.00  0.00    -0.475 OA
ATOM     16  Cl  UNL     1       1.738   5.479  -0.483  1.00  0.00    -0.084 Cl
ATOM     17  C   UNL     1      -0.216   4.226   0.892  1.00  0.00     0.032 A 
ATOM     18  C   UNL     1      -2.053   3.210   2.222  1.00  0.00     0.025 C 
ATOM     19  C   UNL     1      -2.431   0.805   1.841  1.00  0.00     0.314 C 
BRANCH  19  20
ATOM     20  C   UNL     1      -3.347   0.441   0.657  1.00  0.00     0.429 C 
ATOM     21  F   UNL     1      -3.203  -0.868   0.332  1.00  0.00    -0.167 F 
ATOM     22  F   UNL     1      -4.659   0.620   0.943  1.00  0.00    -0.167 F 
ATOM     23  F   UNL     1      -3.083   1.167  -0.452  1.00  0.00    -0.167 F 
ENDBRANCH  19  20
ENDBRANCH   5   8
ENDBRANCH   3   4
ENDBRANCH   2   3
ENDBRANCH   1   2
BRANCH   1  24
ATOM     24  C   UNL     1      -6.679  -1.622   5.731  1.00  0.00     0.116 C 
BRANCH  24  25
ATOM     25  N   UNL     1      -6.452  -2.913   5.097  1.00  0.00    -0.352 N 
ATOM     26  C   UNL     1      -7.248  -4.032   5.148  1.00  0.00     0.251 C 
ATOM     27  H   UNL     1      -5.626  -2.994   4.567  1.00  0.00     0.163 HD
ATOM     28  O   UNL     1      -6.899  -5.081   4.620  1.00  0.00    -0.269 OA
BRANCH  26  29
ATOM     29  C   UNL     1      -8.516  -3.957   5.896  1.00  0.00     0.039 A 
ATOM     30  C   UNL     1      -8.729  -4.853   6.945  1.00  0.00     0.014 A 
ATOM     31  C   UNL     1      -9.441  -2.950   5.612  1.00  0.00     0.014 A 
ATOM     32  C   UNL     1      -9.844  -4.690   7.766  1.00  0.00     0.010 A 
ATOM     33  C   UNL     1     -10.519  -2.752   6.467  1.00  0.00     0.010 A 
ATOM     34  C   UNL     1     -10.724  -3.615   7.555  1.00  0.00    -0.014 A 
BRANCH  34  35
ATOM     35  C   UNL     1     -11.864  -3.375   8.468  1.00  0.00     0.031 A 
ATOM     36  C   UNL     1     -13.269  -3.545   7.971  1.00  0.00     0.074 A 
ATOM     37  C   UNL     1     -11.632  -2.954   9.726  1.00  0.00     0.049 A 
ATOM     38  N   UNL     1     -14.397  -3.335   8.599  1.00  0.00    -0.248 NA
ATOM     39  C   UNL     1     -13.427  -3.988   6.577  1.00  0.00     0.031 C 
ATOM     40  C   UNL     1     -10.311  -2.713  10.309  1.00  0.00     0.029 A 
ATOM     41  N   UNL     1     -12.504  -2.652  10.741  1.00  0.00    -0.354 N 
ATOM     42  C   UNL     1     -15.396  -3.613   7.676  1.00  0.00     0.074 A 
ATOM     43  C   UNL     1     -14.743  -3.954   6.431  1.00  0.00     0.031 C 
ATOM     44  C   UNL     1     -10.458  -2.335  11.589  1.00  0.00     0.029 A 
ATOM     45  C   UNL     1     -11.882  -2.278  11.907  1.00  0.00     0.049 A 
ATOM     46  H   UNL     1     -13.482  -2.700  10.643  1.00  0.00     0.167 HD
ATOM     47  C   UNL     1     -16.736  -3.611   7.859  1.00  0.00     0.037 A 
ATOM     48  C   UNL     1     -12.404  -1.933  13.099  1.00  0.00     0.037 A 
ATOM     49  C   UNL     1     -17.382  -3.297   9.105  1.00  0.00     0.049 A 
ATOM     50  C   UNL     1     -13.896  -1.928  13.275  1.00  0.00     0.074 A 
ATOM     51  C   UNL     1     -18.733  -3.310   9.403  1.00  0.00     0.029 A 
ATOM     52  N   UNL     1     -16.718  -2.917  10.261  1.00  0.00    -0.354 N 
ATOM     53  N   UNL     1     -14.829  -2.234  12.406  1.00  0.00    -0.248 NA
ATOM     54  C   UNL     1     -14.408  -1.530  14.594  1.00  0.00     0.031 C 
ATOM     55  C   UNL     1     -18.889  -2.912  10.734  1.00  0.00     0.029 A 
ATOM     56  C   UNL     1     -17.633  -2.681  11.273  1.00  0.00     0.049 A 
ATOM     57  H   UNL     1     -15.742  -2.829  10.350  1.00  0.00     0.167 HD
ATOM     58  C   UNL     1     -16.035  -2.084  13.076  1.00  0.00     0.074 A 
ATOM     59  C   UNL     1     -15.716  -1.670  14.427  1.00  0.00     0.031 C 
ATOM     60  C   UNL     1     -17.294  -2.272  12.612  1.00  0.00     0.037 A 
BRANCH  47  61
ATOM     61  C   UNL     1     -17.588  -3.979   6.683  1.00  0.00     0.057 A 
ATOM     62  C   UNL     1     -17.666  -5.300   6.222  1.00  0.00     0.134 A 
ATOM     63  C   UNL     1     -18.354  -3.014   6.019  1.00  0.00     0.134 A 
ATOM     64  F   UNL     1     -16.944  -6.268   6.807  1.00  0.00    -0.206 F 
ATOM     65  C   UNL     1     -18.459  -5.644   5.126  1.00  0.00     0.040 A 
ATOM     66  C   UNL     1     -19.168  -3.350   4.936  1.00  0.00     0.040 A 
ATOM     67  F   UNL     1     -18.325  -1.732   6.412  1.00  0.00    -0.206 F 
ATOM     68  C   UNL     1     -19.217  -4.668   4.484  1.00  0.00     0.006 A 
ENDBRANCH  47  61
BRANCH  48  69
ATOM     69  C   UNL     1     -11.503  -1.609  14.232  1.00  0.00     0.057 A 
ATOM     70  C   UNL     1     -11.331  -2.512  15.287  1.00  0.00     0.134 A 
ATOM     71  C   UNL     1     -10.783  -0.411  14.280  1.00  0.00     0.134 A 
ATOM     72  F   UNL     1     -12.008  -3.670  15.301  1.00  0.00    -0.206 F 
ATOM     73  C   UNL     1     -10.479  -2.232  16.356  1.00  0.00     0.040 A 
ATOM     74  C   UNL     1      -9.914  -0.125  15.335  1.00  0.00     0.040 A 
ATOM     75  F   UNL     1     -10.902   0.491  13.295  1.00  0.00    -0.206 F 
ATOM     76  C   UNL     1      -9.762  -1.037  16.378  1.00  0.00     0.006 A 
ENDBRANCH  48  69
BRANCH  60  77
ATOM     77  C   UNL     1     -18.422  -2.046  13.571  1.00  0.00     0.057 A 
ATOM     78  C   UNL     1     -18.842  -0.756  13.915  1.00  0.00     0.134 A 
ATOM     79  C   UNL     1     -19.140  -3.127  14.097  1.00  0.00     0.134 A 
ATOM     80  F   UNL     1     -18.186   0.319  13.452  1.00  0.00    -0.206 F 
ATOM     81  C   UNL     1     -19.935  -0.548  14.757  1.00  0.00     0.040 A 
ATOM     82  C   UNL     1     -20.247  -2.932  14.923  1.00  0.00     0.040 A 
ATOM     83  F   UNL     1     -18.791  -4.387  13.797  1.00  0.00    -0.206 F 
ATOM     84  C   UNL     1     -20.646  -1.639  15.256  1.00  0.00     0.006 A 
ENDBRANCH  60  77
ENDBRANCH  34  35
ENDBRANCH  26  29
ENDBRANCH  24  25
ENDBRANCH   1  24
TORSDOF 12
