REMARK SMILES Cc1noc2c1-c1c(c(C(=O)NCCCCNC(=O)c3ccc(-c4c5nc(c(-c6c(F)cccc6F)c6ccc([nH]6)c(-c6c(F)cccc6F)c6nc(c(-c7c(F)cccc7F)c7ccc4[nH]7)C=C6)C=C5)cc3)nn1C)CC2
REMARK SMILES IDX 15 1 14 2 13 3 12 4 10 5 11 6 9 8 1 9 2 10 3 11 6 12 4 13
REMARK SMILES IDX 5 14 7 15 78 16 8 17 75 18 77 19 74 20 76 21 16 22 17 23
REMARK SMILES IDX 18 24 19 26 20 27 21 28 73 29 22 30 72 31 23 32 24 33 25 34
REMARK SMILES IDX 66 35 26 36 71 37 65 38 67 39 27 40 70 41 64 42 63 43 28 45
REMARK SMILES IDX 54 46 37 47 53 48 38 49 41 50 52 51 68 52 39 53 40 54 51 56
REMARK SMILES IDX 69 57 42 58 29 59 30 60 35 61 31 62 32 63 34 64 36 65 33 66
REMARK SMILES IDX 55 67 56 68 61 69 57 70 58 71 60 72 62 73 59 74 43 75 44 76
REMARK SMILES IDX 49 77 45 78 46 79 48 80 50 81 47 82
REMARK H PARENT 12 7 17 25 67 44 41 55
REMARK Flexibility Score: inf
ROOT
ATOM      1  C   UNL     1      -3.259   7.432  -4.745  1.00  0.00     0.023 C 
ENDROOT
BRANCH   1   2
ATOM      2  C   UNL     1      -2.901   6.284  -3.808  1.00  0.00     0.023 C 
BRANCH   2   3
ATOM      3  C   UNL     1      -1.449   5.832  -3.705  1.00  0.00     0.116 C 
BRANCH   3   4
ATOM      4  N   UNL     1      -0.478   6.662  -3.055  1.00  0.00    -0.351 N 
ATOM      5  C   UNL     1       0.613   6.245  -2.299  1.00  0.00     0.272 C 
ATOM      6  O   UNL     1       1.350   7.146  -1.885  1.00  0.00    -0.267 OA
ATOM      7  H   UNL     1      -0.595   7.635  -3.155  1.00  0.00     0.163 HD
BRANCH   5   8
ATOM      8  C   UNL     1       0.847   4.807  -1.942  1.00  0.00     0.154 A 
ATOM      9  C   UNL     1       0.871  -0.435   0.100  1.00  0.00     0.071 C 
ATOM     10  C   UNL     1       0.620  -0.089  -1.315  1.00  0.00     0.090 A 
ATOM     11  N   UNL     1       0.251  -1.069  -2.161  1.00  0.00    -0.084 NA
ATOM     12  C   UNL     1       0.663   1.151  -1.979  1.00  0.00     0.066 A 
ATOM     13  O   UNL     1       0.068  -0.468  -3.398  1.00  0.00    -0.360 OA
ATOM     14  C   UNL     1       0.325   0.849  -3.272  1.00  0.00     0.146 A 
ATOM     15  C   UNL     1       0.926   2.574  -1.681  1.00  0.00     0.077 A 
ATOM     16  C   UNL     1       0.268   1.745  -4.444  1.00  0.00     0.084 C 
ATOM     17  C   UNL     1       0.605   3.551  -2.619  1.00  0.00     0.012 A 
ATOM     18  N   UNL     1       1.448   3.219  -0.610  1.00  0.00    -0.267 N 
ATOM     19  C   UNL     1       0.028   3.198  -3.977  1.00  0.00     0.048 C 
ATOM     20  N   UNL     1       1.404   4.554  -0.734  1.00  0.00    -0.167 NA
ATOM     21  C   UNL     1       2.081   2.656   0.557  1.00  0.00     0.174 C 
ENDBRANCH   5   8
ENDBRANCH   3   4
ENDBRANCH   2   3
ENDBRANCH   1   2
BRANCH   1  22
ATOM     22  C   UNL     1      -2.791   7.270  -6.180  1.00  0.00     0.116 C 
BRANCH  22  23
ATOM     23  N   UNL     1      -3.435   6.194  -6.946  1.00  0.00    -0.352 N 
ATOM     24  C   UNL     1      -3.372   6.014  -8.326  1.00  0.00     0.251 C 
ATOM     25  H   UNL     1      -3.962   5.537  -6.435  1.00  0.00     0.163 HD
ATOM     26  O   UNL     1      -4.132   5.260  -8.927  1.00  0.00    -0.269 OA
BRANCH  24  27
ATOM     27  C   UNL     1      -2.317   6.745  -9.047  1.00  0.00     0.039 A 
ATOM     28  C   UNL     1      -2.544   7.521 -10.188  1.00  0.00     0.014 A 
ATOM     29  C   UNL     1      -1.085   6.744  -8.412  1.00  0.00     0.014 A 
ATOM     30  C   UNL     1      -1.523   8.367 -10.626  1.00  0.00     0.010 A 
ATOM     31  C   UNL     1      -0.225   7.766  -8.667  1.00  0.00     0.010 A 
ATOM     32  C   UNL     1      -0.368   8.492  -9.840  1.00  0.00    -0.014 A 
BRANCH  32  33
ATOM     33  C   UNL     1       0.724   9.399 -10.159  1.00  0.00     0.031 A 
ATOM     34  C   UNL     1       0.348  10.828 -10.319  1.00  0.00     0.074 A 
ATOM     35  C   UNL     1       2.011   8.993 -10.039  1.00  0.00     0.049 A 
ATOM     36  N   UNL     1       0.426  11.551 -11.386  1.00  0.00    -0.248 NA
ATOM     37  C   UNL     1      -0.304  11.509  -9.188  1.00  0.00     0.031 C 
ATOM     38  C   UNL     1       2.535   7.691  -9.589  1.00  0.00     0.029 A 
ATOM     39  N   UNL     1       3.148   9.717 -10.195  1.00  0.00    -0.354 N 
ATOM     40  C   UNL     1       0.039  12.835 -11.010  1.00  0.00     0.074 A 
ATOM     41  C   UNL     1      -0.569  12.709  -9.711  1.00  0.00     0.031 C 
ATOM     42  C   UNL     1       3.843   7.801  -9.277  1.00  0.00     0.029 A 
ATOM     43  C   UNL     1       4.295   9.110  -9.697  1.00  0.00     0.049 A 
ATOM     44  H   UNL     1       3.159  10.602 -10.628  1.00  0.00     0.167 HD
ATOM     45  C   UNL     1       0.480  13.931 -11.690  1.00  0.00     0.037 A 
ATOM     46  C   UNL     1       5.533   9.655  -9.629  1.00  0.00     0.037 A 
ATOM     47  C   UNL     1       1.018  13.565 -12.977  1.00  0.00     0.049 A 
ATOM     48  C   UNL     1       5.559  10.775 -10.602  1.00  0.00     0.074 A 
ATOM     49  C   UNL     1       0.511  12.943 -14.101  1.00  0.00     0.029 A 
ATOM     50  N   UNL     1       2.384  13.482 -13.097  1.00  0.00    -0.354 N 
ATOM     51  N   UNL     1       5.452  10.604 -11.893  1.00  0.00    -0.248 NA
ATOM     52  C   UNL     1       5.188  12.094 -10.113  1.00  0.00     0.031 C 
ATOM     53  C   UNL     1       1.561  12.087 -14.550  1.00  0.00     0.029 A 
ATOM     54  C   UNL     1       2.666  12.293 -13.722  1.00  0.00     0.049 A 
ATOM     55  H   UNL     1       3.039  14.151 -12.791  1.00  0.00     0.167 HD
ATOM     56  C   UNL     1       4.616  11.627 -12.321  1.00  0.00     0.074 A 
ATOM     57  C   UNL     1       4.540  12.551 -11.189  1.00  0.00     0.031 C 
ATOM     58  C   UNL     1       3.830  11.486 -13.430  1.00  0.00     0.037 A 
BRANCH  45  59
ATOM     59  C   UNL     1       0.782  15.265 -11.053  1.00  0.00     0.057 A 
ATOM     60  C   UNL     1       1.079  16.367 -11.876  1.00  0.00     0.134 A 
ATOM     61  C   UNL     1       1.091  15.438  -9.688  1.00  0.00     0.134 A 
ATOM     62  F   UNL     1       0.839  16.324 -13.195  1.00  0.00    -0.206 F 
ATOM     63  C   UNL     1       1.710  17.519 -11.390  1.00  0.00     0.040 A 
ATOM     64  C   UNL     1       1.675  16.604  -9.184  1.00  0.00     0.040 A 
ATOM     65  F   UNL     1       0.943  14.459  -8.788  1.00  0.00    -0.206 F 
ATOM     66  C   UNL     1       2.020  17.636 -10.041  1.00  0.00     0.006 A 
ENDBRANCH  45  59
BRANCH  46  67
ATOM     67  C   UNL     1       6.520   9.493  -8.539  1.00  0.00     0.057 A 
ATOM     68  C   UNL     1       7.873   9.802  -8.720  1.00  0.00     0.134 A 
ATOM     69  C   UNL     1       6.107   9.277  -7.210  1.00  0.00     0.134 A 
ATOM     70  F   UNL     1       8.349  10.069  -9.944  1.00  0.00    -0.206 F 
ATOM     71  C   UNL     1       8.764   9.901  -7.642  1.00  0.00     0.040 A 
ATOM     72  C   UNL     1       6.986   9.370  -6.125  1.00  0.00     0.040 A 
ATOM     73  F   UNL     1       4.819   9.051  -6.915  1.00  0.00    -0.206 F 
ATOM     74  C   UNL     1       8.319   9.695  -6.338  1.00  0.00     0.006 A 
ENDBRANCH  46  67
BRANCH  58  75
ATOM     75  C   UNL     1       4.030  10.262 -14.288  1.00  0.00     0.057 A 
ATOM     76  C   UNL     1       3.724   8.956 -13.874  1.00  0.00     0.134 A 
ATOM     77  C   UNL     1       4.376  10.424 -15.632  1.00  0.00     0.134 A 
ATOM     78  F   UNL     1       3.284   8.707 -12.638  1.00  0.00    -0.206 F 
ATOM     79  C   UNL     1       3.792   7.861 -14.742  1.00  0.00     0.040 A 
ATOM     80  C   UNL     1       4.421   9.343 -16.519  1.00  0.00     0.040 A 
ATOM     81  F   UNL     1       4.623  11.649 -16.120  1.00  0.00    -0.206 F 
ATOM     82  C   UNL     1       4.136   8.055 -16.074  1.00  0.00     0.006 A 
ENDBRANCH  58  75
ENDBRANCH  32  33
ENDBRANCH  24  27
ENDBRANCH  22  23
ENDBRANCH   1  22
TORSDOF 11
