REMARK SMILES COc1cccc(/C=C2/C(=O)N(c3cccc(C(=O)NCCCCNC(=O)c4ccc(-c5c6nc(c(-c7c(F)cccc7F)c7ccc([nH]7)c(-c7c(F)cccc7F)c7nc(c(-c8c(F)cccc8F)c8ccc5[nH]8)C=C7)C=C6)cc4)c3)N=C2C)c1
REMARK SMILES IDX 22 1 21 2 20 3 18 4 19 5 17 7 13 8 14 9 82 10 15 11 16 12
REMARK SMILES IDX 12 13 8 14 9 15 10 16 84 17 11 18 83 19 85 20 7 21 3 22 4 23
REMARK SMILES IDX 86 24 5 25 6 26 2 27 1 28 23 29 24 30 25 31 26 32 27 34
REMARK SMILES IDX 28 35 29 36 81 37 30 38 80 39 31 40 32 41 33 42 74 43 34 44
REMARK SMILES IDX 79 45 73 46 75 47 35 48 78 49 72 50 71 51 36 53 62 54 45 55
REMARK SMILES IDX 61 56 46 57 49 58 60 59 76 60 47 61 48 62 59 64 77 65 50 66
REMARK SMILES IDX 37 67 38 68 43 69 39 70 40 71 42 72 44 73 41 74 63 75 64 76
REMARK SMILES IDX 69 77 65 78 66 79 68 80 70 81 67 82 51 83 52 84 57 85 53 86
REMARK SMILES IDX 54 87 56 88 58 89 55 90
REMARK H PARENT 20 6 25 33 75 52 49 63
REMARK Flexibility Score: inf
ROOT
ATOM      1  C   UNL     1       9.113  -0.535  -1.355  1.00  0.00     0.023 C 
ENDROOT
BRANCH   1   2
ATOM      2  C   UNL     1       9.448  -2.008  -1.155  1.00  0.00     0.116 C 
BRANCH   2   3
ATOM      3  N   UNL     1      10.834  -2.275  -0.795  1.00  0.00    -0.352 N 
ATOM      4  C   UNL     1      11.387  -3.057   0.201  1.00  0.00     0.251 C 
ATOM      5  O   UNL     1      12.613  -3.114   0.289  1.00  0.00    -0.269 OA
ATOM      6  H   UNL     1      11.495  -1.817  -1.363  1.00  0.00     0.163 HD
BRANCH   4   7
ATOM      7  C   UNL     1      10.552  -3.745   1.223  1.00  0.00     0.041 A 
ATOM      8  C   UNL     1       8.367  -4.459   1.967  1.00  0.00     0.069 A 
ATOM      9  C   UNL     1       8.835  -4.464   3.289  1.00  0.00     0.028 A 
ATOM     10  C   UNL     1       9.282  -4.246   0.935  1.00  0.00     0.042 A 
ATOM     11  C   UNL     1      10.176  -4.194   3.570  1.00  0.00     0.003 A 
ATOM     12  C   UNL     1      11.023  -3.788   2.541  1.00  0.00     0.014 A 
BRANCH   8  13
ATOM     13  N   UNL     1       6.976  -4.480   1.698  1.00  0.00    -0.196 N 
ATOM     14  C   UNL     1       3.999  -4.294  -0.209  1.00  0.00     0.024 C 
ATOM     15  C   UNL     1       4.954  -4.215   0.728  1.00  0.00     0.065 C 
ATOM     16  C   UNL     1       6.354  -4.622   0.447  1.00  0.00     0.280 C 
ATOM     17  C   UNL     1       4.972  -3.792   2.139  1.00  0.00     0.071 C 
ATOM     18  O   UNL     1       6.790  -4.945  -0.640  1.00  0.00    -0.267 OA
ATOM     19  N   UNL     1       6.137  -3.993   2.698  1.00  0.00    -0.169 NA
ATOM     20  C   UNL     1       3.847  -3.124   2.856  1.00  0.00     0.069 C 
BRANCH  14  21
ATOM     21  C   UNL     1       2.590  -3.963  -0.011  1.00  0.00    -0.021 A 
ATOM     22  C   UNL     1       0.837  -2.321   0.320  1.00  0.00     0.119 A 
ATOM     23  C   UNL     1      -0.074  -3.357   0.537  1.00  0.00     0.046 A 
ATOM     24  C   UNL     1       2.167  -2.627   0.029  1.00  0.00     0.054 A 
ATOM     25  C   UNL     1       0.329  -4.689   0.444  1.00  0.00     0.004 A 
ATOM     26  C   UNL     1       1.662  -4.993   0.174  1.00  0.00     0.008 A 
BRANCH  22  27
ATOM     27  O   UNL     1       0.326  -1.063   0.479  1.00  0.00    -0.497 OA
ATOM     28  C   UNL     1       1.035  -0.003  -0.150  1.00  0.00     0.278 C 
ENDBRANCH  22  27
ENDBRANCH  14  21
ENDBRANCH   8  13
ENDBRANCH   4   7
ENDBRANCH   2   3
ENDBRANCH   1   2
BRANCH   1  29
ATOM     29  C   UNL     1       9.794   0.161  -2.524  1.00  0.00     0.023 C 
BRANCH  29  30
ATOM     30  C   UNL     1       9.679  -0.541  -3.870  1.00  0.00     0.116 C 
BRANCH  30  31
ATOM     31  N   UNL     1       8.307  -0.786  -4.291  1.00  0.00    -0.352 N 
ATOM     32  C   UNL     1       7.700  -0.515  -5.495  1.00  0.00     0.251 C 
ATOM     33  H   UNL     1       7.729  -1.208  -3.615  1.00  0.00     0.163 HD
ATOM     34  O   UNL     1       6.493  -0.694  -5.631  1.00  0.00    -0.269 OA
BRANCH  32  35
ATOM     35  C   UNL     1       8.497   0.027  -6.618  1.00  0.00     0.039 A 
ATOM     36  C   UNL     1       7.976   1.083  -7.370  1.00  0.00     0.014 A 
ATOM     37  C   UNL     1       9.759  -0.490  -6.919  1.00  0.00     0.014 A 
ATOM     38  C   UNL     1       8.750   1.662  -8.378  1.00  0.00     0.010 A 
ATOM     39  C   UNL     1      10.566   0.153  -7.851  1.00  0.00     0.010 A 
ATOM     40  C   UNL     1      10.067   1.226  -8.603  1.00  0.00    -0.014 A 
BRANCH  40  41
ATOM     41  C   UNL     1      10.922   1.862  -9.638  1.00  0.00     0.031 A 
ATOM     42  C   UNL     1      11.430   1.049 -10.800  1.00  0.00     0.074 A 
ATOM     43  C   UNL     1      11.281   3.155  -9.513  1.00  0.00     0.049 A 
ATOM     44  N   UNL     1      12.209   1.413 -11.787  1.00  0.00    -0.248 NA
ATOM     45  C   UNL     1      11.033  -0.368 -10.843  1.00  0.00     0.031 C 
ATOM     46  C   UNL     1      10.901   4.037  -8.407  1.00  0.00     0.029 A 
ATOM     47  N   UNL     1      12.047   3.953 -10.324  1.00  0.00    -0.354 N 
ATOM     48  C   UNL     1      12.401   0.271 -12.556  1.00  0.00     0.074 A 
ATOM     49  C   UNL     1      11.719  -0.811 -11.885  1.00  0.00     0.031 C 
ATOM     50  C   UNL     1      11.405   5.262  -8.628  1.00  0.00     0.029 A 
ATOM     51  C   UNL     1      12.175   5.243  -9.868  1.00  0.00     0.049 A 
ATOM     52  H   UNL     1      12.466   3.632 -11.155  1.00  0.00     0.167 HD
ATOM     53  C   UNL     1      13.059   0.141 -13.733  1.00  0.00     0.037 A 
ATOM     54  C   UNL     1      12.839   6.292 -10.390  1.00  0.00     0.037 A 
ATOM     55  C   UNL     1      13.724   1.224 -14.409  1.00  0.00     0.049 A 
ATOM     56  C   UNL     1      13.572   6.120 -11.693  1.00  0.00     0.074 A 
ATOM     57  C   UNL     1      14.380   1.207 -15.627  1.00  0.00     0.029 A 
ATOM     58  N   UNL     1      13.820   2.518 -13.920  1.00  0.00    -0.354 N 
ATOM     59  N   UNL     1      13.685   5.051 -12.446  1.00  0.00    -0.248 NA
ATOM     60  C   UNL     1      14.259   7.304 -12.226  1.00  0.00     0.031 C 
ATOM     61  C   UNL     1      14.918   2.478 -15.850  1.00  0.00     0.029 A 
ATOM     62  C   UNL     1      14.542   3.304 -14.803  1.00  0.00     0.049 A 
ATOM     63  H   UNL     1      13.433   2.832 -13.070  1.00  0.00     0.167 HD
ATOM     64  C   UNL     1      14.421   5.445 -13.557  1.00  0.00     0.074 A 
ATOM     65  C   UNL     1      14.714   6.852 -13.385  1.00  0.00     0.031 C 
ATOM     66  C   UNL     1      14.816   4.708 -14.625  1.00  0.00     0.037 A 
BRANCH  53  67
ATOM     67  C   UNL     1      13.086  -1.223 -14.363  1.00  0.00     0.057 A 
ATOM     68  C   UNL     1      11.929  -1.822 -14.882  1.00  0.00     0.134 A 
ATOM     69  C   UNL     1      14.285  -1.938 -14.476  1.00  0.00     0.134 A 
ATOM     70  F   UNL     1      10.743  -1.200 -14.796  1.00  0.00    -0.206 F 
ATOM     71  C   UNL     1      11.958  -3.093 -15.459  1.00  0.00     0.040 A 
ATOM     72  C   UNL     1      14.333  -3.195 -15.081  1.00  0.00     0.040 A 
ATOM     73  F   UNL     1      15.432  -1.423 -14.007  1.00  0.00    -0.206 F 
ATOM     74  C   UNL     1      13.165  -3.780 -15.566  1.00  0.00     0.006 A 
ENDBRANCH  53  67
BRANCH  54  75
ATOM     75  C   UNL     1      12.818   7.610  -9.703  1.00  0.00     0.057 A 
ATOM     76  C   UNL     1      12.158   8.709 -10.266  1.00  0.00     0.134 A 
ATOM     77  C   UNL     1      13.472   7.809  -8.482  1.00  0.00     0.134 A 
ATOM     78  F   UNL     1      11.527   8.588 -11.443  1.00  0.00    -0.206 F 
ATOM     79  C   UNL     1      12.173   9.965  -9.655  1.00  0.00     0.040 A 
ATOM     80  C   UNL     1      13.470   9.052  -7.845  1.00  0.00     0.040 A 
ATOM     81  F   UNL     1      14.115   6.796  -7.883  1.00  0.00    -0.206 F 
ATOM     82  C   UNL     1      12.828  10.137  -8.438  1.00  0.00     0.006 A 
ENDBRANCH  54  75
BRANCH  66  83
ATOM     83  C   UNL     1      15.557   5.424 -15.718  1.00  0.00     0.057 A 
ATOM     84  C   UNL     1      16.860   5.908 -15.546  1.00  0.00     0.134 A 
ATOM     85  C   UNL     1      14.961   5.610 -16.973  1.00  0.00     0.134 A 
ATOM     86  F   UNL     1      17.486   5.773 -14.367  1.00  0.00    -0.206 F 
ATOM     87  C   UNL     1      17.529   6.582 -16.569  1.00  0.00     0.040 A 
ATOM     88  C   UNL     1      15.632   6.252 -18.014  1.00  0.00     0.040 A 
ATOM     89  F   UNL     1      13.719   5.161 -17.212  1.00  0.00    -0.206 F 
ATOM     90  C   UNL     1      16.917   6.750 -17.810  1.00  0.00     0.006 A 
ENDBRANCH  66  83
ENDBRANCH  40  41
ENDBRANCH  32  35
ENDBRANCH  30  31
ENDBRANCH  29  30
ENDBRANCH   1  29
TORSDOF 14
