REMARK SMILES CC(C)(C)OCC[C@@H]1CCC[C@]1([NH2+]C1CC1)C(=O)NCCCCNC(=O)c1ccc(-c2c3nc(c(-c4c(F)cccc4F)c4ccc([nH]4)c(-c4c(F)cccc4F)c4nc(c(-c5c(F)cccc5F)c5ccc2[nH]5)C=C4)C=C3)cc1
REMARK SMILES IDX 20 1 19 2 17 3 18 4 12 6 8 7 9 8 10 9 11 10 7 11 6 12 5 13
REMARK SMILES IDX 2 14 1 15 3 16 4 17 13 18 14 21 15 22 16 23 21 24 22 25
REMARK SMILES IDX 23 26 24 27 25 28 26 30 27 31 28 32 80 33 29 34 79 35 30 36
REMARK SMILES IDX 31 37 32 38 73 39 33 40 78 41 72 42 74 43 34 44 77 45 71 46
REMARK SMILES IDX 70 47 35 49 61 50 44 51 60 52 45 53 48 54 59 55 75 56 46 57
REMARK SMILES IDX 47 58 58 60 76 61 49 62 36 63 37 64 42 65 38 66 39 67 41 68
REMARK SMILES IDX 43 69 40 70 62 71 63 72 68 73 64 74 65 75 67 76 69 77 66 78
REMARK SMILES IDX 50 79 51 80 56 81 52 82 53 83 55 84 57 85 54 86
REMARK H PARENT 19 5 13 19 13 20 24 29 74 48 48 59
REMARK Flexibility Score: inf
ROOT
ATOM      1  C   UNL     1       0.276   2.421  -5.848  1.00  0.00     0.116 C 
ENDROOT
BRANCH   1   2
ATOM      2  N   UNL     1       0.726   1.246  -6.574  1.00  0.00    -0.351 N 
ATOM      3  C   UNL     1       0.517  -0.088  -6.368  1.00  0.00     0.281 C 
ATOM      4  O   UNL     1       0.994  -0.837  -7.231  1.00  0.00    -0.268 OA
ATOM      5  H   UNL     1       1.284   1.449  -7.359  1.00  0.00     0.163 HD
BRANCH   3   6
ATOM      6  C   UNL     1      -0.226  -0.671  -5.114  1.00  0.00     0.178 C 
ATOM      7  C   UNL     1       0.676  -0.724  -3.836  1.00  0.00     0.063 C 
ATOM      8  C   UNL     1       1.652  -1.859  -4.162  1.00  0.00     0.011 C 
ATOM      9  C   UNL     1       0.763  -2.934  -4.751  1.00  0.00     0.008 C 
ATOM     10  C   UNL     1      -0.476  -2.205  -5.277  1.00  0.00     0.079 C 
BRANCH   7  11
ATOM     11  C   UNL     1       1.463   0.486  -3.342  1.00  0.00     0.039 C 
BRANCH  11  12
ATOM     12  C   UNL     1       0.676   1.445  -2.451  1.00  0.00     0.161 C 
BRANCH  12  13
ATOM     13  O   UNL     1       1.017   1.345  -1.070  1.00  0.00    -0.376 OA
BRANCH  13  14
ATOM     14  C   UNL     1       0.543   0.254  -0.271  1.00  0.00     0.060 C 
ATOM     15  C   UNL     1       0.805   0.700   1.178  1.00  0.00     0.042 C 
ATOM     16  C   UNL     1       1.363  -1.023  -0.502  1.00  0.00     0.042 C 
ATOM     17  C   UNL     1      -0.962   0.007  -0.426  1.00  0.00     0.042 C 
ENDBRANCH  13  14
ENDBRANCH  12  13
ENDBRANCH  11  12
ENDBRANCH   7  11
BRANCH   6  18
ATOM     18  N   UNL     1      -1.507   0.031  -4.872  1.00  0.00    -0.331 N 
ATOM     19  H   UNL     1      -1.269   0.975  -4.567  1.00  0.00     0.347 HD
ATOM     20  H   UNL     1      -1.981  -0.578  -4.205  1.00  0.00     0.347 HD
BRANCH  18  21
ATOM     21  C   UNL     1      -2.497   0.173  -5.955  1.00  0.00     0.183 C 
ATOM     22  C   UNL     1      -2.512  -0.543  -7.275  1.00  0.00     0.071 C 
ATOM     23  C   UNL     1      -3.470  -0.956  -6.201  1.00  0.00     0.071 C 
ENDBRANCH  18  21
ENDBRANCH   6  18
ENDBRANCH   3   6
ENDBRANCH   1   2
BRANCH   1  24
ATOM     24  C   UNL     1       1.435   3.328  -5.413  1.00  0.00     0.023 C 
BRANCH  24  25
ATOM     25  C   UNL     1       2.219   3.971  -6.546  1.00  0.00     0.023 C 
BRANCH  25  26
ATOM     26  C   UNL     1       1.419   4.986  -7.338  1.00  0.00     0.116 C 
BRANCH  26  27
ATOM     27  N   UNL     1       0.972   6.108  -6.521  1.00  0.00    -0.352 N 
ATOM     28  C   UNL     1       1.185   7.456  -6.710  1.00  0.00     0.251 C 
ATOM     29  H   UNL     1       0.445   5.869  -5.724  1.00  0.00     0.163 HD
ATOM     30  O   UNL     1       0.885   8.268  -5.854  1.00  0.00    -0.269 OA
BRANCH  28  31
ATOM     31  C   UNL     1       1.816   7.889  -7.971  1.00  0.00     0.039 A 
ATOM     32  C   UNL     1       2.911   8.753  -7.928  1.00  0.00     0.014 A 
ATOM     33  C   UNL     1       1.369   7.358  -9.183  1.00  0.00     0.014 A 
ATOM     34  C   UNL     1       3.613   9.020  -9.104  1.00  0.00     0.010 A 
ATOM     35  C   UNL     1       2.134   7.534 -10.324  1.00  0.00     0.010 A 
ATOM     36  C   UNL     1       3.256   8.376 -10.300  1.00  0.00    -0.014 A 
BRANCH  36  37
ATOM     37  C   UNL     1       4.010   8.583 -11.558  1.00  0.00     0.031 A 
ATOM     38  C   UNL     1       3.298   9.156 -12.752  1.00  0.00     0.074 A 
ATOM     39  C   UNL     1       5.289   8.172 -11.655  1.00  0.00     0.049 A 
ATOM     40  N   UNL     1       3.720   9.289 -13.983  1.00  0.00    -0.248 NA
ATOM     41  C   UNL     1       1.907   9.594 -12.544  1.00  0.00     0.031 C 
ATOM     42  C   UNL     1       6.067   7.546 -10.583  1.00  0.00     0.029 A 
ATOM     43  N   UNL     1       6.157   8.209 -12.716  1.00  0.00    -0.354 N 
ATOM     44  C   UNL     1       2.638   9.791 -14.695  1.00  0.00     0.074 A 
ATOM     45  C   UNL     1       1.525   9.878 -13.778  1.00  0.00     0.031 C 
ATOM     46  C   UNL     1       7.305   7.285 -11.034  1.00  0.00     0.029 A 
ATOM     47  C   UNL     1       7.396   7.688 -12.433  1.00  0.00     0.049 A 
ATOM     48  H   UNL     1       5.915   8.574 -13.598  1.00  0.00     0.167 HD
ATOM     49  C   UNL     1       2.587  10.177 -15.991  1.00  0.00     0.037 A 
ATOM     50  C   UNL     1       8.480   7.551 -13.219  1.00  0.00     0.037 A 
ATOM     51  C   UNL     1       3.713  10.140 -16.882  1.00  0.00     0.049 A 
ATOM     52  C   UNL     1       8.408   8.017 -14.647  1.00  0.00     0.074 A 
ATOM     53  C   UNL     1       3.791  10.574 -18.193  1.00  0.00     0.029 A 
ATOM     54  N   UNL     1       4.966   9.652 -16.543  1.00  0.00    -0.354 N 
ATOM     55  N   UNL     1       7.397   8.546 -15.293  1.00  0.00    -0.248 NA
ATOM     56  C   UNL     1       9.628   7.872 -15.454  1.00  0.00     0.031 C 
ATOM     57  C   UNL     1       5.086  10.321 -18.657  1.00  0.00     0.029 A 
ATOM     58  C   UNL     1       5.823   9.765 -17.623  1.00  0.00     0.049 A 
ATOM     59  H   UNL     1       5.209   9.279 -15.664  1.00  0.00     0.167 HD
ATOM     60  C   UNL     1       7.865   8.822 -16.571  1.00  0.00     0.074 A 
ATOM     61  C   UNL     1       9.255   8.413 -16.605  1.00  0.00     0.031 C 
ATOM     62  C   UNL     1       7.206   9.365 -17.623  1.00  0.00     0.037 A 
BRANCH  49  63
ATOM     63  C   UNL     1       1.274  10.688 -16.506  1.00  0.00     0.057 A 
ATOM     64  C   UNL     1       0.748  11.919 -16.090  1.00  0.00     0.134 A 
ATOM     65  C   UNL     1       0.531   9.949 -17.434  1.00  0.00     0.134 A 
ATOM     66  F   UNL     1       1.401  12.667 -15.188  1.00  0.00    -0.206 F 
ATOM     67  C   UNL     1      -0.484  12.382 -16.555  1.00  0.00     0.040 A 
ATOM     68  C   UNL     1      -0.689  10.414 -17.928  1.00  0.00     0.040 A 
ATOM     69  F   UNL     1       0.977   8.763 -17.875  1.00  0.00    -0.206 F 
ATOM     70  C   UNL     1      -1.203  11.631 -17.483  1.00  0.00     0.006 A 
ENDBRANCH  49  63
BRANCH  50  71
ATOM     71  C   UNL     1       9.736   6.983 -12.668  1.00  0.00     0.057 A 
ATOM     72  C   UNL     1      10.856   7.795 -12.450  1.00  0.00     0.134 A 
ATOM     73  C   UNL     1       9.854   5.624 -12.355  1.00  0.00     0.134 A 
ATOM     74  F   UNL     1      10.809   9.102 -12.747  1.00  0.00    -0.206 F 
ATOM     75  C   UNL     1      12.054   7.273 -11.961  1.00  0.00     0.040 A 
ATOM     76  C   UNL     1      11.040   5.093 -11.844  1.00  0.00     0.040 A 
ATOM     77  F   UNL     1       8.816   4.795 -12.533  1.00  0.00    -0.206 F 
ATOM     78  C   UNL     1      12.147   5.918 -11.653  1.00  0.00     0.006 A 
ENDBRANCH  50  71
BRANCH  62  79
ATOM     79  C   UNL     1       7.989   9.584 -18.882  1.00  0.00     0.057 A 
ATOM     80  C   UNL     1       8.341   8.523 -19.724  1.00  0.00     0.134 A 
ATOM     81  C   UNL     1       8.348  10.878 -19.280  1.00  0.00     0.134 A 
ATOM     82  F   UNL     1       8.036   7.259 -19.391  1.00  0.00    -0.206 F 
ATOM     83  C   UNL     1       9.038   8.740 -20.913  1.00  0.00     0.040 A 
ATOM     84  C   UNL     1       9.024  11.109 -20.477  1.00  0.00     0.040 A 
ATOM     85  F   UNL     1       8.031  11.937 -18.519  1.00  0.00    -0.206 F 
ATOM     86  C   UNL     1       9.374  10.037 -21.296  1.00  0.00     0.006 A 
ENDBRANCH  62  79
ENDBRANCH  36  37
ENDBRANCH  28  31
ENDBRANCH  26  27
ENDBRANCH  25  26
ENDBRANCH  24  25
ENDBRANCH   1  24
TORSDOF 17
