REMARK SMILES C[NH2+][C@]1(C(=O)NCCCCNC(=O)c2ccc(-c3c4nc(c(-c5c(F)cccc5F)c5ccc([nH]5)c(-c5c(F)cccc5F)c5nc(c(-c6c(F)cccc6F)c6ccc3[nH]6)C=C5)C=C4)cc2)CCC[C@@H]1CCn1cc(C)cn1
REMARK SMILES IDX 8 1 7 2 6 3 4 4 5 5 3 7 68 8 71 9 69 10 70 11 2 12 1 13
REMARK SMILES IDX 72 16 73 17 74 18 75 19 79 20 76 21 78 22 77 23 9 24 10 25
REMARK SMILES IDX 11 26 12 27 13 29 14 30 15 31 67 32 16 33 66 34 17 35 18 36
REMARK SMILES IDX 19 37 60 38 20 39 65 40 59 41 61 42 21 43 64 44 58 45 57 46
REMARK SMILES IDX 22 48 48 49 31 50 47 51 32 52 35 53 46 54 62 55 33 56 34 57
REMARK SMILES IDX 45 59 63 60 36 61 23 62 24 63 29 64 25 65 26 66 28 67 30 68
REMARK SMILES IDX 27 69 49 70 50 71 55 72 51 73 52 74 54 75 56 76 53 77 37 78
REMARK SMILES IDX 38 79 43 80 39 81 40 82 42 83 44 84 41 85
REMARK H PARENT 6 6 2 14 2 15 11 28 61 47 35 58
REMARK Flexibility Score: inf
ROOT
ATOM      1  C   UNL     1       0.766   3.157  -3.676  1.00  0.00     0.023 C 
ENDROOT
BRANCH   1   2
ATOM      2  C   UNL     1       0.532   1.712  -3.241  1.00  0.00     0.116 C 
BRANCH   2   3
ATOM      3  N   UNL     1       1.014   1.480  -1.891  1.00  0.00    -0.351 N 
ATOM      4  C   UNL     1       0.378   1.332  -0.699  1.00  0.00     0.281 C 
ATOM      5  O   UNL     1       1.114   1.078   0.266  1.00  0.00    -0.268 OA
ATOM      6  H   UNL     1       1.995   1.419  -1.827  1.00  0.00     0.163 HD
BRANCH   4   7
ATOM      7  C   UNL     1      -1.181   1.365  -0.526  1.00  0.00     0.178 C 
ATOM      8  C   UNL     1      -1.927   2.526  -1.206  1.00  0.00     0.079 C 
ATOM      9  C   UNL     1      -1.788   0.128  -1.253  1.00  0.00     0.062 C 
ATOM     10  C   UNL     1      -3.347   2.017  -1.432  1.00  0.00     0.008 C 
ATOM     11  C   UNL     1      -3.254   0.495  -1.530  1.00  0.00     0.011 C 
BRANCH   7  12
ATOM     12  N   UNL     1      -1.530   1.284   0.931  1.00  0.00    -0.336 N 
ATOM     13  C   UNL     1      -1.224   2.493   1.695  1.00  0.00     0.331 C 
ATOM     14  H   UNL     1      -2.530   1.102   1.010  1.00  0.00     0.346 HD
ATOM     15  H   UNL     1      -0.956   0.539   1.325  1.00  0.00     0.346 HD
ENDBRANCH   7  12
BRANCH   9  16
ATOM     16  C   UNL     1      -1.620  -1.225  -0.534  1.00  0.00     0.034 C 
BRANCH  16  17
ATOM     17  C   UNL     1      -1.700  -2.423  -1.485  1.00  0.00     0.144 C 
BRANCH  17  18
ATOM     18  N   UNL     1      -0.511  -2.553  -2.313  1.00  0.00    -0.272 N 
ATOM     19  C   UNL     1       0.703  -3.041  -1.920  1.00  0.00     0.112 A 
ATOM     20  N   UNL     1      -0.527  -2.142  -3.596  1.00  0.00    -0.181 NA
ATOM     21  C   UNL     1       1.536  -2.947  -3.015  1.00  0.00    -0.013 A 
ATOM     22  C   UNL     1       0.713  -2.394  -4.022  1.00  0.00     0.138 A 
ATOM     23  C   UNL     1       2.960  -3.333  -3.119  1.00  0.00     0.048 C 
ENDBRANCH  17  18
ENDBRANCH  16  17
ENDBRANCH   9  16
ENDBRANCH   4   7
ENDBRANCH   2   3
ENDBRANCH   1   2
BRANCH   1  24
ATOM     24  C   UNL     1       2.230   3.508  -3.937  1.00  0.00     0.023 C 
BRANCH  24  25
ATOM     25  C   UNL     1       2.931   2.631  -4.968  1.00  0.00     0.116 C 
BRANCH  25  26
ATOM     26  N   UNL     1       2.252   2.599  -6.255  1.00  0.00    -0.352 N 
ATOM     27  C   UNL     1       2.801   2.591  -7.513  1.00  0.00     0.251 C 
ATOM     28  H   UNL     1       1.268   2.581  -6.218  1.00  0.00     0.163 HD
ATOM     29  O   UNL     1       2.087   2.676  -8.508  1.00  0.00    -0.269 OA
BRANCH  27  30
ATOM     30  C   UNL     1       4.268   2.519  -7.659  1.00  0.00     0.039 A 
ATOM     31  C   UNL     1       4.909   3.442  -8.488  1.00  0.00     0.014 A 
ATOM     32  C   UNL     1       5.007   1.568  -6.949  1.00  0.00     0.014 A 
ATOM     33  C   UNL     1       6.303   3.457  -8.550  1.00  0.00     0.010 A 
ATOM     34  C   UNL     1       6.396   1.630  -6.959  1.00  0.00     0.010 A 
ATOM     35  C   UNL     1       7.056   2.576  -7.757  1.00  0.00    -0.014 A 
BRANCH  35  36
ATOM     36  C   UNL     1       8.538   2.632  -7.742  1.00  0.00     0.031 A 
ATOM     37  C   UNL     1       9.341   1.469  -8.250  1.00  0.00     0.074 A 
ATOM     38  C   UNL     1       9.157   3.698  -7.199  1.00  0.00     0.049 A 
ATOM     39  N   UNL     1      10.637   1.295  -8.246  1.00  0.00    -0.248 NA
ATOM     40  C   UNL     1       8.584   0.338  -8.810  1.00  0.00     0.031 C 
ATOM     41  C   UNL     1       8.487   4.865  -6.621  1.00  0.00     0.029 A 
ATOM     42  N   UNL     1      10.492   3.966  -7.033  1.00  0.00    -0.354 N 
ATOM     43  C   UNL     1      10.850   0.032  -8.781  1.00  0.00     0.074 A 
ATOM     44  C   UNL     1       9.548  -0.536  -9.056  1.00  0.00     0.031 C 
ATOM     45  C   UNL     1       9.414   5.730  -6.181  1.00  0.00     0.029 A 
ATOM     46  C   UNL     1      10.740   5.168  -6.415  1.00  0.00     0.049 A 
ATOM     47  H   UNL     1      11.206   3.355  -7.328  1.00  0.00     0.167 HD
ATOM     48  C   UNL     1      12.025  -0.589  -9.040  1.00  0.00     0.037 A 
ATOM     49  C   UNL     1      11.905   5.747  -6.071  1.00  0.00     0.037 A 
ATOM     50  C   UNL     1      13.318  -0.007  -8.798  1.00  0.00     0.049 A 
ATOM     51  C   UNL     1      13.196   5.046  -6.388  1.00  0.00     0.074 A 
ATOM     52  C   UNL     1      14.566  -0.526  -9.094  1.00  0.00     0.029 A 
ATOM     53  N   UNL     1      13.528   1.227  -8.202  1.00  0.00    -0.354 N 
ATOM     54  N   UNL     1      13.384   3.881  -6.959  1.00  0.00    -0.248 NA
ATOM     55  C   UNL     1      14.437   5.743  -6.020  1.00  0.00     0.031 C 
ATOM     56  C   UNL     1      15.534   0.379  -8.644  1.00  0.00     0.029 A 
ATOM     57  C   UNL     1      14.887   1.479  -8.105  1.00  0.00     0.049 A 
ATOM     58  H   UNL     1      12.817   1.835  -7.894  1.00  0.00     0.167 HD
ATOM     59  C   UNL     1      14.761   3.716  -7.041  1.00  0.00     0.074 A 
ATOM     60  C   UNL     1      15.360   4.906  -6.473  1.00  0.00     0.031 C 
ATOM     61  C   UNL     1      15.465   2.672  -7.542  1.00  0.00     0.037 A 
BRANCH  48  62
ATOM     62  C   UNL     1      11.962  -1.970  -9.622  1.00  0.00     0.057 A 
ATOM     63  C   UNL     1      11.552  -2.197 -10.942  1.00  0.00     0.134 A 
ATOM     64  C   UNL     1      12.345  -3.084  -8.864  1.00  0.00     0.134 A 
ATOM     65  F   UNL     1      11.160  -1.174 -11.717  1.00  0.00    -0.206 F 
ATOM     66  C   UNL     1      11.502  -3.483 -11.480  1.00  0.00     0.040 A 
ATOM     67  C   UNL     1      12.323  -4.373  -9.399  1.00  0.00     0.040 A 
ATOM     68  F   UNL     1      12.751  -2.937  -7.593  1.00  0.00    -0.206 F 
ATOM     69  C   UNL     1      11.894  -4.576 -10.709  1.00  0.00     0.006 A 
ENDBRANCH  48  62
BRANCH  49  70
ATOM     70  C   UNL     1      11.905   7.076  -5.412  1.00  0.00     0.057 A 
ATOM     71  C   UNL     1      12.324   8.221  -6.100  1.00  0.00     0.134 A 
ATOM     72  C   UNL     1      11.488   7.235  -4.086  1.00  0.00     0.134 A 
ATOM     73  F   UNL     1      12.752   8.127  -7.367  1.00  0.00    -0.206 F 
ATOM     74  C   UNL     1      12.345   9.475  -5.488  1.00  0.00     0.040 A 
ATOM     75  C   UNL     1      11.482   8.487  -3.468  1.00  0.00     0.040 A 
ATOM     76  F   UNL     1      11.068   6.178  -3.376  1.00  0.00    -0.206 F 
ATOM     77  C   UNL     1      11.918   9.610  -4.168  1.00  0.00     0.006 A 
ENDBRANCH  49  70
BRANCH  61  78
ATOM     78  C   UNL     1      16.960   2.783  -7.525  1.00  0.00     0.057 A 
ATOM     79  C   UNL     1      17.695   2.651  -6.341  1.00  0.00     0.134 A 
ATOM     80  C   UNL     1      17.673   2.983  -8.713  1.00  0.00     0.134 A 
ATOM     81  F   UNL     1      17.070   2.471  -5.168  1.00  0.00    -0.206 F 
ATOM     82  C   UNL     1      19.089   2.732  -6.337  1.00  0.00     0.040 A 
ATOM     83  C   UNL     1      19.067   3.042  -8.726  1.00  0.00     0.040 A 
ATOM     84  F   UNL     1      17.027   3.110  -9.882  1.00  0.00    -0.206 F 
ATOM     85  C   UNL     1      19.778   2.921  -7.533  1.00  0.00     0.006 A 
ENDBRANCH  61  78
ENDBRANCH  35  36
ENDBRANCH  27  30
ENDBRANCH  25  26
ENDBRANCH  24  25
ENDBRANCH   1  24
TORSDOF 15
