REMARK SMILES O=C(NCCCCNC(=O)[C@H]1CC[C@@H](CNC(=O)c2ccc(CO)cc2)O1)c1ccc(-c2c3nc(c(-c4c(F)cccc4F)c4ccc([nH]4)c(-c4c(F)cccc4F)c4nc(c(-c5c(F)cccc5F)c5ccc2[nH]5)C=C4)C=C3)cc1
REMARK SMILES IDX 7 1 6 2 5 3 4 4 3 5 1 6 2 7 28 9 29 10 81 11 30 12 80 13
REMARK SMILES IDX 31 14 32 15 33 16 74 17 34 18 79 19 73 20 75 21 35 22 78 23
REMARK SMILES IDX 72 24 71 25 36 27 62 28 45 29 61 30 46 31 49 32 60 33 76 34
REMARK SMILES IDX 47 35 48 36 59 38 77 39 50 40 37 41 38 42 43 43 39 44 40 45
REMARK SMILES IDX 42 46 44 47 41 48 63 49 64 50 69 51 65 52 66 53 68 54 70 55
REMARK SMILES IDX 67 56 51 57 52 58 57 59 53 60 54 61 56 62 58 63 55 64 8 65
REMARK SMILES IDX 9 66 10 68 11 69 12 70 27 71 13 72 14 73 15 74 16 75 17 76
REMARK SMILES IDX 18 78 19 79 20 80 26 81 21 82 25 83 22 84 23 85 24 86
REMARK H PARENT 3 8 75 26 49 37 8 67 16 77 24 87
REMARK Flexibility Score: inf
ROOT
ATOM      1  C   UNL     1       7.726  -3.457   4.366  1.00  0.00     0.116 C 
ENDROOT
BRANCH   1   2
ATOM      2  C   UNL     1       7.053  -2.160   4.807  1.00  0.00     0.023 C 
BRANCH   2   3
ATOM      3  C   UNL     1       7.284  -1.771   6.269  1.00  0.00     0.023 C 
BRANCH   3   4
ATOM      4  C   UNL     1       8.744  -1.685   6.697  1.00  0.00     0.116 C 
BRANCH   4   5
ATOM      5  N   UNL     1       9.496  -0.699   5.936  1.00  0.00    -0.352 N 
ATOM      6  O   UNL     1      10.626   1.216   5.565  1.00  0.00    -0.269 OA
ATOM      7  C   UNL     1      10.183   0.406   6.375  1.00  0.00     0.251 C 
ATOM      8  H   UNL     1       9.514  -0.845   4.963  1.00  0.00     0.163 HD
BRANCH   7   9
ATOM      9  C   UNL     1      10.366   0.636   7.823  1.00  0.00     0.039 A 
ATOM     10  C   UNL     1      10.769  -0.400   8.670  1.00  0.00     0.014 A 
ATOM     11  C   UNL     1      10.138   1.916   8.336  1.00  0.00     0.014 A 
ATOM     12  C   UNL     1      10.809  -0.194  10.045  1.00  0.00     0.010 A 
ATOM     13  C   UNL     1      10.256   2.140   9.709  1.00  0.00     0.010 A 
ATOM     14  C   UNL     1      10.560   1.080  10.578  1.00  0.00    -0.014 A 
BRANCH  14  15
ATOM     15  C   UNL     1      10.659   1.311  12.040  1.00  0.00     0.031 A 
ATOM     16  C   UNL     1       9.453   1.720  12.837  1.00  0.00     0.074 A 
ATOM     17  C   UNL     1      11.854   1.175  12.646  1.00  0.00     0.049 A 
ATOM     18  N   UNL     1       9.369   2.046  14.102  1.00  0.00    -0.248 NA
ATOM     19  C   UNL     1       8.174   1.780  12.114  1.00  0.00     0.031 C 
ATOM     20  C   UNL     1      13.096   0.780  11.980  1.00  0.00     0.029 A 
ATOM     21  N   UNL     1      12.221   1.364  13.953  1.00  0.00    -0.354 N 
ATOM     22  C   UNL     1       8.037   2.372  14.323  1.00  0.00     0.074 A 
ATOM     23  C   UNL     1       7.354   2.231  13.054  1.00  0.00     0.031 C 
ATOM     24  C   UNL     1      14.086   0.745  12.883  1.00  0.00     0.029 A 
ATOM     25  C   UNL     1      13.563   1.177  14.175  1.00  0.00     0.049 A 
ATOM     26  H   UNL     1      11.585   1.610  14.664  1.00  0.00     0.167 HD
ATOM     27  C   UNL     1       7.440   2.751  15.479  1.00  0.00     0.037 A 
ATOM     28  C   UNL     1      14.302   1.366  15.284  1.00  0.00     0.037 A 
ATOM     29  C   UNL     1       8.129   2.887  16.738  1.00  0.00     0.049 A 
ATOM     30  C   UNL     1      13.629   1.834  16.541  1.00  0.00     0.074 A 
ATOM     31  C   UNL     1       7.609   3.233  17.973  1.00  0.00     0.029 A 
ATOM     32  N   UNL     1       9.492   2.697  16.918  1.00  0.00    -0.354 N 
ATOM     33  N   UNL     1      12.364   2.110  16.746  1.00  0.00    -0.248 NA
ATOM     34  C   UNL     1      14.485   2.016  17.721  1.00  0.00     0.031 C 
ATOM     35  C   UNL     1       8.665   3.309  18.887  1.00  0.00     0.029 A 
ATOM     36  C   UNL     1       9.835   2.946  18.238  1.00  0.00     0.049 A 
ATOM     37  H   UNL     1      10.123   2.426  16.213  1.00  0.00     0.167 HD
ATOM     38  C   UNL     1      12.265   2.468  18.084  1.00  0.00     0.074 A 
ATOM     39  C   UNL     1      13.598   2.371  18.642  1.00  0.00     0.031 C 
ATOM     40  C   UNL     1      11.165   2.836  18.785  1.00  0.00     0.037 A 
BRANCH  27  41
ATOM     41  C   UNL     1       5.974   3.079  15.427  1.00  0.00     0.057 A 
ATOM     42  C   UNL     1       4.996   2.099  15.209  1.00  0.00     0.134 A 
ATOM     43  C   UNL     1       5.532   4.396  15.614  1.00  0.00     0.134 A 
ATOM     44  F   UNL     1       5.348   0.819  15.013  1.00  0.00    -0.206 F 
ATOM     45  C   UNL     1       3.639   2.421  15.143  1.00  0.00     0.040 A 
ATOM     46  C   UNL     1       4.176   4.726  15.580  1.00  0.00     0.040 A 
ATOM     47  F   UNL     1       6.411   5.385  15.838  1.00  0.00    -0.206 F 
ATOM     48  C   UNL     1       3.225   3.738  15.333  1.00  0.00     0.006 A 
ENDBRANCH  27  41
BRANCH  28  49
ATOM     49  C   UNL     1      15.763   1.115  15.236  1.00  0.00     0.057 A 
ATOM     50  C   UNL     1      16.331   0.020  15.893  1.00  0.00     0.134 A 
ATOM     51  C   UNL     1      16.619   1.943  14.499  1.00  0.00     0.134 A 
ATOM     52  F   UNL     1      15.563  -0.801  16.625  1.00  0.00    -0.206 F 
ATOM     53  C   UNL     1      17.701  -0.241  15.826  1.00  0.00     0.040 A 
ATOM     54  C   UNL     1      17.986   1.679  14.401  1.00  0.00     0.040 A 
ATOM     55  F   UNL     1      16.133   3.003  13.836  1.00  0.00    -0.206 F 
ATOM     56  C   UNL     1      18.530   0.585  15.070  1.00  0.00     0.006 A 
ENDBRANCH  28  49
BRANCH  40  57
ATOM     57  C   UNL     1      11.340   3.109  20.251  1.00  0.00     0.057 A 
ATOM     58  C   UNL     1      11.981   4.260  20.724  1.00  0.00     0.134 A 
ATOM     59  C   UNL     1      10.804   2.230  21.202  1.00  0.00     0.134 A 
ATOM     60  F   UNL     1      12.529   5.135  19.866  1.00  0.00    -0.206 F 
ATOM     61  C   UNL     1      12.096   4.521  22.091  1.00  0.00     0.040 A 
ATOM     62  C   UNL     1      10.888   2.493  22.569  1.00  0.00     0.040 A 
ATOM     63  F   UNL     1      10.172   1.112  20.816  1.00  0.00    -0.206 F 
ATOM     64  C   UNL     1      11.539   3.640  23.017  1.00  0.00     0.006 A 
ENDBRANCH  40  57
ENDBRANCH  14  15
ENDBRANCH   7   9
ENDBRANCH   4   5
ENDBRANCH   3   4
ENDBRANCH   2   3
ENDBRANCH   1   2
BRANCH   1  65
ATOM     65  N   UNL     1       7.235  -4.601   5.107  1.00  0.00    -0.354 N 
ATOM     66  C   UNL     1       6.759  -5.797   4.654  1.00  0.00     0.249 C 
ATOM     67  H   UNL     1       7.247  -4.501   6.087  1.00  0.00     0.163 HD
ATOM     68  O   UNL     1       6.381  -6.611   5.500  1.00  0.00    -0.272 OA
BRANCH  66  69
ATOM     69  C   UNL     1       6.696  -6.087   3.140  1.00  0.00     0.207 C 
ATOM     70  C   UNL     1       7.088  -7.522   2.834  1.00  0.00     0.045 C 
ATOM     71  O   UNL     1       5.359  -5.915   2.643  1.00  0.00    -0.363 OA
ATOM     72  C   UNL     1       5.771  -8.248   2.910  1.00  0.00     0.037 C 
ATOM     73  C   UNL     1       4.795  -7.217   2.365  1.00  0.00     0.138 C 
BRANCH  73  74
ATOM     74  C   UNL     1       3.384  -7.304   2.959  1.00  0.00     0.148 C 
BRANCH  74  75
ATOM     75  N   UNL     1       2.882  -8.668   3.076  1.00  0.00    -0.349 N 
ATOM     76  C   UNL     1       2.600  -9.380   4.218  1.00  0.00     0.251 C 
ATOM     77  H   UNL     1       2.726  -9.140   2.227  1.00  0.00     0.163 HD
ATOM     78  O   UNL     1       2.440 -10.595   4.159  1.00  0.00    -0.269 OA
BRANCH  76  79
ATOM     79  C   UNL     1       2.498  -8.688   5.524  1.00  0.00     0.039 A 
ATOM     80  C   UNL     1       3.172  -9.216   6.627  1.00  0.00     0.014 A 
ATOM     81  C   UNL     1       1.703  -7.547   5.671  1.00  0.00     0.014 A 
ATOM     82  C   UNL     1       3.111  -8.558   7.858  1.00  0.00     0.007 A 
ATOM     83  C   UNL     1       1.653  -6.884   6.899  1.00  0.00     0.007 A 
ATOM     84  C   UNL     1       2.375  -7.371   7.996  1.00  0.00    -0.023 A 
BRANCH  84  85
ATOM     85  C   UNL     1       2.344  -6.647   9.316  1.00  0.00     0.191 C 
BRANCH  85  86
ATOM     86  O   UNL     1       1.505  -7.320  10.243  1.00  0.00    -0.392 OA
ATOM     87  H   UNL     1       0.600  -7.353   9.895  1.00  0.00     0.211 HD
ENDBRANCH  85  86
ENDBRANCH  84  85
ENDBRANCH  76  79
ENDBRANCH  74  75
ENDBRANCH  73  74
ENDBRANCH  66  69
ENDBRANCH   1  65
TORSDOF 16
