REMARK SMILES O=C(NCCCCNC(=O)[C@H]1CC(=O)N(c2cccc(OC(F)(F)F)c2)C1)c1ccc(-c2c3nc(c(-c4c(F)cccc4F)c4ccc([nH]4)c(-c4c(F)cccc4F)c4nc(c(-c5c(F)cccc5F)c5ccc2[nH]5)C=C4)C=C3)cc1
REMARK SMILES IDX 6 1 5 2 4 3 3 4 1 5 2 6 28 8 29 9 81 10 30 11 80 12 31 13
REMARK SMILES IDX 32 14 33 15 74 16 34 17 79 18 73 19 75 20 35 21 78 22 72 23
REMARK SMILES IDX 71 24 36 26 62 27 45 28 61 29 46 30 49 31 60 32 76 33 47 34
REMARK SMILES IDX 48 35 59 37 77 38 50 39 37 40 38 41 43 42 39 43 40 44 42 45
REMARK SMILES IDX 44 46 41 47 63 48 64 49 69 50 65 51 66 52 68 53 70 54 67 55
REMARK SMILES IDX 51 56 52 57 57 58 53 59 54 60 56 61 58 62 55 63 7 64 8 65
REMARK SMILES IDX 9 66 10 68 11 69 12 70 27 71 13 72 15 73 14 74 16 75 17 76
REMARK SMILES IDX 26 77 18 78 20 79 19 80 21 81 22 82 23 83 24 84 25 85
REMARK H PARENT 3 7 75 25 49 36 8 67
REMARK Flexibility Score: inf
ROOT
ATOM      1  C   UNL     1       4.317  -5.660  -8.608  1.00  0.00     0.023 C 
ENDROOT
BRANCH   1   2
ATOM      2  C   UNL     1       3.855  -4.820  -9.795  1.00  0.00     0.023 C 
BRANCH   2   3
ATOM      3  C   UNL     1       4.901  -4.600 -10.879  1.00  0.00     0.116 C 
BRANCH   3   4
ATOM      4  N   UNL     1       5.307  -5.828 -11.549  1.00  0.00    -0.352 N 
ATOM      5  O   UNL     1       5.446  -7.353 -13.210  1.00  0.00    -0.269 OA
ATOM      6  C   UNL     1       5.139  -6.218 -12.859  1.00  0.00     0.251 C 
ATOM      7  H   UNL     1       5.774  -6.480 -10.978  1.00  0.00     0.163 HD
BRANCH   6   8
ATOM      8  C   UNL     1       4.549  -5.279 -13.837  1.00  0.00     0.039 A 
ATOM      9  C   UNL     1       4.953  -3.945 -13.868  1.00  0.00     0.014 A 
ATOM     10  C   UNL     1       3.551  -5.727 -14.706  1.00  0.00     0.014 A 
ATOM     11  C   UNL     1       4.213  -3.023 -14.595  1.00  0.00     0.010 A 
ATOM     12  C   UNL     1       2.890  -4.814 -15.535  1.00  0.00     0.010 A 
ATOM     13  C   UNL     1       3.176  -3.443 -15.444  1.00  0.00    -0.014 A 
BRANCH  13  14
ATOM     14  C   UNL     1       2.437  -2.424 -16.237  1.00  0.00     0.031 A 
ATOM     15  C   UNL     1       0.957  -2.212 -16.059  1.00  0.00     0.074 A 
ATOM     16  C   UNL     1       3.130  -1.643 -17.089  1.00  0.00     0.049 A 
ATOM     17  N   UNL     1       0.177  -1.328 -16.632  1.00  0.00    -0.248 NA
ATOM     18  C   UNL     1       0.256  -3.108 -15.128  1.00  0.00     0.031 C 
ATOM     19  C   UNL     1       4.567  -1.755 -17.355  1.00  0.00     0.029 A 
ATOM     20  N   UNL     1       2.734  -0.583 -17.863  1.00  0.00    -0.354 N 
ATOM     21  C   UNL     1      -1.104  -1.578 -16.154  1.00  0.00     0.074 A 
ATOM     22  C   UNL     1      -1.003  -2.715 -15.264  1.00  0.00     0.031 C 
ATOM     23  C   UNL     1       4.942  -0.764 -18.174  1.00  0.00     0.029 A 
ATOM     24  C   UNL     1       3.765   0.006 -18.554  1.00  0.00     0.049 A 
ATOM     25  H   UNL     1       1.800  -0.274 -17.919  1.00  0.00     0.167 HD
ATOM     26  C   UNL     1      -2.256  -0.917 -16.428  1.00  0.00     0.037 A 
ATOM     27  C   UNL     1       3.765   1.042 -19.412  1.00  0.00     0.037 A 
ATOM     28  C   UNL     1      -2.348   0.226 -17.302  1.00  0.00     0.049 A 
ATOM     29  C   UNL     1       2.471   1.737 -19.715  1.00  0.00     0.074 A 
ATOM     30  C   UNL     1      -3.461   0.991 -17.608  1.00  0.00     0.029 A 
ATOM     31  N   UNL     1      -1.288   0.765 -18.017  1.00  0.00    -0.354 N 
ATOM     32  N   UNL     1       1.277   1.513 -19.223  1.00  0.00    -0.248 NA
ATOM     33  C   UNL     1       2.525   2.828 -20.695  1.00  0.00     0.031 C 
ATOM     34  C   UNL     1      -3.087   1.953 -18.552  1.00  0.00     0.029 A 
ATOM     35  C   UNL     1      -1.727   1.833 -18.785  1.00  0.00     0.049 A 
ATOM     36  H   UNL     1      -0.360   0.438 -17.983  1.00  0.00     0.167 HD
ATOM     37  C   UNL     1       0.442   2.454 -19.811  1.00  0.00     0.074 A 
ATOM     38  C   UNL     1       1.273   3.261 -20.682  1.00  0.00     0.031 C 
ATOM     39  C   UNL     1      -0.891   2.633 -19.644  1.00  0.00     0.037 A 
BRANCH  26  40
ATOM     40  C   UNL     1      -3.523  -1.429 -15.799  1.00  0.00     0.057 A 
ATOM     41  C   UNL     1      -3.777  -1.316 -14.426  1.00  0.00     0.134 A 
ATOM     42  C   UNL     1      -4.525  -2.007 -16.591  1.00  0.00     0.134 A 
ATOM     43  F   UNL     1      -2.859  -0.781 -13.607  1.00  0.00    -0.206 F 
ATOM     44  C   UNL     1      -4.966  -1.782 -13.860  1.00  0.00     0.040 A 
ATOM     45  C   UNL     1      -5.730  -2.450 -16.042  1.00  0.00     0.040 A 
ATOM     46  F   UNL     1      -4.356  -2.139 -17.915  1.00  0.00    -0.206 F 
ATOM     47  C   UNL     1      -5.950  -2.345 -14.671  1.00  0.00     0.006 A 
ENDBRANCH  26  40
BRANCH  27  48
ATOM     48  C   UNL     1       5.035   1.482 -20.042  1.00  0.00     0.057 A 
ATOM     49  C   UNL     1       5.601   2.726 -19.740  1.00  0.00     0.134 A 
ATOM     50  C   UNL     1       5.713   0.672 -20.962  1.00  0.00     0.134 A 
ATOM     51  F   UNL     1       4.992   3.553 -18.878  1.00  0.00    -0.206 F 
ATOM     52  C   UNL     1       6.782   3.157 -20.345  1.00  0.00     0.040 A 
ATOM     53  C   UNL     1       6.911   1.076 -21.549  1.00  0.00     0.040 A 
ATOM     54  F   UNL     1       5.229  -0.536 -21.286  1.00  0.00    -0.206 F 
ATOM     55  C   UNL     1       7.444   2.328 -21.248  1.00  0.00     0.006 A 
ENDBRANCH  27  48
BRANCH  39  56
ATOM     56  C   UNL     1      -1.522   3.779 -20.381  1.00  0.00     0.057 A 
ATOM     57  C   UNL     1      -1.675   3.777 -21.774  1.00  0.00     0.134 A 
ATOM     58  C   UNL     1      -1.991   4.899 -19.683  1.00  0.00     0.134 A 
ATOM     59  F   UNL     1      -1.234   2.742 -22.505  1.00  0.00    -0.206 F 
ATOM     60  C   UNL     1      -2.240   4.862 -22.448  1.00  0.00     0.040 A 
ATOM     61  C   UNL     1      -2.587   5.975 -20.341  1.00  0.00     0.040 A 
ATOM     62  F   UNL     1      -1.884   4.964 -18.347  1.00  0.00    -0.206 F 
ATOM     63  C   UNL     1      -2.703   5.962 -21.730  1.00  0.00     0.006 A 
ENDBRANCH  39  56
ENDBRANCH  13  14
ENDBRANCH   6   8
ENDBRANCH   3   4
ENDBRANCH   2   3
ENDBRANCH   1   2
BRANCH   1  64
ATOM     64  C   UNL     1       5.632  -5.221  -7.969  1.00  0.00     0.116 C 
BRANCH  64  65
ATOM     65  N   UNL     1       5.608  -3.850  -7.491  1.00  0.00    -0.356 N 
ATOM     66  C   UNL     1       6.079  -3.293  -6.346  1.00  0.00     0.225 C 
ATOM     67  H   UNL     1       5.176  -3.214  -8.105  1.00  0.00     0.163 HD
ATOM     68  O   UNL     1       6.043  -2.062  -6.264  1.00  0.00    -0.275 OA
BRANCH  66  69
ATOM     69  C   UNL     1       6.594  -4.110  -5.177  1.00  0.00     0.107 C 
ATOM     70  C   UNL     1       5.516  -4.983  -4.560  1.00  0.00     0.116 C 
ATOM     71  C   UNL     1       7.771  -5.013  -5.497  1.00  0.00     0.139 C 
ATOM     72  C   UNL     1       6.085  -6.374  -4.554  1.00  0.00     0.227 C 
ATOM     73  N   UNL     1       7.350  -6.350  -5.147  1.00  0.00    -0.311 N 
ATOM     74  O   UNL     1       5.481  -7.328  -4.092  1.00  0.00    -0.274 OA
BRANCH  73  75
ATOM     75  C   UNL     1       8.129  -7.496  -5.458  1.00  0.00     0.047 A 
ATOM     76  C   UNL     1       9.515  -7.396  -5.633  1.00  0.00     0.026 A 
ATOM     77  C   UNL     1       7.521  -8.750  -5.644  1.00  0.00     0.073 A 
ATOM     78  C   UNL     1      10.276  -8.523  -5.951  1.00  0.00     0.006 A 
ATOM     79  C   UNL     1       8.268  -9.871  -6.015  1.00  0.00     0.131 A 
ATOM     80  C   UNL     1       9.652  -9.754  -6.143  1.00  0.00     0.047 A 
BRANCH  79  81
ATOM     81  O   UNL     1       7.774 -11.117  -6.282  1.00  0.00    -0.406 OA
BRANCH  81  82
ATOM     82  C   UNL     1       6.370 -11.248  -6.441  1.00  0.00     0.573 C 
ATOM     83  F   UNL     1       5.731 -11.072  -5.266  1.00  0.00    -0.132 F 
ATOM     84  F   UNL     1       5.894 -10.373  -7.354  1.00  0.00    -0.132 F 
ATOM     85  F   UNL     1       6.100 -12.497  -6.882  1.00  0.00    -0.132 F 
ENDBRANCH  81  82
ENDBRANCH  79  81
ENDBRANCH  73  75
ENDBRANCH  66  69
ENDBRANCH  64  65
ENDBRANCH   1  64
TORSDOF 14
