REMARK SMILES O=C(CNc1ccccc1)N[C@@H]1C=C[C@H](C(=O)NCCCCNC(=O)c2ccc(-c3c4nc(c(-c5c(F)cccc5F)c5ccc([nH]5)c(-c5c(F)cccc5F)c5nc(c(-c6c(F)cccc6F)c6ccc3[nH]6)C=C5)C=C4)cc2)C1
REMARK SMILES IDX 19 1 18 2 16 3 17 4 15 6 12 7 13 8 80 9 14 10 11 11 1 12
REMARK SMILES IDX 2 13 3 15 4 16 5 18 6 19 10 20 7 21 9 22 8 23 20 24 21 25
REMARK SMILES IDX 22 26 23 27 24 28 25 30 26 31 27 32 79 33 28 34 78 35 29 36
REMARK SMILES IDX 30 37 31 38 72 39 32 40 77 41 71 42 73 43 33 44 76 45 70 46
REMARK SMILES IDX 69 47 34 49 60 50 43 51 59 52 44 53 47 54 58 55 74 56 45 57
REMARK SMILES IDX 46 58 57 60 75 61 48 62 35 63 36 64 41 65 37 66 38 67 40 68
REMARK SMILES IDX 42 69 39 70 61 71 62 72 67 73 63 74 64 75 66 76 68 77 65 78
REMARK SMILES IDX 49 79 50 80 55 81 51 82 52 83 54 84 56 85 53 86
REMARK H PARENT 18 5 11 14 4 17 23 29 73 48 47 59
REMARK Flexibility Score: inf
ROOT
ATOM      1  C   UNL     1       2.170   6.832   1.774  1.00  0.00     0.116 C 
ENDROOT
BRANCH   1   2
ATOM      2  N   UNL     1       1.338   6.127   2.729  1.00  0.00    -0.356 N 
ATOM      3  C   UNL     1       1.519   4.890   3.287  1.00  0.00     0.227 C 
ATOM      4  O   UNL     1       0.704   4.510   4.129  1.00  0.00    -0.274 OA
ATOM      5  H   UNL     1       0.527   6.605   3.018  1.00  0.00     0.163 HD
BRANCH   3   6
ATOM      6  C   UNL     1       2.747   4.074   2.871  1.00  0.00     0.103 C 
ATOM      7  C   UNL     1       2.127   1.993   1.737  1.00  0.00     0.106 C 
ATOM      8  C   UNL     1       2.653   1.737   3.116  1.00  0.00    -0.006 C 
ATOM      9  C   UNL     1       2.589   3.433   1.486  1.00  0.00     0.047 C 
ATOM     10  C   UNL     1       2.977   2.875   3.743  1.00  0.00    -0.016 C 
BRANCH   7  11
ATOM     11  N   UNL     1       0.715   1.693   1.780  1.00  0.00    -0.348 N 
ATOM     12  O   UNL     1      -0.285   3.626   0.970  1.00  0.00    -0.273 OA
ATOM     13  C   UNL     1      -0.355   2.484   1.410  1.00  0.00     0.239 C 
ATOM     14  H   UNL     1       0.482   0.799   2.119  1.00  0.00     0.164 HD
BRANCH  13  15
ATOM     15  C   UNL     1      -1.692   1.737   1.560  1.00  0.00     0.213 C 
BRANCH  15  16
ATOM     16  N   UNL     1      -1.624   0.531   0.737  1.00  0.00    -0.376 N 
ATOM     17  H   UNL     1      -1.040   0.560  -0.055  1.00  0.00     0.161 HD
BRANCH  16  18
ATOM     18  C   UNL     1      -2.305  -0.641   0.971  1.00  0.00     0.034 A 
ATOM     19  C   UNL     1      -1.859  -1.808   0.334  1.00  0.00     0.026 A 
ATOM     20  C   UNL     1      -3.355  -0.760   1.886  1.00  0.00     0.026 A 
ATOM     21  C   UNL     1      -2.438  -3.051   0.597  1.00  0.00     0.002 A 
ATOM     22  C   UNL     1      -3.950  -2.000   2.143  1.00  0.00     0.002 A 
ATOM     23  C   UNL     1      -3.487  -3.147   1.504  1.00  0.00     0.000 A 
ENDBRANCH  16  18
ENDBRANCH  15  16
ENDBRANCH  13  15
ENDBRANCH   7  11
ENDBRANCH   3   6
ENDBRANCH   1   2
BRANCH   1  24
ATOM     24  C   UNL     1       1.394   7.265   0.532  1.00  0.00     0.023 C 
BRANCH  24  25
ATOM     25  C   UNL     1       0.234   8.228   0.791  1.00  0.00     0.023 C 
BRANCH  25  26
ATOM     26  C   UNL     1       0.592   9.500   1.553  1.00  0.00     0.116 C 
BRANCH  26  27
ATOM     27  N   UNL     1       1.557  10.332   0.851  1.00  0.00    -0.352 N 
ATOM     28  C   UNL     1       1.501  11.672   0.549  1.00  0.00     0.251 C 
ATOM     29  H   UNL     1       2.370   9.868   0.547  1.00  0.00     0.163 HD
ATOM     30  O   UNL     1       2.357  12.175  -0.173  1.00  0.00    -0.269 OA
BRANCH  28  31
ATOM     31  C   UNL     1       0.393  12.506   1.065  1.00  0.00     0.039 A 
ATOM     32  C   UNL     1      -0.240  13.400   0.196  1.00  0.00     0.014 A 
ATOM     33  C   UNL     1      -0.026  12.410   2.394  1.00  0.00     0.014 A 
ATOM     34  C   UNL     1      -1.338  14.140   0.640  1.00  0.00     0.010 A 
ATOM     35  C   UNL     1      -1.168  13.088   2.812  1.00  0.00     0.010 A 
ATOM     36  C   UNL     1      -1.838  13.960   1.940  1.00  0.00    -0.014 A 
BRANCH  36  37
ATOM     37  C   UNL     1      -3.060  14.668   2.403  1.00  0.00     0.031 A 
ATOM     38  C   UNL     1      -2.988  15.639   3.549  1.00  0.00     0.074 A 
ATOM     39  C   UNL     1      -4.250  14.386   1.837  1.00  0.00     0.049 A 
ATOM     40  N   UNL     1      -3.953  16.299   4.138  1.00  0.00    -0.248 NA
ATOM     41  C   UNL     1      -1.657  15.881   4.126  1.00  0.00     0.031 C 
ATOM     42  C   UNL     1      -4.465  13.432   0.748  1.00  0.00     0.029 A 
ATOM     43  N   UNL     1      -5.507  14.869   2.107  1.00  0.00    -0.354 N 
ATOM     44  C   UNL     1      -3.350  17.021   5.160  1.00  0.00     0.074 A 
ATOM     45  C   UNL     1      -1.945  16.674   5.148  1.00  0.00     0.031 C 
ATOM     46  C   UNL     1      -5.768  13.419   0.426  1.00  0.00     0.029 A 
ATOM     47  C   UNL     1      -6.488  14.327   1.312  1.00  0.00     0.049 A 
ATOM     48  H   UNL     1      -5.688  15.539   2.805  1.00  0.00     0.167 HD
ATOM     49  C   UNL     1      -3.909  17.910   6.015  1.00  0.00     0.037 A 
ATOM     50  C   UNL     1      -7.819  14.531   1.304  1.00  0.00     0.037 A 
ATOM     51  C   UNL     1      -5.305  18.264   6.018  1.00  0.00     0.049 A 
ATOM     52  C   UNL     1      -8.421  15.503   2.282  1.00  0.00     0.074 A 
ATOM     53  C   UNL     1      -5.957  19.193   6.809  1.00  0.00     0.029 A 
ATOM     54  N   UNL     1      -6.266  17.696   5.194  1.00  0.00    -0.354 N 
ATOM     55  N   UNL     1      -7.829  16.231   3.197  1.00  0.00    -0.248 NA
ATOM     56  C   UNL     1      -9.878  15.685   2.221  1.00  0.00     0.031 C 
ATOM     57  C   UNL     1      -7.322  19.148   6.503  1.00  0.00     0.029 A 
ATOM     58  C   UNL     1      -7.511  18.235   5.478  1.00  0.00     0.049 A 
ATOM     59  H   UNL     1      -6.089  17.011   4.510  1.00  0.00     0.167 HD
ATOM     60  C   UNL     1      -8.833  16.979   3.799  1.00  0.00     0.074 A 
ATOM     61  C   UNL     1     -10.071  16.625   3.135  1.00  0.00     0.031 C 
ATOM     62  C   UNL     1      -8.736  17.879   4.808  1.00  0.00     0.037 A 
BRANCH  49  63
ATOM     63  C   UNL     1      -3.004  18.558   7.025  1.00  0.00     0.057 A 
ATOM     64  C   UNL     1      -2.007  19.471   6.651  1.00  0.00     0.134 A 
ATOM     65  C   UNL     1      -3.142  18.282   8.392  1.00  0.00     0.134 A 
ATOM     66  F   UNL     1      -1.813  19.773   5.358  1.00  0.00    -0.206 F 
ATOM     67  C   UNL     1      -1.158  20.055   7.593  1.00  0.00     0.040 A 
ATOM     68  C   UNL     1      -2.320  18.885   9.346  1.00  0.00     0.040 A 
ATOM     69  F   UNL     1      -4.080  17.426   8.823  1.00  0.00    -0.206 F 
ATOM     70  C   UNL     1      -1.318  19.767   8.946  1.00  0.00     0.006 A 
ENDBRANCH  49  63
BRANCH  50  71
ATOM     71  C   UNL     1      -8.673  13.818   0.321  1.00  0.00     0.057 A 
ATOM     72  C   UNL     1      -9.292  14.506  -0.730  1.00  0.00     0.134 A 
ATOM     73  C   UNL     1      -8.893  12.438   0.405  1.00  0.00     0.134 A 
ATOM     74  F   UNL     1      -9.135  15.832  -0.852  1.00  0.00    -0.206 F 
ATOM     75  C   UNL     1     -10.113  13.852  -1.650  1.00  0.00     0.040 A 
ATOM     76  C   UNL     1      -9.690  11.766  -0.524  1.00  0.00     0.040 A 
ATOM     77  F   UNL     1      -8.324  11.719   1.384  1.00  0.00    -0.206 F 
ATOM     78  C   UNL     1     -10.309  12.476  -1.551  1.00  0.00     0.006 A 
ENDBRANCH  50  71
BRANCH  62  79
ATOM     79  C   UNL     1      -9.997  18.578   5.231  1.00  0.00     0.057 A 
ATOM     80  C   UNL     1     -11.018  17.915   5.925  1.00  0.00     0.134 A 
ATOM     81  C   UNL     1     -10.173  19.944   4.974  1.00  0.00     0.134 A 
ATOM     82  F   UNL     1     -10.919  16.604   6.192  1.00  0.00    -0.206 F 
ATOM     83  C   UNL     1     -12.178  18.580   6.326  1.00  0.00     0.040 A 
ATOM     84  C   UNL     1     -11.315  20.626   5.396  1.00  0.00     0.040 A 
ATOM     85  F   UNL     1      -9.231  20.642   4.322  1.00  0.00    -0.206 F 
ATOM     86  C   UNL     1     -12.325  19.942   6.068  1.00  0.00     0.006 A 
ENDBRANCH  62  79
ENDBRANCH  36  37
ENDBRANCH  28  31
ENDBRANCH  26  27
ENDBRANCH  25  26
ENDBRANCH  24  25
ENDBRANCH   1  24
TORSDOF 15
