REMARK SMILES Cc1ccc(-c2nc(NC(=O)[C@H]3[C@@H](C(=O)NCCCCNC(=O)c4ccc(-c5c6nc(c(-c7c(F)cccc7F)c7ccc([nH]7)c(-c7c(F)cccc7F)c7nc(c(-c8c(F)cccc8F)c8ccc5[nH]8)C=C7)C=C6)cc4)[C@@H]4CC[C@H]3O4)sc2C)cc1
REMARK SMILES IDX 18 1 17 2 16 3 14 4 15 5 13 7 12 8 81 9 78 10 80 11 82 12
REMARK SMILES IDX 79 13 10 14 9 15 11 17 8 18 6 19 7 20 84 21 83 22 85 23 5 24
REMARK SMILES IDX 1 25 2 26 3 27 87 28 4 29 86 30 19 31 20 32 21 33 22 34
REMARK SMILES IDX 23 36 24 37 25 38 77 39 26 40 76 41 27 42 28 43 29 44 70 45
REMARK SMILES IDX 30 46 75 47 69 48 71 49 31 50 74 51 68 52 67 53 32 55 58 56
REMARK SMILES IDX 41 57 57 58 42 59 45 60 56 61 72 62 43 63 44 64 55 66 73 67
REMARK SMILES IDX 46 68 33 69 34 70 39 71 35 72 36 73 38 74 40 75 37 76 59 77
REMARK SMILES IDX 60 78 65 79 61 80 62 81 64 82 66 83 63 84 47 85 48 86 53 87
REMARK SMILES IDX 49 88 50 89 52 90 54 91 51 92
REMARK H PARENT 16 6 9 16 21 35 71 54 45 65
REMARK Flexibility Score: inf
ROOT
ATOM      1  C   UNL     1      -5.687  -0.662   0.128  1.00  0.00     0.023 C 
ENDROOT
BRANCH   1   2
ATOM      2  C   UNL     1      -6.464  -0.439   1.436  1.00  0.00     0.116 C 
BRANCH   2   3
ATOM      3  N   UNL     1      -7.428   0.638   1.596  1.00  0.00    -0.356 N 
ATOM      4  C   UNL     1      -8.805   0.629   1.469  1.00  0.00     0.226 C 
ATOM      5  O   UNL     1      -9.520   1.220   2.274  1.00  0.00    -0.275 OA
ATOM      6  H   UNL     1      -7.040   1.511   1.832  1.00  0.00     0.163 HD
BRANCH   4   7
ATOM      7  C   UNL     1      -9.381  -0.136   0.345  1.00  0.00     0.122 C 
ATOM      8  C   UNL     1      -8.732  -0.089  -1.019  1.00  0.00     0.123 C 
ATOM      9  C   UNL     1      -9.905  -0.679  -1.830  1.00  0.00     0.132 C 
ATOM     10  C   UNL     1     -10.884   0.003  -0.019  1.00  0.00     0.132 C 
ATOM     11  C   UNL     1     -10.503  -1.982  -1.197  1.00  0.00     0.035 C 
ATOM     12  O   UNL     1     -10.882   0.307  -1.449  1.00  0.00    -0.373 OA
ATOM     13  C   UNL     1     -11.452  -1.409  -0.126  1.00  0.00     0.035 C 
BRANCH   8  14
ATOM     14  C   UNL     1      -8.071   1.086  -1.832  1.00  0.00     0.232 C 
ATOM     15  N   UNL     1      -7.938   2.437  -1.747  1.00  0.00    -0.302 N 
ATOM     16  H   UNL     1      -7.629   2.783  -2.615  1.00  0.00     0.172 HD
ATOM     17  O   UNL     1      -7.535   0.671  -2.890  1.00  0.00    -0.274 OA
BRANCH  15  18
ATOM     18  C   UNL     1      -8.083   3.489  -0.874  1.00  0.00     0.190 A 
ATOM     19  C   UNL     1      -8.423   5.514   0.014  1.00  0.00     0.086 A 
ATOM     20  N   UNL     1      -7.953   4.793  -1.123  1.00  0.00    -0.220 NA
ATOM     21  C   UNL     1      -9.102   4.675   0.880  1.00  0.00     0.031 A 
ATOM     22  S   UNL     1      -8.192   3.260   0.771  1.00  0.00    -0.101 S 
ATOM     23  C   UNL     1     -10.176   4.795   1.887  1.00  0.00     0.059 C 
BRANCH  19  24
ATOM     24  C   UNL     1      -8.245   6.937   0.322  1.00  0.00     0.001 A 
ATOM     25  C   UNL     1      -7.994  11.113   1.471  1.00  0.00     0.044 C 
ATOM     26  C   UNL     1      -8.034   9.666   1.074  1.00  0.00    -0.051 A 
ATOM     27  C   UNL     1      -7.958   9.272  -0.272  1.00  0.00     0.004 A 
ATOM     28  C   UNL     1      -8.150   8.684   2.051  1.00  0.00     0.004 A 
ATOM     29  C   UNL     1      -8.061   7.917  -0.648  1.00  0.00     0.010 A 
ATOM     30  C   UNL     1      -8.227   7.344   1.677  1.00  0.00     0.010 A 
ENDBRANCH  19  24
ENDBRANCH  15  18
ENDBRANCH   8  14
ENDBRANCH   4   7
ENDBRANCH   2   3
ENDBRANCH   1   2
BRANCH   1  31
ATOM     31  C   UNL     1      -4.940   0.489  -0.530  1.00  0.00     0.023 C 
BRANCH  31  32
ATOM     32  C   UNL     1      -3.725   0.949   0.240  1.00  0.00     0.116 C 
BRANCH  32  33
ATOM     33  N   UNL     1      -2.711  -0.091   0.386  1.00  0.00    -0.352 N 
ATOM     34  C   UNL     1      -1.430  -0.064   0.904  1.00  0.00     0.251 C 
ATOM     35  H   UNL     1      -2.992  -0.975   0.055  1.00  0.00     0.163 HD
ATOM     36  O   UNL     1      -0.756  -1.081   0.863  1.00  0.00    -0.269 OA
BRANCH  34  37
ATOM     37  C   UNL     1      -0.964   1.104   1.701  1.00  0.00     0.039 A 
ATOM     38  C   UNL     1      -0.276   0.766   2.875  1.00  0.00     0.014 A 
ATOM     39  C   UNL     1      -1.652   2.301   1.621  1.00  0.00     0.014 A 
ATOM     40  C   UNL     1      -0.622   1.403   4.053  1.00  0.00     0.010 A 
ATOM     41  C   UNL     1      -2.162   2.794   2.789  1.00  0.00     0.010 A 
ATOM     42  C   UNL     1      -1.675   2.306   4.003  1.00  0.00    -0.014 A 
BRANCH  42  43
ATOM     43  C   UNL     1      -2.252   2.953   5.154  1.00  0.00     0.031 A 
ATOM     44  C   UNL     1      -1.696   4.270   5.491  1.00  0.00     0.074 A 
ATOM     45  C   UNL     1      -3.349   2.429   5.736  1.00  0.00     0.049 A 
ATOM     46  N   UNL     1      -1.774   4.812   6.649  1.00  0.00    -0.248 NA
ATOM     47  C   UNL     1      -0.952   5.074   4.521  1.00  0.00     0.031 C 
ATOM     48  C   UNL     1      -4.249   3.062   6.690  1.00  0.00     0.029 A 
ATOM     49  N   UNL     1      -3.763   1.092   5.706  1.00  0.00    -0.354 N 
ATOM     50  C   UNL     1      -1.384   6.124   6.505  1.00  0.00     0.074 A 
ATOM     51  C   UNL     1      -0.793   6.214   5.194  1.00  0.00     0.031 C 
ATOM     52  C   UNL     1      -4.892   2.102   7.377  1.00  0.00     0.029 A 
ATOM     53  C   UNL     1      -4.308   0.829   6.986  1.00  0.00     0.049 A 
ATOM     54  H   UNL     1      -3.691   0.465   4.951  1.00  0.00     0.167 HD
ATOM     55  C   UNL     1      -1.760   7.017   7.458  1.00  0.00     0.037 A 
ATOM     56  C   UNL     1      -3.652  -0.028   7.828  1.00  0.00     0.037 A 
ATOM     57  C   UNL     1      -2.494   6.338   8.524  1.00  0.00     0.049 A 
ATOM     58  C   UNL     1      -3.055   0.652   9.046  1.00  0.00     0.074 A 
ATOM     59  C   UNL     1      -3.840   6.101   8.752  1.00  0.00     0.029 A 
ATOM     60  N   UNL     1      -1.812   5.436   9.315  1.00  0.00    -0.354 N 
ATOM     61  N   UNL     1      -3.024   1.945   9.226  1.00  0.00    -0.248 NA
ATOM     62  C   UNL     1      -2.387  -0.071  10.127  1.00  0.00     0.031 C 
ATOM     63  C   UNL     1      -3.946   5.006   9.660  1.00  0.00     0.029 A 
ATOM     64  C   UNL     1      -2.668   4.595   9.994  1.00  0.00     0.049 A 
ATOM     65  H   UNL     1      -0.830   5.398   9.385  1.00  0.00     0.167 HD
ATOM     66  C   UNL     1      -2.331   2.237  10.369  1.00  0.00     0.074 A 
ATOM     67  C   UNL     1      -1.940   0.940  10.893  1.00  0.00     0.031 C 
ATOM     68  C   UNL     1      -2.104   3.516  10.792  1.00  0.00     0.037 A 
BRANCH  55  69
ATOM     69  C   UNL     1      -1.706   8.509   7.283  1.00  0.00     0.057 A 
ATOM     70  C   UNL     1      -2.643   9.327   7.941  1.00  0.00     0.134 A 
ATOM     71  C   UNL     1      -0.790   9.204   6.472  1.00  0.00     0.134 A 
ATOM     72  F   UNL     1      -3.531   8.823   8.807  1.00  0.00    -0.206 F 
ATOM     73  C   UNL     1      -2.720  10.709   7.741  1.00  0.00     0.040 A 
ATOM     74  C   UNL     1      -0.887  10.580   6.222  1.00  0.00     0.040 A 
ATOM     75  F   UNL     1       0.272   8.597   5.926  1.00  0.00    -0.206 F 
ATOM     76  C   UNL     1      -1.861  11.338   6.855  1.00  0.00     0.006 A 
ENDBRANCH  55  69
BRANCH  56  77
ATOM     77  C   UNL     1      -3.027  -1.156   7.071  1.00  0.00     0.057 A 
ATOM     78  C   UNL     1      -3.882  -2.020   6.358  1.00  0.00     0.134 A 
ATOM     79  C   UNL     1      -1.698  -1.082   6.643  1.00  0.00     0.134 A 
ATOM     80  F   UNL     1      -5.166  -2.153   6.728  1.00  0.00    -0.206 F 
ATOM     81  C   UNL     1      -3.484  -2.630   5.166  1.00  0.00     0.040 A 
ATOM     82  C   UNL     1      -1.286  -1.708   5.460  1.00  0.00     0.040 A 
ATOM     83  F   UNL     1      -0.819  -0.291   7.275  1.00  0.00    -0.206 F 
ATOM     84  C   UNL     1      -2.193  -2.432   4.688  1.00  0.00     0.006 A 
ENDBRANCH  56  77
BRANCH  68  85
ATOM     85  C   UNL     1      -1.318   3.848  12.029  1.00  0.00     0.057 A 
ATOM     86  C   UNL     1      -1.547   3.207  13.252  1.00  0.00     0.134 A 
ATOM     87  C   UNL     1      -0.386   4.906  12.060  1.00  0.00     0.134 A 
ATOM     88  F   UNL     1      -2.467   2.237  13.361  1.00  0.00    -0.206 F 
ATOM     89  C   UNL     1      -0.852   3.556  14.415  1.00  0.00     0.040 A 
ATOM     90  C   UNL     1       0.263   5.308  13.228  1.00  0.00     0.040 A 
ATOM     91  F   UNL     1      -0.042   5.582  10.954  1.00  0.00    -0.206 F 
ATOM     92  C   UNL     1       0.047   4.617  14.409  1.00  0.00     0.006 A 
ENDBRANCH  68  85
ENDBRANCH  42  43
ENDBRANCH  34  37
ENDBRANCH  32  33
ENDBRANCH  31  32
ENDBRANCH   1  31
TORSDOF 14
