REMARK SMILES Cc1cc(NCC(=O)NCCCCNC(=O)c2ccc(-c3c4nc(c(-c5c(F)cccc5F)c5ccc([nH]5)c(-c5c(F)cccc5F)c5nc(c(-c6c(F)cccc6F)c6ccc3[nH]6)C=C5)C=C4)cc2)c2cc(S(=O)(=O)N(C)C)ccc2n1
REMARK SMILES IDX 10 1 9 2 7 3 8 4 6 6 5 7 4 9 1 10 2 11 3 12 83 13 82 14
REMARK SMILES IDX 71 15 81 16 72 17 80 18 73 19 74 20 75 21 76 22 77 23 78 24
REMARK SMILES IDX 79 25 11 26 12 27 13 28 14 29 15 30 16 32 17 33 18 34 70 35
REMARK SMILES IDX 19 36 69 37 20 38 21 39 22 40 63 41 23 42 68 43 62 44 64 45
REMARK SMILES IDX 24 46 67 47 61 48 60 49 25 51 51 52 34 53 50 54 35 55 38 56
REMARK SMILES IDX 49 57 65 58 36 59 37 60 48 62 66 63 39 64 26 65 27 66 32 67
REMARK SMILES IDX 28 68 29 69 31 70 33 71 30 72 52 73 53 74 58 75 54 76 55 77
REMARK SMILES IDX 57 78 59 79 56 80 40 81 41 82 46 83 42 84 43 85 45 86 47 87
REMARK SMILES IDX 44 88
REMARK H PARENT 9 5 5 8 14 31 64 50 38 61
REMARK Flexibility Score: inf
ROOT
ATOM      1  C   UNL     1       0.934   2.808  -2.763  1.00  0.00     0.116 C 
ENDROOT
BRANCH   1   2
ATOM      2  N   UNL     1       1.019   4.208  -2.413  1.00  0.00    -0.355 N 
ATOM      3  C   UNL     1       0.860   4.823  -1.206  1.00  0.00     0.239 C 
ATOM      4  O   UNL     1       0.983   6.053  -1.187  1.00  0.00    -0.273 OA
ATOM      5  H   UNL     1       1.223   4.812  -3.163  1.00  0.00     0.163 HD
BRANCH   3   6
ATOM      6  C   UNL     1       0.603   4.051   0.101  1.00  0.00     0.213 C 
BRANCH   6   7
ATOM      7  N   UNL     1      -0.466   3.063   0.014  1.00  0.00    -0.376 N 
ATOM      8  H   UNL     1      -1.342   3.459  -0.199  1.00  0.00     0.161 HD
BRANCH   7   9
ATOM      9  C   UNL     1      -0.513   1.685   0.166  1.00  0.00     0.046 A 
ATOM     10  C   UNL     1      -3.400  -0.796   0.132  1.00  0.00     0.067 C 
ATOM     11  C   UNL     1      -2.018  -0.221   0.220  1.00  0.00     0.040 A 
ATOM     12  C   UNL     1      -1.812   1.146   0.145  1.00  0.00     0.049 A 
ATOM     13  N   UNL     1      -1.000  -1.094   0.328  1.00  0.00    -0.253 NA
ATOM     14  C   UNL     1       0.252  -0.623   0.351  1.00  0.00     0.073 A 
ATOM     15  C   UNL     1       0.573   0.758   0.268  1.00  0.00     0.025 A 
ATOM     16  C   UNL     1       1.268  -1.574   0.429  1.00  0.00     0.030 A 
ATOM     17  C   UNL     1       1.956   1.069   0.236  1.00  0.00     0.034 A 
ATOM     18  C   UNL     1       2.624  -1.238   0.406  1.00  0.00     0.024 A 
ATOM     19  C   UNL     1       2.962   0.095   0.283  1.00  0.00     0.083 A 
BRANCH  19  20
ATOM     20  S   UNL     1       4.634   0.679   0.153  1.00  0.00     0.242 S 
ATOM     21  O   UNL     1       4.695   1.500  -1.045  1.00  0.00    -0.207 OA
ATOM     22  O   UNL     1       4.966   1.221   1.448  1.00  0.00    -0.207 OA
BRANCH  20  23
ATOM     23  N   UNL     1       5.625  -0.687  -0.130  1.00  0.00    -0.204 NA
ATOM     24  C   UNL     1       5.486  -1.308  -1.470  1.00  0.00     0.124 C 
ATOM     25  C   UNL     1       7.056  -0.395   0.157  1.00  0.00     0.124 C 
ENDBRANCH  20  23
ENDBRANCH  19  20
ENDBRANCH   7   9
ENDBRANCH   6   7
ENDBRANCH   3   6
ENDBRANCH   1   2
BRANCH   1  26
ATOM     26  C   UNL     1      -0.441   2.426  -3.309  1.00  0.00     0.023 C 
BRANCH  26  27
ATOM     27  C   UNL     1      -0.714   2.941  -4.722  1.00  0.00     0.023 C 
BRANCH  27  28
ATOM     28  C   UNL     1       0.230   2.406  -5.793  1.00  0.00     0.116 C 
BRANCH  28  29
ATOM     29  N   UNL     1       0.140   0.965  -5.979  1.00  0.00    -0.352 N 
ATOM     30  C   UNL     1       0.263   0.257  -7.154  1.00  0.00     0.251 C 
ATOM     31  H   UNL     1      -0.029   0.432  -5.168  1.00  0.00     0.163 HD
ATOM     32  O   UNL     1       0.072  -0.953  -7.188  1.00  0.00    -0.269 OA
BRANCH  30  33
ATOM     33  C   UNL     1       0.590   0.995  -8.391  1.00  0.00     0.039 A 
ATOM     34  C   UNL     1      -0.258   0.877  -9.495  1.00  0.00     0.014 A 
ATOM     35  C   UNL     1       1.688   1.857  -8.425  1.00  0.00     0.014 A 
ATOM     36  C   UNL     1      -0.052   1.693 -10.610  1.00  0.00     0.010 A 
ATOM     37  C   UNL     1       1.854   2.711  -9.509  1.00  0.00     0.010 A 
ATOM     38  C   UNL     1       0.979   2.646 -10.606  1.00  0.00    -0.014 A 
BRANCH  38  39
ATOM     39  C   UNL     1       1.167   3.603 -11.724  1.00  0.00     0.031 A 
ATOM     40  C   UNL     1       2.428   3.558 -12.538  1.00  0.00     0.074 A 
ATOM     41  C   UNL     1       0.259   4.575 -11.936  1.00  0.00     0.049 A 
ATOM     42  N   UNL     1       2.866   4.404 -13.434  1.00  0.00    -0.248 NA
ATOM     43  C   UNL     1       3.332   2.424 -12.286  1.00  0.00     0.031 C 
ATOM     44  C   UNL     1      -0.992   4.746 -11.195  1.00  0.00     0.029 A 
ATOM     45  N   UNL     1       0.263   5.623 -12.824  1.00  0.00    -0.354 N 
ATOM     46  C   UNL     1       4.106   3.922 -13.831  1.00  0.00     0.074 A 
ATOM     47  C   UNL     1       4.367   2.729 -13.054  1.00  0.00     0.031 C 
ATOM     48  C   UNL     1      -1.636   5.828 -11.662  1.00  0.00     0.029 A 
ATOM     49  C   UNL     1      -0.825   6.453 -12.702  1.00  0.00     0.049 A 
ATOM     50  H   UNL     1       0.979   5.766 -13.485  1.00  0.00     0.167 HD
ATOM     51  C   UNL     1       4.944   4.421 -14.770  1.00  0.00     0.037 A 
ATOM     52  C   UNL     1      -1.125   7.599 -13.343  1.00  0.00     0.037 A 
ATOM     53  C   UNL     1       4.667   5.588 -15.564  1.00  0.00     0.049 A 
ATOM     54  C   UNL     1      -0.175   8.136 -14.377  1.00  0.00     0.074 A 
ATOM     55  C   UNL     1       5.430   6.141 -16.577  1.00  0.00     0.029 A 
ATOM     56  N   UNL     1       3.535   6.377 -15.437  1.00  0.00    -0.354 N 
ATOM     57  N   UNL     1       0.975   7.647 -14.774  1.00  0.00    -0.248 NA
ATOM     58  C   UNL     1      -0.562   9.383 -15.052  1.00  0.00     0.031 C 
ATOM     59  C   UNL     1       4.774   7.285 -17.042  1.00  0.00     0.029 A 
ATOM     60  C   UNL     1       3.584   7.420 -16.345  1.00  0.00     0.049 A 
ATOM     61  H   UNL     1       2.805   6.220 -14.795  1.00  0.00     0.167 HD
ATOM     62  C   UNL     1       1.430   8.504 -15.768  1.00  0.00     0.074 A 
ATOM     63  C   UNL     1       0.434   9.545 -15.913  1.00  0.00     0.031 C 
ATOM     64  C   UNL     1       2.570   8.432 -16.495  1.00  0.00     0.037 A 
BRANCH  51  65
ATOM     65  C   UNL     1       6.241   3.702 -14.989  1.00  0.00     0.057 A 
ATOM     66  C   UNL     1       6.294   2.453 -15.621  1.00  0.00     0.134 A 
ATOM     67  C   UNL     1       7.454   4.280 -14.594  1.00  0.00     0.134 A 
ATOM     68  F   UNL     1       5.166   1.840 -16.011  1.00  0.00    -0.206 F 
ATOM     69  C   UNL     1       7.505   1.792 -15.830  1.00  0.00     0.040 A 
ATOM     70  C   UNL     1       8.674   3.640 -14.820  1.00  0.00     0.040 A 
ATOM     71  F   UNL     1       7.474   5.477 -13.989  1.00  0.00    -0.206 F 
ATOM     72  C   UNL     1       8.701   2.390 -15.435  1.00  0.00     0.006 A 
ENDBRANCH  51  65
BRANCH  52  73
ATOM     73  C   UNL     1      -2.388   8.313 -13.035  1.00  0.00     0.057 A 
ATOM     74  C   UNL     1      -3.444   8.332 -13.953  1.00  0.00     0.134 A 
ATOM     75  C   UNL     1      -2.571   8.995 -11.826  1.00  0.00     0.134 A 
ATOM     76  F   UNL     1      -3.320   7.714 -15.136  1.00  0.00    -0.206 F 
ATOM     77  C   UNL     1      -4.631   9.017 -13.688  1.00  0.00     0.040 A 
ATOM     78  C   UNL     1      -3.762   9.665 -11.538  1.00  0.00     0.040 A 
ATOM     79  F   UNL     1      -1.599   9.008 -10.902  1.00  0.00    -0.206 F 
ATOM     80  C   UNL     1      -4.794   9.682 -12.475  1.00  0.00     0.006 A 
ENDBRANCH  52  73
BRANCH  64  81
ATOM     81  C   UNL     1       2.782   9.469 -17.556  1.00  0.00     0.057 A 
ATOM     82  C   UNL     1       3.181  10.774 -17.244  1.00  0.00     0.134 A 
ATOM     83  C   UNL     1       2.655   9.133 -18.910  1.00  0.00     0.134 A 
ATOM     84  F   UNL     1       3.307  11.160 -15.966  1.00  0.00    -0.206 F 
ATOM     85  C   UNL     1       3.441  11.712 -18.245  1.00  0.00     0.040 A 
ATOM     86  C   UNL     1       2.932  10.055 -19.918  1.00  0.00     0.040 A 
ATOM     87  F   UNL     1       2.284   7.896 -19.272  1.00  0.00    -0.206 F 
ATOM     88  C   UNL     1       3.326  11.350 -19.586  1.00  0.00     0.006 A 
ENDBRANCH  64  81
ENDBRANCH  38  39
ENDBRANCH  30  33
ENDBRANCH  28  29
ENDBRANCH  27  28
ENDBRANCH  26  27
ENDBRANCH   1  26
TORSDOF 15
