REMARK SMILES C[C@H](C(=O)NCCCCNC(=O)c1ccc(-c2c3nc(c(-c4c(F)cccc4F)c4ccc([nH]4)c(-c4c(F)cccc4F)c4nc(c(-c5c(F)cccc5F)c5ccc2[nH]5)C=C4)C=C3)cc1)n1c(=O)ssc1=O
REMARK SMILES IDX 8 1 7 2 6 3 5 4 3 5 4 6 2 8 1 9 67 10 68 11 72 12 69 13
REMARK SMILES IDX 70 14 71 15 73 16 9 17 10 18 11 19 12 21 13 22 14 23 66 24
REMARK SMILES IDX 15 25 65 26 16 27 17 28 18 29 59 30 19 31 64 32 58 33 60 34
REMARK SMILES IDX 20 35 63 36 57 37 56 38 21 40 47 41 30 42 46 43 31 44 34 45
REMARK SMILES IDX 45 46 61 47 32 48 33 49 44 51 62 52 35 53 22 54 23 55 28 56
REMARK SMILES IDX 24 57 25 58 27 59 29 60 26 61 48 62 49 63 54 64 50 65 51 66
REMARK SMILES IDX 53 67 55 68 52 69 36 70 37 71 42 72 38 73 39 74 41 75 43 76
REMARK SMILES IDX 40 77
REMARK H PARENT 5 7 10 20 60 39 34 50
REMARK Flexibility Score: inf
ROOT
ATOM      1  C   UNL     1      -2.221   2.688   0.931  1.00  0.00     0.023 C 
ENDROOT
BRANCH   1   2
ATOM      2  C   UNL     1      -2.032   1.551  -0.078  1.00  0.00     0.023 C 
BRANCH   2   3
ATOM      3  C   UNL     1      -0.644   1.514  -0.716  1.00  0.00     0.116 C 
BRANCH   3   4
ATOM      4  N   UNL     1       0.277   0.773   0.117  1.00  0.00    -0.354 N 
ATOM      5  C   UNL     1       0.651  -0.539   0.088  1.00  0.00     0.243 C 
ATOM      6  O   UNL     1       1.485  -0.879   0.932  1.00  0.00    -0.273 OA
ATOM      7  H   UNL     1       0.707   1.305   0.825  1.00  0.00     0.163 HD
BRANCH   5   8
ATOM      8  C   UNL     1       0.149  -1.512  -1.010  1.00  0.00     0.181 C 
ATOM      9  C   UNL     1       0.985  -2.799  -0.989  1.00  0.00     0.042 C 
BRANCH   8  10
ATOM     10  N   UNL     1      -1.304  -1.758  -0.967  1.00  0.00    -0.244 N 
ATOM     11  C   UNL     1      -1.851  -2.594  -0.013  1.00  0.00     0.321 A 
ATOM     12  C   UNL     1      -2.103  -1.249  -1.970  1.00  0.00     0.321 A 
ATOM     13  O   UNL     1      -1.239  -3.282   0.786  1.00  0.00    -0.256 OA
ATOM     14  S   UNL     1      -3.606  -2.640  -0.051  1.00  0.00    -0.014 S 
ATOM     15  S   UNL     1      -3.814  -1.542  -1.737  1.00  0.00    -0.014 S 
ATOM     16  O   UNL     1      -1.711  -0.639  -2.957  1.00  0.00    -0.256 OA
ENDBRANCH   8  10
ENDBRANCH   5   8
ENDBRANCH   3   4
ENDBRANCH   2   3
ENDBRANCH   1   2
BRANCH   1  17
ATOM     17  C   UNL     1      -2.223   4.089   0.326  1.00  0.00     0.116 C 
BRANCH  17  18
ATOM     18  N   UNL     1      -3.242   4.280  -0.695  1.00  0.00    -0.352 N 
ATOM     19  C   UNL     1      -3.958   5.413  -0.999  1.00  0.00     0.251 C 
ATOM     20  H   UNL     1      -3.447   3.489  -1.243  1.00  0.00     0.163 HD
ATOM     21  O   UNL     1      -4.853   5.371  -1.836  1.00  0.00    -0.269 OA
BRANCH  19  22
ATOM     22  C   UNL     1      -3.675   6.671  -0.278  1.00  0.00     0.039 A 
ATOM     23  C   UNL     1      -4.748   7.396   0.244  1.00  0.00     0.014 A 
ATOM     24  C   UNL     1      -2.364   7.116  -0.090  1.00  0.00     0.014 A 
ATOM     25  C   UNL     1      -4.501   8.526   1.023  1.00  0.00     0.010 A 
ATOM     26  C   UNL     1      -2.116   8.199   0.747  1.00  0.00     0.010 A 
ATOM     27  C   UNL     1      -3.182   8.911   1.317  1.00  0.00    -0.014 A 
BRANCH  27  28
ATOM     28  C   UNL     1      -2.909  10.041   2.238  1.00  0.00     0.031 A 
ATOM     29  C   UNL     1      -2.217  11.280   1.741  1.00  0.00     0.074 A 
ATOM     30  C   UNL     1      -3.241   9.927   3.539  1.00  0.00     0.049 A 
ATOM     31  N   UNL     1      -1.874  12.355   2.403  1.00  0.00    -0.248 NA
ATOM     32  C   UNL     1      -1.835  11.303   0.319  1.00  0.00     0.031 C 
ATOM     33  C   UNL     1      -3.855   8.747   4.155  1.00  0.00     0.029 A 
ATOM     34  N   UNL     1      -3.108  10.811   4.579  1.00  0.00    -0.354 N 
ATOM     35  C   UNL     1      -1.236  13.178   1.484  1.00  0.00     0.074 A 
ATOM     36  C   UNL     1      -1.185  12.454   0.232  1.00  0.00     0.031 C 
ATOM     37  C   UNL     1      -4.071   8.994   5.457  1.00  0.00     0.029 A 
ATOM     38  C   UNL     1      -3.587  10.333   5.774  1.00  0.00     0.049 A 
ATOM     39  H   UNL     1      -2.707  11.704   4.478  1.00  0.00     0.167 HD
ATOM     40  C   UNL     1      -0.763  14.434   1.659  1.00  0.00     0.037 A 
ATOM     41  C   UNL     1      -3.633  10.912   6.989  1.00  0.00     0.037 A 
ATOM     42  C   UNL     1      -0.836  15.161   2.899  1.00  0.00     0.049 A 
ATOM     43  C   UNL     1      -3.116  12.314   7.149  1.00  0.00     0.074 A 
ATOM     44  C   UNL     1      -0.428  16.457   3.165  1.00  0.00     0.029 A 
ATOM     45  N   UNL     1      -1.355  14.654   4.081  1.00  0.00    -0.354 N 
ATOM     46  N   UNL     1      -2.581  13.106   6.252  1.00  0.00    -0.248 NA
ATOM     47  C   UNL     1      -3.222  12.908   8.489  1.00  0.00     0.031 C 
ATOM     48  C   UNL     1      -0.672  16.723   4.517  1.00  0.00     0.029 A 
ATOM     49  C   UNL     1      -1.268  15.608   5.082  1.00  0.00     0.049 A 
ATOM     50  H   UNL     1      -1.730  13.751   4.191  1.00  0.00     0.167 HD
ATOM     51  C   UNL     1      -2.306  14.296   6.912  1.00  0.00     0.074 A 
ATOM     52  C   UNL     1      -2.758  14.131   8.278  1.00  0.00     0.031 C 
ATOM     53  C   UNL     1      -1.727  15.424   6.434  1.00  0.00     0.037 A 
BRANCH  40  54
ATOM     54  C   UNL     1      -0.144  15.113   0.472  1.00  0.00     0.057 A 
ATOM     55  C   UNL     1      -0.921  15.554  -0.607  1.00  0.00     0.134 A 
ATOM     56  C   UNL     1       1.231  15.370   0.426  1.00  0.00     0.134 A 
ATOM     57  F   UNL     1      -2.243  15.326  -0.631  1.00  0.00    -0.206 F 
ATOM     58  C   UNL     1      -0.350  16.209  -1.699  1.00  0.00     0.040 A 
ATOM     59  C   UNL     1       1.811  16.047  -0.649  1.00  0.00     0.040 A 
ATOM     60  F   UNL     1       2.032  14.978   1.429  1.00  0.00    -0.206 F 
ATOM     61  C   UNL     1       1.020  16.465  -1.717  1.00  0.00     0.006 A 
ENDBRANCH  40  54
BRANCH  41  62
ATOM     62  C   UNL     1      -4.211  10.182   8.145  1.00  0.00     0.057 A 
ATOM     63  C   UNL     1      -5.426  10.579   8.717  1.00  0.00     0.134 A 
ATOM     64  C   UNL     1      -3.552   9.091   8.725  1.00  0.00     0.134 A 
ATOM     65  F   UNL     1      -6.095  11.629   8.217  1.00  0.00    -0.206 F 
ATOM     66  C   UNL     1      -5.951   9.938   9.839  1.00  0.00     0.040 A 
ATOM     67  C   UNL     1      -4.079   8.424   9.832  1.00  0.00     0.040 A 
ATOM     68  F   UNL     1      -2.389   8.655   8.218  1.00  0.00    -0.206 F 
ATOM     69  C   UNL     1      -5.277   8.854  10.399  1.00  0.00     0.006 A 
ENDBRANCH  41  62
BRANCH  53  70
ATOM     70  C   UNL     1      -1.575  16.568   7.392  1.00  0.00     0.057 A 
ATOM     71  C   UNL     1      -0.639  16.539   8.434  1.00  0.00     0.134 A 
ATOM     72  C   UNL     1      -2.364  17.718   7.262  1.00  0.00     0.134 A 
ATOM     73  F   UNL     1       0.137  15.460   8.620  1.00  0.00    -0.206 F 
ATOM     74  C   UNL     1      -0.514  17.600   9.331  1.00  0.00     0.040 A 
ATOM     75  C   UNL     1      -2.230  18.796   8.136  1.00  0.00     0.040 A 
ATOM     76  F   UNL     1      -3.274  17.813   6.280  1.00  0.00    -0.206 F 
ATOM     77  C   UNL     1      -1.308  18.735   9.180  1.00  0.00     0.006 A 
ENDBRANCH  53  70
ENDBRANCH  27  28
ENDBRANCH  19  22
ENDBRANCH  17  18
ENDBRANCH   1  17
TORSDOF 12
