REMARK SMILES Cc1nn(-c2ccccc2)c(C)c1CNC(=O)CCCC(=O)NCCCCNC(=O)c1ccc(-c2c3nc(c(-c4c(F)cccc4F)c4ccc([nH]4)c(-c4c(F)cccc4F)c4nc(c(-c5c(F)cccc5F)c5ccc2[nH]5)C=C4)C=C3)cc1
REMARK SMILES IDX 21 1 22 2 23 3 20 5 19 6 18 7 16 8 15 9 17 11 14 12 13 13
REMARK SMILES IDX 1 14 2 15 3 16 4 17 11 18 12 19 5 20 6 21 10 22 7 23 9 24
REMARK SMILES IDX 8 25 24 26 25 27 26 28 27 29 28 30 29 31 30 33 31 34 32 35
REMARK SMILES IDX 84 36 33 37 83 38 34 39 35 40 36 41 77 42 37 43 82 44 76 45
REMARK SMILES IDX 78 46 38 47 81 48 75 49 74 50 39 52 65 53 48 54 64 55 49 56
REMARK SMILES IDX 52 57 63 58 79 59 50 60 51 61 62 63 80 64 53 65 40 66 41 67
REMARK SMILES IDX 46 68 42 69 43 70 45 71 47 72 44 73 66 74 67 75 72 76 68 77
REMARK SMILES IDX 69 78 71 79 73 80 70 81 54 82 55 83 60 84 56 85 57 86 59 87
REMARK SMILES IDX 61 88 58 89
REMARK H PARENT 23 4 15 10 28 32 78 51 52 62
REMARK Flexibility Score: inf
ROOT
ATOM      1  C   UNL     1      -1.615   4.601  -0.281  1.00  0.00     0.220 C 
ATOM      2  O   UNL     1      -2.786   4.453   0.083  1.00  0.00    -0.275 OA
ATOM      3  N   UNL     1      -0.731   4.981   0.675  1.00  0.00    -0.356 N 
ATOM      4  H   UNL     1      -1.131   5.083   1.569  1.00  0.00     0.163 HD
ENDROOT
BRANCH   1   5
ATOM      5  C   UNL     1      -1.218   4.250  -1.706  1.00  0.00     0.100 C 
BRANCH   5   6
ATOM      6  C   UNL     1      -0.634   5.305  -2.631  1.00  0.00     0.020 C 
BRANCH   6   7
ATOM      7  C   UNL     1       0.844   5.697  -2.626  1.00  0.00     0.100 C 
BRANCH   7   8
ATOM      8  C   UNL     1       2.080   4.845  -2.929  1.00  0.00     0.220 C 
ATOM      9  N   UNL     1       2.367   3.592  -2.531  1.00  0.00    -0.352 N 
ATOM     10  H   UNL     1       3.252   3.309  -2.856  1.00  0.00     0.163 HD
ATOM     11  O   UNL     1       2.993   5.383  -3.576  1.00  0.00    -0.275 OA
BRANCH   9  12
ATOM     12  C   UNL     1       1.735   2.547  -1.760  1.00  0.00     0.155 C 
BRANCH  12  13
ATOM     13  C   UNL     1       1.011   1.561  -2.619  1.00  0.00     0.016 A 
ATOM     14  C   UNL     1       0.620  -0.292  -0.807  1.00  0.00     0.069 C 
ATOM     15  C   UNL     1       0.499   0.307  -2.165  1.00  0.00     0.065 A 
ATOM     16  N   UNL     1      -0.212  -0.321  -3.106  1.00  0.00    -0.173 NA
ATOM     17  N   UNL     1      -0.046   0.428  -4.217  1.00  0.00    -0.237 N 
ATOM     18  C   UNL     1       0.576   1.636  -3.937  1.00  0.00     0.046 A 
ATOM     19  C   UNL     1       0.581   2.746  -4.931  1.00  0.00     0.067 C 
BRANCH  17  20
ATOM     20  C   UNL     1      -0.604   0.047  -5.463  1.00  0.00     0.065 A 
ATOM     21  C   UNL     1      -1.897  -0.477  -5.507  1.00  0.00     0.028 A 
ATOM     22  C   UNL     1       0.087   0.332  -6.651  1.00  0.00     0.028 A 
ATOM     23  C   UNL     1      -2.534  -0.606  -6.743  1.00  0.00     0.002 A 
ATOM     24  C   UNL     1      -0.550   0.188  -7.879  1.00  0.00     0.002 A 
ATOM     25  C   UNL     1      -1.869  -0.257  -7.923  1.00  0.00     0.000 A 
ENDBRANCH  17  20
ENDBRANCH  12  13
ENDBRANCH   9  12
ENDBRANCH   7   8
ENDBRANCH   6   7
ENDBRANCH   5   6
ENDBRANCH   1   5
BRANCH   3  26
ATOM     26  C   UNL     1       0.685   5.265   0.633  1.00  0.00     0.116 C 
BRANCH  26  27
ATOM     27  C   UNL     1       0.964   6.769   0.682  1.00  0.00     0.023 C 
BRANCH  27  28
ATOM     28  C   UNL     1       1.006   7.360   2.091  1.00  0.00     0.023 C 
BRANCH  28  29
ATOM     29  C   UNL     1       2.247   6.954   2.881  1.00  0.00     0.116 C 
BRANCH  29  30
ATOM     30  N   UNL     1       3.483   7.469   2.301  1.00  0.00    -0.352 N 
ATOM     31  C   UNL     1       4.778   7.096   2.617  1.00  0.00     0.251 C 
ATOM     32  H   UNL     1       3.385   8.160   1.607  1.00  0.00     0.163 HD
ATOM     33  O   UNL     1       5.734   7.783   2.336  1.00  0.00    -0.269 OA
BRANCH  31  34
ATOM     34  C   UNL     1       4.954   5.814   3.323  1.00  0.00     0.039 A 
ATOM     35  C   UNL     1       5.558   5.782   4.582  1.00  0.00     0.014 A 
ATOM     36  C   UNL     1       4.399   4.671   2.752  1.00  0.00     0.014 A 
ATOM     37  C   UNL     1       5.517   4.599   5.319  1.00  0.00     0.010 A 
ATOM     38  C   UNL     1       4.288   3.529   3.519  1.00  0.00     0.010 A 
ATOM     39  C   UNL     1       4.853   3.478   4.801  1.00  0.00    -0.014 A 
BRANCH  39  40
ATOM     40  C   UNL     1       4.618   2.301   5.651  1.00  0.00     0.031 A 
ATOM     41  C   UNL     1       3.885   2.518   6.944  1.00  0.00     0.074 A 
ATOM     42  C   UNL     1       4.768   1.041   5.189  1.00  0.00     0.049 A 
ATOM     43  N   UNL     1       4.182   2.075   8.126  1.00  0.00    -0.248 NA
ATOM     44  C   UNL     1       2.665   3.344   6.917  1.00  0.00     0.031 C 
ATOM     45  C   UNL     1       5.176   0.617   3.845  1.00  0.00     0.029 A 
ATOM     46  N   UNL     1       4.427  -0.136   5.789  1.00  0.00    -0.354 N 
ATOM     47  C   UNL     1       3.123   2.431   8.964  1.00  0.00     0.074 A 
ATOM     48  C   UNL     1       2.262   3.285   8.187  1.00  0.00     0.031 C 
ATOM     49  C   UNL     1       4.818  -0.670   3.655  1.00  0.00     0.029 A 
ATOM     50  C   UNL     1       4.309  -1.200   4.907  1.00  0.00     0.049 A 
ATOM     51  H   UNL     1       4.279  -0.223   6.758  1.00  0.00     0.167 HD
ATOM     52  C   UNL     1       2.936   1.869  10.193  1.00  0.00     0.037 A 
ATOM     53  C   UNL     1       3.792  -2.425   5.160  1.00  0.00     0.037 A 
ATOM     54  C   UNL     1       4.129   1.236  10.683  1.00  0.00     0.049 A 
ATOM     55  C   UNL     1       3.806  -2.629   6.626  1.00  0.00     0.074 A 
ATOM     56  C   UNL     1       5.414   1.657  10.964  1.00  0.00     0.029 A 
ATOM     57  N   UNL     1       4.186  -0.134  10.697  1.00  0.00    -0.354 N 
ATOM     58  N   UNL     1       4.889  -2.786   7.333  1.00  0.00    -0.248 NA
ATOM     59  C   UNL     1       2.613  -2.280   7.381  1.00  0.00     0.031 C 
ATOM     60  C   UNL     1       6.246   0.553  10.617  1.00  0.00     0.029 A 
ATOM     61  C   UNL     1       5.407  -0.472  10.177  1.00  0.00     0.049 A 
ATOM     62  H   UNL     1       3.489  -0.751  11.016  1.00  0.00     0.167 HD
ATOM     63  C   UNL     1       4.620  -2.149   8.534  1.00  0.00     0.074 A 
ATOM     64  C   UNL     1       3.171  -1.973   8.553  1.00  0.00     0.031 C 
ATOM     65  C   UNL     1       5.617  -1.572   9.268  1.00  0.00     0.037 A 
BRANCH  52  66
ATOM     66  C   UNL     1       1.592   1.630  10.842  1.00  0.00     0.057 A 
ATOM     67  C   UNL     1       1.526   1.232  12.192  1.00  0.00     0.134 A 
ATOM     68  C   UNL     1       0.393   1.488  10.118  1.00  0.00     0.134 A 
ATOM     69  F   UNL     1       2.606   1.299  12.985  1.00  0.00    -0.206 F 
ATOM     70  C   UNL     1       0.373   0.671  12.757  1.00  0.00     0.040 A 
ATOM     71  C   UNL     1      -0.779   0.975  10.686  1.00  0.00     0.040 A 
ATOM     72  F   UNL     1       0.321   1.742   8.805  1.00  0.00    -0.206 F 
ATOM     73  C   UNL     1      -0.784   0.535  12.001  1.00  0.00     0.006 A 
ENDBRANCH  52  66
BRANCH  53  74
ATOM     74  C   UNL     1       3.127  -3.353   4.223  1.00  0.00     0.057 A 
ATOM     75  C   UNL     1       3.011  -4.719   4.509  1.00  0.00     0.134 A 
ATOM     76  C   UNL     1       2.383  -2.885   3.123  1.00  0.00     0.134 A 
ATOM     77  F   UNL     1       3.645  -5.250   5.564  1.00  0.00    -0.206 F 
ATOM     78  C   UNL     1       2.200  -5.571   3.749  1.00  0.00     0.040 A 
ATOM     79  C   UNL     1       1.579  -3.727   2.349  1.00  0.00     0.040 A 
ATOM     80  F   UNL     1       2.352  -1.581   2.810  1.00  0.00    -0.206 F 
ATOM     81  C   UNL     1       1.477  -5.074   2.668  1.00  0.00     0.006 A 
ENDBRANCH  53  74
BRANCH  65  82
ATOM     82  C   UNL     1       7.040  -1.873   8.891  1.00  0.00     0.057 A 
ATOM     83  C   UNL     1       7.611  -1.514   7.661  1.00  0.00     0.134 A 
ATOM     84  C   UNL     1       7.904  -2.391   9.861  1.00  0.00     0.134 A 
ATOM     85  F   UNL     1       6.889  -0.908   6.712  1.00  0.00    -0.206 F 
ATOM     86  C   UNL     1       8.967  -1.710   7.391  1.00  0.00     0.040 A 
ATOM     87  C   UNL     1       9.269  -2.561   9.616  1.00  0.00     0.040 A 
ATOM     88  F   UNL     1       7.443  -2.696  11.085  1.00  0.00    -0.206 F 
ATOM     89  C   UNL     1       9.803  -2.230   8.373  1.00  0.00     0.006 A 
ENDBRANCH  65  82
ENDBRANCH  39  40
ENDBRANCH  31  34
ENDBRANCH  29  30
ENDBRANCH  28  29
ENDBRANCH  27  28
ENDBRANCH  26  27
ENDBRANCH   3  26
TORSDOF 17
