REMARK SMILES [NH3+]CCOCC(=O)Nc1ccc(C(=O)NCCCCNC(=O)c2ccc(-c3c4nc(c(-c5c(F)cccc5F)c5ccc([nH]5)c(-c5c(F)cccc5F)c5nc(c(-c6c(F)cccc6F)c6ccc3[nH]6)C=C5)C=C4)cc2)c(Cl)c1
REMARK SMILES IDX 13 1 14 2 15 3 12 5 9 6 10 7 79 8 11 9 77 10 78 11 8 12 6 13
REMARK SMILES IDX 7 14 5 16 4 17 3 18 2 19 1 20 16 24 17 25 18 26 19 27 20 28
REMARK SMILES IDX 21 29 22 31 23 32 24 33 76 34 25 35 75 36 26 37 27 38 28 39
REMARK SMILES IDX 69 40 29 41 74 42 68 43 70 44 30 45 73 46 67 47 66 48 31 50
REMARK SMILES IDX 57 51 40 52 56 53 41 54 44 55 55 56 71 57 42 58 43 59 54 61
REMARK SMILES IDX 72 62 45 63 32 64 33 65 38 66 34 67 35 68 37 69 39 70 36 71
REMARK SMILES IDX 58 72 59 73 64 74 60 75 61 76 63 77 65 78 62 79 46 80 47 81
REMARK SMILES IDX 52 82 48 83 49 84 51 85 53 86 50 87
REMARK H PARENT 15 4 8 15 1 21 1 22 1 23 20 30 70 49 44 60
REMARK Flexibility Score: inf
ROOT
ATOM      1  C   UNL     1       0.536  -7.282   3.677  1.00  0.00     0.252 C 
ATOM      2  O   UNL     1      -0.590  -7.318   3.167  1.00  0.00    -0.269 OA
ATOM      3  N   UNL     1       0.823  -8.322   4.514  1.00  0.00    -0.352 N 
ATOM      4  H   UNL     1       0.155  -9.045   4.481  1.00  0.00     0.163 HD
ENDROOT
BRANCH   1   5
ATOM      5  C   UNL     1       1.460  -6.187   3.247  1.00  0.00     0.058 A 
ATOM      6  C   UNL     1       2.754  -3.935   2.112  1.00  0.00     0.042 A 
ATOM      7  C   UNL     1       1.816  -4.635   1.371  1.00  0.00     0.027 A 
ATOM      8  C   UNL     1       3.124  -4.400   3.362  1.00  0.00     0.047 A 
ATOM      9  C   UNL     1       1.205  -5.763   1.922  1.00  0.00     0.017 A 
ATOM     10  C   UNL     1       2.423  -5.460   3.965  1.00  0.00     0.055 A 
ATOM     11  Cl  UNL     1       2.735  -5.534   5.652  1.00  0.00    -0.083 Cl
BRANCH   6  12
ATOM     12  N   UNL     1       3.284  -2.712   1.699  1.00  0.00    -0.324 N 
ATOM     13  C   UNL     1       2.568  -1.588   1.373  1.00  0.00     0.250 C 
ATOM     14  O   UNL     1       3.174  -0.566   1.038  1.00  0.00    -0.272 OA
ATOM     15  H   UNL     1       4.264  -2.650   1.635  1.00  0.00     0.170 HD
BRANCH  13  16
ATOM     16  C   UNL     1       1.030  -1.593   1.496  1.00  0.00     0.260 C 
BRANCH  16  17
ATOM     17  O   UNL     1       0.253  -2.125   0.441  1.00  0.00    -0.366 OA
BRANCH  17  18
ATOM     18  C   UNL     1       0.701  -1.802  -0.874  1.00  0.00     0.222 C 
BRANCH  18  19
ATOM     19  C   UNL     1       0.303  -0.398  -1.352  1.00  0.00     0.287 C 
BRANCH  19  20
ATOM     20  N   UNL     1       0.986   0.713  -0.691  1.00  0.00    -0.356 N 
ATOM     21  H   UNL     1       0.652   1.596  -1.078  1.00  0.00     0.344 HD
ATOM     22  H   UNL     1       1.992   0.634  -0.843  1.00  0.00     0.344 HD
ATOM     23  H   UNL     1       0.791   0.686   0.310  1.00  0.00     0.344 HD
ENDBRANCH  19  20
ENDBRANCH  18  19
ENDBRANCH  17  18
ENDBRANCH  16  17
ENDBRANCH  13  16
ENDBRANCH   6  12
ENDBRANCH   1   5
BRANCH   3  24
ATOM     24  C   UNL     1       1.901  -8.581   5.436  1.00  0.00     0.116 C 
BRANCH  24  25
ATOM     25  C   UNL     1       1.510  -8.051   6.820  1.00  0.00     0.023 C 
BRANCH  25  26
ATOM     26  C   UNL     1       0.787  -9.041   7.723  1.00  0.00     0.023 C 
BRANCH  26  27
ATOM     27  C   UNL     1       1.632 -10.237   8.126  1.00  0.00     0.116 C 
BRANCH  27  28
ATOM     28  N   UNL     1       2.918  -9.882   8.714  1.00  0.00    -0.352 N 
ATOM     29  C   UNL     1       3.686 -10.635   9.566  1.00  0.00     0.251 C 
ATOM     30  H   UNL     1       3.278  -8.999   8.470  1.00  0.00     0.163 HD
ATOM     31  O   UNL     1       4.725 -10.196  10.044  1.00  0.00    -0.269 OA
BRANCH  29  32
ATOM     32  C   UNL     1       3.194 -11.972   9.937  1.00  0.00     0.039 A 
ATOM     33  C   UNL     1       3.014 -12.269  11.289  1.00  0.00     0.014 A 
ATOM     34  C   UNL     1       2.814 -12.877   8.943  1.00  0.00     0.014 A 
ATOM     35  C   UNL     1       2.386 -13.460  11.644  1.00  0.00     0.010 A 
ATOM     36  C   UNL     1       2.115 -14.020   9.296  1.00  0.00     0.010 A 
ATOM     37  C   UNL     1       1.902 -14.325  10.649  1.00  0.00    -0.014 A 
BRANCH  37  38
ATOM     38  C   UNL     1       1.198 -15.579  10.998  1.00  0.00     0.031 A 
ATOM     39  C   UNL     1       1.816 -16.897  10.630  1.00  0.00     0.074 A 
ATOM     40  C   UNL     1      -0.015 -15.528  11.579  1.00  0.00     0.049 A 
ATOM     41  N   UNL     1       1.332 -18.104  10.764  1.00  0.00    -0.248 NA
ATOM     42  C   UNL     1       3.144 -16.849   9.994  1.00  0.00     0.031 C 
ATOM     43  C   UNL     1      -0.737 -14.305  11.936  1.00  0.00     0.029 A 
ATOM     44  N   UNL     1      -0.860 -16.537  11.965  1.00  0.00    -0.354 N 
ATOM     45  C   UNL     1       2.283 -18.952  10.213  1.00  0.00     0.074 A 
ATOM     46  C   UNL     1       3.344 -18.121   9.690  1.00  0.00     0.031 C 
ATOM     47  C   UNL     1      -1.904 -14.637  12.514  1.00  0.00     0.029 A 
ATOM     48  C   UNL     1      -2.025 -16.091  12.540  1.00  0.00     0.049 A 
ATOM     49  H   UNL     1      -0.651 -17.491  11.842  1.00  0.00     0.167 HD
ATOM     50  C   UNL     1       2.286 -20.304  10.174  1.00  0.00     0.037 A 
ATOM     51  C   UNL     1      -3.068 -16.783  13.032  1.00  0.00     0.037 A 
ATOM     52  C   UNL     1       1.247 -21.127  10.730  1.00  0.00     0.049 A 
ATOM     53  C   UNL     1      -3.031 -18.286  12.995  1.00  0.00     0.074 A 
ATOM     54  C   UNL     1       1.174 -22.507  10.785  1.00  0.00     0.029 A 
ATOM     55  N   UNL     1       0.101 -20.638  11.341  1.00  0.00    -0.354 N 
ATOM     56  N   UNL     1      -2.101 -19.078  12.518  1.00  0.00    -0.248 NA
ATOM     57  C   UNL     1      -4.184 -18.991  13.572  1.00  0.00     0.031 C 
ATOM     58  C   UNL     1      -0.029 -22.854  11.409  1.00  0.00     0.029 A 
ATOM     59  C   UNL     1      -0.687 -21.690  11.773  1.00  0.00     0.049 A 
ATOM     60  H   UNL     1      -0.118 -19.685  11.450  1.00  0.00     0.167 HD
ATOM     61  C   UNL     1      -2.540 -20.372  12.768  1.00  0.00     0.074 A 
ATOM     62  C   UNL     1      -3.815 -20.257  13.445  1.00  0.00     0.031 C 
ATOM     63  C   UNL     1      -1.942 -21.549  12.465  1.00  0.00     0.037 A 
BRANCH  50  64
ATOM     64  C   UNL     1       3.460 -20.969   9.519  1.00  0.00     0.057 A 
ATOM     65  C   UNL     1       4.729 -20.970  10.114  1.00  0.00     0.134 A 
ATOM     66  C   UNL     1       3.321 -21.623   8.290  1.00  0.00     0.134 A 
ATOM     67  F   UNL     1       4.933 -20.344  11.283  1.00  0.00    -0.206 F 
ATOM     68  C   UNL     1       5.824 -21.576   9.496  1.00  0.00     0.040 A 
ATOM     69  C   UNL     1       4.402 -22.255   7.675  1.00  0.00     0.040 A 
ATOM     70  F   UNL     1       2.133 -21.659   7.667  1.00  0.00    -0.206 F 
ATOM     71  C   UNL     1       5.660 -22.227   8.275  1.00  0.00     0.006 A 
ENDBRANCH  50  64
BRANCH  51  72
ATOM     72  C   UNL     1      -4.218 -16.070  13.640  1.00  0.00     0.057 A 
ATOM     73  C   UNL     1      -4.434 -16.104  15.023  1.00  0.00     0.134 A 
ATOM     74  C   UNL     1      -5.135 -15.354  12.861  1.00  0.00     0.134 A 
ATOM     75  F   UNL     1      -3.599 -16.787  15.819  1.00  0.00    -0.206 F 
ATOM     76  C   UNL     1      -5.533 -15.472  15.608  1.00  0.00     0.040 A 
ATOM     77  C   UNL     1      -6.226 -14.700  13.435  1.00  0.00     0.040 A 
ATOM     78  F   UNL     1      -4.978 -15.277  11.531  1.00  0.00    -0.206 F 
ATOM     79  C   UNL     1      -6.431 -14.765  14.812  1.00  0.00     0.006 A 
ENDBRANCH  51  72
BRANCH  63  80
ATOM     80  C   UNL     1      -2.635 -22.802  12.908  1.00  0.00     0.057 A 
ATOM     81  C   UNL     1      -3.780 -23.281  12.261  1.00  0.00     0.134 A 
ATOM     82  C   UNL     1      -2.122 -23.557  13.970  1.00  0.00     0.134 A 
ATOM     83  F   UNL     1      -4.325 -22.594  11.245  1.00  0.00    -0.206 F 
ATOM     84  C   UNL     1      -4.404 -24.460  12.668  1.00  0.00     0.040 A 
ATOM     85  C   UNL     1      -2.724 -24.750  14.371  1.00  0.00     0.040 A 
ATOM     86  F   UNL     1      -1.023 -23.155  14.624  1.00  0.00    -0.206 F 
ATOM     87  C   UNL     1      -3.872 -25.202  13.723  1.00  0.00     0.006 A 
ENDBRANCH  63  80
ENDBRANCH  37  38
ENDBRANCH  29  32
ENDBRANCH  27  28
ENDBRANCH  26  27
ENDBRANCH  25  26
ENDBRANCH  24  25
ENDBRANCH   3  24
TORSDOF 17
