REMARK SMILES C[C@@H](C(=O)NCCCCNC(=O)c1ccc(-c2c3nc(c(-c4c(F)cccc4F)c4ccc([nH]4)c(-c4c(F)cccc4F)c4nc(c(-c5c(F)cccc5F)c5ccc2[nH]5)C=C4)C=C3)cc1)c1ccc(C[C@H]2CCC[C@@H]2O)cc1Br
REMARK SMILES IDX 6 1 5 2 3 3 4 4 2 6 1 7 67 8 68 9 79 10 69 11 78 12 80 13
REMARK SMILES IDX 70 14 71 15 72 16 73 17 76 18 74 19 75 20 77 21 7 23 8 24
REMARK SMILES IDX 9 25 10 26 11 27 12 29 13 30 14 31 66 32 15 33 65 34 16 35
REMARK SMILES IDX 17 36 18 37 59 38 19 39 64 40 58 41 60 42 20 43 63 44 57 45
REMARK SMILES IDX 56 46 21 48 47 49 30 50 46 51 31 52 34 53 45 54 61 55 32 56
REMARK SMILES IDX 33 57 44 59 62 60 35 61 22 62 23 63 28 64 24 65 25 66 27 67
REMARK SMILES IDX 29 68 26 69 48 70 49 71 54 72 50 73 51 74 53 75 55 76 52 77
REMARK SMILES IDX 36 78 37 79 42 80 38 81 39 82 41 83 43 84 40 85
REMARK H PARENT 5 5 77 22 10 28 60 47 34 58
REMARK Flexibility Score: inf
ROOT
ATOM      1  C   UNL     1       3.295   1.698   0.218  1.00  0.00     0.116 C 
ENDROOT
BRANCH   1   2
ATOM      2  N   UNL     1       2.239   2.283  -0.588  1.00  0.00    -0.356 N 
ATOM      3  C   UNL     1       0.960   1.849  -0.804  1.00  0.00     0.227 C 
ATOM      4  O   UNL     1       0.373   2.340  -1.771  1.00  0.00    -0.274 OA
ATOM      5  H   UNL     1       2.481   3.118  -1.050  1.00  0.00     0.163 HD
BRANCH   3   6
ATOM      6  C   UNL     1       0.328   0.792   0.134  1.00  0.00     0.106 C 
ATOM      7  C   UNL     1       0.858  -0.561  -0.347  1.00  0.00     0.023 C 
BRANCH   6   8
ATOM      8  C   UNL     1      -1.204   0.908   0.277  1.00  0.00    -0.022 A 
ATOM      9  C   UNL     1      -1.777   2.199   0.169  1.00  0.00     0.006 A 
ATOM     10  C   UNL     1      -2.103  -0.138   0.577  1.00  0.00     0.022 A 
ATOM     11  C   UNL     1      -3.154   2.427   0.250  1.00  0.00     0.004 A 
ATOM     12  C   UNL     1      -3.487   0.098   0.657  1.00  0.00     0.019 A 
ATOM     13  Br  UNL     1      -1.633  -1.931   1.013  1.00  0.00    -0.051 Br
ATOM     14  C   UNL     1      -4.026   1.377   0.504  1.00  0.00    -0.047 A 
BRANCH  14  15
ATOM     15  C   UNL     1      -5.508   1.599   0.665  1.00  0.00     0.041 C 
BRANCH  15  16
ATOM     16  C   UNL     1      -5.963   2.115   2.039  1.00  0.00     0.022 C 
ATOM     17  C   UNL     1      -5.453   1.347   3.271  1.00  0.00     0.007 C 
ATOM     18  C   UNL     1      -5.611   3.576   2.333  1.00  0.00     0.117 C 
ATOM     19  C   UNL     1      -5.234   2.399   4.365  1.00  0.00     0.003 C 
ATOM     20  C   UNL     1      -5.852   3.682   3.831  1.00  0.00     0.032 C 
BRANCH  18  21
ATOM     21  O   UNL     1      -6.421   4.476   1.601  1.00  0.00    -0.393 OA
ATOM     22  H   UNL     1      -7.355   4.309   1.804  1.00  0.00     0.210 HD
ENDBRANCH  18  21
ENDBRANCH  15  16
ENDBRANCH  14  15
ENDBRANCH   6   8
ENDBRANCH   3   6
ENDBRANCH   1   2
BRANCH   1  23
ATOM     23  C   UNL     1       4.254   0.865  -0.640  1.00  0.00     0.023 C 
BRANCH  23  24
ATOM     24  C   UNL     1       5.027   1.654  -1.696  1.00  0.00     0.023 C 
BRANCH  24  25
ATOM     25  C   UNL     1       5.990   2.686  -1.134  1.00  0.00     0.116 C 
BRANCH  25  26
ATOM     26  N   UNL     1       7.032   2.091  -0.307  1.00  0.00    -0.352 N 
ATOM     27  C   UNL     1       8.377   2.367  -0.302  1.00  0.00     0.251 C 
ATOM     28  H   UNL     1       6.733   1.402   0.329  1.00  0.00     0.163 HD
ATOM     29  O   UNL     1       9.157   1.695   0.365  1.00  0.00    -0.269 OA
BRANCH  27  30
ATOM     30  C   UNL     1       8.875   3.471  -1.144  1.00  0.00     0.039 A 
ATOM     31  C   UNL     1       9.911   3.224  -2.048  1.00  0.00     0.014 A 
ATOM     32  C   UNL     1       8.257   4.722  -1.087  1.00  0.00     0.014 A 
ATOM     33  C   UNL     1      10.277   4.217  -2.958  1.00  0.00     0.010 A 
ATOM     34  C   UNL     1       8.573   5.681  -2.038  1.00  0.00     0.010 A 
ATOM     35  C   UNL     1       9.582   5.436  -2.984  1.00  0.00    -0.014 A 
BRANCH  35  36
ATOM     36  C   UNL     1       9.876   6.489  -3.984  1.00  0.00     0.031 A 
ATOM     37  C   UNL     1      10.375   7.825  -3.519  1.00  0.00     0.074 A 
ATOM     38  C   UNL     1       9.568   6.291  -5.279  1.00  0.00     0.049 A 
ATOM     39  N   UNL     1      10.495   8.943  -4.186  1.00  0.00    -0.248 NA
ATOM     40  C   UNL     1      10.744   7.926  -2.098  1.00  0.00     0.031 C 
ATOM     41  C   UNL     1       9.029   5.053  -5.844  1.00  0.00     0.029 A 
ATOM     42  N   UNL     1       9.633   7.146  -6.349  1.00  0.00    -0.354 N 
ATOM     43  C   UNL     1      10.909   9.889  -3.258  1.00  0.00     0.074 A 
ATOM     44  C   UNL     1      10.988   9.221  -1.976  1.00  0.00     0.031 C 
ATOM     45  C   UNL     1       8.809   5.230  -7.157  1.00  0.00     0.029 A 
ATOM     46  C   UNL     1       9.153   6.603  -7.516  1.00  0.00     0.049 A 
ATOM     47  H   UNL     1       9.988   8.062  -6.287  1.00  0.00     0.167 HD
ATOM     48  C   UNL     1      11.206  11.194  -3.459  1.00  0.00     0.037 A 
ATOM     49  C   UNL     1       8.988   7.156  -8.732  1.00  0.00     0.037 A 
ATOM     50  C   UNL     1      11.173  11.839  -4.744  1.00  0.00     0.049 A 
ATOM     51  C   UNL     1       9.369   8.593  -8.945  1.00  0.00     0.074 A 
ATOM     52  C   UNL     1      11.539  13.132  -5.070  1.00  0.00     0.029 A 
ATOM     53  N   UNL     1      10.751  11.232  -5.918  1.00  0.00    -0.354 N 
ATOM     54  N   UNL     1       9.814   9.465  -8.073  1.00  0.00    -0.248 NA
ATOM     55  C   UNL     1       9.229   9.123 -10.308  1.00  0.00     0.031 C 
ATOM     56  C   UNL     1      11.312  13.317  -6.439  1.00  0.00     0.029 A 
ATOM     57  C   UNL     1      10.836  12.128  -6.969  1.00  0.00     0.049 A 
ATOM     58  H   UNL     1      10.437  10.302  -5.992  1.00  0.00     0.167 HD
ATOM     59  C   UNL     1      10.028  10.638  -8.783  1.00  0.00     0.074 A 
ATOM     60  C   UNL     1       9.669  10.365 -10.160  1.00  0.00     0.031 C 
ATOM     61  C   UNL     1      10.484  11.833  -8.335  1.00  0.00     0.037 A 
BRANCH  48  62
ATOM     62  C   UNL     1      11.585  12.002  -2.255  1.00  0.00     0.057 A 
ATOM     63  C   UNL     1      12.806  11.816  -1.592  1.00  0.00     0.134 A 
ATOM     64  C   UNL     1      10.714  12.972  -1.746  1.00  0.00     0.134 A 
ATOM     65  F   UNL     1      13.677  10.890  -2.020  1.00  0.00    -0.206 F 
ATOM     66  C   UNL     1      13.130  12.542  -0.445  1.00  0.00     0.040 A 
ATOM     67  C   UNL     1      11.039  13.723  -0.615  1.00  0.00     0.040 A 
ATOM     68  F   UNL     1       9.530  13.202  -2.335  1.00  0.00    -0.206 F 
ATOM     69  C   UNL     1      12.246  13.501   0.044  1.00  0.00     0.006 A 
ENDBRANCH  48  62
BRANCH  49  70
ATOM     70  C   UNL     1       8.449   6.334  -9.841  1.00  0.00     0.057 A 
ATOM     71  C   UNL     1       9.287   5.856 -10.854  1.00  0.00     0.134 A 
ATOM     72  C   UNL     1       7.096   5.978  -9.898  1.00  0.00     0.134 A 
ATOM     73  F   UNL     1      10.589   6.178 -10.859  1.00  0.00    -0.206 F 
ATOM     74  C   UNL     1       8.800   5.057 -11.889  1.00  0.00     0.040 A 
ATOM     75  C   UNL     1       6.598   5.164 -10.916  1.00  0.00     0.040 A 
ATOM     76  F   UNL     1       6.246   6.398  -8.950  1.00  0.00    -0.206 F 
ATOM     77  C   UNL     1       7.452   4.703 -11.917  1.00  0.00     0.006 A 
ENDBRANCH  49  70
BRANCH  61  78
ATOM     78  C   UNL     1      10.655  12.926  -9.345  1.00  0.00     0.057 A 
ATOM     79  C   UNL     1       9.562  13.643  -9.845  1.00  0.00     0.134 A 
ATOM     80  C   UNL     1      11.934  13.304  -9.772  1.00  0.00     0.134 A 
ATOM     81  F   UNL     1       8.312  13.320  -9.482  1.00  0.00    -0.206 F 
ATOM     82  C   UNL     1       9.736  14.697 -10.745  1.00  0.00     0.040 A 
ATOM     83  C   UNL     1      12.121  14.367 -10.656  1.00  0.00     0.040 A 
ATOM     84  F   UNL     1      13.021  12.659  -9.323  1.00  0.00    -0.206 F 
ATOM     85  C   UNL     1      11.019  15.066 -11.146  1.00  0.00     0.006 A 
ENDBRANCH  61  78
ENDBRANCH  35  36
ENDBRANCH  27  30
ENDBRANCH  25  26
ENDBRANCH  24  25
ENDBRANCH  23  24
ENDBRANCH   1  23
TORSDOF 15
