REMARK SMILES O=C(C[C@H]1C[C@H]2CC[C@@H](C1)N2C(=O)NCCC1CC1)NCCCCNC(=O)c1ccc(-c2c3nc(c(-c4c(F)cccc4F)c4ccc([nH]4)c(-c4c(F)cccc4F)c4nc(c(-c5c(F)cccc5F)c5ccc2[nH]5)C=C4)C=C3)cc1
REMARK SMILES IDX 21 1 20 2 1 3 2 4 3 6 4 7 5 8 10 9 6 10 9 11 7 12 11 13 8 14
REMARK SMILES IDX 12 15 13 16 14 17 15 19 16 20 17 21 18 22 19 23 22 24 23 25
REMARK SMILES IDX 24 26 25 27 26 28 27 30 28 31 29 32 81 33 30 34 80 35 31 36
REMARK SMILES IDX 32 37 33 38 74 39 34 40 79 41 73 42 75 43 35 44 78 45 72 46
REMARK SMILES IDX 71 47 36 49 62 50 45 51 61 52 46 53 49 54 60 55 76 56 47 57
REMARK SMILES IDX 48 58 59 60 77 61 50 62 37 63 38 64 43 65 39 66 40 67 42 68
REMARK SMILES IDX 44 69 41 70 63 71 64 72 69 73 65 74 66 75 68 76 70 77 67 78
REMARK SMILES IDX 51 79 52 80 57 81 53 82 54 83 56 84 58 85 55 86
REMARK H PARENT 20 5 14 18 25 29 75 48 49 59
REMARK Flexibility Score: inf
ROOT
ATOM      1  C   UNL     1       1.313  -1.481   2.031  1.00  0.00     0.116 C 
ENDROOT
BRANCH   1   2
ATOM      2  N   UNL     1       1.770  -1.138   0.681  1.00  0.00    -0.356 N 
ATOM      3  O   UNL     1       0.613   0.843   0.594  1.00  0.00    -0.275 OA
ATOM      4  C   UNL     1       1.474   0.103   0.126  1.00  0.00     0.220 C 
ATOM      5  H   UNL     1       2.291  -1.792   0.163  1.00  0.00     0.163 HD
BRANCH   4   6
ATOM      6  C   UNL     1       2.303   0.529  -1.089  1.00  0.00     0.103 C 
BRANCH   6   7
ATOM      7  C   UNL     1       3.522   1.507  -0.955  1.00  0.00     0.002 C 
ATOM      8  C   UNL     1       3.432   2.774  -0.066  1.00  0.00     0.029 C 
ATOM      9  C   UNL     1       4.856   0.800  -0.703  1.00  0.00     0.029 C 
ATOM     10  C   UNL     1       4.113   2.675   1.328  1.00  0.00     0.087 C 
ATOM     11  C   UNL     1       5.309   0.796   0.758  1.00  0.00     0.087 C 
ATOM     12  C   UNL     1       3.438   1.574   2.138  1.00  0.00     0.027 C 
ATOM     13  N   UNL     1       5.476   2.119   1.280  1.00  0.00    -0.319 N 
ATOM     14  C   UNL     1       4.248   0.324   1.736  1.00  0.00     0.027 C 
BRANCH  13  15
ATOM     15  C   UNL     1       6.332   2.454   2.308  1.00  0.00     0.317 C 
ATOM     16  O   UNL     1       6.304   3.571   2.832  1.00  0.00    -0.249 OA
ATOM     17  N   UNL     1       7.170   1.554   2.883  1.00  0.00    -0.338 N 
ATOM     18  H   UNL     1       7.747   1.986   3.554  1.00  0.00     0.165 HD
BRANCH  17  19
ATOM     19  C   UNL     1       7.460   0.124   2.786  1.00  0.00     0.118 C 
BRANCH  19  20
ATOM     20  C   UNL     1       8.566  -0.223   1.797  1.00  0.00     0.025 C 
BRANCH  20  21
ATOM     21  C   UNL     1       9.920  -0.181   2.441  1.00  0.00    -0.009 C 
ATOM     22  C   UNL     1      11.085  -0.810   1.725  1.00  0.00     0.004 C 
ATOM     23  C   UNL     1      11.006   0.684   1.868  1.00  0.00     0.004 C 
ENDBRANCH  20  21
ENDBRANCH  19  20
ENDBRANCH  17  19
ENDBRANCH  13  15
ENDBRANCH   6   7
ENDBRANCH   4   6
ENDBRANCH   1   2
BRANCH   1  24
ATOM     24  C   UNL     1       1.954  -2.724   2.687  1.00  0.00     0.023 C 
BRANCH  24  25
ATOM     25  C   UNL     1       3.449  -2.708   3.075  1.00  0.00     0.023 C 
BRANCH  25  26
ATOM     26  C   UNL     1       3.892  -1.798   4.236  1.00  0.00     0.116 C 
BRANCH  26  27
ATOM     27  N   UNL     1       3.557  -2.277   5.561  1.00  0.00    -0.352 N 
ATOM     28  C   UNL     1       4.320  -2.488   6.689  1.00  0.00     0.251 C 
ATOM     29  H   UNL     1       2.603  -2.494   5.678  1.00  0.00     0.163 HD
ATOM     30  O   UNL     1       3.752  -2.873   7.709  1.00  0.00    -0.269 OA
BRANCH  28  31
ATOM     31  C   UNL     1       5.803  -2.332   6.727  1.00  0.00     0.039 A 
ATOM     32  C   UNL     1       6.535  -3.316   7.408  1.00  0.00     0.014 A 
ATOM     33  C   UNL     1       6.489  -1.229   6.217  1.00  0.00     0.014 A 
ATOM     34  C   UNL     1       7.934  -3.247   7.497  1.00  0.00     0.010 A 
ATOM     35  C   UNL     1       7.897  -1.181   6.278  1.00  0.00     0.010 A 
ATOM     36  C   UNL     1       8.643  -2.203   6.887  1.00  0.00    -0.014 A 
BRANCH  36  37
ATOM     37  C   UNL     1      10.140  -2.208   6.848  1.00  0.00     0.031 A 
ATOM     38  C   UNL     1      10.954  -1.116   7.499  1.00  0.00     0.074 A 
ATOM     39  C   UNL     1      10.791  -3.189   6.186  1.00  0.00     0.049 A 
ATOM     40  N   UNL     1      12.257  -0.965   7.538  1.00  0.00    -0.248 NA
ATOM     41  C   UNL     1      10.208  -0.048   8.178  1.00  0.00     0.031 C 
ATOM     42  C   UNL     1      10.150  -4.292   5.468  1.00  0.00     0.029 A 
ATOM     43  N   UNL     1      12.136  -3.420   6.005  1.00  0.00    -0.354 N 
ATOM     44  C   UNL     1      12.486   0.214   8.240  1.00  0.00     0.074 A 
ATOM     45  C   UNL     1      11.185   0.765   8.559  1.00  0.00     0.031 C 
ATOM     46  C   UNL     1      11.095  -5.094   4.953  1.00  0.00     0.029 A 
ATOM     47  C   UNL     1      12.412  -4.546   5.264  1.00  0.00     0.049 A 
ATOM     48  H   UNL     1      12.837  -2.833   6.372  1.00  0.00     0.167 HD
ATOM     49  C   UNL     1      13.664   0.777   8.608  1.00  0.00     0.037 A 
ATOM     50  C   UNL     1      13.585  -5.082   4.869  1.00  0.00     0.037 A 
ATOM     51  C   UNL     1      14.966   0.234   8.308  1.00  0.00     0.049 A 
ATOM     52  C   UNL     1      14.879  -4.426   5.269  1.00  0.00     0.074 A 
ATOM     53  C   UNL     1      16.209   0.717   8.685  1.00  0.00     0.029 A 
ATOM     54  N   UNL     1      15.197  -0.906   7.554  1.00  0.00    -0.354 N 
ATOM     55  N   UNL     1      15.072  -3.349   5.989  1.00  0.00    -0.248 NA
ATOM     56  C   UNL     1      16.120  -5.066   4.805  1.00  0.00     0.031 C 
ATOM     57  C   UNL     1      17.192  -0.102   8.117  1.00  0.00     0.029 A 
ATOM     58  C   UNL     1      16.561  -1.127   7.434  1.00  0.00     0.049 A 
ATOM     59  H   UNL     1      14.496  -1.475   7.162  1.00  0.00     0.167 HD
ATOM     60  C   UNL     1      16.450  -3.198   6.088  1.00  0.00     0.074 A 
ATOM     61  C   UNL     1      17.046  -4.303   5.367  1.00  0.00     0.031 C 
ATOM     62  C   UNL     1      17.155  -2.229   6.721  1.00  0.00     0.037 A 
BRANCH  49  63
ATOM     63  C   UNL     1      13.604   2.062   9.388  1.00  0.00     0.057 A 
ATOM     64  C   UNL     1      13.148   2.100  10.712  1.00  0.00     0.134 A 
ATOM     65  C   UNL     1      14.049   3.265   8.825  1.00  0.00     0.134 A 
ATOM     66  F   UNL     1      12.704   0.985  11.311  1.00  0.00    -0.206 F 
ATOM     67  C   UNL     1      13.105   3.293  11.437  1.00  0.00     0.040 A 
ATOM     68  C   UNL     1      14.040   4.459   9.550  1.00  0.00     0.040 A 
ATOM     69  F   UNL     1      14.515   3.299   7.568  1.00  0.00    -0.206 F 
ATOM     70  C   UNL     1      13.558   4.476  10.857  1.00  0.00     0.006 A 
ENDBRANCH  49  63
BRANCH  50  71
ATOM     71  C   UNL     1      13.598  -6.322   4.048  1.00  0.00     0.057 A 
ATOM     72  C   UNL     1      14.074  -7.532   4.567  1.00  0.00     0.134 A 
ATOM     73  C   UNL     1      13.153  -6.322   2.720  1.00  0.00     0.134 A 
ATOM     74  F   UNL     1      14.536  -7.592   5.824  1.00  0.00    -0.206 F 
ATOM     75  C   UNL     1      14.127  -8.691   3.791  1.00  0.00     0.040 A 
ATOM     76  C   UNL     1      13.174  -7.480   1.941  1.00  0.00     0.040 A 
ATOM     77  F   UNL     1      12.681  -5.197   2.164  1.00  0.00    -0.206 F 
ATOM     78  C   UNL     1      13.670  -8.668   2.475  1.00  0.00     0.006 A 
ENDBRANCH  50  71
BRANCH  62  79
ATOM     79  C   UNL     1      18.654  -2.333   6.696  1.00  0.00     0.057 A 
ATOM     80  C   UNL     1      19.397  -2.102   5.530  1.00  0.00     0.134 A 
ATOM     81  C   UNL     1      19.368  -2.633   7.864  1.00  0.00     0.134 A 
ATOM     82  F   UNL     1      18.777  -1.823   4.374  1.00  0.00    -0.206 F 
ATOM     83  C   UNL     1      20.791  -2.188   5.522  1.00  0.00     0.040 A 
ATOM     84  C   UNL     1      20.762  -2.695   7.875  1.00  0.00     0.040 A 
ATOM     85  F   UNL     1      18.721  -2.859   9.018  1.00  0.00    -0.206 F 
ATOM     86  C   UNL     1      21.478  -2.478   6.700  1.00  0.00     0.006 A 
ENDBRANCH  62  79
ENDBRANCH  36  37
ENDBRANCH  28  31
ENDBRANCH  26  27
ENDBRANCH  25  26
ENDBRANCH  24  25
ENDBRANCH   1  24
TORSDOF 16
