REMARK SMILES O=C(NCCCCNC(=O)[C@H]1CC[N@@H+]1CCc1ccccc1)c1ccc(-c2c3nc(c(-c4c(F)cccc4F)c4ccc([nH]4)c(-c4c(F)cccc4F)c4nc(c(-c5c(F)cccc5F)c5ccc2[nH]5)C=C4)C=C3)cc1
REMARK SMILES IDX 6 1 5 2 4 3 3 4 1 5 2 6 23 8 24 9 76 10 25 11 75 12 26 13
REMARK SMILES IDX 27 14 28 15 69 16 29 17 74 18 68 19 70 20 30 21 73 22 67 23
REMARK SMILES IDX 66 24 31 26 57 27 40 28 56 29 41 30 44 31 55 32 71 33 42 34
REMARK SMILES IDX 43 35 54 37 72 38 45 39 32 40 33 41 38 42 34 43 35 44 37 45
REMARK SMILES IDX 39 46 36 47 58 48 59 49 64 50 60 51 61 52 63 53 65 54 62 55
REMARK SMILES IDX 46 56 47 57 52 58 48 59 49 60 51 61 53 62 50 63 7 64 8 65
REMARK SMILES IDX 9 66 10 68 11 69 12 70 14 71 13 72 15 74 16 75 17 76 18 77
REMARK SMILES IDX 22 78 19 79 21 80 20 81
REMARK H PARENT 3 7 70 25 44 36 8 67 14 73
REMARK Flexibility Score: inf
ROOT
ATOM      1  C   UNL     1       6.150  -2.188   2.996  1.00  0.00     0.023 C 
ENDROOT
BRANCH   1   2
ATOM      2  C   UNL     1       4.914  -2.413   2.121  1.00  0.00     0.023 C 
BRANCH   2   3
ATOM      3  C   UNL     1       4.587  -1.276   1.163  1.00  0.00     0.116 C 
BRANCH   3   4
ATOM      4  N   UNL     1       5.630  -1.066   0.171  1.00  0.00    -0.352 N 
ATOM      5  O   UNL     1       6.500  -0.949  -1.913  1.00  0.00    -0.269 OA
ATOM      6  C   UNL     1       5.506  -0.970  -1.194  1.00  0.00     0.251 C 
ATOM      7  H   UNL     1       6.545  -0.981   0.523  1.00  0.00     0.163 HD
BRANCH   6   8
ATOM      8  C   UNL     1       4.156  -0.917  -1.791  1.00  0.00     0.039 A 
ATOM      9  C   UNL     1       3.196  -0.040  -1.279  1.00  0.00     0.014 A 
ATOM     10  C   UNL     1       3.845  -1.764  -2.857  1.00  0.00     0.014 A 
ATOM     11  C   UNL     1       1.891  -0.101  -1.748  1.00  0.00     0.010 A 
ATOM     12  C   UNL     1       2.550  -1.769  -3.380  1.00  0.00     0.010 A 
ATOM     13  C   UNL     1       1.557  -0.955  -2.813  1.00  0.00    -0.014 A 
BRANCH  13  14
ATOM     14  C   UNL     1       0.180  -0.924  -3.362  1.00  0.00     0.031 A 
ATOM     15  C   UNL     1      -0.732  -2.112  -3.253  1.00  0.00     0.074 A 
ATOM     16  C   UNL     1      -0.249   0.210  -3.948  1.00  0.00     0.049 A 
ATOM     17  N   UNL     1      -1.964  -2.244  -3.677  1.00  0.00    -0.248 NA
ATOM     18  C   UNL     1      -0.193  -3.310  -2.592  1.00  0.00     0.031 C 
ATOM     19  C   UNL     1       0.556   1.423  -4.121  1.00  0.00     0.029 A 
ATOM     20  N   UNL     1      -1.463   0.537  -4.492  1.00  0.00    -0.354 N 
ATOM     21  C   UNL     1      -2.342  -3.541  -3.354  1.00  0.00     0.074 A 
ATOM     22  C   UNL     1      -1.201  -4.164  -2.716  1.00  0.00     0.031 C 
ATOM     23  C   UNL     1      -0.197   2.372  -4.692  1.00  0.00     0.029 A 
ATOM     24  C   UNL     1      -1.515   1.820  -4.980  1.00  0.00     0.049 A 
ATOM     25  H   UNL     1      -2.223  -0.087  -4.530  1.00  0.00     0.167 HD
ATOM     26  C   UNL     1      -3.533  -4.150  -3.566  1.00  0.00     0.037 A 
ATOM     27  C   UNL     1      -2.507   2.475  -5.608  1.00  0.00     0.037 A 
ATOM     28  C   UNL     1      -4.669  -3.516  -4.187  1.00  0.00     0.049 A 
ATOM     29  C   UNL     1      -3.809   1.771  -5.843  1.00  0.00     0.074 A 
ATOM     30  C   UNL     1      -5.933  -4.036  -4.410  1.00  0.00     0.029 A 
ATOM     31  N   UNL     1      -4.676  -2.223  -4.690  1.00  0.00    -0.354 N 
ATOM     32  N   UNL     1      -4.162   0.555  -5.502  1.00  0.00    -0.248 NA
ATOM     33  C   UNL     1      -4.849   2.525  -6.554  1.00  0.00     0.031 C 
ATOM     34  C   UNL     1      -6.691  -3.072  -5.084  1.00  0.00     0.029 A 
ATOM     35  C   UNL     1      -5.914  -1.936  -5.243  1.00  0.00     0.049 A 
ATOM     36  H   UNL     1      -3.914  -1.600  -4.658  1.00  0.00     0.167 HD
ATOM     37  C   UNL     1      -5.467   0.402  -5.946  1.00  0.00     0.074 A 
ATOM     38  C   UNL     1      -5.850   1.657  -6.562  1.00  0.00     0.031 C 
ATOM     39  C   UNL     1      -6.275  -0.683  -5.856  1.00  0.00     0.037 A 
BRANCH  26  40
ATOM     40  C   UNL     1      -3.670  -5.583  -3.139  1.00  0.00     0.057 A 
ATOM     41  C   UNL     1      -3.764  -5.950  -1.791  1.00  0.00     0.134 A 
ATOM     42  C   UNL     1      -3.757  -6.605  -4.094  1.00  0.00     0.134 A 
ATOM     43  F   UNL     1      -3.677  -5.021  -0.826  1.00  0.00    -0.206 F 
ATOM     44  C   UNL     1      -3.921  -7.283  -1.406  1.00  0.00     0.040 A 
ATOM     45  C   UNL     1      -3.937  -7.939  -3.722  1.00  0.00     0.040 A 
ATOM     46  F   UNL     1      -3.681  -6.322  -5.403  1.00  0.00    -0.206 F 
ATOM     47  C   UNL     1      -4.015  -8.281  -2.374  1.00  0.00     0.006 A 
ENDBRANCH  26  40
BRANCH  27  48
ATOM     48  C   UNL     1      -2.292   3.870  -6.060  1.00  0.00     0.057 A 
ATOM     49  C   UNL     1      -2.940   4.942  -5.437  1.00  0.00     0.134 A 
ATOM     50  C   UNL     1      -1.412   4.167  -7.109  1.00  0.00     0.134 A 
ATOM     51  F   UNL     1      -3.805   4.718  -4.436  1.00  0.00    -0.206 F 
ATOM     52  C   UNL     1      -2.728   6.259  -5.846  1.00  0.00     0.040 A 
ATOM     53  C   UNL     1      -1.171   5.480  -7.510  1.00  0.00     0.040 A 
ATOM     54  F   UNL     1      -0.754   3.183  -7.739  1.00  0.00    -0.206 F 
ATOM     55  C   UNL     1      -1.835   6.531  -6.881  1.00  0.00     0.006 A 
ENDBRANCH  27  48
BRANCH  39  56
ATOM     56  C   UNL     1      -7.656  -0.546  -6.422  1.00  0.00     0.057 A 
ATOM     57  C   UNL     1      -7.887  -0.530  -7.803  1.00  0.00     0.134 A 
ATOM     58  C   UNL     1      -8.768  -0.449  -5.576  1.00  0.00     0.134 A 
ATOM     59  F   UNL     1      -6.861  -0.603  -8.665  1.00  0.00    -0.206 F 
ATOM     60  C   UNL     1      -9.175  -0.398  -8.324  1.00  0.00     0.040 A 
ATOM     61  C   UNL     1     -10.062  -0.341  -6.085  1.00  0.00     0.040 A 
ATOM     62  F   UNL     1      -8.614  -0.464  -4.244  1.00  0.00    -0.206 F 
ATOM     63  C   UNL     1     -10.268  -0.309  -7.463  1.00  0.00     0.006 A 
ENDBRANCH  39  56
ENDBRANCH  13  14
ENDBRANCH   6   8
ENDBRANCH   3   4
ENDBRANCH   2   3
ENDBRANCH   1   2
BRANCH   1  64
ATOM     64  C   UNL     1       6.120  -0.913   3.838  1.00  0.00     0.116 C 
BRANCH  64  65
ATOM     65  N   UNL     1       4.976  -0.899   4.723  1.00  0.00    -0.351 N 
ATOM     66  C   UNL     1       4.933  -0.732   6.086  1.00  0.00     0.278 C 
ATOM     67  H   UNL     1       4.103  -1.026   4.285  1.00  0.00     0.163 HD
ATOM     68  O   UNL     1       3.822  -0.890   6.611  1.00  0.00    -0.268 OA
BRANCH  66  69
ATOM     69  C   UNL     1       6.246  -0.288   6.849  1.00  0.00     0.279 C 
ATOM     70  C   UNL     1       5.980   0.539   8.127  1.00  0.00     0.137 C 
ATOM     71  N   UNL     1       6.816  -1.366   7.687  1.00  0.00    -0.324 N 
ATOM     72  C   UNL     1       6.460  -0.673   8.927  1.00  0.00     0.269 C 
ATOM     73  H   UNL     1       6.492  -2.319   7.522  1.00  0.00     0.348 HD
BRANCH  71  74
ATOM     74  C   UNL     1       8.258  -1.609   7.538  1.00  0.00     0.267 C 
BRANCH  74  75
ATOM     75  C   UNL     1       9.308  -0.493   7.318  1.00  0.00     0.097 C 
BRANCH  75  76
ATOM     76  C   UNL     1       9.572   0.429   8.481  1.00  0.00    -0.042 A 
ATOM     77  C   UNL     1       9.211   1.781   8.408  1.00  0.00     0.004 A 
ATOM     78  C   UNL     1      10.179  -0.044   9.652  1.00  0.00     0.004 A 
ATOM     79  C   UNL     1       9.383   2.624   9.506  1.00  0.00     0.000 A 
ATOM     80  C   UNL     1      10.370   0.806  10.744  1.00  0.00     0.000 A 
ATOM     81  C   UNL     1       9.958   2.135  10.676  1.00  0.00     0.000 A 
ENDBRANCH  75  76
ENDBRANCH  74  75
ENDBRANCH  71  74
ENDBRANCH  66  69
ENDBRANCH  64  65
ENDBRANCH   1  64
TORSDOF 14
