REMARK SMILES Cc1cc(F)ccc1S(=O)(=O)N1CCO[C@H](CC(=O)NCCCCNC(=O)c2ccc(-c3c4nc(c(-c5c(F)cccc5F)c5ccc([nH]5)c(-c5c(F)cccc5F)c5nc(c(-c6c(F)cccc6F)c6ccc3[nH]6)C=C5)C=C4)cc2)C1
REMARK SMILES IDX 22 1 21 2 20 3 18 4 19 5 17 7 16 8 12 9 13 10 82 11 14 12
REMARK SMILES IDX 15 13 9 14 10 15 11 16 8 17 1 18 2 19 3 20 4 21 7 22 5 23
REMARK SMILES IDX 6 24 23 25 24 26 25 27 26 28 27 30 28 31 29 32 81 33 30 34
REMARK SMILES IDX 80 35 31 36 32 37 33 38 74 39 34 40 79 41 73 42 75 43 35 44
REMARK SMILES IDX 78 45 72 46 71 47 36 49 62 50 45 51 61 52 46 53 49 54 60 55
REMARK SMILES IDX 76 56 47 57 48 58 59 60 77 61 50 62 37 63 38 64 43 65 39 66
REMARK SMILES IDX 40 67 42 68 44 69 41 70 63 71 64 72 69 73 65 74 66 75 68 76
REMARK SMILES IDX 70 77 67 78 51 79 52 80 57 81 53 82 54 83 56 84 58 85 55 86
REMARK H PARENT 20 6 25 29 75 48 49 59
REMARK Flexibility Score: inf
ROOT
ATOM      1  C   UNL     1       5.060   4.404  -3.156  1.00  0.00     0.023 C 
ENDROOT
BRANCH   1   2
ATOM      2  C   UNL     1       3.620   4.018  -2.834  1.00  0.00     0.116 C 
BRANCH   2   3
ATOM      3  N   UNL     1       3.117   3.090  -3.827  1.00  0.00    -0.356 N 
ATOM      4  C   UNL     1       3.082   1.733  -3.738  1.00  0.00     0.222 C 
ATOM      5  O   UNL     1       2.885   1.059  -4.746  1.00  0.00    -0.275 OA
ATOM      6  H   UNL     1       2.761   3.484  -4.656  1.00  0.00     0.163 HD
BRANCH   4   7
ATOM      7  C   UNL     1       3.236   1.105  -2.382  1.00  0.00     0.133 C 
BRANCH   7   8
ATOM      8  C   UNL     1       4.685   0.717  -2.058  1.00  0.00     0.142 C 
ATOM      9  N   UNL     1       3.967  -0.553  -0.144  1.00  0.00    -0.193 NA
ATOM     10  C   UNL     1       4.776   0.221   0.817  1.00  0.00     0.131 C 
ATOM     11  C   UNL     1       4.683  -0.682  -1.435  1.00  0.00     0.135 C 
ATOM     12  C   UNL     1       5.119   1.601   0.209  1.00  0.00     0.177 C 
ATOM     13  O   UNL     1       5.392   1.648  -1.204  1.00  0.00    -0.375 OA
BRANCH   9  14
ATOM     14  S   UNL     1       2.882  -1.721   0.366  1.00  0.00     0.243 S 
ATOM     15  O   UNL     1       3.079  -1.939   1.785  1.00  0.00    -0.207 OA
ATOM     16  O   UNL     1       2.972  -2.811  -0.581  1.00  0.00    -0.207 OA
BRANCH  14  17
ATOM     17  C   UNL     1       1.201  -1.060   0.198  1.00  0.00     0.085 A 
ATOM     18  C   UNL     1       1.658   1.392   0.884  1.00  0.00     0.046 C 
ATOM     19  C   UNL     1       0.792   0.274   0.412  1.00  0.00    -0.028 A 
ATOM     20  C   UNL     1      -0.574   0.598   0.263  1.00  0.00     0.044 A 
ATOM     21  C   UNL     1      -1.513  -0.373  -0.050  1.00  0.00     0.123 A 
ATOM     22  C   UNL     1       0.224  -2.028  -0.122  1.00  0.00     0.025 A 
ATOM     23  F   UNL     1      -2.804  -0.033  -0.150  1.00  0.00    -0.207 F 
ATOM     24  C   UNL     1      -1.127  -1.688  -0.232  1.00  0.00     0.040 A 
ENDBRANCH  14  17
ENDBRANCH   9  14
ENDBRANCH   7   8
ENDBRANCH   4   7
ENDBRANCH   2   3
ENDBRANCH   1   2
BRANCH   1  25
ATOM     25  C   UNL     1       5.205   5.164  -4.474  1.00  0.00     0.023 C 
BRANCH  25  26
ATOM     26  C   UNL     1       4.355   6.423  -4.564  1.00  0.00     0.116 C 
BRANCH  26  27
ATOM     27  N   UNL     1       4.697   7.403  -3.543  1.00  0.00    -0.352 N 
ATOM     28  C   UNL     1       4.842   8.761  -3.696  1.00  0.00     0.251 C 
ATOM     29  H   UNL     1       4.843   7.051  -2.636  1.00  0.00     0.163 HD
ATOM     30  O   UNL     1       5.281   9.458  -2.790  1.00  0.00    -0.269 OA
BRANCH  28  31
ATOM     31  C   UNL     1       4.486   9.355  -4.998  1.00  0.00     0.039 A 
ATOM     32  C   UNL     1       5.435  10.118  -5.681  1.00  0.00     0.014 A 
ATOM     33  C   UNL     1       3.245   9.070  -5.573  1.00  0.00     0.014 A 
ATOM     34  C   UNL     1       5.164  10.538  -6.984  1.00  0.00     0.010 A 
ATOM     35  C   UNL     1       3.010   9.424  -6.895  1.00  0.00     0.010 A 
ATOM     36  C   UNL     1       3.968  10.159  -7.614  1.00  0.00    -0.014 A 
BRANCH  36  37
ATOM     37  C   UNL     1       3.676  10.514  -9.024  1.00  0.00     0.031 A 
ATOM     38  C   UNL     1       2.493  11.384  -9.338  1.00  0.00     0.074 A 
ATOM     39  C   UNL     1       4.406   9.975 -10.020  1.00  0.00     0.049 A 
ATOM     40  N   UNL     1       1.964  11.677 -10.497  1.00  0.00    -0.248 NA
ATOM     41  C   UNL     1       1.790  11.976  -8.188  1.00  0.00     0.031 C 
ATOM     42  C   UNL     1       5.561   9.092  -9.846  1.00  0.00     0.029 A 
ATOM     43  N   UNL     1       4.265  10.071 -11.383  1.00  0.00    -0.354 N 
ATOM     44  C   UNL     1       0.857  12.466 -10.215  1.00  0.00     0.074 A 
ATOM     45  C   UNL     1       0.760  12.565  -8.776  1.00  0.00     0.031 C 
ATOM     46  C   UNL     1       6.028   8.737 -11.054  1.00  0.00     0.029 A 
ATOM     47  C   UNL     1       5.178   9.322 -12.086  1.00  0.00     0.049 A 
ATOM     48  H   UNL     1       3.576  10.626 -11.815  1.00  0.00     0.167 HD
ATOM     49  C   UNL     1       0.008  13.070 -11.080  1.00  0.00     0.037 A 
ATOM     50  C   UNL     1       5.298   9.111 -13.411  1.00  0.00     0.037 A 
ATOM     51  C   UNL     1       0.125  12.987 -12.512  1.00  0.00     0.049 A 
ATOM     52  C   UNL     1       4.324   9.767 -14.351  1.00  0.00     0.074 A 
ATOM     53  C   UNL     1      -0.652  13.606 -13.475  1.00  0.00     0.029 A 
ATOM     54  N   UNL     1       1.077  12.236 -13.184  1.00  0.00    -0.354 N 
ATOM     55  N   UNL     1       3.313  10.556 -14.076  1.00  0.00    -0.248 NA
ATOM     56  C   UNL     1       4.505   9.506 -15.786  1.00  0.00     0.031 C 
ATOM     57  C   UNL     1      -0.203  13.188 -14.731  1.00  0.00     0.029 A 
ATOM     58  C   UNL     1       0.891  12.357 -14.551  1.00  0.00     0.049 A 
ATOM     59  H   UNL     1       1.779  11.697 -12.754  1.00  0.00     0.167 HD
ATOM     60  C   UNL     1       2.764  10.914 -15.300  1.00  0.00     0.074 A 
ATOM     61  C   UNL     1       3.554  10.259 -16.321  1.00  0.00     0.031 C 
ATOM     62  C   UNL     1       1.703  11.717 -15.555  1.00  0.00     0.037 A 
BRANCH  49  63
ATOM     63  C   UNL     1      -1.122  13.869 -10.500  1.00  0.00     0.057 A 
ATOM     64  C   UNL     1      -0.904  15.078  -9.825  1.00  0.00     0.134 A 
ATOM     65  C   UNL     1      -2.447  13.442 -10.648  1.00  0.00     0.134 A 
ATOM     66  F   UNL     1       0.342  15.537  -9.638  1.00  0.00    -0.206 F 
ATOM     67  C   UNL     1      -1.961  15.818  -9.293  1.00  0.00     0.040 A 
ATOM     68  C   UNL     1      -3.515  14.189 -10.148  1.00  0.00     0.040 A 
ATOM     69  F   UNL     1      -2.728  12.298 -11.289  1.00  0.00    -0.206 F 
ATOM     70  C   UNL     1      -3.272  15.377  -9.461  1.00  0.00     0.006 A 
ENDBRANCH  49  63
BRANCH  50  71
ATOM     71  C   UNL     1       6.386   8.243 -13.932  1.00  0.00     0.057 A 
ATOM     72  C   UNL     1       7.447   8.782 -14.670  1.00  0.00     0.134 A 
ATOM     73  C   UNL     1       6.389   6.860 -13.717  1.00  0.00     0.134 A 
ATOM     74  F   UNL     1       7.491  10.098 -14.925  1.00  0.00    -0.206 F 
ATOM     75  C   UNL     1       8.458   7.976 -15.195  1.00  0.00     0.040 A 
ATOM     76  C   UNL     1       7.408   6.045 -14.213  1.00  0.00     0.040 A 
ATOM     77  F   UNL     1       5.406   6.281 -13.012  1.00  0.00    -0.206 F 
ATOM     78  C   UNL     1       8.443   6.602 -14.962  1.00  0.00     0.006 A 
ENDBRANCH  50  71
BRANCH  62  79
ATOM     79  C   UNL     1       1.362  11.987 -16.991  1.00  0.00     0.057 A 
ATOM     80  C   UNL     1       0.756  11.023 -17.806  1.00  0.00     0.134 A 
ATOM     81  C   UNL     1       1.571  13.260 -17.539  1.00  0.00     0.134 A 
ATOM     82  F   UNL     1       0.540   9.782 -17.345  1.00  0.00    -0.206 F 
ATOM     83  C   UNL     1       0.379  11.313 -19.118  1.00  0.00     0.040 A 
ATOM     84  C   UNL     1       1.173  13.570 -18.840  1.00  0.00     0.040 A 
ATOM     85  F   UNL     1       2.138  14.232 -16.808  1.00  0.00    -0.206 F 
ATOM     86  C   UNL     1       0.577  12.593 -19.634  1.00  0.00     0.006 A 
ENDBRANCH  62  79
ENDBRANCH  36  37
ENDBRANCH  28  31
ENDBRANCH  26  27
ENDBRANCH  25  26
ENDBRANCH   1  25
TORSDOF 14
