REMARK SMILES CCc1cc(=O)oc2c3c(cc(OCC(=O)NCC(=O)NCCCCNC(=O)c4ccc(-c5c6nc(c(-c7c(F)cccc7F)c7ccc([nH]7)c(-c7c(F)cccc7F)c7nc(c(-c8c(F)cccc8F)c8ccc5[nH]8)C=C7)C=C6)cc4)c12)OC(C)(C)CC3
REMARK SMILES IDX 22 1 21 2 19 3 20 4 18 6 17 7 15 8 16 9 14 11 13 12 12 13
REMARK SMILES IDX 3 14 4 15 83 16 5 17 8 18 6 19 7 20 9 21 11 22 10 23 89 24
REMARK SMILES IDX 84 25 88 26 85 27 86 28 87 29 2 30 1 31 23 32 24 33 25 34
REMARK SMILES IDX 26 35 27 36 28 38 29 39 30 40 82 41 31 42 81 43 32 44 33 45
REMARK SMILES IDX 34 46 75 47 35 48 80 49 74 50 76 51 36 52 79 53 73 54 72 55
REMARK SMILES IDX 37 57 63 58 46 59 62 60 47 61 50 62 61 63 77 64 48 65 49 66
REMARK SMILES IDX 60 68 78 69 51 70 38 71 39 72 44 73 40 74 41 75 43 76 45 77
REMARK SMILES IDX 42 78 64 79 65 80 70 81 66 82 67 83 69 84 71 85 68 86 52 87
REMARK SMILES IDX 53 88 58 89 54 90 55 91 57 92 59 93 56 94
REMARK H PARENT 21 5 17 10 26 37 76 56 50 67
REMARK Flexibility Score: inf
ROOT
ATOM      1  C   UNL     1       0.941  -2.005   2.450  1.00  0.00     0.116 C 
ENDROOT
BRANCH   1   2
ATOM      2  N   UNL     1      -0.143  -1.367   3.161  1.00  0.00    -0.355 N 
ATOM      3  C   UNL     1      -0.328  -0.034   3.399  1.00  0.00     0.239 C 
ATOM      4  O   UNL     1      -1.443   0.332   3.780  1.00  0.00    -0.273 OA
ATOM      5  H   UNL     1      -0.835  -1.969   3.520  1.00  0.00     0.163 HD
BRANCH   3   6
ATOM      6  C   UNL     1       0.764   0.994   3.062  1.00  0.00     0.216 C 
BRANCH   6   7
ATOM      7  N   UNL     1       2.066   0.707   3.635  1.00  0.00    -0.344 N 
ATOM      8  C   UNL     1       3.299   0.950   3.112  1.00  0.00     0.258 C 
ATOM      9  O   UNL     1       4.267   0.873   3.872  1.00  0.00    -0.271 OA
ATOM     10  H   UNL     1       2.056   0.279   4.522  1.00  0.00     0.164 HD
BRANCH   8  11
ATOM     11  C   UNL     1       3.480   1.319   1.621  1.00  0.00     0.329 C 
BRANCH  11  12
ATOM     12  O   UNL     1       3.131   0.373   0.616  1.00  0.00    -0.483 OA
BRANCH  12  13
ATOM     13  C   UNL     1       3.772  -0.837   0.565  1.00  0.00     0.135 A 
ATOM     14  C   UNL     1       2.090  -1.701  -1.237  1.00  0.00    -0.026 A 
ATOM     15  C   UNL     1       1.662  -2.809  -1.869  1.00  0.00     0.098 A 
ATOM     16  C   UNL     1       3.270  -1.819  -0.319  1.00  0.00     0.063 A 
ATOM     17  C   UNL     1       2.341  -4.101  -1.840  1.00  0.00     0.336 A 
ATOM     18  C   UNL     1       3.903  -3.082  -0.247  1.00  0.00     0.149 A 
ATOM     19  O   UNL     1       1.886  -5.057  -2.458  1.00  0.00    -0.246 OA
ATOM     20  O   UNL     1       3.513  -4.129  -1.119  1.00  0.00    -0.422 OA
ATOM     21  C   UNL     1       4.885  -3.431   0.714  1.00  0.00     0.038 A 
ATOM     22  C   UNL     1       4.840  -1.147   1.435  1.00  0.00     0.094 A 
ATOM     23  C   UNL     1       5.328  -2.444   1.572  1.00  0.00     0.130 A 
ATOM     24  C   UNL     1       5.343  -4.846   0.927  1.00  0.00     0.047 C 
ATOM     25  O   UNL     1       6.207  -2.650   2.602  1.00  0.00    -0.487 OA
ATOM     26  C   UNL     1       6.540  -4.955   1.855  1.00  0.00     0.053 C 
ATOM     27  C   UNL     1       6.387  -4.009   3.050  1.00  0.00     0.104 C 
ATOM     28  C   UNL     1       7.690  -4.033   3.862  1.00  0.00     0.056 C 
ATOM     29  C   UNL     1       5.247  -4.407   4.006  1.00  0.00     0.056 C 
BRANCH  14  30
ATOM     30  C   UNL     1       1.375  -0.416  -1.618  1.00  0.00     0.033 C 
ATOM     31  C   UNL     1       0.553   0.315  -0.570  1.00  0.00     0.009 C 
ENDBRANCH  14  30
ENDBRANCH  12  13
ENDBRANCH  11  12
ENDBRANCH   8  11
ENDBRANCH   6   7
ENDBRANCH   3   6
ENDBRANCH   1   2
BRANCH   1  32
ATOM     32  C   UNL     1       1.687  -3.033   3.285  1.00  0.00     0.023 C 
BRANCH  32  33
ATOM     33  C   UNL     1       0.987  -4.384   3.448  1.00  0.00     0.023 C 
BRANCH  33  34
ATOM     34  C   UNL     1       0.640  -5.128   2.157  1.00  0.00     0.116 C 
BRANCH  34  35
ATOM     35  N   UNL     1       1.779  -5.318   1.271  1.00  0.00    -0.352 N 
ATOM     36  C   UNL     1       2.223  -6.443   0.627  1.00  0.00     0.251 C 
ATOM     37  H   UNL     1       2.317  -4.509   1.108  1.00  0.00     0.163 HD
ATOM     38  O   UNL     1       3.242  -6.465  -0.065  1.00  0.00    -0.269 OA
BRANCH  36  39
ATOM     39  C   UNL     1       1.545  -7.709   0.774  1.00  0.00     0.039 A 
ATOM     40  C   UNL     1       2.344  -8.829   1.042  1.00  0.00     0.014 A 
ATOM     41  C   UNL     1       0.170  -7.790   0.589  1.00  0.00     0.014 A 
ATOM     42  C   UNL     1       1.741 -10.056   1.198  1.00  0.00     0.010 A 
ATOM     43  C   UNL     1      -0.440  -8.999   0.820  1.00  0.00     0.010 A 
ATOM     44  C   UNL     1       0.348 -10.123   1.124  1.00  0.00    -0.014 A 
BRANCH  44  45
ATOM     45  C   UNL     1      -0.353 -11.383   1.347  1.00  0.00     0.031 A 
ATOM     46  C   UNL     1      -1.060 -11.992   0.186  1.00  0.00     0.074 A 
ATOM     47  C   UNL     1      -0.458 -11.814   2.612  1.00  0.00     0.049 A 
ATOM     48  N   UNL     1      -1.982 -12.910   0.178  1.00  0.00    -0.248 NA
ATOM     49  C   UNL     1      -0.733 -11.438  -1.141  1.00  0.00     0.031 C 
ATOM     50  C   UNL     1       0.196 -11.200   3.774  1.00  0.00     0.029 A 
ATOM     51  N   UNL     1      -1.191 -12.834   3.140  1.00  0.00    -0.354 N 
ATOM     52  C   UNL     1      -2.383 -13.011  -1.147  1.00  0.00     0.074 A 
ATOM     53  C   UNL     1      -1.631 -12.039  -1.906  1.00  0.00     0.031 C 
ATOM     54  C   UNL     1      -0.178 -11.854   4.884  1.00  0.00     0.029 A 
ATOM     55  C   UNL     1      -1.126 -12.893   4.510  1.00  0.00     0.049 A 
ATOM     56  H   UNL     1      -1.714 -13.465   2.595  1.00  0.00     0.167 HD
ATOM     57  C   UNL     1      -3.303 -13.858  -1.660  1.00  0.00     0.037 A 
ATOM     58  C   UNL     1      -1.793 -13.695   5.354  1.00  0.00     0.037 A 
ATOM     59  C   UNL     1      -3.995 -14.820  -0.846  1.00  0.00     0.049 A 
ATOM     60  C   UNL     1      -2.748 -14.680   4.747  1.00  0.00     0.074 A 
ATOM     61  C   UNL     1      -4.910 -15.782  -1.221  1.00  0.00     0.029 A 
ATOM     62  N   UNL     1      -3.821 -14.940   0.531  1.00  0.00    -0.354 N 
ATOM     63  N   UNL     1      -3.110 -14.804   3.490  1.00  0.00    -0.248 NA
ATOM     64  C   UNL     1      -3.372 -15.641   5.658  1.00  0.00     0.031 C 
ATOM     65  C   UNL     1      -5.303 -16.473  -0.068  1.00  0.00     0.029 A 
ATOM     66  C   UNL     1      -4.606 -15.965   1.021  1.00  0.00     0.049 A 
ATOM     67  H   UNL     1      -3.226 -14.376   1.075  1.00  0.00     0.167 HD
ATOM     68  C   UNL     1      -3.989 -15.873   3.450  1.00  0.00     0.074 A 
ATOM     69  C   UNL     1      -4.092 -16.367   4.813  1.00  0.00     0.031 C 
ATOM     70  C   UNL     1      -4.655 -16.405   2.394  1.00  0.00     0.037 A 
BRANCH  57  71
ATOM     71  C   UNL     1      -3.591 -13.755  -3.128  1.00  0.00     0.057 A 
ATOM     72  C   UNL     1      -2.635 -14.091  -4.098  1.00  0.00     0.134 A 
ATOM     73  C   UNL     1      -4.827 -13.281  -3.586  1.00  0.00     0.134 A 
ATOM     74  F   UNL     1      -1.420 -14.529  -3.732  1.00  0.00    -0.206 F 
ATOM     75  C   UNL     1      -2.883 -13.926  -5.463  1.00  0.00     0.040 A 
ATOM     76  C   UNL     1      -5.098 -13.139  -4.949  1.00  0.00     0.040 A 
ATOM     77  F   UNL     1      -5.788 -12.934  -2.717  1.00  0.00    -0.206 F 
ATOM     78  C   UNL     1      -4.120 -13.452  -5.891  1.00  0.00     0.006 A 
ENDBRANCH  57  71
BRANCH  58  79
ATOM     79  C   UNL     1      -1.528 -13.618   6.809  1.00  0.00     0.057 A 
ATOM     80  C   UNL     1      -0.782 -14.613   7.450  1.00  0.00     0.134 A 
ATOM     81  C   UNL     1      -1.937 -12.523   7.580  1.00  0.00     0.134 A 
ATOM     82  F   UNL     1      -0.358 -15.684   6.764  1.00  0.00    -0.206 F 
ATOM     83  C   UNL     1      -0.462 -14.531   8.807  1.00  0.00     0.040 A 
ATOM     84  C   UNL     1      -1.608 -12.417   8.934  1.00  0.00     0.040 A 
ATOM     85  F   UNL     1      -2.631 -11.521   7.021  1.00  0.00    -0.206 F 
ATOM     86  C   UNL     1      -0.871 -13.426   9.551  1.00  0.00     0.006 A 
ENDBRANCH  58  79
BRANCH  70  87
ATOM     87  C   UNL     1      -5.517 -17.589   2.693  1.00  0.00     0.057 A 
ATOM     88  C   UNL     1      -6.757 -17.451   3.325  1.00  0.00     0.134 A 
ATOM     89  C   UNL     1      -5.113 -18.872   2.306  1.00  0.00     0.134 A 
ATOM     90  F   UNL     1      -7.184 -16.245   3.729  1.00  0.00    -0.206 F 
ATOM     91  C   UNL     1      -7.562 -18.558   3.584  1.00  0.00     0.040 A 
ATOM     92  C   UNL     1      -5.920 -19.983   2.538  1.00  0.00     0.040 A 
ATOM     93  F   UNL     1      -3.936 -19.059   1.690  1.00  0.00    -0.206 F 
ATOM     94  C   UNL     1      -7.146 -19.828   3.183  1.00  0.00     0.006 A 
ENDBRANCH  70  87
ENDBRANCH  44  45
ENDBRANCH  36  39
ENDBRANCH  34  35
ENDBRANCH  33  34
ENDBRANCH  32  33
ENDBRANCH   1  32
TORSDOF 16
