REMARK SMILES Cc1cc(C(=O)Nc2nc(CC(=O)NCCCCNC(=O)c3ccc(-c4c5nc(c(-c6c(F)cccc6F)c6ccc([nH]6)c(-c6c(F)cccc6F)c6nc(c(-c7c(F)cccc7F)c7ccc4[nH]7)C=C6)C=C5)cc3)cs2)sc1C
REMARK SMILES IDX 16 1 15 2 14 3 12 4 13 5 11 7 10 8 8 9 9 10 77 11 76 12 7 13
REMARK SMILES IDX 5 14 6 15 4 17 1 18 2 19 3 20 79 21 78 22 80 23 17 24 18 25
REMARK SMILES IDX 19 26 20 27 21 29 22 30 23 31 75 32 24 33 74 34 25 35 26 36
REMARK SMILES IDX 27 37 68 38 28 39 73 40 67 41 69 42 29 43 72 44 66 45 65 46
REMARK SMILES IDX 30 48 56 49 39 50 55 51 40 52 43 53 54 54 70 55 41 56 42 57
REMARK SMILES IDX 53 59 71 60 44 61 31 62 32 63 37 64 33 65 34 66 36 67 38 68
REMARK SMILES IDX 35 69 57 70 58 71 63 72 59 73 60 74 62 75 64 76 61 77 45 78
REMARK SMILES IDX 46 79 51 80 47 81 48 82 50 83 52 84 49 85
REMARK H PARENT 14 6 7 16 19 28 69 47 43 58
REMARK Flexibility Score: inf
ROOT
ATOM      1  C   UNL     1       5.887   0.074   3.055  1.00  0.00     0.023 C 
ENDROOT
BRANCH   1   2
ATOM      2  C   UNL     1       4.841   1.077   3.549  1.00  0.00     0.116 C 
BRANCH   2   3
ATOM      3  N   UNL     1       5.213   2.441   3.222  1.00  0.00    -0.356 N 
ATOM      4  C   UNL     1       4.818   3.193   2.151  1.00  0.00     0.226 C 
ATOM      5  O   UNL     1       5.324   4.306   1.996  1.00  0.00    -0.275 OA
ATOM      6  H   UNL     1       5.829   2.882   3.852  1.00  0.00     0.163 HD
BRANCH   4   7
ATOM      7  C   UNL     1       3.746   2.678   1.213  1.00  0.00     0.157 C 
BRANCH   7   8
ATOM      8  C   UNL     1       4.189   1.496   0.419  1.00  0.00     0.063 A 
ATOM      9  C   UNL     1       3.924  -0.585  -0.260  1.00  0.00     0.189 A 
ATOM     10  N   UNL     1       3.472   0.318   0.567  1.00  0.00    -0.224 NA
ATOM     11  S   UNL     1       5.358  -0.192  -1.091  1.00  0.00    -0.105 S 
ATOM     12  C   UNL     1       5.242   1.412  -0.475  1.00  0.00     0.093 A 
BRANCH   9  13
ATOM     13  N   UNL     1       3.393  -1.804  -0.550  1.00  0.00    -0.297 N 
ATOM     14  C   UNL     1       2.089  -2.202  -0.349  1.00  0.00     0.267 C 
ATOM     15  O   UNL     1       1.908  -3.424  -0.286  1.00  0.00    -0.268 OA
ATOM     16  H   UNL     1       4.003  -2.469  -0.942  1.00  0.00     0.172 HD
BRANCH  14  17
ATOM     17  C   UNL     1       0.955  -1.272  -0.320  1.00  0.00     0.093 A 
ATOM     18  C   UNL     1      -2.706  -0.542   0.273  1.00  0.00     0.045 C 
ATOM     19  C   UNL     1      -1.246  -0.457  -0.017  1.00  0.00    -0.037 A 
ATOM     20  C   UNL     1      -0.348  -1.579   0.045  1.00  0.00     0.029 A 
ATOM     21  C   UNL     1      -0.552   0.692  -0.350  1.00  0.00     0.005 A 
ATOM     22  S   UNL     1       0.981   0.306  -0.985  1.00  0.00    -0.135 S 
ATOM     23  C   UNL     1      -0.986   2.117  -0.310  1.00  0.00     0.056 C 
ENDBRANCH  14  17
ENDBRANCH   9  13
ENDBRANCH   7   8
ENDBRANCH   4   7
ENDBRANCH   2   3
ENDBRANCH   1   2
BRANCH   1  24
ATOM     24  C   UNL     1       7.248   0.179   3.742  1.00  0.00     0.023 C 
BRANCH  24  25
ATOM     25  C   UNL     1       7.215  -0.000   5.251  1.00  0.00     0.116 C 
BRANCH  25  26
ATOM     26  N   UNL     1       6.680  -1.290   5.658  1.00  0.00    -0.352 N 
ATOM     27  C   UNL     1       7.120  -2.125   6.655  1.00  0.00     0.251 C 
ATOM     28  H   UNL     1       5.899  -1.608   5.150  1.00  0.00     0.163 HD
ATOM     29  O   UNL     1       6.639  -3.246   6.785  1.00  0.00    -0.269 OA
BRANCH  27  30
ATOM     30  C   UNL     1       8.205  -1.676   7.552  1.00  0.00     0.039 A 
ATOM     31  C   UNL     1       9.262  -2.549   7.821  1.00  0.00     0.014 A 
ATOM     32  C   UNL     1       8.193  -0.392   8.103  1.00  0.00     0.014 A 
ATOM     33  C   UNL     1      10.337  -2.111   8.595  1.00  0.00     0.010 A 
ATOM     34  C   UNL     1       9.303   0.070   8.802  1.00  0.00     0.010 A 
ATOM     35  C   UNL     1      10.382  -0.787   9.063  1.00  0.00    -0.014 A 
BRANCH  35  36
ATOM     36  C   UNL     1      11.543  -0.286   9.840  1.00  0.00     0.031 A 
ATOM     37  C   UNL     1      11.359   0.168  11.262  1.00  0.00     0.074 A 
ATOM     38  C   UNL     1      12.750  -0.184   9.249  1.00  0.00     0.049 A 
ATOM     39  N   UNL     1      12.236   0.684  12.086  1.00  0.00    -0.248 NA
ATOM     40  C   UNL     1      10.004   0.052  11.824  1.00  0.00     0.031 C 
ATOM     41  C   UNL     1      13.046  -0.543   7.861  1.00  0.00     0.029 A 
ATOM     42  N   UNL     1      13.951   0.258   9.742  1.00  0.00    -0.354 N 
ATOM     43  C   UNL     1      11.537   0.965  13.253  1.00  0.00     0.074 A 
ATOM     44  C   UNL     1      10.153   0.620  13.011  1.00  0.00     0.031 C 
ATOM     45  C   UNL     1      14.351  -0.334   7.623  1.00  0.00     0.029 A 
ATOM     46  C   UNL     1      14.974   0.210   8.825  1.00  0.00     0.049 A 
ATOM     47  H   UNL     1      14.070   0.580  10.665  1.00  0.00     0.167 HD
ATOM     48  C   UNL     1      12.008   1.441  14.430  1.00  0.00     0.037 A 
ATOM     49  C   UNL     1      16.267   0.568   8.941  1.00  0.00     0.037 A 
ATOM     50  C   UNL     1      13.390   1.763  14.674  1.00  0.00     0.049 A 
ATOM     51  C   UNL     1      16.765   1.103  10.256  1.00  0.00     0.074 A 
ATOM     52  C   UNL     1      13.978   2.199  15.848  1.00  0.00     0.029 A 
ATOM     53  N   UNL     1      14.398   1.686  13.725  1.00  0.00    -0.354 N 
ATOM     54  N   UNL     1      16.107   1.297  11.373  1.00  0.00    -0.248 NA
ATOM     55  C   UNL     1      18.189   1.459  10.327  1.00  0.00     0.031 C 
ATOM     56  C   UNL     1      15.334   2.434  15.596  1.00  0.00     0.029 A 
ATOM     57  C   UNL     1      15.601   2.089  14.281  1.00  0.00     0.049 A 
ATOM     58  H   UNL     1      14.277   1.390  12.794  1.00  0.00     0.167 HD
ATOM     59  C   UNL     1      17.041   1.766  12.289  1.00  0.00     0.074 A 
ATOM     60  C   UNL     1      18.314   1.814  11.598  1.00  0.00     0.031 C 
ATOM     61  C   UNL     1      16.862   2.122  13.584  1.00  0.00     0.037 A 
BRANCH  48  62
ATOM     62  C   UNL     1      11.018   1.639  15.542  1.00  0.00     0.057 A 
ATOM     63  C   UNL     1      10.399   0.557  16.183  1.00  0.00     0.134 A 
ATOM     64  C   UNL     1      10.700   2.925  15.996  1.00  0.00     0.134 A 
ATOM     65  F   UNL     1      10.649  -0.701  15.790  1.00  0.00    -0.206 F 
ATOM     66  C   UNL     1       9.475   0.749  17.212  1.00  0.00     0.040 A 
ATOM     67  C   UNL     1       9.801   3.128  17.045  1.00  0.00     0.040 A 
ATOM     68  F   UNL     1      11.260   4.006  15.432  1.00  0.00    -0.206 F 
ATOM     69  C   UNL     1       9.180   2.038  17.651  1.00  0.00     0.006 A 
ENDBRANCH  48  62
BRANCH  49  70
ATOM     70  C   UNL     1      17.190   0.408   7.789  1.00  0.00     0.057 A 
ATOM     71  C   UNL     1      18.211  -0.549   7.809  1.00  0.00     0.134 A 
ATOM     72  C   UNL     1      17.083   1.211   6.647  1.00  0.00     0.134 A 
ATOM     73  F   UNL     1      18.376  -1.337   8.882  1.00  0.00    -0.206 F 
ATOM     74  C   UNL     1      19.106  -0.688   6.747  1.00  0.00     0.040 A 
ATOM     75  C   UNL     1      17.954   1.065   5.566  1.00  0.00     0.040 A 
ATOM     76  F   UNL     1      16.120   2.141   6.561  1.00  0.00    -0.206 F 
ATOM     77  C   UNL     1      18.975   0.119   5.619  1.00  0.00     0.006 A 
ENDBRANCH  49  70
BRANCH  61  78
ATOM     78  C   UNL     1      18.078   2.552  14.354  1.00  0.00     0.057 A 
ATOM     79  C   UNL     1      18.720   3.773  14.110  1.00  0.00     0.134 A 
ATOM     80  C   UNL     1      18.591   1.745  15.378  1.00  0.00     0.134 A 
ATOM     81  F   UNL     1      18.287   4.587  13.136  1.00  0.00    -0.206 F 
ATOM     82  C   UNL     1      19.845   4.163  14.839  1.00  0.00     0.040 A 
ATOM     83  C   UNL     1      19.697   2.138  16.133  1.00  0.00     0.040 A 
ATOM     84  F   UNL     1      18.018   0.568  15.670  1.00  0.00    -0.206 F 
ATOM     85  C   UNL     1      20.332   3.347  15.859  1.00  0.00     0.006 A 
ENDBRANCH  61  78
ENDBRANCH  35  36
ENDBRANCH  27  30
ENDBRANCH  25  26
ENDBRANCH  24  25
ENDBRANCH   1  24
TORSDOF 14
