REMARK SMILES [NH3+]CCOCC(=O)N[C@H](C(=O)NCCCCNC(=O)c1ccc(-c2c3nc(c(-c4c(F)cccc4F)c4ccc([nH]4)c(-c4c(F)cccc4F)c4nc(c(-c5c(F)cccc5F)c5ccc2[nH]5)C=C4)C=C3)cc1)C1CCCCC1
REMARK SMILES IDX 10 1 11 2 12 3 9 5 8 6 6 7 7 8 5 10 4 11 3 12 2 13 1 14
REMARK SMILES IDX 74 18 75 19 79 20 76 21 78 22 77 23 13 24 14 25 15 26 16 27
REMARK SMILES IDX 17 28 18 29 19 31 20 32 21 33 73 34 22 35 72 36 23 37 24 38
REMARK SMILES IDX 25 39 66 40 26 41 71 42 65 43 67 44 27 45 70 46 64 47 63 48
REMARK SMILES IDX 28 50 54 51 37 52 53 53 38 54 41 55 52 56 68 57 39 58 40 59
REMARK SMILES IDX 51 61 69 62 42 63 29 64 30 65 35 66 31 67 32 68 34 69 36 70
REMARK SMILES IDX 33 71 55 72 56 73 61 74 57 75 58 76 60 77 62 78 59 79 43 80
REMARK SMILES IDX 44 81 49 82 45 83 46 84 48 85 50 86 47 87
REMARK H PARENT 12 4 8 9 1 15 1 16 1 17 17 30 67 49 41 60
REMARK Flexibility Score: inf
ROOT
ATOM      1  C   UNL     1       3.273   0.397   3.515  1.00  0.00     0.242 C 
ATOM      2  O   UNL     1       4.462   0.719   3.483  1.00  0.00    -0.273 OA
ATOM      3  N   UNL     1       2.725  -0.169   2.392  1.00  0.00    -0.354 N 
ATOM      4  H   UNL     1       3.324  -0.221   1.612  1.00  0.00     0.163 HD
ENDROOT
BRANCH   1   5
ATOM      5  C   UNL     1       2.433   0.439   4.811  1.00  0.00     0.174 C 
BRANCH   5   6
ATOM      6  N   UNL     1       2.795  -0.821   5.508  1.00  0.00    -0.342 N 
ATOM      7  C   UNL     1       3.560  -1.165   6.575  1.00  0.00     0.246 C 
ATOM      8  O   UNL     1       3.970  -2.333   6.601  1.00  0.00    -0.272 OA
ATOM      9  H   UNL     1       2.373  -1.606   5.089  1.00  0.00     0.164 HD
BRANCH   7  10
ATOM     10  C   UNL     1       3.837  -0.246   7.782  1.00  0.00     0.260 C 
BRANCH  10  11
ATOM     11  O   UNL     1       4.690   0.877   7.738  1.00  0.00    -0.366 OA
BRANCH  11  12
ATOM     12  C   UNL     1       5.905   0.698   7.011  1.00  0.00     0.222 C 
BRANCH  12  13
ATOM     13  C   UNL     1       7.095   0.483   7.953  1.00  0.00     0.287 C 
BRANCH  13  14
ATOM     14  N   UNL     1       6.965  -0.705   8.799  1.00  0.00    -0.356 N 
ATOM     15  H   UNL     1       7.787  -0.788   9.398  1.00  0.00     0.344 HD
ATOM     16  H   UNL     1       6.889  -1.535   8.210  1.00  0.00     0.344 HD
ATOM     17  H   UNL     1       6.130  -0.621   9.378  1.00  0.00     0.344 HD
ENDBRANCH  13  14
ENDBRANCH  12  13
ENDBRANCH  11  12
ENDBRANCH  10  11
ENDBRANCH   7  10
ENDBRANCH   5   6
BRANCH   5  18
ATOM     18  C   UNL     1       2.564   1.744   5.600  1.00  0.00     0.021 C 
ATOM     19  C   UNL     1       2.671   3.038   4.775  1.00  0.00     0.006 C 
ATOM     20  C   UNL     1       1.377   1.893   6.568  1.00  0.00     0.006 C 
ATOM     21  C   UNL     1       2.939   4.220   5.716  1.00  0.00     0.000 C 
ATOM     22  C   UNL     1       1.617   3.042   7.539  1.00  0.00     0.000 C 
ATOM     23  C   UNL     1       1.871   4.353   6.801  1.00  0.00     0.000 C 
ENDBRANCH   5  18
ENDBRANCH   1   5
BRANCH   3  24
ATOM     24  C   UNL     1       1.389  -0.703   2.184  1.00  0.00     0.116 C 
BRANCH  24  25
ATOM     25  C   UNL     1       0.473   0.302   1.487  1.00  0.00     0.023 C 
BRANCH  25  26
ATOM     26  C   UNL     1       0.846   0.597   0.030  1.00  0.00     0.023 C 
BRANCH  26  27
ATOM     27  C   UNL     1       0.985  -0.625  -0.874  1.00  0.00     0.116 C 
BRANCH  27  28
ATOM     28  N   UNL     1      -0.209  -1.454  -0.904  1.00  0.00    -0.352 N 
ATOM     29  C   UNL     1      -0.797  -2.095  -1.965  1.00  0.00     0.251 C 
ATOM     30  H   UNL     1      -0.661  -1.572  -0.037  1.00  0.00     0.163 HD
ATOM     31  O   UNL     1      -1.881  -2.655  -1.813  1.00  0.00    -0.269 OA
BRANCH  29  32
ATOM     32  C   UNL     1      -0.153  -2.087  -3.296  1.00  0.00     0.039 A 
ATOM     33  C   UNL     1      -0.950  -1.859  -4.421  1.00  0.00     0.014 A 
ATOM     34  C   UNL     1       1.220  -2.304  -3.445  1.00  0.00     0.014 A 
ATOM     35  C   UNL     1      -0.362  -1.791  -5.685  1.00  0.00     0.010 A 
ATOM     36  C   UNL     1       1.816  -2.158  -4.696  1.00  0.00     0.010 A 
ATOM     37  C   UNL     1       1.031  -1.904  -5.830  1.00  0.00    -0.014 A 
BRANCH  37  38
ATOM     38  C   UNL     1       1.667  -1.741  -7.163  1.00  0.00     0.031 A 
ATOM     39  C   UNL     1       2.402  -2.883  -7.810  1.00  0.00     0.074 A 
ATOM     40  C   UNL     1       1.606  -0.545  -7.781  1.00  0.00     0.049 A 
ATOM     41  N   UNL     1       2.997  -2.927  -8.975  1.00  0.00    -0.248 NA
ATOM     42  C   UNL     1       2.503  -4.132  -7.039  1.00  0.00     0.031 C 
ATOM     43  C   UNL     1       0.977   0.659  -7.233  1.00  0.00     0.029 A 
ATOM     44  N   UNL     1       2.077  -0.144  -9.006  1.00  0.00    -0.354 N 
ATOM     45  C   UNL     1       3.544  -4.200  -9.074  1.00  0.00     0.074 A 
ATOM     46  C   UNL     1       3.264  -4.877  -7.826  1.00  0.00     0.031 C 
ATOM     47  C   UNL     1       1.066   1.650  -8.133  1.00  0.00     0.029 A 
ATOM     48  C   UNL     1       1.787   1.166  -9.306  1.00  0.00     0.049 A 
ATOM     49  H   UNL     1       2.574  -0.738  -9.614  1.00  0.00     0.167 HD
ATOM     50  C   UNL     1       4.197  -4.764 -10.119  1.00  0.00     0.037 A 
ATOM     51  C   UNL     1       2.066   1.894 -10.403  1.00  0.00     0.037 A 
ATOM     52  C   UNL     1       4.463  -4.093 -11.365  1.00  0.00     0.049 A 
ATOM     53  C   UNL     1       2.792   1.244 -11.549  1.00  0.00     0.074 A 
ATOM     54  C   UNL     1       5.067  -4.596 -12.504  1.00  0.00     0.029 A 
ATOM     55  N   UNL     1       4.149  -2.769 -11.633  1.00  0.00    -0.354 N 
ATOM     56  N   UNL     1       3.229   0.013 -11.660  1.00  0.00    -0.248 NA
ATOM     57  C   UNL     1       3.052   2.084 -12.726  1.00  0.00     0.031 C 
ATOM     58  C   UNL     1       5.165  -3.563 -13.442  1.00  0.00     0.029 A 
ATOM     59  C   UNL     1       4.568  -2.431 -12.910  1.00  0.00     0.049 A 
ATOM     60  H   UNL     1       3.694  -2.159 -11.008  1.00  0.00     0.167 HD
ATOM     61  C   UNL     1       3.789  -0.078 -12.928  1.00  0.00     0.074 A 
ATOM     62  C   UNL     1       3.617   1.217 -13.554  1.00  0.00     0.031 C 
ATOM     63  C   UNL     1       4.391  -1.138 -13.521  1.00  0.00     0.037 A 
BRANCH  50  64
ATOM     64  C   UNL     1       4.665  -6.183  -9.959  1.00  0.00     0.057 A 
ATOM     65  C   UNL     1       3.766  -7.257  -9.896  1.00  0.00     0.134 A 
ATOM     66  C   UNL     1       6.032  -6.485  -9.905  1.00  0.00     0.134 A 
ATOM     67  F   UNL     1       2.443  -7.038  -9.931  1.00  0.00    -0.206 F 
ATOM     68  C   UNL     1       4.208  -8.574  -9.756  1.00  0.00     0.040 A 
ATOM     69  C   UNL     1       6.487  -7.801  -9.796  1.00  0.00     0.040 A 
ATOM     70  F   UNL     1       6.949  -5.508  -9.967  1.00  0.00    -0.206 F 
ATOM     71  C   UNL     1       5.573  -8.849  -9.713  1.00  0.00     0.006 A 
ENDBRANCH  50  64
BRANCH  51  72
ATOM     72  C   UNL     1       1.630   3.311 -10.486  1.00  0.00     0.057 A 
ATOM     73  C   UNL     1       0.627   3.709 -11.378  1.00  0.00     0.134 A 
ATOM     74  C   UNL     1       2.211   4.303  -9.687  1.00  0.00     0.134 A 
ATOM     75  F   UNL     1       0.044   2.808 -12.183  1.00  0.00    -0.206 F 
ATOM     76  C   UNL     1       0.233   5.043 -11.489  1.00  0.00     0.040 A 
ATOM     77  C   UNL     1       1.806   5.636  -9.766  1.00  0.00     0.040 A 
ATOM     78  F   UNL     1       3.170   3.986  -8.805  1.00  0.00    -0.206 F 
ATOM     79  C   UNL     1       0.820   6.011 -10.677  1.00  0.00     0.006 A 
ENDBRANCH  51  72
BRANCH  63  80
ATOM     80  C   UNL     1       4.875  -0.950 -14.931  1.00  0.00     0.057 A 
ATOM     81  C   UNL     1       5.971  -0.134 -15.238  1.00  0.00     0.134 A 
ATOM     82  C   UNL     1       4.245  -1.611 -15.994  1.00  0.00     0.134 A 
ATOM     83  F   UNL     1       6.612   0.537 -14.268  1.00  0.00    -0.206 F 
ATOM     84  C   UNL     1       6.402   0.046 -16.554  1.00  0.00     0.040 A 
ATOM     85  C   UNL     1       4.686  -1.464 -17.310  1.00  0.00     0.040 A 
ATOM     86  F   UNL     1       3.195  -2.416 -15.770  1.00  0.00    -0.206 F 
ATOM     87  C   UNL     1       5.761  -0.626 -17.593  1.00  0.00     0.006 A 
ENDBRANCH  63  80
ENDBRANCH  37  38
ENDBRANCH  29  32
ENDBRANCH  27  28
ENDBRANCH  26  27
ENDBRANCH  25  26
ENDBRANCH  24  25
ENDBRANCH   3  24
TORSDOF 18
