REMARK SMILES C[C@@H]1[C@@H](C(=O)NCCCCNC(=O)c2ccc(-c3c4nc(c(-c5c(F)cccc5F)c5ccc([nH]5)c(-c5c(F)cccc5F)c5nc(c(-c6c(F)cccc6F)c6ccc3[nH]6)C=C5)C=C4)cc2)CCN1C(=O)N[C@@H](C)Cc1ccco1
REMARK SMILES IDX 7 1 6 2 4 3 5 4 3 6 1 7 2 8 70 9 68 10 69 11 71 12 72 13
REMARK SMILES IDX 73 14 74 16 75 17 76 18 77 19 78 20 81 21 79 22 80 23 8 24
REMARK SMILES IDX 9 25 10 26 11 27 12 28 13 30 14 31 15 32 67 33 16 34 66 35
REMARK SMILES IDX 17 36 18 37 19 38 60 39 20 40 65 41 59 42 61 43 21 44 64 45
REMARK SMILES IDX 58 46 57 47 22 49 48 50 31 51 47 52 32 53 35 54 46 55 62 56
REMARK SMILES IDX 33 57 34 58 45 60 63 61 36 62 23 63 24 64 29 65 25 66 26 67
REMARK SMILES IDX 28 68 30 69 27 70 49 71 50 72 55 73 51 74 52 75 54 76 56 77
REMARK SMILES IDX 53 78 37 79 38 80 43 81 39 82 40 83 42 84 44 85 41 86
REMARK H PARENT 6 5 73 15 11 29 61 48 35 59
REMARK Flexibility Score: inf
ROOT
ATOM      1  C   UNL     1      -2.637   3.021  -0.651  1.00  0.00     0.116 C 
ENDROOT
BRANCH   1   2
ATOM      2  N   UNL     1      -1.916   2.311  -1.684  1.00  0.00    -0.356 N 
ATOM      3  C   UNL     1      -0.851   1.474  -1.579  1.00  0.00     0.225 C 
ATOM      4  O   UNL     1      -0.334   1.119  -2.635  1.00  0.00    -0.275 OA
ATOM      5  H   UNL     1      -2.247   2.456  -2.600  1.00  0.00     0.163 HD
BRANCH   3   6
ATOM      6  C   UNL     1      -0.304   1.105  -0.204  1.00  0.00     0.102 C 
ATOM      7  C   UNL     1       1.835   0.225   0.803  1.00  0.00     0.032 C 
ATOM      8  C   UNL     1       0.796   0.024  -0.307  1.00  0.00     0.096 C 
ATOM      9  N   UNL     1       0.088  -1.254  -0.144  1.00  0.00    -0.321 N 
ATOM     10  C   UNL     1      -1.327   0.437   0.715  1.00  0.00     0.037 C 
ATOM     11  C   UNL     1      -1.274  -1.019   0.301  1.00  0.00     0.122 C 
BRANCH   9  12
ATOM     12  C   UNL     1       0.432  -2.537  -0.428  1.00  0.00     0.317 C 
ATOM     13  O   UNL     1      -0.356  -3.467  -0.221  1.00  0.00    -0.249 OA
ATOM     14  N   UNL     1       1.621  -2.903  -0.928  1.00  0.00    -0.335 N 
ATOM     15  H   UNL     1       1.716  -3.882  -0.963  1.00  0.00     0.165 HD
BRANCH  14  16
ATOM     16  C   UNL     1       2.815  -2.226  -1.436  1.00  0.00     0.088 C 
ATOM     17  C   UNL     1       4.023  -2.710  -0.633  1.00  0.00     0.031 C 
BRANCH  16  18
ATOM     18  C   UNL     1       3.036  -2.487  -2.940  1.00  0.00     0.100 C 
BRANCH  18  19
ATOM     19  C   UNL     1       1.837  -2.191  -3.767  1.00  0.00     0.105 A 
ATOM     20  C   UNL     1       0.801  -2.972  -4.235  1.00  0.00     0.045 A 
ATOM     21  O   UNL     1       1.670  -0.901  -4.165  1.00  0.00    -0.469 OA
ATOM     22  C   UNL     1      -0.066  -2.103  -4.937  1.00  0.00     0.042 A 
ATOM     23  C   UNL     1       0.502  -0.854  -4.860  1.00  0.00     0.195 A 
ENDBRANCH  18  19
ENDBRANCH  16  18
ENDBRANCH  14  16
ENDBRANCH   9  12
ENDBRANCH   3   6
ENDBRANCH   1   2
BRANCH   1  24
ATOM     24  C   UNL     1      -2.947   4.455  -1.060  1.00  0.00     0.023 C 
BRANCH  24  25
ATOM     25  C   UNL     1      -3.767   4.598  -2.343  1.00  0.00     0.023 C 
BRANCH  25  26
ATOM     26  C   UNL     1      -5.020   3.733  -2.410  1.00  0.00     0.116 C 
BRANCH  26  27
ATOM     27  N   UNL     1      -5.940   3.994  -1.313  1.00  0.00    -0.352 N 
ATOM     28  C   UNL     1      -7.238   4.444  -1.347  1.00  0.00     0.251 C 
ATOM     29  H   UNL     1      -5.579   3.823  -0.414  1.00  0.00     0.163 HD
ATOM     30  O   UNL     1      -7.806   4.768  -0.313  1.00  0.00    -0.269 OA
BRANCH  28  31
ATOM     31  C   UNL     1      -7.934   4.562  -2.645  1.00  0.00     0.039 A 
ATOM     32  C   UNL     1      -8.654   5.726  -2.923  1.00  0.00     0.014 A 
ATOM     33  C   UNL     1      -7.860   3.536  -3.590  1.00  0.00     0.014 A 
ATOM     34  C   UNL     1      -9.242   5.889  -4.179  1.00  0.00     0.010 A 
ATOM     35  C   UNL     1      -8.363   3.740  -4.869  1.00  0.00     0.010 A 
ATOM     36  C   UNL     1      -9.068   4.914  -5.175  1.00  0.00    -0.014 A 
BRANCH  36  37
ATOM     37  C   UNL     1      -9.633   5.090  -6.537  1.00  0.00     0.031 A 
ATOM     38  C   UNL     1     -10.659   4.120  -7.054  1.00  0.00     0.074 A 
ATOM     39  C   UNL     1      -9.180   6.081  -7.329  1.00  0.00     0.049 A 
ATOM     40  N   UNL     1     -11.219   4.058  -8.236  1.00  0.00    -0.248 NA
ATOM     41  C   UNL     1     -11.090   3.057  -6.131  1.00  0.00     0.031 C 
ATOM     42  C   UNL     1      -8.154   7.059  -6.962  1.00  0.00     0.029 A 
ATOM     43  N   UNL     1      -9.519   6.423  -8.614  1.00  0.00    -0.354 N 
ATOM     44  C   UNL     1     -12.052   2.947  -8.201  1.00  0.00     0.074 A 
ATOM     45  C   UNL     1     -11.875   2.326  -6.907  1.00  0.00     0.031 C 
ATOM     46  C   UNL     1      -7.969   7.907  -7.986  1.00  0.00     0.029 A 
ATOM     47  C   UNL     1      -8.829   7.510  -9.096  1.00  0.00     0.049 A 
ATOM     48  H   UNL     1     -10.193   5.936  -9.141  1.00  0.00     0.167 HD
ATOM     49  C   UNL     1     -12.909   2.499  -9.149  1.00  0.00     0.037 A 
ATOM     50  C   UNL     1      -8.881   8.112 -10.299  1.00  0.00     0.037 A 
ATOM     51  C   UNL     1     -13.097   3.131 -10.428  1.00  0.00     0.049 A 
ATOM     52  C   UNL     1      -9.830   7.587 -11.342  1.00  0.00     0.074 A 
ATOM     53  C   UNL     1     -13.976   2.785 -11.439  1.00  0.00     0.029 A 
ATOM     54  N   UNL     1     -12.390   4.239 -10.873  1.00  0.00    -0.354 N 
ATOM     55  N   UNL     1     -10.659   6.574 -11.272  1.00  0.00    -0.248 NA
ATOM     56  C   UNL     1      -9.855   8.296 -12.629  1.00  0.00     0.031 C 
ATOM     57  C   UNL     1     -13.765   3.653 -12.516  1.00  0.00     0.029 A 
ATOM     58  C   UNL     1     -12.799   4.577 -12.152  1.00  0.00     0.049 A 
ATOM     59  H   UNL     1     -11.700   4.714 -10.355  1.00  0.00     0.167 HD
ATOM     60  C   UNL     1     -11.331   6.547 -12.488  1.00  0.00     0.074 A 
ATOM     61  C   UNL     1     -10.817   7.651 -13.273  1.00  0.00     0.031 C 
ATOM     62  C   UNL     1     -12.288   5.688 -12.916  1.00  0.00     0.037 A 
BRANCH  49  63
ATOM     63  C   UNL     1     -13.705   1.265  -8.832  1.00  0.00     0.057 A 
ATOM     64  C   UNL     1     -14.707   1.261  -7.851  1.00  0.00     0.134 A 
ATOM     65  C   UNL     1     -13.481   0.070  -9.527  1.00  0.00     0.134 A 
ATOM     66  F   UNL     1     -14.965   2.368  -7.138  1.00  0.00    -0.206 F 
ATOM     67  C   UNL     1     -15.431   0.106  -7.549  1.00  0.00     0.040 A 
ATOM     68  C   UNL     1     -14.221  -1.082  -9.257  1.00  0.00     0.040 A 
ATOM     69  F   UNL     1     -12.543   0.003 -10.483  1.00  0.00    -0.206 F 
ATOM     70  C   UNL     1     -15.193  -1.069  -8.259  1.00  0.00     0.006 A 
ENDBRANCH  49  63
BRANCH  50  71
ATOM     71  C   UNL     1      -8.031   9.299 -10.575  1.00  0.00     0.057 A 
ATOM     72  C   UNL     1      -8.597  10.570 -10.731  1.00  0.00     0.134 A 
ATOM     73  C   UNL     1      -6.641   9.193 -10.700  1.00  0.00     0.134 A 
ATOM     74  F   UNL     1      -9.925  10.734 -10.640  1.00  0.00    -0.206 F 
ATOM     75  C   UNL     1      -7.814  11.689 -11.024  1.00  0.00     0.040 A 
ATOM     76  C   UNL     1      -5.844  10.307 -10.966  1.00  0.00     0.040 A 
ATOM     77  F   UNL     1      -6.036   8.005 -10.553  1.00  0.00    -0.206 F 
ATOM     78  C   UNL     1      -6.432  11.559 -11.137  1.00  0.00     0.006 A 
ENDBRANCH  50  71
BRANCH  62  79
ATOM     79  C   UNL     1     -12.884   5.938 -14.271  1.00  0.00     0.057 A 
ATOM     80  C   UNL     1     -12.166   5.721 -15.454  1.00  0.00     0.134 A 
ATOM     81  C   UNL     1     -14.213   6.367 -14.392  1.00  0.00     0.134 A 
ATOM     82  F   UNL     1     -10.886   5.322 -15.409  1.00  0.00    -0.206 F 
ATOM     83  C   UNL     1     -12.740   5.948 -16.707  1.00  0.00     0.040 A 
ATOM     84  C   UNL     1     -14.806   6.567 -15.638  1.00  0.00     0.040 A 
ATOM     85  F   UNL     1     -14.961   6.584 -13.299  1.00  0.00    -0.206 F 
ATOM     86  C   UNL     1     -14.066   6.365 -16.801  1.00  0.00     0.006 A 
ENDBRANCH  62  79
ENDBRANCH  36  37
ENDBRANCH  28  31
ENDBRANCH  26  27
ENDBRANCH  25  26
ENDBRANCH  24  25
ENDBRANCH   1  24
TORSDOF 15
