REMARK SMILES O=C(NCCCCNC(=O)[C@@H]1CC2(CC[NH2+]CC2)C[N@@H+]1Cc1cccc2nonc12)c1ccc(-c2c3nc(c(-c4c(F)cccc4F)c4ccc([nH]4)c(-c4c(F)cccc4F)c4nc(c(-c5c(F)cccc5F)c5ccc2[nH]5)C=C4)C=C3)cc1
REMARK SMILES IDX 5 1 4 2 3 3 1 4 2 5 31 7 32 8 84 9 33 10 83 11 34 12 35 13
REMARK SMILES IDX 36 14 77 15 37 16 82 17 76 18 78 19 38 20 81 21 75 22 74 23
REMARK SMILES IDX 39 25 65 26 48 27 64 28 49 29 52 30 63 31 79 32 50 33 51 34
REMARK SMILES IDX 62 36 80 37 53 38 40 39 41 40 46 41 42 42 43 43 45 44 47 45
REMARK SMILES IDX 44 46 66 47 67 48 72 49 68 50 69 51 71 52 73 53 70 54 54 55
REMARK SMILES IDX 55 56 60 57 56 58 57 59 59 60 61 61 58 62 6 63 7 64 8 65
REMARK SMILES IDX 9 66 10 68 11 69 12 70 20 71 13 72 19 73 14 75 18 76 15 77
REMARK SMILES IDX 17 78 16 79 21 82 22 83 23 84 30 85 24 86 26 87 29 88 25 89
REMARK SMILES IDX 27 90 28 91
REMARK H PARENT 3 6 78 24 52 35 8 67 20 74 16 80 16 81
REMARK Flexibility Score: inf
ROOT
ATOM      1  C   UNL     1       4.686   0.168   2.176  1.00  0.00     0.023 C 
ENDROOT
BRANCH   1   2
ATOM      2  C   UNL     1       4.081  -0.374   0.876  1.00  0.00     0.116 C 
BRANCH   2   3
ATOM      3  N   UNL     1       2.631  -0.322   0.926  1.00  0.00    -0.352 N 
ATOM      4  O   UNL     1       0.567   0.343   0.402  1.00  0.00    -0.269 OA
ATOM      5  C   UNL     1       1.720   0.121   0.015  1.00  0.00     0.251 C 
ATOM      6  H   UNL     1       2.239  -0.667   1.761  1.00  0.00     0.163 HD
BRANCH   5   7
ATOM      7  C   UNL     1       2.042   0.311  -1.415  1.00  0.00     0.039 A 
ATOM      8  C   UNL     1       1.382   1.338  -2.103  1.00  0.00     0.014 A 
ATOM      9  C   UNL     1       2.817  -0.610  -2.123  1.00  0.00     0.014 A 
ATOM     10  C   UNL     1       1.480   1.441  -3.492  1.00  0.00     0.010 A 
ATOM     11  C   UNL     1       2.916  -0.505  -3.515  1.00  0.00     0.010 A 
ATOM     12  C   UNL     1       2.236   0.509  -4.212  1.00  0.00    -0.014 A 
BRANCH  12  13
ATOM     13  C   UNL     1       2.255   0.576  -5.691  1.00  0.00     0.031 A 
ATOM     14  C   UNL     1       3.570   0.424  -6.357  1.00  0.00     0.074 A 
ATOM     15  C   UNL     1       1.222   0.124  -6.439  1.00  0.00     0.049 A 
ATOM     16  N   UNL     1       4.070  -0.757  -6.556  1.00  0.00    -0.248 NA
ATOM     17  C   UNL     1       4.467   1.519  -6.705  1.00  0.00     0.031 C 
ATOM     18  C   UNL     1       0.134  -0.716  -5.923  1.00  0.00     0.029 A 
ATOM     19  N   UNL     1       1.043   0.108  -7.808  1.00  0.00    -0.354 N 
ATOM     20  C   UNL     1       5.362  -0.589  -6.993  1.00  0.00     0.074 A 
ATOM     21  C   UNL     1       5.560   0.843  -7.099  1.00  0.00     0.031 C 
ATOM     22  C   UNL     1      -0.505  -1.285  -6.964  1.00  0.00     0.029 A 
ATOM     23  C   UNL     1       0.012  -0.727  -8.205  1.00  0.00     0.049 A 
ATOM     24  H   UNL     1       1.590   0.634  -8.435  1.00  0.00     0.167 HD
ATOM     25  C   UNL     1       6.179  -1.647  -7.232  1.00  0.00     0.037 A 
ATOM     26  C   UNL     1      -0.205  -1.270  -9.428  1.00  0.00     0.037 A 
ATOM     27  C   UNL     1       5.658  -2.993  -7.088  1.00  0.00     0.049 A 
ATOM     28  C   UNL     1       0.884  -2.287  -9.571  1.00  0.00     0.074 A 
ATOM     29  C   UNL     1       6.175  -4.261  -6.887  1.00  0.00     0.029 A 
ATOM     30  N   UNL     1       4.308  -3.187  -7.216  1.00  0.00    -0.354 N 
ATOM     31  N   UNL     1       0.861  -3.488  -9.053  1.00  0.00    -0.248 NA
ATOM     32  C   UNL     1       2.188  -1.877 -10.117  1.00  0.00     0.031 C 
ATOM     33  C   UNL     1       5.130  -5.205  -7.159  1.00  0.00     0.029 A 
ATOM     34  C   UNL     1       4.022  -4.485  -7.559  1.00  0.00     0.049 A 
ATOM     35  H   UNL     1       3.630  -2.486  -7.079  1.00  0.00     0.167 HD
ATOM     36  C   UNL     1       2.194  -3.859  -8.976  1.00  0.00     0.074 A 
ATOM     37  C   UNL     1       2.951  -2.904  -9.759  1.00  0.00     0.031 C 
ATOM     38  C   UNL     1       2.695  -4.723  -8.052  1.00  0.00     0.037 A 
BRANCH  25  39
ATOM     39  C   UNL     1       7.531  -1.474  -7.800  1.00  0.00     0.057 A 
ATOM     40  C   UNL     1       8.645  -1.180  -7.015  1.00  0.00     0.134 A 
ATOM     41  C   UNL     1       7.740  -1.787  -9.150  1.00  0.00     0.134 A 
ATOM     42  F   UNL     1       8.503  -0.878  -5.716  1.00  0.00    -0.206 F 
ATOM     43  C   UNL     1       9.935  -1.232  -7.550  1.00  0.00     0.040 A 
ATOM     44  C   UNL     1       9.021  -1.848  -9.694  1.00  0.00     0.040 A 
ATOM     45  F   UNL     1       6.699  -2.069  -9.949  1.00  0.00    -0.206 F 
ATOM     46  C   UNL     1      10.125  -1.581  -8.888  1.00  0.00     0.006 A 
ENDBRANCH  25  39
BRANCH  26  47
ATOM     47  C   UNL     1      -0.641  -0.337 -10.507  1.00  0.00     0.057 A 
ATOM     48  C   UNL     1      -0.148  -0.308 -11.817  1.00  0.00     0.134 A 
ATOM     49  C   UNL     1      -1.697   0.558 -10.237  1.00  0.00     0.134 A 
ATOM     50  F   UNL     1       0.769  -1.188 -12.239  1.00  0.00    -0.206 F 
ATOM     51  C   UNL     1      -0.590   0.628 -12.761  1.00  0.00     0.040 A 
ATOM     52  C   UNL     1      -2.163   1.484 -11.174  1.00  0.00     0.040 A 
ATOM     53  F   UNL     1      -2.323   0.535  -9.049  1.00  0.00    -0.206 F 
ATOM     54  C   UNL     1      -1.591   1.537 -12.438  1.00  0.00     0.006 A 
ENDBRANCH  26  47
BRANCH  38  55
ATOM     55  C   UNL     1       1.765  -5.687  -7.427  1.00  0.00     0.057 A 
ATOM     56  C   UNL     1       1.508  -5.688  -6.054  1.00  0.00     0.134 A 
ATOM     57  C   UNL     1       1.122  -6.654  -8.210  1.00  0.00     0.134 A 
ATOM     58  F   UNL     1       2.087  -4.786  -5.245  1.00  0.00    -0.206 F 
ATOM     59  C   UNL     1       0.639  -6.617  -5.479  1.00  0.00     0.040 A 
ATOM     60  C   UNL     1       0.245  -7.582  -7.649  1.00  0.00     0.040 A 
ATOM     61  F   UNL     1       1.355  -6.730  -9.530  1.00  0.00    -0.206 F 
ATOM     62  C   UNL     1       0.003  -7.566  -6.278  1.00  0.00     0.006 A 
ENDBRANCH  38  55
ENDBRANCH  12  13
ENDBRANCH   5   7
ENDBRANCH   2   3
ENDBRANCH   1   2
BRANCH   1  63
ATOM     63  C   UNL     1       4.250  -0.559   3.465  1.00  0.00     0.023 C 
BRANCH  63  64
ATOM     64  C   UNL     1       4.637  -2.040   3.529  1.00  0.00     0.116 C 
BRANCH  64  65
ATOM     65  N   UNL     1       6.076  -2.161   3.530  1.00  0.00    -0.351 N 
ATOM     66  C   UNL     1       6.865  -2.125   4.646  1.00  0.00     0.278 C 
ATOM     67  H   UNL     1       6.523  -2.277   2.661  1.00  0.00     0.163 HD
ATOM     68  O   UNL     1       7.862  -1.406   4.594  1.00  0.00    -0.268 OA
BRANCH  66  69
ATOM     69  C   UNL     1       6.481  -3.018   5.843  1.00  0.00     0.275 C 
ATOM     70  C   UNL     1       5.981  -2.193   7.028  1.00  0.00     0.089 C 
ATOM     71  N   UNL     1       7.609  -3.759   6.402  1.00  0.00    -0.320 N 
ATOM     72  C   UNL     1       7.179  -2.062   8.001  1.00  0.00     0.036 C 
ATOM     73  C   UNL     1       7.975  -3.353   7.738  1.00  0.00     0.270 C 
ATOM     74  H   UNL     1       7.302  -4.731   6.383  1.00  0.00     0.349 HD
ATOM     75  C   UNL     1       6.717  -1.969   9.469  1.00  0.00     0.074 C 
ATOM     76  C   UNL     1       8.052  -0.814   7.726  1.00  0.00     0.074 C 
ATOM     77  C   UNL     1       6.028  -0.635   9.765  1.00  0.00     0.261 C 
ATOM     78  C   UNL     1       7.327   0.489   8.060  1.00  0.00     0.261 C 
ATOM     79  N   UNL     1       6.883   0.511   9.456  1.00  0.00    -0.346 N 
ATOM     80  H   UNL     1       7.702   0.488  10.064  1.00  0.00     0.346 HD
ATOM     81  H   UNL     1       6.343   1.363   9.606  1.00  0.00     0.346 HD
BRANCH  71  82
ATOM     82  C   UNL     1       8.438  -4.650   5.620  1.00  0.00     0.302 C 
BRANCH  82  83
ATOM     83  C   UNL     1       9.392  -3.939   4.704  1.00  0.00     0.038 A 
ATOM     84  C   UNL     1      10.480  -3.168   5.194  1.00  0.00     0.012 A 
ATOM     85  C   UNL     1       9.225  -3.834   3.301  1.00  0.00     0.144 A 
ATOM     86  C   UNL     1      11.281  -2.319   4.386  1.00  0.00     0.003 A 
ATOM     87  C   UNL     1      10.043  -2.954   2.475  1.00  0.00     0.135 A 
ATOM     88  N   UNL     1       8.323  -4.426   2.503  1.00  0.00    -0.049 NA
ATOM     89  C   UNL     1      11.083  -2.168   3.003  1.00  0.00     0.034 A 
ATOM     90  N   UNL     1       9.606  -3.032   1.212  1.00  0.00    -0.050 NA
ATOM     91  O   UNL     1       8.561  -3.939   1.231  1.00  0.00    -0.243 OA
ENDBRANCH  82  83
ENDBRANCH  71  82
ENDBRANCH  66  69
ENDBRANCH  64  65
ENDBRANCH  63  64
ENDBRANCH   1  63
TORSDOF 13
