REMARK SMILES C[C@@H](C(=O)NCCCCNC(=O)c1ccc(-c2c3nc(c(-c4c(F)cccc4F)c4ccc([nH]4)c(-c4c(F)cccc4F)c4nc(c(-c5c(F)cccc5F)c5ccc2[nH]5)C=C4)C=C3)cc1)c1ccc2c3cc(Cl)ccc3n(C(=O)c3cocn3)c2c1
REMARK SMILES IDX 7 1 6 2 5 3 3 4 4 5 2 7 1 8 67 9 68 10 87 11 69 12 86 13
REMARK SMILES IDX 70 14 78 15 71 16 77 17 72 18 76 19 73 20 75 21 74 22 79 23
REMARK SMILES IDX 80 24 81 25 82 26 85 27 83 28 84 29 8 30 9 31 10 32 11 33
REMARK SMILES IDX 12 35 13 36 14 37 66 38 15 39 65 40 16 41 17 42 18 43 59 44
REMARK SMILES IDX 19 45 64 46 58 47 60 48 20 49 63 50 57 51 56 52 21 54 47 55
REMARK SMILES IDX 30 56 46 57 31 58 34 59 45 60 61 61 32 62 33 63 44 65 62 66
REMARK SMILES IDX 35 67 22 68 23 69 28 70 24 71 25 72 27 73 29 74 26 75 48 76
REMARK SMILES IDX 49 77 54 78 50 79 51 80 53 81 55 82 52 83 36 84 37 85 42 86
REMARK SMILES IDX 38 87 39 88 41 89 43 90 40 91
REMARK H PARENT 5 6 10 34 60 53 34 64
REMARK Flexibility Score: inf
ROOT
ATOM      1  C   UNL     1       4.303   0.944  -0.794  1.00  0.00     0.023 C 
ENDROOT
BRANCH   1   2
ATOM      2  C   UNL     1       3.486   1.914   0.067  1.00  0.00     0.116 C 
BRANCH   2   3
ATOM      3  N   UNL     1       2.459   2.566  -0.721  1.00  0.00    -0.356 N 
ATOM      4  C   UNL     1       1.132   2.259  -0.849  1.00  0.00     0.227 C 
ATOM      5  O   UNL     1       0.539   2.785  -1.792  1.00  0.00    -0.274 OA
ATOM      6  H   UNL     1       2.761   3.345  -1.241  1.00  0.00     0.163 HD
BRANCH   4   7
ATOM      7  C   UNL     1       0.466   1.312   0.169  1.00  0.00     0.105 C 
ATOM      8  C   UNL     1       0.875  -0.131  -0.173  1.00  0.00     0.023 C 
BRANCH   7   9
ATOM      9  C   UNL     1      -1.061   1.459   0.278  1.00  0.00    -0.034 A 
ATOM     10  C   UNL     1      -1.710   2.678   0.059  1.00  0.00     0.005 A 
ATOM     11  C   UNL     1      -1.848   0.357   0.656  1.00  0.00     0.032 A 
ATOM     12  C   UNL     1      -3.109   2.774   0.053  1.00  0.00     0.011 A 
ATOM     13  C   UNL     1      -3.251   0.457   0.682  1.00  0.00     0.058 A 
ATOM     14  C   UNL     1      -3.892   1.634   0.324  1.00  0.00     0.008 A 
ATOM     15  N   UNL     1      -4.218  -0.508   0.984  1.00  0.00    -0.274 N 
ATOM     16  C   UNL     1      -5.289   1.366   0.314  1.00  0.00     0.009 A 
ATOM     17  C   UNL     1      -5.482   0.046   0.748  1.00  0.00     0.057 A 
ATOM     18  C   UNL     1      -6.407   2.160  -0.020  1.00  0.00     0.031 A 
ATOM     19  C   UNL     1      -6.782  -0.460   0.942  1.00  0.00     0.029 A 
ATOM     20  C   UNL     1      -7.688   1.632   0.115  1.00  0.00     0.041 A 
ATOM     21  C   UNL     1      -7.876   0.345   0.601  1.00  0.00     0.023 A 
ATOM     22  Cl  UNL     1      -9.051   2.596  -0.305  1.00  0.00    -0.084 Cl
BRANCH  15  23
ATOM     23  C   UNL     1      -3.900  -1.804   1.470  1.00  0.00     0.284 C 
ATOM     24  O   UNL     1      -2.909  -1.873   2.197  1.00  0.00    -0.266 OA
BRANCH  23  25
ATOM     25  C   UNL     1      -4.621  -3.024   1.123  1.00  0.00     0.167 A 
ATOM     26  C   UNL     1      -5.420  -3.281   0.029  1.00  0.00     0.231 A 
ATOM     27  N   UNL     1      -4.469  -4.205   1.839  1.00  0.00    -0.211 NA
ATOM     28  O   UNL     1      -5.787  -4.594   0.059  1.00  0.00    -0.451 OA
ATOM     29  C   UNL     1      -5.167  -5.085   1.165  1.00  0.00     0.308 A 
ENDBRANCH  23  25
ENDBRANCH  15  23
ENDBRANCH   7   9
ENDBRANCH   4   7
ENDBRANCH   2   3
ENDBRANCH   1   2
BRANCH   1  30
ATOM     30  C   UNL     1       5.088   1.599  -1.929  1.00  0.00     0.023 C 
BRANCH  30  31
ATOM     31  C   UNL     1       6.085   2.652  -1.480  1.00  0.00     0.116 C 
BRANCH  31  32
ATOM     32  N   UNL     1       7.090   2.125  -0.569  1.00  0.00    -0.352 N 
ATOM     33  C   UNL     1       8.431   2.429  -0.526  1.00  0.00     0.251 C 
ATOM     34  H   UNL     1       6.773   1.472   0.097  1.00  0.00     0.163 HD
ATOM     35  O   UNL     1       9.195   1.831   0.216  1.00  0.00    -0.269 OA
BRANCH  33  36
ATOM     36  C   UNL     1       8.930   3.478  -1.434  1.00  0.00     0.039 A 
ATOM     37  C   UNL     1       9.959   3.171  -2.326  1.00  0.00     0.014 A 
ATOM     38  C   UNL     1       8.300   4.725  -1.463  1.00  0.00     0.014 A 
ATOM     39  C   UNL     1      10.312   4.097  -3.307  1.00  0.00     0.010 A 
ATOM     40  C   UNL     1       8.603   5.614  -2.483  1.00  0.00     0.010 A 
ATOM     41  C   UNL     1       9.608   5.307  -3.416  1.00  0.00    -0.014 A 
BRANCH  41  42
ATOM     42  C   UNL     1       9.891   6.286  -4.491  1.00  0.00     0.031 A 
ATOM     43  C   UNL     1      10.388   7.654  -4.125  1.00  0.00     0.074 A 
ATOM     44  C   UNL     1       9.578   5.994  -5.767  1.00  0.00     0.049 A 
ATOM     45  N   UNL     1      10.511   8.718  -4.874  1.00  0.00    -0.248 NA
ATOM     46  C   UNL     1      10.752   7.861  -2.715  1.00  0.00     0.031 C 
ATOM     47  C   UNL     1       9.040   4.717  -6.237  1.00  0.00     0.029 A 
ATOM     48  N   UNL     1       9.636   6.769  -6.897  1.00  0.00    -0.354 N 
ATOM     49  C   UNL     1      10.926   9.730  -4.019  1.00  0.00     0.074 A 
ATOM     50  C   UNL     1      10.997   9.161  -2.690  1.00  0.00     0.031 C 
ATOM     51  C   UNL     1       8.813   4.798  -7.559  1.00  0.00     0.029 A 
ATOM     52  C   UNL     1       9.152   6.141  -8.018  1.00  0.00     0.049 A 
ATOM     53  H   UNL     1       9.991   7.687  -6.904  1.00  0.00     0.167 HD
ATOM     54  C   UNL     1      11.232  11.014  -4.318  1.00  0.00     0.037 A 
ATOM     55  C   UNL     1       8.979   6.604  -9.270  1.00  0.00     0.037 A 
ATOM     56  C   UNL     1      11.200  11.560  -5.648  1.00  0.00     0.049 A 
ATOM     57  C   UNL     1       9.360   8.022  -9.590  1.00  0.00     0.074 A 
ATOM     58  C   UNL     1      11.575  12.823  -6.071  1.00  0.00     0.029 A 
ATOM     59  N   UNL     1      10.768  10.871  -6.771  1.00  0.00    -0.354 N 
ATOM     60  N   UNL     1       9.813   8.954  -8.787  1.00  0.00    -0.248 NA
ATOM     61  C   UNL     1       9.212   8.451 -10.987  1.00  0.00     0.031 C 
ATOM     62  C   UNL     1      11.337  12.908  -7.447  1.00  0.00     0.029 A 
ATOM     63  C   UNL     1      10.851  11.687  -7.887  1.00  0.00     0.049 A 
ATOM     64  H   UNL     1      10.449   9.939  -6.775  1.00  0.00     0.167 HD
ATOM     65  C   UNL     1      10.026  10.072  -9.582  1.00  0.00     0.074 A 
ATOM     66  C   UNL     1       9.657   9.700 -10.933  1.00  0.00     0.031 C 
ATOM     67  C   UNL     1      10.488  11.295  -9.225  1.00  0.00     0.037 A 
BRANCH  54  68
ATOM     68  C   UNL     1      11.617  11.908  -3.177  1.00  0.00     0.057 A 
ATOM     69  C   UNL     1      12.829  11.756  -2.491  1.00  0.00     0.134 A 
ATOM     70  C   UNL     1      10.758  12.930  -2.753  1.00  0.00     0.134 A 
ATOM     71  F   UNL     1      13.688  10.785  -2.837  1.00  0.00    -0.206 F 
ATOM     72  C   UNL     1      13.157  12.562  -1.401  1.00  0.00     0.040 A 
ATOM     73  C   UNL     1      11.088  13.761  -1.682  1.00  0.00     0.040 A 
ATOM     74  F   UNL     1       9.584  13.133  -3.368  1.00  0.00    -0.206 F 
ATOM     75  C   UNL     1      12.286  13.572  -0.995  1.00  0.00     0.006 A 
ENDBRANCH  54  68
BRANCH  55  76
ATOM     76  C   UNL     1       8.430   5.704 -10.312  1.00  0.00     0.057 A 
ATOM     77  C   UNL     1       9.257   5.160 -11.301  1.00  0.00     0.134 A 
ATOM     78  C   UNL     1       7.079   5.337 -10.323  1.00  0.00     0.134 A 
ATOM     79  F   UNL     1      10.556   5.488 -11.349  1.00  0.00    -0.206 F 
ATOM     80  C   UNL     1       8.760   4.286 -12.269  1.00  0.00     0.040 A 
ATOM     81  C   UNL     1       6.572   4.449 -11.273  1.00  0.00     0.040 A 
ATOM     82  F   UNL     1       6.240   5.818  -9.395  1.00  0.00    -0.206 F 
ATOM     83  C   UNL     1       7.414   3.922 -12.252  1.00  0.00     0.006 A 
ENDBRANCH  55  76
BRANCH  67  84
ATOM     84  C   UNL     1      10.657  12.312 -10.313  1.00  0.00     0.057 A 
ATOM     85  C   UNL     1       9.563  12.984 -10.869  1.00  0.00     0.134 A 
ATOM     86  C   UNL     1      11.935  12.667 -10.760  1.00  0.00     0.134 A 
ATOM     87  F   UNL     1       8.312  12.680 -10.490  1.00  0.00    -0.206 F 
ATOM     88  C   UNL     1       9.735  13.971 -11.841  1.00  0.00     0.040 A 
ATOM     89  C   UNL     1      12.121  13.666 -11.716  1.00  0.00     0.040 A 
ATOM     90  F   UNL     1      13.024  12.063 -10.260  1.00  0.00    -0.206 F 
ATOM     91  C   UNL     1      11.018  14.320 -12.261  1.00  0.00     0.006 A 
ENDBRANCH  67  84
ENDBRANCH  41  42
ENDBRANCH  33  36
ENDBRANCH  31  32
ENDBRANCH  30  31
ENDBRANCH   1  30
TORSDOF 14
