REMARK SMILES CCCCNC(=O)c1c(Cl)c(Cl)c(Cl)c(Cl)c1C(=O)NCCCCNC(=O)c1ccc(-c2c3nc(c(-c4c(F)cccc4F)c4ccc([nH]4)c(-c4c(F)cccc4F)c4nc(c(-c5c(F)cccc5F)c5ccc2[nH]5)C=C4)C=C3)cc1
REMARK SMILES IDX 21 1 20 2 18 3 19 4 17 6 8 7 9 8 10 9 11 10 15 11 12 12
REMARK SMILES IDX 13 13 16 14 14 15 6 16 5 17 7 19 4 20 3 21 2 22 1 23 22 24
REMARK SMILES IDX 23 25 24 26 25 27 26 28 27 30 28 31 29 32 81 33 30 34 80 35
REMARK SMILES IDX 31 36 32 37 33 38 74 39 34 40 79 41 73 42 75 43 35 44 78 45
REMARK SMILES IDX 72 46 71 47 36 49 62 50 45 51 61 52 46 53 49 54 60 55 76 56
REMARK SMILES IDX 47 57 48 58 59 60 77 61 50 62 37 63 38 64 43 65 39 66 40 67
REMARK SMILES IDX 42 68 44 69 41 70 63 71 64 72 69 73 65 74 66 75 68 76 70 77
REMARK SMILES IDX 67 78 51 79 52 80 57 81 53 82 54 83 56 84 58 85 55 86
REMARK H PARENT 20 5 5 18 25 29 75 48 49 59
REMARK Flexibility Score: inf
ROOT
ATOM      1  C   UNL     1      -2.327  -1.479   3.700  1.00  0.00     0.116 C 
ENDROOT
BRANCH   1   2
ATOM      2  N   UNL     1      -2.898  -1.577   5.015  1.00  0.00    -0.352 N 
ATOM      3  C   UNL     1      -2.527  -0.900   6.154  1.00  0.00     0.253 C 
ATOM      4  O   UNL     1      -3.346  -0.823   7.070  1.00  0.00    -0.269 OA
ATOM      5  H   UNL     1      -3.649  -2.206   5.113  1.00  0.00     0.163 HD
BRANCH   3   6
ATOM      6  C   UNL     1      -1.175  -0.315   6.401  1.00  0.00     0.074 A 
ATOM      7  C   UNL     1      -0.647   0.783   5.694  1.00  0.00     0.074 A 
ATOM      8  C   UNL     1       0.422   1.540   6.220  1.00  0.00     0.074 A 
ATOM      9  Cl  UNL     1       0.951   2.991   5.405  1.00  0.00    -0.082 Cl
ATOM     10  C   UNL     1       1.047   1.142   7.410  1.00  0.00     0.080 A 
ATOM     11  C   UNL     1      -0.509  -0.731   7.579  1.00  0.00     0.074 A 
ATOM     12  Cl  UNL     1       2.393   2.055   8.035  1.00  0.00    -0.081 Cl
ATOM     13  C   UNL     1       0.599  -0.010   8.077  1.00  0.00     0.080 A 
ATOM     14  Cl  UNL     1      -0.999  -2.198   8.391  1.00  0.00    -0.082 Cl
ATOM     15  Cl  UNL     1       1.407  -0.531   9.532  1.00  0.00    -0.081 Cl
BRANCH   7  16
ATOM     16  C   UNL     1      -1.188   1.186   4.391  1.00  0.00     0.253 C 
ATOM     17  N   UNL     1      -0.450   0.935   3.249  1.00  0.00    -0.352 N 
ATOM     18  H   UNL     1      -0.902   1.161   2.404  1.00  0.00     0.163 HD
ATOM     19  O   UNL     1      -2.296   1.704   4.337  1.00  0.00    -0.269 OA
BRANCH  17  20
ATOM     20  C   UNL     1       0.899   0.387   3.100  1.00  0.00     0.116 C 
BRANCH  20  21
ATOM     21  C   UNL     1       0.986  -0.905   2.280  1.00  0.00     0.021 C 
BRANCH  21  22
ATOM     22  C   UNL     1       0.430  -0.840   0.858  1.00  0.00    -0.002 C 
ATOM     23  C   UNL     1       1.121   0.197  -0.010  1.00  0.00     0.004 C 
ENDBRANCH  21  22
ENDBRANCH  20  21
ENDBRANCH  17  20
ENDBRANCH   7  16
ENDBRANCH   3   6
ENDBRANCH   1   2
BRANCH   1  24
ATOM     24  C   UNL     1      -2.656  -2.578   2.704  1.00  0.00     0.023 C 
BRANCH  24  25
ATOM     25  C   UNL     1      -4.128  -2.776   2.354  1.00  0.00     0.023 C 
BRANCH  25  26
ATOM     26  C   UNL     1      -4.983  -1.523   2.173  1.00  0.00     0.116 C 
BRANCH  26  27
ATOM     27  N   UNL     1      -4.555  -0.642   1.095  1.00  0.00    -0.352 N 
ATOM     28  C   UNL     1      -5.168  -0.303  -0.093  1.00  0.00     0.251 C 
ATOM     29  H   UNL     1      -3.679  -0.216   1.239  1.00  0.00     0.163 HD
ATOM     30  O   UNL     1      -4.593   0.428  -0.889  1.00  0.00    -0.269 OA
BRANCH  28  31
ATOM     31  C   UNL     1      -6.494  -0.865  -0.438  1.00  0.00     0.039 A 
ATOM     32  C   UNL     1      -6.686  -1.406  -1.712  1.00  0.00     0.014 A 
ATOM     33  C   UNL     1      -7.532  -0.894   0.493  1.00  0.00     0.014 A 
ATOM     34  C   UNL     1      -7.870  -2.089  -2.005  1.00  0.00     0.010 A 
ATOM     35  C   UNL     1      -8.666  -1.659   0.236  1.00  0.00     0.010 A 
ATOM     36  C   UNL     1      -8.841  -2.281  -1.009  1.00  0.00    -0.014 A 
BRANCH  36  37
ATOM     37  C   UNL     1     -10.028  -3.149  -1.233  1.00  0.00     0.031 A 
ATOM     38  C   UNL     1     -11.416  -2.583  -1.111  1.00  0.00     0.074 A 
ATOM     39  C   UNL     1      -9.860  -4.470  -1.449  1.00  0.00     0.049 A 
ATOM     40  N   UNL     1     -12.569  -3.201  -1.157  1.00  0.00    -0.248 NA
ATOM     41  C   UNL     1     -11.521  -1.136  -0.869  1.00  0.00     0.031 C 
ATOM     42  C   UNL     1      -8.570  -5.161  -1.528  1.00  0.00     0.029 A 
ATOM     43  N   UNL     1     -10.781  -5.473  -1.627  1.00  0.00    -0.354 N 
ATOM     44  C   UNL     1     -13.530  -2.225  -0.926  1.00  0.00     0.074 A 
ATOM     45  C   UNL     1     -12.824  -0.986  -0.686  1.00  0.00     0.031 C 
ATOM     46  C   UNL     1      -8.782  -6.465  -1.766  1.00  0.00     0.029 A 
ATOM     47  C   UNL     1     -10.219  -6.713  -1.815  1.00  0.00     0.049 A 
ATOM     48  H   UNL     1     -11.753  -5.318  -1.621  1.00  0.00     0.167 HD
ATOM     49  C   UNL     1     -14.879  -2.343  -0.938  1.00  0.00     0.037 A 
ATOM     50  C   UNL     1     -10.796  -7.916  -2.001  1.00  0.00     0.037 A 
ATOM     51  C   UNL     1     -15.584  -3.566  -1.214  1.00  0.00     0.049 A 
ATOM     52  C   UNL     1     -12.295  -8.018  -2.025  1.00  0.00     0.074 A 
ATOM     53  C   UNL     1     -16.949  -3.772  -1.317  1.00  0.00     0.029 A 
ATOM     54  N   UNL     1     -14.977  -4.793  -1.435  1.00  0.00    -0.354 N 
ATOM     55  N   UNL     1     -13.190  -7.073  -1.872  1.00  0.00    -0.248 NA
ATOM     56  C   UNL     1     -12.865  -9.354  -2.252  1.00  0.00     0.031 C 
ATOM     57  C   UNL     1     -17.169  -5.130  -1.566  1.00  0.00     0.029 A 
ATOM     58  C   UNL     1     -15.940  -5.763  -1.660  1.00  0.00     0.049 A 
ATOM     59  H   UNL     1     -14.005  -4.952  -1.433  1.00  0.00     0.167 HD
ATOM     60  C   UNL     1     -14.425  -7.693  -2.013  1.00  0.00     0.074 A 
ATOM     61  C   UNL     1     -14.164  -9.093  -2.274  1.00  0.00     0.031 C 
ATOM     62  C   UNL     1     -15.664  -7.150  -1.932  1.00  0.00     0.037 A 
BRANCH  49  63
ATOM     63  C   UNL     1     -15.681  -1.106  -0.654  1.00  0.00     0.057 A 
ATOM     64  C   UNL     1     -15.745  -0.044  -1.566  1.00  0.00     0.134 A 
ATOM     65  C   UNL     1     -16.414  -0.983   0.533  1.00  0.00     0.134 A 
ATOM     66  F   UNL     1     -15.056  -0.093  -2.716  1.00  0.00    -0.206 F 
ATOM     67  C   UNL     1     -16.485   1.108  -1.295  1.00  0.00     0.040 A 
ATOM     68  C   UNL     1     -17.180   0.153   0.803  1.00  0.00     0.040 A 
ATOM     69  F   UNL     1     -16.403  -1.965   1.446  1.00  0.00    -0.206 F 
ATOM     70  C   UNL     1     -17.210   1.206  -0.109  1.00  0.00     0.006 A 
ENDBRANCH  49  63
BRANCH  50  71
ATOM     71  C   UNL     1      -9.954  -9.121  -2.211  1.00  0.00     0.057 A 
ATOM     72  C   UNL     1      -9.886  -9.739  -3.466  1.00  0.00     0.134 A 
ATOM     73  C   UNL     1      -9.212  -9.691  -1.171  1.00  0.00     0.134 A 
ATOM     74  F   UNL     1     -10.591  -9.250  -4.497  1.00  0.00    -0.206 F 
ATOM     75  C   UNL     1      -9.126 -10.891  -3.675  1.00  0.00     0.040 A 
ATOM     76  C   UNL     1      -8.429 -10.830  -1.371  1.00  0.00     0.040 A 
ATOM     77  F   UNL     1      -9.229  -9.143   0.053  1.00  0.00    -0.206 F 
ATOM     78  C   UNL     1      -8.391 -11.437  -2.625  1.00  0.00     0.006 A 
ENDBRANCH  50  71
BRANCH  62  79
ATOM     79  C   UNL     1     -16.831  -8.063  -2.167  1.00  0.00     0.057 A 
ATOM     80  C   UNL     1     -17.230  -9.012  -1.219  1.00  0.00     0.134 A 
ATOM     81  C   UNL     1     -17.587  -7.961  -3.341  1.00  0.00     0.134 A 
ATOM     82  F   UNL     1     -16.538  -9.168  -0.080  1.00  0.00    -0.206 F 
ATOM     83  C   UNL     1     -18.331  -9.841  -1.438  1.00  0.00     0.040 A 
ATOM     84  C   UNL     1     -18.704  -8.767  -3.561  1.00  0.00     0.040 A 
ATOM     85  F   UNL     1     -17.261  -7.066  -4.287  1.00  0.00    -0.206 F 
ATOM     86  C   UNL     1     -19.076  -9.715  -2.609  1.00  0.00     0.006 A 
ENDBRANCH  62  79
ENDBRANCH  36  37
ENDBRANCH  28  31
ENDBRANCH  26  27
ENDBRANCH  25  26
ENDBRANCH  24  25
ENDBRANCH   1  24
TORSDOF 15
