REMARK SMILES O=C(NCCCCNC(=O)[C@@H](CO)NC(=O)c1ccc2noc(-c3ccccc3)c2c1)c1ccc(-c2c3nc(c(-c4c(F)cccc4F)c4ccc([nH]4)c(-c4c(F)cccc4F)c4nc(c(-c5c(F)cccc5F)c5ccc2[nH]5)C=C4)C=C3)cc1
REMARK SMILES IDX 6 1 5 2 4 3 3 4 1 5 2 6 32 8 33 9 85 10 34 11 84 12 35 13
REMARK SMILES IDX 36 14 37 15 78 16 38 17 83 18 77 19 79 20 39 21 82 22 76 23
REMARK SMILES IDX 75 24 40 26 66 27 49 28 65 29 50 30 53 31 64 32 80 33 51 34
REMARK SMILES IDX 52 35 63 37 81 38 54 39 41 40 42 41 47 42 43 43 44 44 46 45
REMARK SMILES IDX 48 46 45 47 67 48 68 49 73 50 69 51 70 52 72 53 74 54 71 55
REMARK SMILES IDX 55 56 56 57 61 58 57 59 58 60 60 61 62 62 59 63 7 64 8 65
REMARK SMILES IDX 9 66 10 68 11 69 12 70 13 71 14 73 15 74 16 76 17 77 18 78
REMARK SMILES IDX 31 79 19 80 30 81 20 82 23 83 21 84 22 85 24 86 25 87 29 88
REMARK SMILES IDX 26 89 28 90 27 91
REMARK H PARENT 3 7 79 25 53 36 8 67 13 72 14 75
REMARK Flexibility Score: inf
ROOT
ATOM      1  C   UNL     1       4.377   1.433  -3.449  1.00  0.00     0.023 C 
ENDROOT
BRANCH   1   2
ATOM      2  C   UNL     1       4.858   0.134  -2.790  1.00  0.00     0.023 C 
BRANCH   2   3
ATOM      3  C   UNL     1       4.403  -0.091  -1.355  1.00  0.00     0.116 C 
BRANCH   3   4
ATOM      4  N   UNL     1       2.951  -0.223  -1.196  1.00  0.00    -0.352 N 
ATOM      5  O   UNL     1       1.108  -0.617   0.096  1.00  0.00    -0.269 OA
ATOM      6  C   UNL     1       2.215  -0.150  -0.012  1.00  0.00     0.251 C 
ATOM      7  H   UNL     1       2.435  -0.381  -2.020  1.00  0.00     0.163 HD
BRANCH   6   8
ATOM      8  C   UNL     1       2.856   0.560   1.111  1.00  0.00     0.039 A 
ATOM      9  C   UNL     1       3.047  -0.028   2.362  1.00  0.00     0.014 A 
ATOM     10  C   UNL     1       3.449   1.766   0.782  1.00  0.00     0.014 A 
ATOM     11  C   UNL     1       3.963   0.561   3.237  1.00  0.00     0.010 A 
ATOM     12  C   UNL     1       4.507   2.190   1.539  1.00  0.00     0.010 A 
ATOM     13  C   UNL     1       4.737   1.650   2.800  1.00  0.00    -0.014 A 
BRANCH  13  14
ATOM     14  C   UNL     1       5.842   2.187   3.600  1.00  0.00     0.031 A 
ATOM     15  C   UNL     1       6.701   1.188   4.300  1.00  0.00     0.074 A 
ATOM     16  C   UNL     1       6.195   3.494   3.599  1.00  0.00     0.049 A 
ATOM     17  N   UNL     1       6.762   0.976   5.574  1.00  0.00    -0.248 NA
ATOM     18  C   UNL     1       7.506   0.249   3.506  1.00  0.00     0.031 C 
ATOM     19  C   UNL     1       5.652   4.605   2.804  1.00  0.00     0.029 A 
ATOM     20  N   UNL     1       7.212   4.096   4.276  1.00  0.00    -0.354 N 
ATOM     21  C   UNL     1       7.758   0.022   5.768  1.00  0.00     0.074 A 
ATOM     22  C   UNL     1       8.062  -0.503   4.462  1.00  0.00     0.031 C 
ATOM     23  C   UNL     1       6.492   5.658   2.847  1.00  0.00     0.029 A 
ATOM     24  C   UNL     1       7.504   5.383   3.844  1.00  0.00     0.049 A 
ATOM     25  H   UNL     1       7.699   3.656   5.009  1.00  0.00     0.167 HD
ATOM     26  C   UNL     1       8.404  -0.083   6.964  1.00  0.00     0.037 A 
ATOM     27  C   UNL     1       8.481   6.205   4.292  1.00  0.00     0.037 A 
ATOM     28  C   UNL     1       7.688   0.616   8.005  1.00  0.00     0.049 A 
ATOM     29  C   UNL     1       8.853   5.737   5.646  1.00  0.00     0.074 A 
ATOM     30  C   UNL     1       6.416   0.536   8.540  1.00  0.00     0.029 A 
ATOM     31  N   UNL     1       8.179   1.833   8.412  1.00  0.00    -0.354 N 
ATOM     32  N   UNL     1       8.068   5.837   6.682  1.00  0.00    -0.248 NA
ATOM     33  C   UNL     1       9.909   4.744   5.758  1.00  0.00     0.031 C 
ATOM     34  C   UNL     1       6.037   1.891   8.785  1.00  0.00     0.029 A 
ATOM     35  C   UNL     1       7.121   2.704   8.452  1.00  0.00     0.049 A 
ATOM     36  H   UNL     1       9.116   2.041   8.633  1.00  0.00     0.167 HD
ATOM     37  C   UNL     1       8.236   4.642   7.365  1.00  0.00     0.074 A 
ATOM     38  C   UNL     1       9.459   4.061   6.814  1.00  0.00     0.031 C 
ATOM     39  C   UNL     1       7.222   4.102   8.105  1.00  0.00     0.037 A 
BRANCH  26  40
ATOM     40  C   UNL     1       9.859  -0.464   7.134  1.00  0.00     0.057 A 
ATOM     41  C   UNL     1      10.829  -0.359   6.118  1.00  0.00     0.134 A 
ATOM     42  C   UNL     1      10.376  -0.621   8.436  1.00  0.00     0.134 A 
ATOM     43  F   UNL     1      10.509  -0.162   4.835  1.00  0.00    -0.206 F 
ATOM     44  C   UNL     1      12.203  -0.347   6.381  1.00  0.00     0.040 A 
ATOM     45  C   UNL     1      11.747  -0.559   8.715  1.00  0.00     0.040 A 
ATOM     46  F   UNL     1       9.557  -0.743   9.492  1.00  0.00    -0.206 F 
ATOM     47  C   UNL     1      12.665  -0.404   7.686  1.00  0.00     0.006 A 
ENDBRANCH  26  40
BRANCH  27  48
ATOM     48  C   UNL     1       9.218   7.249   3.554  1.00  0.00     0.057 A 
ATOM     49  C   UNL     1       9.451   7.138   2.171  1.00  0.00     0.134 A 
ATOM     50  C   UNL     1       9.937   8.245   4.224  1.00  0.00     0.134 A 
ATOM     51  F   UNL     1       8.861   6.178   1.443  1.00  0.00    -0.206 F 
ATOM     52  C   UNL     1      10.369   7.950   1.499  1.00  0.00     0.040 A 
ATOM     53  C   UNL     1      10.864   9.062   3.564  1.00  0.00     0.040 A 
ATOM     54  F   UNL     1       9.804   8.408   5.548  1.00  0.00    -0.206 F 
ATOM     55  C   UNL     1      11.093   8.906   2.200  1.00  0.00     0.006 A 
ENDBRANCH  27  48
BRANCH  39  56
ATOM     56  C   UNL     1       6.013   4.960   8.363  1.00  0.00     0.057 A 
ATOM     57  C   UNL     1       5.630   5.209   9.685  1.00  0.00     0.134 A 
ATOM     58  C   UNL     1       5.159   5.441   7.359  1.00  0.00     0.134 A 
ATOM     59  F   UNL     1       6.361   4.727  10.703  1.00  0.00    -0.206 F 
ATOM     60  C   UNL     1       4.469   5.923   9.995  1.00  0.00     0.040 A 
ATOM     61  C   UNL     1       4.012   6.186   7.654  1.00  0.00     0.040 A 
ATOM     62  F   UNL     1       5.378   5.164   6.070  1.00  0.00    -0.206 F 
ATOM     63  C   UNL     1       3.663   6.427   8.978  1.00  0.00     0.006 A 
ENDBRANCH  39  56
ENDBRANCH  13  14
ENDBRANCH   6   8
ENDBRANCH   3   4
ENDBRANCH   2   3
ENDBRANCH   1   2
BRANCH   1  64
ATOM     64  C   UNL     1       4.864   2.759  -2.844  1.00  0.00     0.116 C 
BRANCH  64  65
ATOM     65  N   UNL     1       6.302   2.935  -2.931  1.00  0.00    -0.354 N 
ATOM     66  C   UNL     1       7.080   3.744  -3.700  1.00  0.00     0.244 C 
ATOM     67  H   UNL     1       6.812   2.360  -2.316  1.00  0.00     0.163 HD
ATOM     68  O   UNL     1       8.303   3.562  -3.618  1.00  0.00    -0.273 OA
BRANCH  66  69
ATOM     69  C   UNL     1       6.538   4.778  -4.712  1.00  0.00     0.197 C 
BRANCH  69  70
ATOM     70  C   UNL     1       5.965   4.099  -5.965  1.00  0.00     0.191 C 
BRANCH  70  71
ATOM     71  O   UNL     1       4.705   3.482  -5.742  1.00  0.00    -0.394 OA
ATOM     72  H   UNL     1       4.800   2.782  -5.078  1.00  0.00     0.210 HD
ENDBRANCH  70  71
ENDBRANCH  69  70
BRANCH  69  73
ATOM     73  N   UNL     1       5.658   5.802  -4.132  1.00  0.00    -0.338 N 
ATOM     74  C   UNL     1       5.825   7.166  -4.095  1.00  0.00     0.252 C 
ATOM     75  H   UNL     1       4.834   5.464  -3.712  1.00  0.00     0.164 HD
ATOM     76  O   UNL     1       5.122   7.857  -3.365  1.00  0.00    -0.269 OA
BRANCH  74  77
ATOM     77  C   UNL     1       6.876   7.816  -4.920  1.00  0.00     0.040 A 
ATOM     78  C   UNL     1       6.935   7.538  -6.326  1.00  0.00     0.016 A 
ATOM     79  C   UNL     1       7.750   8.712  -4.265  1.00  0.00     0.028 A 
ATOM     80  C   UNL     1       7.946   8.027  -7.183  1.00  0.00     0.033 A 
ATOM     81  C   UNL     1       8.721   9.197  -5.142  1.00  0.00     0.050 A 
ATOM     82  C   UNL     1       8.857   8.883  -6.544  1.00  0.00     0.114 A 
ATOM     83  C   UNL     1       9.685  10.132  -4.873  1.00  0.00     0.174 A 
ATOM     84  N   UNL     1       9.915   9.541  -7.043  1.00  0.00    -0.079 NA
ATOM     85  O   UNL     1      10.413  10.322  -6.014  1.00  0.00    -0.355 OA
BRANCH  83  86
ATOM     86  C   UNL     1      10.058  10.962  -3.744  1.00  0.00     0.021 A 
ATOM     87  C   UNL     1      10.195  12.347  -3.916  1.00  0.00     0.012 A 
ATOM     88  C   UNL     1      10.231  10.415  -2.467  1.00  0.00     0.012 A 
ATOM     89  C   UNL     1      10.478  13.173  -2.828  1.00  0.00     0.001 A 
ATOM     90  C   UNL     1      10.520  11.243  -1.379  1.00  0.00     0.001 A 
ATOM     91  C   UNL     1      10.637  12.620  -1.559  1.00  0.00     0.000 A 
ENDBRANCH  83  86
ENDBRANCH  74  77
ENDBRANCH  69  73
ENDBRANCH  66  69
ENDBRANCH  64  65
ENDBRANCH   1  64
TORSDOF 16
