REMARK SMILES O=C(NCCCCNC(=O)[C@H]1CCCN(C(=O)C2CCN(S(=O)(=O)c3ccccc3)CC2)C1)c1ccc(-c2c3nc(c(-c4c(F)cccc4F)c4ccc([nH]4)c(-c4c(F)cccc4F)c4nc(c(-c5c(F)cccc5F)c5ccc2[nH]5)C=C4)C=C3)cc1
REMARK SMILES IDX 6 1 5 2 4 3 3 4 1 5 2 6 34 8 35 9 87 10 36 11 86 12 37 13
REMARK SMILES IDX 38 14 39 15 80 16 40 17 85 18 79 19 81 20 41 21 84 22 78 23
REMARK SMILES IDX 77 24 42 26 68 27 51 28 67 29 52 30 55 31 66 32 82 33 53 34
REMARK SMILES IDX 54 35 65 37 83 38 56 39 43 40 44 41 49 42 45 43 46 44 48 45
REMARK SMILES IDX 50 46 47 47 69 48 70 49 75 50 71 51 72 52 74 53 76 54 73 55
REMARK SMILES IDX 57 56 58 57 63 58 59 59 60 60 62 61 64 62 61 63 7 64 8 65
REMARK SMILES IDX 9 66 10 68 11 69 12 70 33 71 13 72 15 73 14 74 16 75 17 76
REMARK SMILES IDX 18 77 19 78 32 79 20 80 31 81 21 82 22 83 23 84 24 85 25 86
REMARK SMILES IDX 26 87 30 88 27 89 29 90 28 91
REMARK H PARENT 3 7 81 25 55 36 8 67
REMARK Flexibility Score: inf
ROOT
ATOM      1  C   UNL     1       7.461  -6.726   7.556  1.00  0.00     0.023 C 
ENDROOT
BRANCH   1   2
ATOM      2  C   UNL     1       7.760  -6.514   9.032  1.00  0.00     0.023 C 
BRANCH   2   3
ATOM      3  C   UNL     1       6.982  -7.400   9.987  1.00  0.00     0.116 C 
BRANCH   3   4
ATOM      4  N   UNL     1       7.137  -8.827   9.745  1.00  0.00    -0.352 N 
ATOM      5  O   UNL     1       7.294 -11.007  10.350  1.00  0.00    -0.269 OA
ATOM      6  C   UNL     1       7.089  -9.843  10.672  1.00  0.00     0.251 C 
ATOM      7  H   UNL     1       7.295  -9.096   8.811  1.00  0.00     0.163 HD
BRANCH   6   8
ATOM      8  C   UNL     1       6.839  -9.490  12.083  1.00  0.00     0.039 A 
ATOM      9  C   UNL     1       5.760  -8.671  12.424  1.00  0.00     0.014 A 
ATOM     10  C   UNL     1       7.751  -9.911  13.053  1.00  0.00     0.014 A 
ATOM     11  C   UNL     1       5.675  -8.148  13.708  1.00  0.00     0.010 A 
ATOM     12  C   UNL     1       7.620  -9.447  14.361  1.00  0.00     0.010 A 
ATOM     13  C   UNL     1       6.604  -8.534  14.686  1.00  0.00    -0.014 A 
BRANCH  13  14
ATOM     14  C   UNL     1       6.484  -8.010  16.065  1.00  0.00     0.031 A 
ATOM     15  C   UNL     1       7.540  -7.114  16.641  1.00  0.00     0.074 A 
ATOM     16  C   UNL     1       5.418  -8.372  16.801  1.00  0.00     0.049 A 
ATOM     17  N   UNL     1       7.653  -6.652  17.860  1.00  0.00    -0.248 NA
ATOM     18  C   UNL     1       8.614  -6.686  15.732  1.00  0.00     0.031 C 
ATOM     19  C   UNL     1       4.328  -9.233  16.337  1.00  0.00     0.029 A 
ATOM     20  N   UNL     1       5.082  -8.073  18.095  1.00  0.00    -0.354 N 
ATOM     21  C   UNL     1       8.825  -5.907  17.876  1.00  0.00     0.074 A 
ATOM     22  C   UNL     1       9.393  -5.985  16.546  1.00  0.00     0.031 C 
ATOM     23  C   UNL     1       3.440  -9.387  17.328  1.00  0.00     0.029 A 
ATOM     24  C   UNL     1       3.929  -8.691  18.512  1.00  0.00     0.049 A 
ATOM     25  H   UNL     1       5.613  -7.475  18.668  1.00  0.00     0.167 HD
ATOM     26  C   UNL     1       9.373  -5.225  18.910  1.00  0.00     0.037 A 
ATOM     27  C   UNL     1       3.350  -8.726  19.724  1.00  0.00     0.037 A 
ATOM     28  C   UNL     1       8.787  -5.141  20.223  1.00  0.00     0.049 A 
ATOM     29  C   UNL     1       3.987  -7.984  20.859  1.00  0.00     0.074 A 
ATOM     30  C   UNL     1       9.243  -4.444  21.329  1.00  0.00     0.029 A 
ATOM     31  N   UNL     1       7.617  -5.780  20.607  1.00  0.00    -0.354 N 
ATOM     32  N   UNL     1       5.089  -7.274  20.860  1.00  0.00    -0.248 NA
ATOM     33  C   UNL     1       3.308  -8.052  22.159  1.00  0.00     0.031 C 
ATOM     34  C   UNL     1       8.367  -4.692  22.392  1.00  0.00     0.029 A 
ATOM     35  C   UNL     1       7.345  -5.511  21.938  1.00  0.00     0.049 A 
ATOM     36  H   UNL     1       7.062  -6.343  20.020  1.00  0.00     0.167 HD
ATOM     37  C   UNL     1       5.229  -6.795  22.154  1.00  0.00     0.074 A 
ATOM     38  C   UNL     1       4.095  -7.291  22.908  1.00  0.00     0.031 C 
ATOM     39  C   UNL     1       6.208  -6.012  22.668  1.00  0.00     0.037 A 
BRANCH  26  40
ATOM     40  C   UNL     1      10.688  -4.543  18.669  1.00  0.00     0.057 A 
ATOM     41  C   UNL     1      10.793  -3.380  17.897  1.00  0.00     0.134 A 
ATOM     42  C   UNL     1      11.864  -5.047  19.241  1.00  0.00     0.134 A 
ATOM     43  F   UNL     1       9.707  -2.853  17.311  1.00  0.00    -0.206 F 
ATOM     44  C   UNL     1      12.023  -2.754  17.683  1.00  0.00     0.040 A 
ATOM     45  C   UNL     1      13.096  -4.418  19.052  1.00  0.00     0.040 A 
ATOM     46  F   UNL     1      11.834  -6.155  19.996  1.00  0.00    -0.206 F 
ATOM     47  C   UNL     1      13.179  -3.272  18.265  1.00  0.00     0.006 A 
ENDBRANCH  26  40
BRANCH  27  48
ATOM     48  C   UNL     1       2.109  -9.514  19.904  1.00  0.00     0.057 A 
ATOM     49  C   UNL     1       0.867  -8.886  20.032  1.00  0.00     0.134 A 
ATOM     50  C   UNL     1       2.129 -10.914  19.876  1.00  0.00     0.134 A 
ATOM     51  F   UNL     1       0.789  -7.548  20.075  1.00  0.00    -0.206 F 
ATOM     52  C   UNL     1      -0.315  -9.622  20.123  1.00  0.00     0.040 A 
ATOM     53  C   UNL     1       0.955 -11.662  19.943  1.00  0.00     0.040 A 
ATOM     54  F   UNL     1       3.291 -11.572  19.740  1.00  0.00    -0.206 F 
ATOM     55  C   UNL     1      -0.273 -11.015  20.068  1.00  0.00     0.006 A 
ENDBRANCH  27  48
BRANCH  39  56
ATOM     56  C   UNL     1       6.079  -5.619  24.108  1.00  0.00     0.057 A 
ATOM     57  C   UNL     1       6.379  -6.510  25.144  1.00  0.00     0.134 A 
ATOM     58  C   UNL     1       5.698  -4.317  24.456  1.00  0.00     0.134 A 
ATOM     59  F   UNL     1       6.735  -7.774  24.871  1.00  0.00    -0.206 F 
ATOM     60  C   UNL     1       6.294  -6.123  26.482  1.00  0.00     0.040 A 
ATOM     61  C   UNL     1       5.628  -3.913  25.789  1.00  0.00     0.040 A 
ATOM     62  F   UNL     1       5.403  -3.417  23.507  1.00  0.00    -0.206 F 
ATOM     63  C   UNL     1       5.925  -4.818  26.807  1.00  0.00     0.006 A 
ENDBRANCH  39  56
ENDBRANCH  13  14
ENDBRANCH   6   8
ENDBRANCH   3   4
ENDBRANCH   2   3
ENDBRANCH   1   2
BRANCH   1  64
ATOM     64  C   UNL     1       6.015  -6.468   7.091  1.00  0.00     0.116 C 
BRANCH  64  65
ATOM     65  N   UNL     1       5.764  -5.080   6.724  1.00  0.00    -0.356 N 
ATOM     66  C   UNL     1       5.887  -4.372   5.565  1.00  0.00     0.224 C 
ATOM     67  H   UNL     1       5.436  -4.536   7.476  1.00  0.00     0.163 HD
ATOM     68  O   UNL     1       5.444  -3.217   5.593  1.00  0.00    -0.275 OA
BRANCH  66  69
ATOM     69  C   UNL     1       6.485  -4.907   4.255  1.00  0.00     0.098 C 
ATOM     70  C   UNL     1       7.655  -5.876   4.448  1.00  0.00     0.017 C 
ATOM     71  C   UNL     1       5.366  -5.372   3.282  1.00  0.00     0.133 C 
ATOM     72  C   UNL     1       7.938  -6.782   3.280  1.00  0.00     0.022 C 
ATOM     73  N   UNL     1       5.857  -6.313   2.255  1.00  0.00    -0.342 N 
ATOM     74  C   UNL     1       6.623  -7.375   2.822  1.00  0.00     0.119 C 
BRANCH  73  75
ATOM     75  C   UNL     1       5.723  -6.088   0.897  1.00  0.00     0.225 C 
ATOM     76  O   UNL     1       5.102  -5.091   0.505  1.00  0.00    -0.275 OA
BRANCH  75  77
ATOM     77  C   UNL     1       6.324  -7.040  -0.201  1.00  0.00     0.081 C 
ATOM     78  C   UNL     1       5.631  -8.368  -0.469  1.00  0.00     0.030 C 
ATOM     79  C   UNL     1       7.832  -7.204  -0.332  1.00  0.00     0.030 C 
ATOM     80  C   UNL     1       6.205  -9.602   0.211  1.00  0.00     0.103 C 
ATOM     81  C   UNL     1       8.471  -8.409   0.344  1.00  0.00     0.103 C 
ATOM     82  N   UNL     1       7.702  -9.676   0.372  1.00  0.00    -0.198 NA
BRANCH  82  83
ATOM     83  S   UNL     1       8.069 -10.767   1.702  1.00  0.00     0.243 S 
ATOM     84  O   UNL     1       7.573 -10.154   2.918  1.00  0.00    -0.207 OA
ATOM     85  O   UNL     1       7.575 -12.071   1.304  1.00  0.00    -0.207 OA
BRANCH  83  86
ATOM     86  C   UNL     1       9.835 -10.882   1.921  1.00  0.00     0.082 A 
ATOM     87  C   UNL     1      10.462 -12.122   1.781  1.00  0.00     0.022 A 
ATOM     88  C   UNL     1      10.533  -9.825   2.523  1.00  0.00     0.022 A 
ATOM     89  C   UNL     1      11.783 -12.286   2.212  1.00  0.00     0.001 A 
ATOM     90  C   UNL     1      11.860  -9.982   2.923  1.00  0.00     0.001 A 
ATOM     91  C   UNL     1      12.482 -11.216   2.773  1.00  0.00     0.000 A 
ENDBRANCH  83  86
ENDBRANCH  82  83
ENDBRANCH  75  77
ENDBRANCH  73  75
ENDBRANCH  66  69
ENDBRANCH  64  65
ENDBRANCH   1  64
TORSDOF 15
