REMARK SMILES Cc1cc(Br)c(C)c([C@@H]2[NH2+][C@H](C(=O)NCCCCNC(=O)c3ccc(-c4c5nc(c(-c6c(F)cccc6F)c6ccc([nH]6)c(-c6c(F)cccc6F)c6nc(c(-c7c(F)cccc7F)c7ccc4[nH]7)C=C6)C=C5)cc3)CS2)c1O
REMARK SMILES IDX 16 1 15 2 14 3 12 4 13 5 11 7 9 8 10 9 77 10 76 13 8 14 1 15
REMARK SMILES IDX 2 16 3 17 78 18 4 19 5 20 6 21 7 22 79 23 17 25 18 26 19 27
REMARK SMILES IDX 20 28 21 30 22 31 23 32 75 33 24 34 74 35 25 36 26 37 27 38
REMARK SMILES IDX 68 39 28 40 73 41 67 42 69 43 29 44 72 45 66 46 65 47 30 49
REMARK SMILES IDX 56 50 39 51 55 52 40 53 43 54 54 55 70 56 41 57 42 58 53 60
REMARK SMILES IDX 71 61 44 62 31 63 32 64 37 65 33 66 34 67 36 68 38 69 35 70
REMARK SMILES IDX 57 71 58 72 63 73 59 74 60 75 62 76 64 77 61 78 45 79 46 80
REMARK SMILES IDX 51 81 47 82 48 83 50 84 52 85 49 86
REMARK H PARENT 14 6 10 11 10 12 79 24 19 29 69 48 43 59
REMARK Flexibility Score: inf
ROOT
ATOM      1  C   UNL     1       2.320   0.123  -3.057  1.00  0.00     0.023 C 
ENDROOT
BRANCH   1   2
ATOM      2  C   UNL     1       2.124   1.192  -1.986  1.00  0.00     0.116 C 
BRANCH   2   3
ATOM      3  N   UNL     1       3.259   2.062  -1.774  1.00  0.00    -0.351 N 
ATOM      4  C   UNL     1       3.341   3.424  -1.831  1.00  0.00     0.279 C 
ATOM      5  O   UNL     1       4.315   3.928  -1.251  1.00  0.00    -0.268 OA
ATOM      6  H   UNL     1       4.102   1.603  -1.556  1.00  0.00     0.163 HD
BRANCH   4   7
ATOM      7  C   UNL     1       2.332   4.364  -2.536  1.00  0.00     0.283 C 
ATOM      8  C   UNL     1       0.059   4.130  -3.353  1.00  0.00     0.278 C 
ATOM      9  N   UNL     1       1.459   3.714  -3.543  1.00  0.00    -0.320 N 
ATOM     10  S   UNL     1      -0.004   5.583  -2.297  1.00  0.00    -0.087 SA
ATOM     11  H   UNL     1       1.766   3.983  -4.478  1.00  0.00     0.348 HD
ATOM     12  H   UNL     1       1.522   2.702  -3.431  1.00  0.00     0.348 HD
ATOM     13  C   UNL     1       1.574   5.205  -1.514  1.00  0.00     0.151 C 
BRANCH   8  14
ATOM     14  C   UNL     1      -0.822   2.913  -3.024  1.00  0.00     0.066 A 
ATOM     15  C   UNL     1      -1.657   0.644  -0.003  1.00  0.00     0.048 C 
ATOM     16  C   UNL     1      -1.634   1.231  -1.389  1.00  0.00    -0.008 A 
ATOM     17  C   UNL     1      -2.121   0.461  -2.443  1.00  0.00     0.023 A 
ATOM     18  C   UNL     1      -1.009   2.453  -1.689  1.00  0.00     0.128 A 
ATOM     19  C   UNL     1      -1.933   0.856  -3.768  1.00  0.00     0.021 A 
ATOM     20  Br  UNL     1      -2.463  -0.413  -5.090  1.00  0.00    -0.051 Br
ATOM     21  C   UNL     1      -1.293   2.074  -4.088  1.00  0.00    -0.023 A 
ATOM     22  C   UNL     1      -0.992   2.376  -5.541  1.00  0.00     0.046 C 
BRANCH  18  23
ATOM     23  O   UNL     1      -0.427   3.154  -0.667  1.00  0.00    -0.507 OA
ATOM     24  H   UNL     1      -0.537   2.869   0.219  1.00  0.00     0.293 HD
ENDBRANCH  18  23
ENDBRANCH   8  14
ENDBRANCH   4   7
ENDBRANCH   2   3
ENDBRANCH   1   2
BRANCH   1  25
ATOM     25  C   UNL     1       2.671  -1.269  -2.531  1.00  0.00     0.023 C 
BRANCH  25  26
ATOM     26  C   UNL     1       1.725  -1.879  -1.496  1.00  0.00     0.116 C 
BRANCH  26  27
ATOM     27  N   UNL     1       0.327  -1.963  -1.899  1.00  0.00    -0.352 N 
ATOM     28  C   UNL     1      -0.606  -2.932  -1.585  1.00  0.00     0.251 C 
ATOM     29  H   UNL     1       0.004  -1.231  -2.471  1.00  0.00     0.163 HD
ATOM     30  O   UNL     1      -1.766  -2.851  -1.976  1.00  0.00    -0.269 OA
BRANCH  28  31
ATOM     31  C   UNL     1      -0.176  -4.124  -0.829  1.00  0.00     0.039 A 
ATOM     32  C   UNL     1       0.569  -3.985   0.340  1.00  0.00     0.014 A 
ATOM     33  C   UNL     1      -0.406  -5.387  -1.383  1.00  0.00     0.014 A 
ATOM     34  C   UNL     1       1.288  -5.074   0.809  1.00  0.00     0.010 A 
ATOM     35  C   UNL     1       0.246  -6.500  -0.851  1.00  0.00     0.010 A 
ATOM     36  C   UNL     1       1.168  -6.332   0.192  1.00  0.00    -0.014 A 
BRANCH  36  37
ATOM     37  C   UNL     1       2.087  -7.422   0.604  1.00  0.00     0.031 A 
ATOM     38  C   UNL     1       3.141  -7.928  -0.347  1.00  0.00     0.074 A 
ATOM     39  C   UNL     1       2.048  -7.860   1.875  1.00  0.00     0.049 A 
ATOM     40  N   UNL     1       4.075  -8.823  -0.143  1.00  0.00    -0.248 NA
ATOM     41  C   UNL     1       3.153  -7.357  -1.705  1.00  0.00     0.031 C 
ATOM     42  C   UNL     1       1.088  -7.409   2.885  1.00  0.00     0.029 A 
ATOM     43  N   UNL     1       2.860  -8.732   2.551  1.00  0.00    -0.354 N 
ATOM     44  C   UNL     1       4.762  -8.941  -1.346  1.00  0.00     0.074 A 
ATOM     45  C   UNL     1       4.131  -8.040  -2.284  1.00  0.00     0.031 C 
ATOM     46  C   UNL     1       1.417  -7.942   4.070  1.00  0.00     0.029 A 
ATOM     47  C   UNL     1       2.565  -8.825   3.889  1.00  0.00     0.049 A 
ATOM     48  H   UNL     1       3.583  -9.242   2.120  1.00  0.00     0.167 HD
ATOM     49  C   UNL     1       5.827  -9.725  -1.636  1.00  0.00     0.037 A 
ATOM     50  C   UNL     1       3.154  -9.543   4.864  1.00  0.00     0.037 A 
ATOM     51  C   UNL     1       6.468 -10.594  -0.684  1.00  0.00     0.049 A 
ATOM     52  C   UNL     1       4.322 -10.415   4.513  1.00  0.00     0.074 A 
ATOM     53  C   UNL     1       7.546 -11.440  -0.875  1.00  0.00     0.029 A 
ATOM     54  N   UNL     1       6.094 -10.715   0.647  1.00  0.00    -0.354 N 
ATOM     55  N   UNL     1       4.933 -10.547   3.360  1.00  0.00    -0.248 NA
ATOM     56  C   UNL     1       4.871 -11.252   5.587  1.00  0.00     0.031 C 
ATOM     57  C   UNL     1       7.805 -12.096   0.333  1.00  0.00     0.029 A 
ATOM     58  C   UNL     1       6.912 -11.630   1.286  1.00  0.00     0.049 A 
ATOM     59  H   UNL     1       5.355 -10.223   1.073  1.00  0.00     0.167 HD
ATOM     60  C   UNL     1       5.932 -11.487   3.565  1.00  0.00     0.074 A 
ATOM     61  C   UNL     1       5.865 -11.870   4.962  1.00  0.00     0.031 C 
ATOM     62  C   UNL     1       6.818 -11.996   2.675  1.00  0.00     0.037 A 
BRANCH  49  63
ATOM     63  C   UNL     1       6.358  -9.698  -3.040  1.00  0.00     0.057 A 
ATOM     64  C   UNL     1       7.104  -8.620  -3.530  1.00  0.00     0.134 A 
ATOM     65  C   UNL     1       6.165 -10.791  -3.896  1.00  0.00     0.134 A 
ATOM     66  F   UNL     1       7.314  -7.536  -2.768  1.00  0.00    -0.206 F 
ATOM     67  C   UNL     1       7.630  -8.623  -4.825  1.00  0.00     0.040 A 
ATOM     68  C   UNL     1       6.704 -10.816  -5.184  1.00  0.00     0.040 A 
ATOM     69  F   UNL     1       5.464 -11.859  -3.489  1.00  0.00    -0.206 F 
ATOM     70  C   UNL     1       7.437  -9.728  -5.653  1.00  0.00     0.006 A 
ENDBRANCH  49  63
BRANCH  50  71
ATOM     71  C   UNL     1       2.637  -9.450   6.251  1.00  0.00     0.057 A 
ATOM     72  C   UNL     1       3.366  -8.803   7.253  1.00  0.00     0.134 A 
ATOM     73  C   UNL     1       1.372  -9.948   6.591  1.00  0.00     0.134 A 
ATOM     74  F   UNL     1       4.590  -8.319   6.993  1.00  0.00    -0.206 F 
ATOM     75  C   UNL     1       2.854  -8.646   8.543  1.00  0.00     0.040 A 
ATOM     76  C   UNL     1       0.837  -9.776   7.868  1.00  0.00     0.040 A 
ATOM     77  F   UNL     1       0.621 -10.572   5.672  1.00  0.00    -0.206 F 
ATOM     78  C   UNL     1       1.580  -9.123   8.849  1.00  0.00     0.006 A 
ENDBRANCH  50  71
BRANCH  62  79
ATOM     79  C   UNL     1       7.780 -13.024   3.184  1.00  0.00     0.057 A 
ATOM     80  C   UNL     1       7.379 -14.347   3.409  1.00  0.00     0.134 A 
ATOM     81  C   UNL     1       9.127 -12.706   3.388  1.00  0.00     0.134 A 
ATOM     82  F   UNL     1       6.099 -14.708   3.240  1.00  0.00    -0.206 F 
ATOM     83  C   UNL     1       8.288 -15.318   3.831  1.00  0.00     0.040 A 
ATOM     84  C   UNL     1      10.048 -13.672   3.791  1.00  0.00     0.040 A 
ATOM     85  F   UNL     1       9.571 -11.457   3.179  1.00  0.00    -0.206 F 
ATOM     86  C   UNL     1       9.628 -14.982   4.015  1.00  0.00     0.006 A 
ENDBRANCH  62  79
ENDBRANCH  36  37
ENDBRANCH  28  31
ENDBRANCH  26  27
ENDBRANCH  25  26
ENDBRANCH   1  25
TORSDOF 13
