REMARK SMILES Cc1noc(C)c1CCC(=O)N1CCC2(CC1)NC(=O)C[C@@H]2C(=O)NCCCCNC(=O)c1ccc(-c2c3nc(c(-c4c(F)cccc4F)c4ccc([nH]4)c(-c4c(F)cccc4F)c4nc(c(-c5c(F)cccc5F)c5ccc2[nH]5)C=C4)C=C3)cc1
REMARK SMILES IDX 27 1 26 2 25 3 23 4 24 5 22 7 10 8 11 9 12 10 13 11 17 12
REMARK SMILES IDX 14 13 16 14 15 15 18 16 19 17 21 19 20 20 9 21 8 22 7 23
REMARK SMILES IDX 1 24 2 25 3 26 4 27 5 28 6 29 28 30 29 31 30 32 31 33 32 35
REMARK SMILES IDX 33 36 34 37 86 38 35 39 85 40 36 41 37 42 38 43 79 44 39 45
REMARK SMILES IDX 84 46 78 47 80 48 40 49 83 50 77 51 76 52 41 54 67 55 50 56
REMARK SMILES IDX 66 57 51 58 54 59 65 60 81 61 52 62 53 63 64 65 82 66 55 67
REMARK SMILES IDX 42 68 43 69 48 70 44 71 45 72 47 73 49 74 46 75 68 76 69 77
REMARK SMILES IDX 74 78 70 79 71 80 73 81 75 82 72 83 56 84 57 85 62 86 58 87
REMARK SMILES IDX 59 88 61 89 63 90 60 91
REMARK H PARENT 25 6 18 18 30 34 80 53 54 64
REMARK Flexibility Score: inf
ROOT
ATOM      1  C   UNL     1      -5.947  -0.391  -3.901  1.00  0.00     0.023 C 
ENDROOT
BRANCH   1   2
ATOM      2  C   UNL     1      -5.654  -0.541  -2.414  1.00  0.00     0.116 C 
BRANCH   2   3
ATOM      3  N   UNL     1      -5.081  -1.819  -2.058  1.00  0.00    -0.356 N 
ATOM      4  C   UNL     1      -4.255  -1.838  -0.964  1.00  0.00     0.226 C 
ATOM      5  O   UNL     1      -4.715  -1.569   0.147  1.00  0.00    -0.275 OA
ATOM      6  H   UNL     1      -5.273  -2.635  -2.576  1.00  0.00     0.163 HD
BRANCH   4   7
ATOM      7  C   UNL     1      -2.842  -2.389  -1.115  1.00  0.00     0.113 C 
ATOM      8  C   UNL     1      -1.131   2.258  -1.540  1.00  0.00     0.222 C 
ATOM      9  O   UNL     1      -2.111   2.993  -1.693  1.00  0.00    -0.275 OA
ATOM     10  N   UNL     1      -1.149   0.913  -1.943  1.00  0.00    -0.343 N 
ATOM     11  C   UNL     1      -2.333   0.509  -2.667  1.00  0.00     0.122 C 
ATOM     12  C   UNL     1      -0.513  -0.110  -1.134  1.00  0.00     0.122 C 
ATOM     13  C   UNL     1      -2.273  -0.890  -3.264  1.00  0.00     0.051 C 
ATOM     14  C   UNL     1      -0.497  -1.517  -1.701  1.00  0.00     0.051 C 
ATOM     15  C   UNL     1      -1.865  -1.969  -2.260  1.00  0.00     0.055 C 
ATOM     16  N   UNL     1      -1.622  -3.215  -2.963  1.00  0.00    -0.350 N 
ATOM     17  C   UNL     1      -2.074  -4.334  -2.319  1.00  0.00     0.221 C 
ATOM     18  H   UNL     1      -1.168  -3.252  -3.836  1.00  0.00     0.164 HD
ATOM     19  C   UNL     1      -2.949  -3.923  -1.179  1.00  0.00     0.116 C 
ATOM     20  O   UNL     1      -1.802  -5.474  -2.642  1.00  0.00    -0.275 OA
BRANCH   8  21
ATOM     21  C   UNL     1       0.146   2.828  -0.948  1.00  0.00     0.105 C 
BRANCH  21  22
ATOM     22  C   UNL     1       0.144   2.957   0.575  1.00  0.00     0.051 C 
BRANCH  22  23
ATOM     23  C   UNL     1       0.336   1.676   1.316  1.00  0.00     0.018 A 
ATOM     24  C   UNL     1      -2.075   1.217   2.259  1.00  0.00     0.071 C 
ATOM     25  C   UNL     1      -0.629   0.939   2.067  1.00  0.00     0.084 A 
ATOM     26  N   UNL     1      -0.111  -0.200   2.541  1.00  0.00    -0.085 NA
ATOM     27  O   UNL     1       1.194  -0.236   2.103  1.00  0.00    -0.361 OA
ATOM     28  C   UNL     1       1.460   0.870   1.361  1.00  0.00     0.137 A 
ATOM     29  C   UNL     1       2.787   0.898   0.711  1.00  0.00     0.091 C 
ENDBRANCH  22  23
ENDBRANCH  21  22
ENDBRANCH   8  21
ENDBRANCH   4   7
ENDBRANCH   2   3
ENDBRANCH   1   2
BRANCH   1  30
ATOM     30  C   UNL     1      -6.745   0.878  -4.191  1.00  0.00     0.023 C 
BRANCH  30  31
ATOM     31  C   UNL     1      -6.237   2.146  -3.505  1.00  0.00     0.116 C 
BRANCH  31  32
ATOM     32  N   UNL     1      -5.267   2.906  -4.274  1.00  0.00    -0.352 N 
ATOM     33  C   UNL     1      -5.418   4.130  -4.890  1.00  0.00     0.251 C 
ATOM     34  H   UNL     1      -4.379   2.490  -4.369  1.00  0.00     0.163 HD
ATOM     35  O   UNL     1      -4.510   4.622  -5.551  1.00  0.00    -0.269 OA
BRANCH  33  36
ATOM     36  C   UNL     1      -6.726   4.814  -4.808  1.00  0.00     0.039 A 
ATOM     37  C   UNL     1      -7.372   5.165  -5.993  1.00  0.00     0.014 A 
ATOM     38  C   UNL     1      -7.359   4.996  -3.578  1.00  0.00     0.014 A 
ATOM     39  C   UNL     1      -8.704   5.580  -5.949  1.00  0.00     0.010 A 
ATOM     40  C   UNL     1      -8.718   5.286  -3.548  1.00  0.00     0.010 A 
ATOM     41  C   UNL     1      -9.410   5.573  -4.734  1.00  0.00    -0.014 A 
BRANCH  41  42
ATOM     42  C   UNL     1     -10.872   5.843  -4.690  1.00  0.00     0.031 A 
ATOM     43  C   UNL     1     -11.407   6.979  -3.863  1.00  0.00     0.074 A 
ATOM     44  C   UNL     1     -11.727   5.020  -5.332  1.00  0.00     0.049 A 
ATOM     45  N   UNL     1     -12.649   7.334  -3.648  1.00  0.00    -0.248 NA
ATOM     46  C   UNL     1     -10.418   7.805  -3.151  1.00  0.00     0.031 C 
ATOM     47  C   UNL     1     -11.348   3.836  -6.108  1.00  0.00     0.029 A 
ATOM     48  N   UNL     1     -13.097   5.048  -5.428  1.00  0.00    -0.354 N 
ATOM     49  C   UNL     1     -12.588   8.404  -2.765  1.00  0.00     0.074 A 
ATOM     50  C   UNL     1     -11.195   8.598  -2.430  1.00  0.00     0.031 C 
ATOM     51  C   UNL     1     -12.451   3.275  -6.627  1.00  0.00     0.029 A 
ATOM     52  C   UNL     1     -13.621   4.030  -6.189  1.00  0.00     0.049 A 
ATOM     53  H   UNL     1     -13.653   5.734  -4.991  1.00  0.00     0.167 HD
ATOM     54  C   UNL     1     -13.596   9.178  -2.298  1.00  0.00     0.037 A 
ATOM     55  C   UNL     1     -14.898   3.735  -6.498  1.00  0.00     0.037 A 
ATOM     56  C   UNL     1     -14.978   9.007  -2.659  1.00  0.00     0.049 A 
ATOM     57  C   UNL     1     -16.000   4.619  -5.982  1.00  0.00     0.074 A 
ATOM     58  C   UNL     1     -16.064   9.785  -2.302  1.00  0.00     0.029 A 
ATOM     59  N   UNL     1     -15.463   7.983  -3.459  1.00  0.00    -0.354 N 
ATOM     60  N   UNL     1     -15.918   5.682  -5.219  1.00  0.00    -0.248 NA
ATOM     61  C   UNL     1     -17.372   4.268  -6.376  1.00  0.00     0.031 C 
ATOM     62  C   UNL     1     -17.214   9.205  -2.846  1.00  0.00     0.029 A 
ATOM     63  C   UNL     1     -16.838   8.096  -3.587  1.00  0.00     0.049 A 
ATOM     64  H   UNL     1     -14.913   7.281  -3.875  1.00  0.00     0.167 HD
ATOM     65  C   UNL     1     -17.220   6.141  -5.064  1.00  0.00     0.074 A 
ATOM     66  C   UNL     1     -18.071   5.250  -5.825  1.00  0.00     0.031 C 
ATOM     67  C   UNL     1     -17.670   7.205  -4.354  1.00  0.00     0.037 A 
BRANCH  54  68
ATOM     68  C   UNL     1     -13.233  10.285  -1.350  1.00  0.00     0.057 A 
ATOM     69  C   UNL     1     -12.505  11.408  -1.767  1.00  0.00     0.134 A 
ATOM     70  C   UNL     1     -13.632  10.237  -0.009  1.00  0.00     0.134 A 
ATOM     71  F   UNL     1     -12.080  11.511  -3.036  1.00  0.00    -0.206 F 
ATOM     72  C   UNL     1     -12.156  12.424  -0.876  1.00  0.00     0.040 A 
ATOM     73  C   UNL     1     -13.316  11.263   0.884  1.00  0.00     0.040 A 
ATOM     74  F   UNL     1     -14.337   9.195   0.457  1.00  0.00    -0.206 F 
ATOM     75  C   UNL     1     -12.568  12.356   0.453  1.00  0.00     0.006 A 
ENDBRANCH  54  68
BRANCH  55  76
ATOM     76  C   UNL     1     -15.206   2.564  -7.360  1.00  0.00     0.057 A 
ATOM     77  C   UNL     1     -15.691   2.732  -8.662  1.00  0.00     0.134 A 
ATOM     78  C   UNL     1     -15.034   1.252  -6.902  1.00  0.00     0.134 A 
ATOM     79  F   UNL     1     -15.895   3.963  -9.153  1.00  0.00    -0.206 F 
ATOM     80  C   UNL     1     -16.013   1.640  -9.471  1.00  0.00     0.040 A 
ATOM     81  C   UNL     1     -15.327   0.151  -7.708  1.00  0.00     0.040 A 
ATOM     82  F   UNL     1     -14.565   1.022  -5.666  1.00  0.00    -0.206 F 
ATOM     83  C   UNL     1     -15.826   0.344  -8.995  1.00  0.00     0.006 A 
ENDBRANCH  55  76
BRANCH  67  84
ATOM     84  C   UNL     1     -19.144   7.485  -4.394  1.00  0.00     0.057 A 
ATOM     85  C   UNL     1     -20.072   6.671  -3.732  1.00  0.00     0.134 A 
ATOM     86  C   UNL     1     -19.636   8.612  -5.067  1.00  0.00     0.134 A 
ATOM     87  F   UNL     1     -19.668   5.571  -3.080  1.00  0.00    -0.206 F 
ATOM     88  C   UNL     1     -21.438   6.955  -3.756  1.00  0.00     0.040 A 
ATOM     89  C   UNL     1     -20.996   8.922  -5.074  1.00  0.00     0.040 A 
ATOM     90  F   UNL     1     -18.800   9.438  -5.713  1.00  0.00    -0.206 F 
ATOM     91  C   UNL     1     -21.902   8.088  -4.422  1.00  0.00     0.006 A 
ENDBRANCH  67  84
ENDBRANCH  41  42
ENDBRANCH  33  36
ENDBRANCH  31  32
ENDBRANCH  30  31
ENDBRANCH   1  30
TORSDOF 14
