REMARK SMILES CC[C@@H](C(=O)NCCCCNC(=O)c1ccc(-c2c3nc(c(-c4c(F)cccc4F)c4ccc([nH]4)c(-c4c(F)cccc4F)c4nc(c(-c5c(F)cccc5F)c5ccc2[nH]5)C=C4)C=C3)cc1)N(C)C(=O)c1cn(C2C[NH2+]C2)nn1
REMARK SMILES IDX 7 1 6 2 4 3 5 4 3 6 2 7 1 8 68 9 69 10 70 11 71 12 72 13
REMARK SMILES IDX 73 14 80 15 74 16 79 17 75 18 76 19 78 20 77 21 8 24 9 25
REMARK SMILES IDX 10 26 11 27 12 28 13 30 14 31 15 32 67 33 16 34 66 35 17 36
REMARK SMILES IDX 18 37 19 38 60 39 20 40 65 41 59 42 61 43 21 44 64 45 58 46
REMARK SMILES IDX 57 47 22 49 48 50 31 51 47 52 32 53 35 54 46 55 62 56 33 57
REMARK SMILES IDX 34 58 45 60 63 61 36 62 23 63 24 64 29 65 25 66 26 67 28 68
REMARK SMILES IDX 30 69 27 70 49 71 50 72 55 73 51 74 52 75 54 76 56 77 53 78
REMARK SMILES IDX 37 79 38 80 43 81 39 82 40 83 42 84 44 85 41 86
REMARK H PARENT 6 5 77 22 77 23 11 29 61 48 35 59
REMARK Flexibility Score: inf
ROOT
ATOM      1  C   UNL     1       1.732  -0.222   2.052  1.00  0.00     0.116 C 
ENDROOT
BRANCH   1   2
ATOM      2  N   UNL     1       0.832  -1.316   2.336  1.00  0.00    -0.354 N 
ATOM      3  C   UNL     1       0.428  -2.365   1.566  1.00  0.00     0.242 C 
ATOM      4  O   UNL     1      -0.173  -3.259   2.173  1.00  0.00    -0.273 OA
ATOM      5  H   UNL     1       0.443  -1.300   3.240  1.00  0.00     0.163 HD
BRANCH   3   6
ATOM      6  C   UNL     1       0.809  -2.480   0.055  1.00  0.00     0.174 C 
BRANCH   6   7
ATOM      7  C   UNL     1       0.198  -1.459  -0.934  1.00  0.00     0.032 C 
ATOM      8  C   UNL     1       0.978  -0.182  -1.197  1.00  0.00     0.006 C 
ENDBRANCH   6   7
BRANCH   6   9
ATOM      9  N   UNL     1       0.461  -3.857  -0.408  1.00  0.00    -0.328 N 
ATOM     10  C   UNL     1       1.544  -4.739  -0.808  1.00  0.00     0.148 C 
BRANCH   9  11
ATOM     11  C   UNL     1      -0.908  -4.180  -0.537  1.00  0.00     0.276 C 
ATOM     12  O   UNL     1      -1.790  -3.369  -0.258  1.00  0.00    -0.267 OA
BRANCH  11  13
ATOM     13  C   UNL     1      -1.280  -5.467  -1.115  1.00  0.00     0.170 A 
ATOM     14  C   UNL     1      -0.848  -6.746  -0.824  1.00  0.00     0.145 A 
ATOM     15  N   UNL     1      -2.239  -5.545  -2.100  1.00  0.00    -0.125 NA
ATOM     16  N   UNL     1      -1.528  -7.538  -1.709  1.00  0.00    -0.237 N 
ATOM     17  N   UNL     1      -2.365  -6.811  -2.465  1.00  0.00    -0.066 NA
BRANCH  16  18
ATOM     18  C   UNL     1      -1.388  -8.944  -1.936  1.00  0.00     0.218 C 
ATOM     19  C   UNL     1       0.081  -9.403  -2.065  1.00  0.00     0.294 C 
ATOM     20  C   UNL     1      -1.374  -9.808  -0.659  1.00  0.00     0.294 C 
ATOM     21  N   UNL     1      -0.255 -10.587  -1.243  1.00  0.00    -0.342 N 
ATOM     22  H   UNL     1       0.467 -10.857  -0.574  1.00  0.00     0.346 HD
ATOM     23  H   UNL     1      -0.410 -11.501  -1.668  1.00  0.00     0.346 HD
ENDBRANCH  16  18
ENDBRANCH  11  13
ENDBRANCH   9  11
ENDBRANCH   6   9
ENDBRANCH   3   6
ENDBRANCH   1   2
BRANCH   1  24
ATOM     24  C   UNL     1       1.002   1.120   2.066  1.00  0.00     0.023 C 
BRANCH  24  25
ATOM     25  C   UNL     1       0.573   1.609   3.447  1.00  0.00     0.023 C 
BRANCH  25  26
ATOM     26  C   UNL     1       1.705   1.824   4.441  1.00  0.00     0.116 C 
BRANCH  26  27
ATOM     27  N   UNL     1       2.697   2.788   3.989  1.00  0.00    -0.352 N 
ATOM     28  C   UNL     1       3.260   3.836   4.679  1.00  0.00     0.251 C 
ATOM     29  H   UNL     1       3.009   2.674   3.062  1.00  0.00     0.163 HD
ATOM     30  O   UNL     1       4.008   4.625   4.111  1.00  0.00    -0.269 OA
BRANCH  28  31
ATOM     31  C   UNL     1       2.923   4.028   6.104  1.00  0.00     0.039 A 
ATOM     32  C   UNL     1       2.538   5.296   6.546  1.00  0.00     0.014 A 
ATOM     33  C   UNL     1       2.939   2.946   6.988  1.00  0.00     0.014 A 
ATOM     34  C   UNL     1       2.091   5.461   7.858  1.00  0.00     0.010 A 
ATOM     35  C   UNL     1       2.413   3.094   8.265  1.00  0.00     0.010 A 
ATOM     36  C   UNL     1       1.985   4.353   8.714  1.00  0.00    -0.014 A 
BRANCH  36  37
ATOM     37  C   UNL     1       1.438   4.484  10.087  1.00  0.00     0.031 A 
ATOM     38  C   UNL     1       2.308   4.167  11.272  1.00  0.00     0.074 A 
ATOM     39  C   UNL     1       0.143   4.808  10.266  1.00  0.00     0.049 A 
ATOM     40  N   UNL     1       1.996   4.129  12.542  1.00  0.00    -0.248 NA
ATOM     41  C   UNL     1       3.708   3.811  10.987  1.00  0.00     0.031 C 
ATOM     42  C   UNL     1      -0.820   5.080   9.196  1.00  0.00     0.029 A 
ATOM     43  N   UNL     1      -0.591   4.951  11.416  1.00  0.00    -0.354 N 
ATOM     44  C   UNL     1       3.149   3.723  13.201  1.00  0.00     0.074 A 
ATOM     45  C   UNL     1       4.151   3.473  12.188  1.00  0.00     0.031 C 
ATOM     46  C   UNL     1      -2.009   5.383   9.742  1.00  0.00     0.029 A 
ATOM     47  C   UNL     1      -1.903   5.293  11.194  1.00  0.00     0.049 A 
ATOM     48  H   UNL     1      -0.213   4.821  12.316  1.00  0.00     0.167 HD
ATOM     49  C   UNL     1       3.363   3.595  14.531  1.00  0.00     0.037 A 
ATOM     50  C   UNL     1      -2.906   5.508  12.066  1.00  0.00     0.037 A 
ATOM     51  C   UNL     1       2.377   3.883  15.538  1.00  0.00     0.049 A 
ATOM     52  C   UNL     1      -2.638   5.383  13.539  1.00  0.00     0.074 A 
ATOM     53  C   UNL     1       2.515   3.851  16.915  1.00  0.00     0.029 A 
ATOM     54  N   UNL     1       1.070   4.263  15.274  1.00  0.00    -0.354 N 
ATOM     55  N   UNL     1      -1.524   5.061  14.152  1.00  0.00    -0.248 NA
ATOM     56  C   UNL     1      -3.764   5.656  14.443  1.00  0.00     0.031 C 
ATOM     57  C   UNL     1       1.280   4.182  17.484  1.00  0.00     0.029 A 
ATOM     58  C   UNL     1       0.386   4.457  16.462  1.00  0.00     0.049 A 
ATOM     59  H   UNL     1       0.685   4.378  14.375  1.00  0.00     0.167 HD
ATOM     60  C   UNL     1      -1.807   5.119  15.510  1.00  0.00     0.074 A 
ATOM     61  C   UNL     1      -3.194   5.519  15.632  1.00  0.00     0.031 C 
ATOM     62  C   UNL     1      -0.992   4.864  16.562  1.00  0.00     0.037 A 
BRANCH  49  63
ATOM     63  C   UNL     1       4.722   3.133  14.968  1.00  0.00     0.057 A 
ATOM     64  C   UNL     1       5.853   3.952  14.848  1.00  0.00     0.134 A 
ATOM     65  C   UNL     1       4.901   1.863  15.529  1.00  0.00     0.134 A 
ATOM     66  F   UNL     1       5.751   5.175  14.303  1.00  0.00    -0.206 F 
ATOM     67  C   UNL     1       7.118   3.514  15.241  1.00  0.00     0.040 A 
ATOM     68  C   UNL     1       6.157   1.423  15.952  1.00  0.00     0.040 A 
ATOM     69  F   UNL     1       3.860   1.030  15.677  1.00  0.00    -0.206 F 
ATOM     70  C   UNL     1       7.271   2.247  15.801  1.00  0.00     0.006 A 
ENDBRANCH  49  63
BRANCH  50  71
ATOM     71  C   UNL     1      -4.249   5.900  11.571  1.00  0.00     0.057 A 
ATOM     72  C   UNL     1      -4.728   7.203  11.751  1.00  0.00     0.134 A 
ATOM     73  C   UNL     1      -5.085   4.990  10.914  1.00  0.00     0.134 A 
ATOM     74  F   UNL     1      -3.980   8.115  12.389  1.00  0.00    -0.206 F 
ATOM     75  C   UNL     1      -5.997   7.583  11.311  1.00  0.00     0.040 A 
ATOM     76  C   UNL     1      -6.348   5.362  10.450  1.00  0.00     0.040 A 
ATOM     77  F   UNL     1      -4.681   3.729  10.705  1.00  0.00    -0.206 F 
ATOM     78  C   UNL     1      -6.809   6.661  10.654  1.00  0.00     0.006 A 
ENDBRANCH  50  71
BRANCH  62  79
ATOM     79  C   UNL     1      -1.569   5.044  17.934  1.00  0.00     0.057 A 
ATOM     80  C   UNL     1      -2.478   4.128  18.477  1.00  0.00     0.134 A 
ATOM     81  C   UNL     1      -1.179   6.125  18.735  1.00  0.00     0.134 A 
ATOM     82  F   UNL     1      -2.901   3.080  17.755  1.00  0.00    -0.206 F 
ATOM     83  C   UNL     1      -2.995   4.293  19.764  1.00  0.00     0.040 A 
ATOM     84  C   UNL     1      -1.670   6.287  20.030  1.00  0.00     0.040 A 
ATOM     85  F   UNL     1      -0.304   7.032  18.275  1.00  0.00    -0.206 F 
ATOM     86  C   UNL     1      -2.585   5.371  20.546  1.00  0.00     0.006 A 
ENDBRANCH  62  79
ENDBRANCH  36  37
ENDBRANCH  28  31
ENDBRANCH  26  27
ENDBRANCH  25  26
ENDBRANCH  24  25
ENDBRANCH   1  24
TORSDOF 16
