REMARK SMILES O=C(CC1CC1)NCc1ccc(C(=O)NCCCCNC(=O)c2ccc(-c3c4nc(c(-c5c(F)cccc5F)c5ccc([nH]5)c(-c5c(F)cccc5F)c5nc(c(-c6c(F)cccc6F)c6ccc3[nH]6)C=C5)C=C4)cc2)o1
REMARK SMILES IDX 16 1 15 2 13 3 14 4 12 6 9 7 10 8 77 9 11 10 8 11 7 12 1 13
REMARK SMILES IDX 2 14 3 16 4 17 5 18 6 19 17 20 18 21 19 22 20 23 21 24 22 26
REMARK SMILES IDX 23 27 24 28 76 29 25 30 75 31 26 32 27 33 28 34 69 35 29 36
REMARK SMILES IDX 74 37 68 38 70 39 30 40 73 41 67 42 66 43 31 45 57 46 40 47
REMARK SMILES IDX 56 48 41 49 44 50 55 51 71 52 42 53 43 54 54 56 72 57 45 58
REMARK SMILES IDX 32 59 33 60 38 61 34 62 35 63 37 64 39 65 36 66 58 67 59 68
REMARK SMILES IDX 64 69 60 70 61 71 63 72 65 73 62 74 46 75 47 76 52 77 48 78
REMARK SMILES IDX 49 79 51 80 53 81 50 82
REMARK H PARENT 15 5 7 15 20 25 70 44 44 55
REMARK Flexibility Score: inf
ROOT
ATOM      1  C   UNL     1       2.673   3.184  -7.380  1.00  0.00     0.116 C 
ENDROOT
BRANCH   1   2
ATOM      2  N   UNL     1       3.134   1.827  -7.582  1.00  0.00    -0.349 N 
ATOM      3  C   UNL     1       3.221   0.773  -6.700  1.00  0.00     0.286 C 
ATOM      4  O   UNL     1       3.584  -0.301  -7.184  1.00  0.00    -0.266 OA
ATOM      5  H   UNL     1       3.433   1.625  -8.498  1.00  0.00     0.163 HD
BRANCH   3   6
ATOM      6  C   UNL     1       2.882   0.938  -5.298  1.00  0.00     0.191 A 
ATOM      7  C   UNL     1       2.284   0.145  -3.319  1.00  0.00     0.124 A 
ATOM      8  C   UNL     1       2.357   1.513  -3.181  1.00  0.00     0.048 A 
ATOM      9  O   UNL     1       2.599  -0.210  -4.593  1.00  0.00    -0.454 OA
ATOM     10  C   UNL     1       2.789   2.013  -4.429  1.00  0.00     0.056 A 
BRANCH   7  11
ATOM     11  C   UNL     1       1.985  -0.954  -2.368  1.00  0.00     0.191 C 
BRANCH  11  12
ATOM     12  N   UNL     1       2.688  -0.648  -1.143  1.00  0.00    -0.349 N 
ATOM     13  O   UNL     1       0.828  -0.263   0.136  1.00  0.00    -0.275 OA
ATOM     14  C   UNL     1       2.049  -0.268   0.010  1.00  0.00     0.220 C 
ATOM     15  H   UNL     1       3.671  -0.715  -1.136  1.00  0.00     0.163 HD
BRANCH  14  16
ATOM     16  C   UNL     1       2.977   0.251   1.091  1.00  0.00     0.103 C 
BRANCH  16  17
ATOM     17  C   UNL     1       3.870  -0.742   1.782  1.00  0.00    -0.002 C 
ATOM     18  C   UNL     1       4.129  -2.154   1.310  1.00  0.00     0.004 C 
ATOM     19  C   UNL     1       5.200  -1.111   1.165  1.00  0.00     0.004 C 
ENDBRANCH  16  17
ENDBRANCH  14  16
ENDBRANCH  11  12
ENDBRANCH   7  11
ENDBRANCH   3   6
ENDBRANCH   1   2
BRANCH   1  20
ATOM     20  C   UNL     1       3.847   4.135  -7.153  1.00  0.00     0.023 C 
BRANCH  20  21
ATOM     21  C   UNL     1       4.543   4.580  -8.444  1.00  0.00     0.023 C 
BRANCH  21  22
ATOM     22  C   UNL     1       3.657   5.344  -9.424  1.00  0.00     0.116 C 
BRANCH  22  23
ATOM     23  N   UNL     1       3.038   6.526  -8.844  1.00  0.00    -0.352 N 
ATOM     24  C   UNL     1       2.698   7.707  -9.464  1.00  0.00     0.251 C 
ATOM     25  H   UNL     1       2.835   6.474  -7.882  1.00  0.00     0.163 HD
ATOM     26  O   UNL     1       2.273   8.649  -8.816  1.00  0.00    -0.269 OA
BRANCH  24  27
ATOM     27  C   UNL     1       2.898   7.832 -10.923  1.00  0.00     0.039 A 
ATOM     28  C   UNL     1       3.596   8.940 -11.410  1.00  0.00     0.014 A 
ATOM     29  C   UNL     1       2.433   6.846 -11.796  1.00  0.00     0.014 A 
ATOM     30  C   UNL     1       3.892   9.022 -12.771  1.00  0.00     0.010 A 
ATOM     31  C   UNL     1       2.786   6.896 -13.141  1.00  0.00     0.010 A 
ATOM     32  C   UNL     1       3.523   7.981 -13.639  1.00  0.00    -0.014 A 
BRANCH  32  33
ATOM     33  C   UNL     1       3.907   8.005 -15.072  1.00  0.00     0.031 A 
ATOM     34  C   UNL     1       2.850   8.087 -16.136  1.00  0.00     0.074 A 
ATOM     35  C   UNL     1       5.204   7.878 -15.414  1.00  0.00     0.049 A 
ATOM     36  N   UNL     1       2.983   8.045 -17.437  1.00  0.00    -0.248 NA
ATOM     37  C   UNL     1       1.457   8.203 -15.676  1.00  0.00     0.031 C 
ATOM     38  C   UNL     1       6.319   7.738 -14.474  1.00  0.00     0.029 A 
ATOM     39  N   UNL     1       5.803   7.834 -16.647  1.00  0.00    -0.354 N 
ATOM     40  C   UNL     1       1.694   8.114 -17.949  1.00  0.00     0.074 A 
ATOM     41  C   UNL     1       0.790   8.149 -16.820  1.00  0.00     0.031 C 
ATOM     42  C   UNL     1       7.466   7.645 -15.164  1.00  0.00     0.029 A 
ATOM     43  C   UNL     1       7.167   7.684 -16.592  1.00  0.00     0.049 A 
ATOM     44  H   UNL     1       5.302   7.904 -17.492  1.00  0.00     0.167 HD
ATOM     45  C   UNL     1       1.300   8.166 -19.244  1.00  0.00     0.037 A 
ATOM     46  C   UNL     1       8.074   7.584 -17.582  1.00  0.00     0.037 A 
ATOM     47  C   UNL     1       2.202   8.159 -20.365  1.00  0.00     0.049 A 
ATOM     48  C   UNL     1       7.612   7.649 -19.011  1.00  0.00     0.074 A 
ATOM     49  C   UNL     1       1.905   8.272 -21.712  1.00  0.00     0.029 A 
ATOM     50  N   UNL     1       3.580   8.030 -20.268  1.00  0.00    -0.354 N 
ATOM     51  N   UNL     1       6.395   7.784 -19.480  1.00  0.00    -0.248 NA
ATOM     52  C   UNL     1       8.649   7.555 -20.048  1.00  0.00     0.031 C 
ATOM     53  C   UNL     1       3.100   8.174 -22.432  1.00  0.00     0.029 A 
ATOM     54  C   UNL     1       4.145   8.043 -21.532  1.00  0.00     0.049 A 
ATOM     55  H   UNL     1       4.081   7.943 -19.425  1.00  0.00     0.167 HD
ATOM     56  C   UNL     1       6.522   7.819 -20.863  1.00  0.00     0.074 A 
ATOM     57  C   UNL     1       7.936   7.703 -21.155  1.00  0.00     0.031 C 
ATOM     58  C   UNL     1       5.555   7.935 -21.805  1.00  0.00     0.037 A 
BRANCH  45  59
ATOM     59  C   UNL     1      -0.174   8.243 -19.514  1.00  0.00     0.057 A 
ATOM     60  C   UNL     1      -0.916   9.398 -19.232  1.00  0.00     0.134 A 
ATOM     61  C   UNL     1      -0.854   7.162 -20.089  1.00  0.00     0.134 A 
ATOM     62  F   UNL     1      -0.327  10.463 -18.668  1.00  0.00    -0.206 F 
ATOM     63  C   UNL     1      -2.286   9.466 -19.486  1.00  0.00     0.040 A 
ATOM     64  C   UNL     1      -2.219   7.228 -20.373  1.00  0.00     0.040 A 
ATOM     65  F   UNL     1      -0.203   6.029 -20.389  1.00  0.00    -0.206 F 
ATOM     66  C   UNL     1      -2.940   8.380 -20.065  1.00  0.00     0.006 A 
ENDBRANCH  45  59
BRANCH  46  67
ATOM     67  C   UNL     1       9.515   7.438 -17.259  1.00  0.00     0.057 A 
ATOM     68  C   UNL     1      10.414   8.485 -17.489  1.00  0.00     0.134 A 
ATOM     69  C   UNL     1      10.028   6.252 -16.720  1.00  0.00     0.134 A 
ATOM     70  F   UNL     1       9.983   9.639 -18.020  1.00  0.00    -0.206 F 
ATOM     71  C   UNL     1      11.776   8.354 -17.214  1.00  0.00     0.040 A 
ATOM     72  C   UNL     1      11.384   6.115 -16.419  1.00  0.00     0.040 A 
ATOM     73  F   UNL     1       9.217   5.215 -16.468  1.00  0.00    -0.206 F 
ATOM     74  C   UNL     1      12.264   7.166 -16.673  1.00  0.00     0.006 A 
ENDBRANCH  46  67
BRANCH  58  75
ATOM     75  C   UNL     1       5.996   7.979 -23.238  1.00  0.00     0.057 A 
ATOM     76  C   UNL     1       6.455   6.836 -23.905  1.00  0.00     0.134 A 
ATOM     77  C   UNL     1       5.923   9.171 -23.969  1.00  0.00     0.134 A 
ATOM     78  F   UNL     1       6.561   5.667 -23.255  1.00  0.00    -0.206 F 
ATOM     79  C   UNL     1       6.845   6.882 -25.244  1.00  0.00     0.040 A 
ATOM     80  C   UNL     1       6.286   9.224 -25.315  1.00  0.00     0.040 A 
ATOM     81  F   UNL     1       5.485  10.300 -23.391  1.00  0.00    -0.206 F 
ATOM     82  C   UNL     1       6.754   8.078 -25.955  1.00  0.00     0.006 A 
ENDBRANCH  58  75
ENDBRANCH  32  33
ENDBRANCH  24  27
ENDBRANCH  22  23
ENDBRANCH  21  22
ENDBRANCH  20  21
ENDBRANCH   1  20
TORSDOF 15
