REMARK SMILES C[C@H](C(=O)NCCCCNC(=O)c1ccc(-c2c3nc(c(-c4c(F)cccc4F)c4ccc([nH]4)c(-c4c(F)cccc4F)c4nc(c(-c5c(F)cccc5F)c5ccc2[nH]5)C=C4)C=C3)cc1)[C@@H](C)Nc1ccccc1Oc1ccccc1
REMARK SMILES IDX 6 1 5 2 3 3 4 4 2 6 1 7 67 8 68 9 69 10 70 12 71 13 75 14
REMARK SMILES IDX 72 15 74 16 73 17 76 18 77 19 78 20 82 21 79 22 81 23 80 24
REMARK SMILES IDX 7 25 8 26 9 27 10 28 11 29 12 31 13 32 14 33 66 34 15 35
REMARK SMILES IDX 65 36 16 37 17 38 18 39 59 40 19 41 64 42 58 43 60 44 20 45
REMARK SMILES IDX 63 46 57 47 56 48 21 50 47 51 30 52 46 53 31 54 34 55 45 56
REMARK SMILES IDX 61 57 32 58 33 59 44 61 62 62 35 63 22 64 23 65 28 66 24 67
REMARK SMILES IDX 25 68 27 69 29 70 26 71 48 72 49 73 54 74 50 75 51 76 53 77
REMARK SMILES IDX 55 78 52 79 36 80 37 81 42 82 38 83 39 84 41 85 43 86 40 87
REMARK H PARENT 5 5 69 11 10 30 60 49 34 60
REMARK Flexibility Score: inf
ROOT
ATOM      1  C   UNL     1       0.941   1.964   1.038  1.00  0.00     0.116 C 
ENDROOT
BRANCH   1   2
ATOM      2  N   UNL     1       1.110   0.524   1.073  1.00  0.00    -0.356 N 
ATOM      3  C   UNL     1       1.032  -0.417   0.093  1.00  0.00     0.224 C 
ATOM      4  O   UNL     1       1.104  -1.592   0.460  1.00  0.00    -0.275 OA
ATOM      5  H   UNL     1       1.318   0.163   1.965  1.00  0.00     0.163 HD
BRANCH   3   6
ATOM      6  C   UNL     1       0.895  -0.035  -1.387  1.00  0.00     0.097 C 
ATOM      7  C   UNL     1       1.582  -1.141  -2.207  1.00  0.00     0.020 C 
BRANCH   6   8
ATOM      8  C   UNL     1      -0.602   0.169  -1.770  1.00  0.00     0.088 C 
ATOM      9  C   UNL     1      -0.967   1.661  -1.763  1.00  0.00     0.031 C 
BRANCH   8  10
ATOM     10  N   UNL     1      -0.898  -0.310  -3.120  1.00  0.00    -0.379 N 
ATOM     11  H   UNL     1      -0.169  -0.214  -3.775  1.00  0.00     0.160 HD
BRANCH  10  12
ATOM     12  C   UNL     1      -2.068  -0.881  -3.604  1.00  0.00     0.078 A 
ATOM     13  C   UNL     1      -2.088  -1.127  -4.996  1.00  0.00     0.029 A 
ATOM     14  C   UNL     1      -3.200  -1.316  -2.883  1.00  0.00     0.150 A 
ATOM     15  C   UNL     1      -3.155  -1.765  -5.639  1.00  0.00     0.002 A 
ATOM     16  C   UNL     1      -4.269  -1.970  -3.528  1.00  0.00     0.049 A 
ATOM     17  C   UNL     1      -4.250  -2.189  -4.902  1.00  0.00     0.004 A 
BRANCH  14  18
ATOM     18  O   UNL     1      -3.299  -1.298  -1.511  1.00  0.00    -0.455 OA
BRANCH  18  19
ATOM     19  C   UNL     1      -3.736  -0.156  -0.875  1.00  0.00     0.127 A 
ATOM     20  C   UNL     1      -3.561  -0.172   0.514  1.00  0.00     0.047 A 
ATOM     21  C   UNL     1      -4.223   0.995  -1.494  1.00  0.00     0.047 A 
ATOM     22  C   UNL     1      -3.791   0.977   1.270  1.00  0.00     0.004 A 
ATOM     23  C   UNL     1      -4.434   2.153  -0.737  1.00  0.00     0.004 A 
ATOM     24  C   UNL     1      -4.200   2.149   0.639  1.00  0.00     0.000 A 
ENDBRANCH  18  19
ENDBRANCH  14  18
ENDBRANCH  10  12
ENDBRANCH   8  10
ENDBRANCH   6   8
ENDBRANCH   3   6
ENDBRANCH   1   2
BRANCH   1  25
ATOM     25  C   UNL     1      -0.355   2.359   1.750  1.00  0.00     0.023 C 
BRANCH  25  26
ATOM     26  C   UNL     1      -0.218   2.487   3.267  1.00  0.00     0.023 C 
BRANCH  26  27
ATOM     27  C   UNL     1       0.532   3.738   3.713  1.00  0.00     0.116 C 
BRANCH  27  28
ATOM     28  N   UNL     1      -0.206   4.971   3.441  1.00  0.00    -0.352 N 
ATOM     29  C   UNL     1      -0.718   5.913   4.303  1.00  0.00     0.251 C 
ATOM     30  H   UNL     1      -0.361   5.157   2.487  1.00  0.00     0.163 HD
ATOM     31  O   UNL     1      -1.436   6.808   3.882  1.00  0.00    -0.269 OA
BRANCH  29  32
ATOM     32  C   UNL     1      -0.432   5.815   5.753  1.00  0.00     0.039 A 
ATOM     33  C   UNL     1      -1.480   5.962   6.666  1.00  0.00     0.014 A 
ATOM     34  C   UNL     1       0.855   5.525   6.204  1.00  0.00     0.014 A 
ATOM     35  C   UNL     1      -1.258   5.689   8.019  1.00  0.00     0.010 A 
ATOM     36  C   UNL     1       1.047   5.152   7.528  1.00  0.00     0.010 A 
ATOM     37  C   UNL     1      -0.011   5.208   8.448  1.00  0.00    -0.014 A 
BRANCH  37  38
ATOM     38  C   UNL     1       0.215   4.712   9.833  1.00  0.00     0.031 A 
ATOM     39  C   UNL     1       1.315   5.304  10.672  1.00  0.00     0.074 A 
ATOM     40  C   UNL     1      -0.472   3.640  10.279  1.00  0.00     0.049 A 
ATOM     41  N   UNL     1       1.806   4.882  11.809  1.00  0.00    -0.248 NA
ATOM     42  C   UNL     1       1.985   6.501  10.138  1.00  0.00     0.031 C 
ATOM     43  C   UNL     1      -1.515   2.925   9.536  1.00  0.00     0.029 A 
ATOM     44  N   UNL     1      -0.377   2.942  11.459  1.00  0.00    -0.354 N 
ATOM     45  C   UNL     1       2.869   5.729  12.099  1.00  0.00     0.074 A 
ATOM     46  C   UNL     1       2.977   6.665  11.002  1.00  0.00     0.031 C 
ATOM     47  C   UNL     1      -1.970   1.905  10.281  1.00  0.00     0.029 A 
ATOM     48  C   UNL     1      -1.222   1.859  11.531  1.00  0.00     0.049 A 
ATOM     49  H   UNL     1       0.239   3.193  12.184  1.00  0.00     0.167 HD
ATOM     50  C   UNL     1       3.669   5.738  13.191  1.00  0.00     0.037 A 
ATOM     51  C   UNL     1      -1.362   0.920  12.486  1.00  0.00     0.037 A 
ATOM     52  C   UNL     1       3.507   4.856  14.315  1.00  0.00     0.049 A 
ATOM     53  C   UNL     1      -0.491   0.984  13.710  1.00  0.00     0.074 A 
ATOM     54  C   UNL     1       4.185   4.867  15.521  1.00  0.00     0.029 A 
ATOM     55  N   UNL     1       2.599   3.811  14.374  1.00  0.00    -0.354 N 
ATOM     56  N   UNL     1       0.453   1.844  14.007  1.00  0.00    -0.248 NA
ATOM     57  C   UNL     1      -0.699  -0.054  14.730  1.00  0.00     0.031 C 
ATOM     58  C   UNL     1       3.712   3.805  16.297  1.00  0.00     0.029 A 
ATOM     59  C   UNL     1       2.716   3.155  15.587  1.00  0.00     0.049 A 
ATOM     60  H   UNL     1       1.966   3.570  13.659  1.00  0.00     0.167 HD
ATOM     61  C   UNL     1       0.937   1.462  15.250  1.00  0.00     0.074 A 
ATOM     62  C   UNL     1       0.169   0.307  15.664  1.00  0.00     0.031 C 
ATOM     63  C   UNL     1       1.936   2.012  15.982  1.00  0.00     0.037 A 
BRANCH  50  64
ATOM     64  C   UNL     1       4.779   6.745  13.240  1.00  0.00     0.057 A 
ATOM     65  C   UNL     1       4.532   8.110  13.433  1.00  0.00     0.134 A 
ATOM     66  C   UNL     1       6.117   6.336  13.158  1.00  0.00     0.134 A 
ATOM     67  F   UNL     1       3.273   8.568  13.510  1.00  0.00    -0.206 F 
ATOM     68  C   UNL     1       5.573   9.035  13.524  1.00  0.00     0.040 A 
ATOM     69  C   UNL     1       7.167   7.248  13.272  1.00  0.00     0.040 A 
ATOM     70  F   UNL     1       6.424   5.042  12.979  1.00  0.00    -0.206 F 
ATOM     71  C   UNL     1       6.896   8.602  13.452  1.00  0.00     0.006 A 
ENDBRANCH  50  64
BRANCH  51  72
ATOM     72  C   UNL     1      -2.362  -0.169  12.332  1.00  0.00     0.057 A 
ATOM     73  C   UNL     1      -3.499  -0.224  13.147  1.00  0.00     0.134 A 
ATOM     74  C   UNL     1      -2.192  -1.195  11.395  1.00  0.00     0.134 A 
ATOM     75  F   UNL     1      -3.707   0.719  14.078  1.00  0.00    -0.206 F 
ATOM     76  C   UNL     1      -4.416  -1.272  13.056  1.00  0.00     0.040 A 
ATOM     77  C   UNL     1      -3.115  -2.236  11.275  1.00  0.00     0.040 A 
ATOM     78  F   UNL     1      -1.128  -1.198  10.579  1.00  0.00    -0.206 F 
ATOM     79  C   UNL     1      -4.226  -2.282  12.115  1.00  0.00     0.006 A 
ENDBRANCH  51  72
BRANCH  63  80
ATOM     80  C   UNL     1       2.242   1.383  17.307  1.00  0.00     0.057 A 
ATOM     81  C   UNL     1       2.919   0.160  17.397  1.00  0.00     0.134 A 
ATOM     82  C   UNL     1       1.903   2.029  18.501  1.00  0.00     0.134 A 
ATOM     83  F   UNL     1       3.257  -0.514  16.288  1.00  0.00    -0.206 F 
ATOM     84  C   UNL     1       3.237  -0.404  18.633  1.00  0.00     0.040 A 
ATOM     85  C   UNL     1       2.237   1.486  19.742  1.00  0.00     0.040 A 
ATOM     86  F   UNL     1       1.261   3.207  18.480  1.00  0.00    -0.206 F 
ATOM     87  C   UNL     1       2.902   0.264  19.810  1.00  0.00     0.006 A 
ENDBRANCH  63  80
ENDBRANCH  37  38
ENDBRANCH  29  32
ENDBRANCH  27  28
ENDBRANCH  26  27
ENDBRANCH  25  26
ENDBRANCH   1  25
TORSDOF 16
