REMARK SMILES O=C(NCCCCNC(=O)[C@H]1CCCC[C@H]1C(=O)Nc1ccc(Cl)cc1F)c1ccc(-c2c3nc(c(-c4c(F)cccc4F)c4ccc([nH]4)c(-c4c(F)cccc4F)c4nc(c(-c5c(F)cccc5F)c5ccc2[nH]5)C=C4)C=C3)cc1
REMARK SMILES IDX 5 1 4 2 3 3 1 4 2 5 28 7 29 8 81 9 30 10 80 11 31 12 32 13
REMARK SMILES IDX 33 14 74 15 34 16 79 17 73 18 75 19 35 20 78 21 72 22 71 23
REMARK SMILES IDX 36 25 62 26 45 27 61 28 46 29 49 30 60 31 76 32 47 33 48 34
REMARK SMILES IDX 59 36 77 37 50 38 37 39 38 40 43 41 39 42 40 43 42 44 44 45
REMARK SMILES IDX 41 46 63 47 64 48 69 49 65 50 66 51 68 52 70 53 67 54 51 55
REMARK SMILES IDX 52 56 57 57 53 58 54 59 56 60 58 61 55 62 6 63 7 64 8 65
REMARK SMILES IDX 9 66 10 68 11 69 12 70 16 71 13 72 15 73 14 74 17 75 18 76
REMARK SMILES IDX 19 77 20 79 21 80 26 81 22 82 25 83 27 84 23 85 24 86
REMARK H PARENT 3 6 75 24 49 35 8 67 19 78
REMARK Flexibility Score: inf
ROOT
ATOM      1  C   UNL     1       3.866   5.716   1.560  1.00  0.00     0.023 C 
ENDROOT
BRANCH   1   2
ATOM      2  C   UNL     1       3.280   6.967   2.201  1.00  0.00     0.116 C 
BRANCH   2   3
ATOM      3  N   UNL     1       3.794   8.184   1.583  1.00  0.00    -0.352 N 
ATOM      4  O   UNL     1       3.856   9.893   0.125  1.00  0.00    -0.269 OA
ATOM      5  C   UNL     1       3.180   9.062   0.736  1.00  0.00     0.251 C 
ATOM      6  H   UNL     1       4.725   8.408   1.812  1.00  0.00     0.163 HD
BRANCH   5   7
ATOM      7  C   UNL     1       1.715   9.034   0.546  1.00  0.00     0.039 A 
ATOM      8  C   UNL     1       0.856   8.894   1.641  1.00  0.00     0.014 A 
ATOM      9  C   UNL     1       1.187   9.235  -0.735  1.00  0.00     0.014 A 
ATOM     10  C   UNL     1      -0.520   8.854   1.445  1.00  0.00     0.010 A 
ATOM     11  C   UNL     1      -0.198   9.274  -0.918  1.00  0.00     0.010 A 
ATOM     12  C   UNL     1      -1.061   9.079   0.170  1.00  0.00    -0.014 A 
BRANCH  12  13
ATOM     13  C   UNL     1      -2.529   9.243   0.020  1.00  0.00     0.031 A 
ATOM     14  C   UNL     1      -3.347   8.269  -0.775  1.00  0.00     0.074 A 
ATOM     15  C   UNL     1      -3.112  10.311   0.601  1.00  0.00     0.049 A 
ATOM     16  N   UNL     1      -4.630   8.295  -1.032  1.00  0.00    -0.248 NA
ATOM     17  C   UNL     1      -2.640   7.122  -1.364  1.00  0.00     0.031 C 
ATOM     18  C   UNL     1      -2.407  11.336   1.378  1.00  0.00     0.029 A 
ATOM     19  N   UNL     1      -4.420  10.718   0.629  1.00  0.00    -0.354 N 
ATOM     20  C   UNL     1      -4.883   7.185  -1.827  1.00  0.00     0.074 A 
ATOM     21  C   UNL     1      -3.617   6.509  -2.022  1.00  0.00     0.031 C 
ATOM     22  C   UNL     1      -3.291  12.242   1.817  1.00  0.00     0.029 A 
ATOM     23  C   UNL     1      -4.611  11.901   1.302  1.00  0.00     0.049 A 
ATOM     24  H   UNL     1      -5.152  10.213   0.207  1.00  0.00     0.167 HD
ATOM     25  C   UNL     1      -6.066   6.774  -2.342  1.00  0.00     0.037 A 
ATOM     26  C   UNL     1      -5.716  12.652   1.456  1.00  0.00     0.037 A 
ATOM     27  C   UNL     1      -7.323   7.443  -2.121  1.00  0.00     0.049 A 
ATOM     28  C   UNL     1      -7.003  12.185   0.841  1.00  0.00     0.074 A 
ATOM     29  C   UNL     1      -8.588   7.052  -2.526  1.00  0.00     0.029 A 
ATOM     30  N   UNL     1      -7.472   8.648  -1.452  1.00  0.00    -0.354 N 
ATOM     31  N   UNL     1      -7.241  11.090   0.162  1.00  0.00    -0.248 NA
ATOM     32  C   UNL     1      -8.171  13.061   1.002  1.00  0.00     0.031 C 
ATOM     33  C   UNL     1      -9.493   8.051  -2.156  1.00  0.00     0.029 A 
ATOM     34  C   UNL     1      -8.801   9.040  -1.477  1.00  0.00     0.049 A 
ATOM     35  H   UNL     1      -6.742   9.152  -1.024  1.00  0.00     0.167 HD
ATOM     36  C   UNL     1      -8.585  11.140  -0.179  1.00  0.00     0.074 A 
ATOM     37  C   UNL     1      -9.117  12.360   0.393  1.00  0.00     0.031 C 
ATOM     38  C   UNL     1      -9.311  10.260  -0.908  1.00  0.00     0.037 A 
BRANCH  25  39
ATOM     39  C   UNL     1      -6.075   5.553  -3.214  1.00  0.00     0.057 A 
ATOM     40  C   UNL     1      -5.945   4.263  -2.687  1.00  0.00     0.134 A 
ATOM     41  C   UNL     1      -6.321   5.668  -4.589  1.00  0.00     0.134 A 
ATOM     42  F   UNL     1      -5.704   4.083  -1.379  1.00  0.00    -0.206 F 
ATOM     43  C   UNL     1      -6.053   3.130  -3.497  1.00  0.00     0.040 A 
ATOM     44  C   UNL     1      -6.451   4.544  -5.405  1.00  0.00     0.040 A 
ATOM     45  F   UNL     1      -6.465   6.876  -5.156  1.00  0.00    -0.206 F 
ATOM     46  C   UNL     1      -6.318   3.269  -4.859  1.00  0.00     0.006 A 
ENDBRANCH  25  39
BRANCH  26  47
ATOM     47  C   UNL     1      -5.641  13.946   2.181  1.00  0.00     0.057 A 
ATOM     48  C   UNL     1      -6.289  14.133   3.406  1.00  0.00     0.134 A 
ATOM     49  C   UNL     1      -4.928  15.031   1.655  1.00  0.00     0.134 A 
ATOM     50  F   UNL     1      -7.002  13.138   3.952  1.00  0.00    -0.206 F 
ATOM     51  C   UNL     1      -6.249  15.360   4.072  1.00  0.00     0.040 A 
ATOM     52  C   UNL     1      -4.854  16.252   2.324  1.00  0.00     0.040 A 
ATOM     53  F   UNL     1      -4.279  14.914   0.487  1.00  0.00    -0.206 F 
ATOM     54  C   UNL     1      -5.525  16.422   3.533  1.00  0.00     0.006 A 
ENDBRANCH  26  47
BRANCH  38  55
ATOM     55  C   UNL     1     -10.759  10.584  -1.122  1.00  0.00     0.057 A 
ATOM     56  C   UNL     1     -11.160  11.597  -2.002  1.00  0.00     0.134 A 
ATOM     57  C   UNL     1     -11.761   9.850  -0.476  1.00  0.00     0.134 A 
ATOM     58  F   UNL     1     -10.246  12.347  -2.637  1.00  0.00    -0.206 F 
ATOM     59  C   UNL     1     -12.508  11.880  -2.220  1.00  0.00     0.040 A 
ATOM     60  C   UNL     1     -13.113  10.107  -0.706  1.00  0.00     0.040 A 
ATOM     61  F   UNL     1     -11.443   8.863   0.374  1.00  0.00    -0.206 F 
ATOM     62  C   UNL     1     -13.490  11.127  -1.577  1.00  0.00     0.006 A 
ENDBRANCH  38  55
ENDBRANCH  12  13
ENDBRANCH   5   7
ENDBRANCH   2   3
ENDBRANCH   1   2
BRANCH   1  63
ATOM     63  C   UNL     1       5.391   5.594   1.658  1.00  0.00     0.023 C 
BRANCH  63  64
ATOM     64  C   UNL     1       5.964   5.616   3.080  1.00  0.00     0.116 C 
BRANCH  64  65
ATOM     65  N   UNL     1       5.479   4.497   3.863  1.00  0.00    -0.356 N 
ATOM     66  C   UNL     1       6.251   3.536   4.433  1.00  0.00     0.223 C 
ATOM     67  H   UNL     1       4.505   4.427   3.992  1.00  0.00     0.163 HD
ATOM     68  O   UNL     1       6.135   2.389   3.998  1.00  0.00    -0.275 OA
BRANCH  66  69
ATOM     69  C   UNL     1       7.103   3.824   5.660  1.00  0.00     0.091 C 
ATOM     70  C   UNL     1       7.594   5.265   5.876  1.00  0.00     0.014 C 
ATOM     71  C   UNL     1       6.564   3.138   6.957  1.00  0.00     0.091 C 
ATOM     72  C   UNL     1       6.753   6.073   6.853  1.00  0.00     0.001 C 
ATOM     73  C   UNL     1       6.017   4.051   8.068  1.00  0.00     0.014 C 
ATOM     74  C   UNL     1       6.746   5.374   8.201  1.00  0.00     0.001 C 
BRANCH  71  75
ATOM     75  C   UNL     1       5.757   1.822   6.801  1.00  0.00     0.228 C 
ATOM     76  O   UNL     1       6.378   0.757   6.684  1.00  0.00    -0.274 OA
ATOM     77  N   UNL     1       4.396   1.724   6.943  1.00  0.00    -0.323 N 
ATOM     78  H   UNL     1       4.064   0.805   7.065  1.00  0.00     0.170 HD
BRANCH  77  79
ATOM     79  C   UNL     1       3.397   2.706   6.946  1.00  0.00     0.077 A 
ATOM     80  C   UNL     1       2.630   2.892   8.098  1.00  0.00     0.031 A 
ATOM     81  C   UNL     1       3.094   3.466   5.816  1.00  0.00     0.148 A 
ATOM     82  C   UNL     1       1.704   3.942   8.156  1.00  0.00     0.023 A 
ATOM     83  C   UNL     1       2.195   4.525   5.866  1.00  0.00     0.062 A 
ATOM     84  F   UNL     1       3.559   3.104   4.617  1.00  0.00    -0.205 F 
ATOM     85  C   UNL     1       1.520   4.777   7.053  1.00  0.00     0.044 A 
ATOM     86  Cl  UNL     1       0.432   6.104   7.143  1.00  0.00    -0.084 Cl
ENDBRANCH  77  79
ENDBRANCH  71  75
ENDBRANCH  66  69
ENDBRANCH  64  65
ENDBRANCH  63  64
ENDBRANCH   1  63
TORSDOF 13
