REMARK SMILES O=C(NCCCCNC(=O)c1ccc(-c2c3nc(c(-c4c(F)cccc4F)c4ccc([nH]4)c(-c4c(F)cccc4F)c4nc(c(-c5c(F)cccc5F)c5ccc2[nH]5)C=C4)C=C3)cc1)C1=Cc2cc(Cl)cc(-c3ccccc3)c2O[C@@H]1C(F)(F)F
REMARK SMILES IDX 6 1 5 2 4 3 3 4 1 5 2 6 65 8 66 9 81 10 67 11 80 12 68 13
REMARK SMILES IDX 79 14 69 15 72 16 70 17 71 18 82 19 83 20 84 21 85 22 73 23
REMARK SMILES IDX 74 24 78 25 75 26 77 27 76 28 7 29 8 30 9 31 10 33 11 34
REMARK SMILES IDX 12 35 64 36 13 37 63 38 14 39 15 40 16 41 57 42 17 43 62 44
REMARK SMILES IDX 56 45 58 46 18 47 61 48 55 49 54 50 19 52 45 53 28 54 44 55
REMARK SMILES IDX 29 56 32 57 43 58 59 59 30 60 31 61 42 63 60 64 33 65 20 66
REMARK SMILES IDX 21 67 26 68 22 69 23 70 25 71 27 72 24 73 46 74 47 75 52 76
REMARK SMILES IDX 48 77 49 78 51 79 53 80 50 81 34 82 35 83 40 84 36 85 37 86
REMARK SMILES IDX 39 87 41 88 38 89
REMARK H PARENT 3 7 8 32 58 51 32 62
REMARK Flexibility Score: inf
ROOT
ATOM      1  C   UNL     1       4.018  -1.019   4.499  1.00  0.00     0.023 C 
ENDROOT
BRANCH   1   2
ATOM      2  C   UNL     1       4.247  -0.060   3.334  1.00  0.00     0.023 C 
BRANCH   2   3
ATOM      3  C   UNL     1       3.700  -0.544   1.993  1.00  0.00     0.116 C 
BRANCH   3   4
ATOM      4  N   UNL     1       2.515   0.171   1.541  1.00  0.00    -0.352 N 
ATOM      5  O   UNL     1       1.031   1.043   0.099  1.00  0.00    -0.270 OA
ATOM      6  C   UNL     1       2.189   0.693   0.316  1.00  0.00     0.251 C 
ATOM      7  H   UNL     1       1.829   0.302   2.235  1.00  0.00     0.163 HD
BRANCH   6   8
ATOM      8  C   UNL     1       3.169   0.721  -0.805  1.00  0.00     0.067 C 
ATOM      9  C   UNL     1       4.407   1.206  -0.641  1.00  0.00     0.025 C 
ATOM     10  C   UNL     1       2.971  -0.384  -1.800  1.00  0.00     0.314 C 
ATOM     11  C   UNL     1       5.485   0.216  -0.782  1.00  0.00     0.019 A 
ATOM     12  O   UNL     1       3.908  -1.465  -1.575  1.00  0.00    -0.475 OA
ATOM     13  C   UNL     1       6.720   0.542  -0.213  1.00  0.00     0.032 A 
ATOM     14  C   UNL     1       5.141  -1.133  -1.051  1.00  0.00     0.135 A 
ATOM     15  C   UNL     1       7.581  -0.481   0.156  1.00  0.00     0.042 A 
ATOM     16  C   UNL     1       5.974  -2.181  -0.595  1.00  0.00     0.026 A 
ATOM     17  Cl  UNL     1       9.030  -0.104   1.004  1.00  0.00    -0.084 Cl
ATOM     18  C   UNL     1       7.214  -1.817  -0.022  1.00  0.00     0.033 A 
BRANCH  10  19
ATOM     19  C   UNL     1       3.028   0.188  -3.234  1.00  0.00     0.429 C 
ATOM     20  F   UNL     1       2.696  -0.746  -4.156  1.00  0.00    -0.167 F 
ATOM     21  F   UNL     1       2.160   1.219  -3.391  1.00  0.00    -0.167 F 
ATOM     22  F   UNL     1       4.255   0.658  -3.564  1.00  0.00    -0.167 F 
ENDBRANCH  10  19
BRANCH  16  23
ATOM     23  C   UNL     1       5.531  -3.600  -0.500  1.00  0.00    -0.015 A 
ATOM     24  C   UNL     1       5.771  -4.337   0.681  1.00  0.00     0.009 A 
ATOM     25  C   UNL     1       4.853  -4.264  -1.532  1.00  0.00     0.009 A 
ATOM     26  C   UNL     1       5.383  -5.673   0.814  1.00  0.00     0.001 A 
ATOM     27  C   UNL     1       4.443  -5.598  -1.393  1.00  0.00     0.001 A 
ATOM     28  C   UNL     1       4.713  -6.304  -0.224  1.00  0.00     0.000 A 
ENDBRANCH  16  23
ENDBRANCH   6   8
ENDBRANCH   3   4
ENDBRANCH   2   3
ENDBRANCH   1   2
BRANCH   1  29
ATOM     29  C   UNL     1       4.571  -2.431   4.319  1.00  0.00     0.116 C 
BRANCH  29  30
ATOM     30  N   UNL     1       6.003  -2.506   4.079  1.00  0.00    -0.352 N 
ATOM     31  C   UNL     1       6.860  -3.542   4.373  1.00  0.00     0.251 C 
ATOM     32  H   UNL     1       6.411  -1.717   3.653  1.00  0.00     0.163 HD
ATOM     33  O   UNL     1       8.061  -3.441   4.125  1.00  0.00    -0.269 OA
BRANCH  31  34
ATOM     34  C   UNL     1       6.346  -4.773   5.017  1.00  0.00     0.039 A 
ATOM     35  C   UNL     1       7.043  -5.306   6.105  1.00  0.00     0.014 A 
ATOM     36  C   UNL     1       5.171  -5.387   4.573  1.00  0.00     0.014 A 
ATOM     37  C   UNL     1       6.518  -6.400   6.796  1.00  0.00     0.010 A 
ATOM     38  C   UNL     1       4.618  -6.439   5.293  1.00  0.00     0.010 A 
ATOM     39  C   UNL     1       5.282  -6.948   6.415  1.00  0.00    -0.014 A 
BRANCH  39  40
ATOM     40  C   UNL     1       4.646  -8.028   7.201  1.00  0.00     0.031 A 
ATOM     41  C   UNL     1       4.506  -9.405   6.618  1.00  0.00     0.074 A 
ATOM     42  C   UNL     1       4.124  -7.735   8.407  1.00  0.00     0.049 A 
ATOM     43  N   UNL     1       3.961 -10.471   7.144  1.00  0.00    -0.248 NA
ATOM     44  C   UNL     1       5.025  -9.603   5.255  1.00  0.00     0.031 C 
ATOM     45  C   UNL     1       4.133  -6.409   9.031  1.00  0.00     0.029 A 
ATOM     46  N   UNL     1       3.469  -8.524   9.316  1.00  0.00    -0.354 N 
ATOM     47  C   UNL     1       4.091 -11.470   6.189  1.00  0.00     0.074 A 
ATOM     48  C   UNL     1       4.697 -10.866   5.022  1.00  0.00     0.031 C 
ATOM     49  C   UNL     1       3.520  -6.480  10.224  1.00  0.00     0.029 A 
ATOM     50  C   UNL     1       3.060  -7.848  10.439  1.00  0.00     0.049 A 
ATOM     51  H   UNL     1       3.307  -9.486   9.176  1.00  0.00     0.167 HD
ATOM     52  C   UNL     1       3.764 -12.780   6.290  1.00  0.00     0.037 A 
ATOM     53  C   UNL     1       2.391  -8.287  11.521  1.00  0.00     0.037 A 
ATOM     54  C   UNL     1       3.144 -13.365   7.452  1.00  0.00     0.049 A 
ATOM     55  C   UNL     1       2.036  -9.747  11.605  1.00  0.00     0.074 A 
ATOM     56  C   UNL     1       2.783 -14.683   7.669  1.00  0.00     0.029 A 
ATOM     57  N   UNL     1       2.790 -12.660   8.593  1.00  0.00    -0.354 N 
ATOM     58  N   UNL     1       2.240 -10.701  10.729  1.00  0.00    -0.248 NA
ATOM     59  C   UNL     1       1.384 -10.197  12.842  1.00  0.00     0.031 C 
ATOM     60  C   UNL     1       2.179 -14.769   8.928  1.00  0.00     0.029 A 
ATOM     61  C   UNL     1       2.214 -13.516   9.517  1.00  0.00     0.049 A 
ATOM     62  H   UNL     1       2.928 -11.695   8.727  1.00  0.00     0.167 HD
ATOM     63  C   UNL     1       1.785 -11.870  11.325  1.00  0.00     0.074 A 
ATOM     64  C   UNL     1       1.308 -11.505  12.643  1.00  0.00     0.031 C 
ATOM     65  C   UNL     1       1.764 -13.133  10.831  1.00  0.00     0.037 A 
BRANCH  52  66
ATOM     66  C   UNL     1       4.095 -13.672   5.128  1.00  0.00     0.057 A 
ATOM     67  C   UNL     1       5.423 -13.989   4.807  1.00  0.00     0.134 A 
ATOM     68  C   UNL     1       3.088 -14.263   4.356  1.00  0.00     0.134 A 
ATOM     69  F   UNL     1       6.437 -13.447   5.498  1.00  0.00    -0.206 F 
ATOM     70  C   UNL     1       5.736 -14.846   3.751  1.00  0.00     0.040 A 
ATOM     71  C   UNL     1       3.388 -15.144   3.314  1.00  0.00     0.040 A 
ATOM     72  F   UNL     1       1.796 -14.008   4.609  1.00  0.00    -0.206 F 
ATOM     73  C   UNL     1       4.716 -15.434   3.007  1.00  0.00     0.006 A 
ENDBRANCH  52  66
BRANCH  53  74
ATOM     74  C   UNL     1       2.045  -7.355  12.624  1.00  0.00     0.057 A 
ATOM     75  C   UNL     1       2.642  -7.468  13.886  1.00  0.00     0.134 A 
ATOM     76  C   UNL     1       1.085  -6.349  12.456  1.00  0.00     0.134 A 
ATOM     77  F   UNL     1       3.561  -8.418  14.114  1.00  0.00    -0.206 F 
ATOM     78  C   UNL     1       2.268  -6.646  14.950  1.00  0.00     0.040 A 
ATOM     79  C   UNL     1       0.724  -5.500  13.503  1.00  0.00     0.040 A 
ATOM     80  F   UNL     1       0.487  -6.175  11.268  1.00  0.00    -0.206 F 
ATOM     81  C   UNL     1       1.306  -5.657  14.759  1.00  0.00     0.006 A 
ENDBRANCH  53  74
BRANCH  65  82
ATOM     82  C   UNL     1       1.272 -14.214  11.749  1.00  0.00     0.057 A 
ATOM     83  C   UNL     1      -0.072 -14.317  12.129  1.00  0.00     0.134 A 
ATOM     84  C   UNL     1       2.162 -15.171  12.254  1.00  0.00     0.134 A 
ATOM     85  F   UNL     1      -0.974 -13.426  11.691  1.00  0.00    -0.206 F 
ATOM     86  C   UNL     1      -0.505 -15.308  13.012  1.00  0.00     0.040 A 
ATOM     87  C   UNL     1       1.735 -16.186  13.110  1.00  0.00     0.040 A 
ATOM     88  F   UNL     1       3.461 -15.138  11.919  1.00  0.00    -0.206 F 
ATOM     89  C   UNL     1       0.399 -16.248  13.501  1.00  0.00     0.006 A 
ENDBRANCH  65  82
ENDBRANCH  39  40
ENDBRANCH  31  34
ENDBRANCH  29  30
ENDBRANCH   1  29
TORSDOF 13
