REMARK SMILES C[C@H]([NH2+][C@@H](C)[C@@H](C)C(=O)NCCCCNC(=O)c1ccc(-c2c3nc(c(-c4c(F)cccc4F)c4ccc([nH]4)c(-c4c(F)cccc4F)c4nc(c(-c5c(F)cccc5F)c5ccc2[nH]5)C=C4)C=C3)cc1)c1cccc(Br)c1
REMARK SMILES IDX 11 1 10 2 8 3 9 4 6 6 7 7 4 8 5 9 3 10 2 13 1 14 72 15 73 16
REMARK SMILES IDX 78 17 74 18 76 19 75 20 77 21 12 22 13 23 14 24 15 25 16 26
REMARK SMILES IDX 17 28 18 29 19 30 71 31 20 32 70 33 21 34 22 35 23 36 64 37
REMARK SMILES IDX 24 38 69 39 63 40 65 41 25 42 68 43 62 44 61 45 26 47 52 48
REMARK SMILES IDX 35 49 51 50 36 51 39 52 50 53 66 54 37 55 38 56 49 58 67 59
REMARK SMILES IDX 40 60 27 61 28 62 33 63 29 64 30 65 32 66 34 67 31 68 53 69
REMARK SMILES IDX 54 70 59 71 55 72 56 73 58 74 60 75 57 76 41 77 42 78 47 79
REMARK SMILES IDX 43 80 44 81 46 82 48 83 45 84
REMARK H PARENT 10 5 3 11 3 12 15 27 65 46 39 57
REMARK Flexibility Score: inf
ROOT
ATOM      1  C   UNL     1       0.753   0.700  -4.348  1.00  0.00     0.116 C 
ENDROOT
BRANCH   1   2
ATOM      2  N   UNL     1       0.890  -0.740  -4.441  1.00  0.00    -0.356 N 
ATOM      3  C   UNL     1       0.751  -1.706  -3.490  1.00  0.00     0.228 C 
ATOM      4  O   UNL     1       0.977  -2.871  -3.827  1.00  0.00    -0.275 OA
ATOM      5  H   UNL     1       1.120  -1.075  -5.338  1.00  0.00     0.163 HD
BRANCH   3   6
ATOM      6  C   UNL     1       0.303  -1.381  -2.063  1.00  0.00     0.133 C 
ATOM      7  C   UNL     1      -1.142  -0.888  -2.107  1.00  0.00     0.024 C 
BRANCH   6   8
ATOM      8  C   UNL     1       1.343  -0.505  -1.316  1.00  0.00     0.192 C 
ATOM      9  C   UNL     1       2.641  -1.318  -1.135  1.00  0.00     0.076 C 
BRANCH   8  10
ATOM     10  N   UNL     1       0.990  -0.058   0.027  1.00  0.00    -0.337 N 
ATOM     11  H   UNL     1       0.270  -0.700   0.357  1.00  0.00     0.347 HD
ATOM     12  H   UNL     1       1.902  -0.041   0.483  1.00  0.00     0.347 HD
BRANCH  10  13
ATOM     13  C   UNL     1       0.491   1.292   0.312  1.00  0.00     0.210 C 
ATOM     14  C   UNL     1       1.126   2.366  -0.592  1.00  0.00     0.081 C 
BRANCH  13  15
ATOM     15  C   UNL     1      -1.032   1.393   0.435  1.00  0.00     0.010 A 
ATOM     16  C   UNL     1      -1.732   2.571   0.112  1.00  0.00     0.010 A 
ATOM     17  C   UNL     1      -1.788   0.327   0.959  1.00  0.00     0.025 A 
ATOM     18  C   UNL     1      -3.124   2.652   0.231  1.00  0.00     0.002 A 
ATOM     19  C   UNL     1      -3.181   0.397   1.042  1.00  0.00     0.018 A 
ATOM     20  C   UNL     1      -3.854   1.555   0.676  1.00  0.00     0.016 A 
ATOM     21  Br  UNL     1      -4.158  -1.113   1.625  1.00  0.00    -0.051 Br
ENDBRANCH  13  15
ENDBRANCH  10  13
ENDBRANCH   8  10
ENDBRANCH   6   8
ENDBRANCH   3   6
ENDBRANCH   1   2
BRANCH   1  22
ATOM     22  C   UNL     1       2.112   1.396  -4.413  1.00  0.00     0.023 C 
BRANCH  22  23
ATOM     23  C   UNL     1       2.749   1.405  -5.801  1.00  0.00     0.023 C 
BRANCH  23  24
ATOM     24  C   UNL     1       1.894   2.038  -6.890  1.00  0.00     0.116 C 
BRANCH  24  25
ATOM     25  N   UNL     1       1.506   3.410  -6.598  1.00  0.00    -0.352 N 
ATOM     26  C   UNL     1       1.368   4.457  -7.480  1.00  0.00     0.251 C 
ATOM     27  H   UNL     1       1.319   3.614  -5.653  1.00  0.00     0.163 HD
ATOM     28  O   UNL     1       1.133   5.588  -7.085  1.00  0.00    -0.269 OA
BRANCH  26  29
ATOM     29  C   UNL     1       1.554   4.186  -8.920  1.00  0.00     0.039 A 
ATOM     30  C   UNL     1       2.486   4.942  -9.633  1.00  0.00     0.014 A 
ATOM     31  C   UNL     1       0.870   3.132  -9.530  1.00  0.00     0.014 A 
ATOM     32  C   UNL     1       2.787   4.590 -10.949  1.00  0.00     0.010 A 
ATOM     33  C   UNL     1       1.227   2.737 -10.812  1.00  0.00     0.010 A 
ATOM     34  C   UNL     1       2.190   3.460 -11.533  1.00  0.00    -0.014 A 
BRANCH  34  35
ATOM     35  C   UNL     1       2.557   3.014 -12.899  1.00  0.00     0.031 A 
ATOM     36  C   UNL     1       1.526   3.020 -13.991  1.00  0.00     0.074 A 
ATOM     37  C   UNL     1       3.793   2.533 -13.135  1.00  0.00     0.049 A 
ATOM     38  N   UNL     1       1.624   2.593 -15.223  1.00  0.00    -0.248 NA
ATOM     39  C   UNL     1       0.196   3.547 -13.641  1.00  0.00     0.031 C 
ATOM     40  C   UNL     1       4.865   2.423 -12.143  1.00  0.00     0.029 A 
ATOM     41  N   UNL     1       4.352   2.033 -14.284  1.00  0.00    -0.354 N 
ATOM     42  C   UNL     1       0.369   2.781 -15.787  1.00  0.00     0.074 A 
ATOM     43  C   UNL     1      -0.488   3.310 -14.749  1.00  0.00     0.031 C 
ATOM     44  C   UNL     1       5.958   1.911 -12.733  1.00  0.00     0.029 A 
ATOM     45  C   UNL     1       5.655   1.625 -14.131  1.00  0.00     0.049 A 
ATOM     46  H   UNL     1       3.865   1.972 -15.138  1.00  0.00     0.167 HD
ATOM     47  C   UNL     1      -0.026   2.558 -17.062  1.00  0.00     0.037 A 
ATOM     48  C   UNL     1       6.506   1.078 -15.020  1.00  0.00     0.037 A 
ATOM     49  C   UNL     1       0.837   2.063 -18.101  1.00  0.00     0.049 A 
ATOM     50  C   UNL     1       6.046   0.851 -16.433  1.00  0.00     0.074 A 
ATOM     51  C   UNL     1       0.550   1.864 -19.439  1.00  0.00     0.029 A 
ATOM     52  N   UNL     1       2.160   1.693 -17.915  1.00  0.00    -0.354 N 
ATOM     53  N   UNL     1       4.877   1.099 -16.971  1.00  0.00    -0.248 NA
ATOM     54  C   UNL     1       7.026   0.275 -17.364  1.00  0.00     0.031 C 
ATOM     55  C   UNL     1       1.690   1.338 -20.056  1.00  0.00     0.029 A 
ATOM     56  C   UNL     1       2.699   1.251 -19.111  1.00  0.00     0.049 A 
ATOM     57  H   UNL     1       2.645   1.737 -17.059  1.00  0.00     0.167 HD
ATOM     58  C   UNL     1       4.989   0.739 -18.307  1.00  0.00     0.074 A 
ATOM     59  C   UNL     1       6.344   0.264 -18.500  1.00  0.00     0.031 C 
ATOM     60  C   UNL     1       4.054   0.796 -19.287  1.00  0.00     0.037 A 
BRANCH  47  61
ATOM     61  C   UNL     1      -1.456   2.858 -17.404  1.00  0.00     0.057 A 
ATOM     62  C   UNL     1      -1.938   4.173 -17.471  1.00  0.00     0.134 A 
ATOM     63  C   UNL     1      -2.355   1.825 -17.694  1.00  0.00     0.134 A 
ATOM     64  F   UNL     1      -1.131   5.207 -17.190  1.00  0.00    -0.206 F 
ATOM     65  C   UNL     1      -3.268   4.447 -17.788  1.00  0.00     0.040 A 
ATOM     66  C   UNL     1      -3.682   2.089 -18.038  1.00  0.00     0.040 A 
ATOM     67  F   UNL     1      -1.959   0.544 -17.651  1.00  0.00    -0.206 F 
ATOM     68  C   UNL     1      -4.143   3.403 -18.080  1.00  0.00     0.006 A 
ENDBRANCH  47  61
BRANCH  48  69
ATOM     69  C   UNL     1       7.890   0.734 -14.609  1.00  0.00     0.057 A 
ATOM     70  C   UNL     1       8.984   1.474 -15.074  1.00  0.00     0.134 A 
ATOM     71  C   UNL     1       8.156  -0.342 -13.755  1.00  0.00     0.134 A 
ATOM     72  F   UNL     1       8.793   2.506 -15.910  1.00  0.00    -0.206 F 
ATOM     73  C   UNL     1      10.293   1.146 -14.720  1.00  0.00     0.040 A 
ATOM     74  C   UNL     1       9.459  -0.668 -13.374  1.00  0.00     0.040 A 
ATOM     75  F   UNL     1       7.151  -1.085 -13.268  1.00  0.00    -0.206 F 
ATOM     76  C   UNL     1      10.533   0.073 -13.864  1.00  0.00     0.006 A 
ENDBRANCH  48  69
BRANCH  60  77
ATOM     77  C   UNL     1       4.475   0.374 -20.663  1.00  0.00     0.057 A 
ATOM     78  C   UNL     1       4.675  -0.971 -20.995  1.00  0.00     0.134 A 
ATOM     79  C   UNL     1       4.636   1.324 -21.679  1.00  0.00     0.134 A 
ATOM     80  F   UNL     1       4.549  -1.928 -20.063  1.00  0.00    -0.206 F 
ATOM     81  C   UNL     1       5.041  -1.355 -22.286  1.00  0.00     0.040 A 
ATOM     82  C   UNL     1       4.977   0.951 -22.979  1.00  0.00     0.040 A 
ATOM     83  F   UNL     1       4.450   2.629 -21.427  1.00  0.00    -0.206 F 
ATOM     84  C   UNL     1       5.185  -0.393 -23.284  1.00  0.00     0.006 A 
ENDBRANCH  60  77
ENDBRANCH  34  35
ENDBRANCH  26  29
ENDBRANCH  24  25
ENDBRANCH  23  24
ENDBRANCH  22  23
ENDBRANCH   1  22
TORSDOF 15
