REMARK SMILES C=CCOc1ccccc1/C=C/c1cc(C(=O)NCCCCNC(=O)c2ccc(-c3c4nc(c(-c5c(F)cccc5F)c5ccc([nH]5)c(-c5c(F)cccc5F)c5nc(c(-c6c(F)cccc6F)c6ccc3[nH]6)C=C5)C=C4)cc2)ncn1
REMARK SMILES IDX 19 1 18 2 16 3 17 4 15 6 13 7 14 8 82 9 81 10 80 11 12 12
REMARK SMILES IDX 11 13 10 14 5 15 6 16 7 17 9 18 8 19 4 20 3 21 2 22 1 23
REMARK SMILES IDX 20 24 21 25 22 26 23 27 24 28 25 30 26 31 27 32 79 33 28 34
REMARK SMILES IDX 78 35 29 36 30 37 31 38 72 39 32 40 77 41 71 42 73 43 33 44
REMARK SMILES IDX 76 45 70 46 69 47 34 49 60 50 43 51 59 52 44 53 47 54 58 55
REMARK SMILES IDX 74 56 45 57 46 58 57 60 75 61 48 62 35 63 36 64 41 65 37 66
REMARK SMILES IDX 38 67 40 68 42 69 39 70 61 71 62 72 67 73 63 74 64 75 66 76
REMARK SMILES IDX 68 77 65 78 49 79 50 80 55 81 51 82 52 83 54 84 56 85 53 86
REMARK H PARENT 18 5 23 29 73 48 47 59
REMARK Flexibility Score: inf
ROOT
ATOM      1  C   UNL     1       2.225  -4.047   1.333  1.00  0.00     0.116 C 
ENDROOT
BRANCH   1   2
ATOM      2  N   UNL     1       3.484  -3.887   2.038  1.00  0.00    -0.351 N 
ATOM      3  C   UNL     1       4.492  -2.947   1.935  1.00  0.00     0.270 C 
ATOM      4  O   UNL     1       5.438  -3.059   2.716  1.00  0.00    -0.268 OA
ATOM      5  H   UNL     1       3.651  -4.579   2.718  1.00  0.00     0.163 HD
BRANCH   3   6
ATOM      6  C   UNL     1       4.447  -1.798   0.967  1.00  0.00     0.132 A 
ATOM      7  C   UNL     1       3.630  -0.692  -0.924  1.00  0.00     0.067 A 
ATOM      8  C   UNL     1       3.817  -1.879  -0.251  1.00  0.00     0.062 A 
ATOM      9  N   UNL     1       4.214   0.455  -0.537  1.00  0.00    -0.237 NA
ATOM     10  C   UNL     1       4.920   0.401   0.600  1.00  0.00     0.223 A 
ATOM     11  N   UNL     1       5.036  -0.662   1.401  1.00  0.00    -0.231 NA
BRANCH   7  12
ATOM     12  C   UNL     1       2.653  -0.558  -2.018  1.00  0.00     0.029 C 
ATOM     13  C   UNL     1       1.549  -1.323  -2.077  1.00  0.00     0.014 C 
BRANCH  13  14
ATOM     14  C   UNL     1       0.365  -1.092  -2.919  1.00  0.00     0.017 A 
ATOM     15  C   UNL     1      -0.913  -1.396  -2.408  1.00  0.00     0.126 A 
ATOM     16  C   UNL     1      -2.059  -1.250  -3.192  1.00  0.00     0.047 A 
ATOM     17  C   UNL     1      -1.945  -0.761  -4.491  1.00  0.00     0.004 A 
ATOM     18  C   UNL     1       0.462  -0.610  -4.228  1.00  0.00     0.012 A 
ATOM     19  C   UNL     1      -0.689  -0.438  -5.006  1.00  0.00     0.001 A 
BRANCH  15  20
ATOM     20  O   UNL     1      -1.055  -1.900  -1.134  1.00  0.00    -0.489 OA
BRANCH  20  21
ATOM     21  C   UNL     1      -1.414  -0.866  -0.204  1.00  0.00     0.257 C 
BRANCH  21  22
ATOM     22  C   UNL     1      -0.264  -0.638   0.734  1.00  0.00     0.006 C 
ATOM     23  C   UNL     1       0.418   0.511   0.830  1.00  0.00     0.007 C 
ENDBRANCH  21  22
ENDBRANCH  20  21
ENDBRANCH  15  20
ENDBRANCH  13  14
ENDBRANCH   7  12
ENDBRANCH   3   6
ENDBRANCH   1   2
BRANCH   1  24
ATOM     24  C   UNL     1       2.355  -5.079   0.209  1.00  0.00     0.023 C 
BRANCH  24  25
ATOM     25  C   UNL     1       2.323  -6.533   0.682  1.00  0.00     0.023 C 
BRANCH  25  26
ATOM     26  C   UNL     1       1.004  -6.976   1.303  1.00  0.00     0.116 C 
BRANCH  26  27
ATOM     27  N   UNL     1      -0.133  -6.846   0.405  1.00  0.00    -0.352 N 
ATOM     28  C   UNL     1      -1.237  -7.657   0.302  1.00  0.00     0.251 C 
ATOM     29  H   UNL     1      -0.107  -6.077  -0.209  1.00  0.00     0.163 HD
ATOM     30  O   UNL     1      -2.069  -7.470  -0.580  1.00  0.00    -0.269 OA
BRANCH  28  31
ATOM     31  C   UNL     1      -1.394  -8.787   1.240  1.00  0.00     0.039 A 
ATOM     32  C   UNL     1      -1.681 -10.053   0.726  1.00  0.00     0.014 A 
ATOM     33  C   UNL     1      -1.221  -8.603   2.614  1.00  0.00     0.014 A 
ATOM     34  C   UNL     1      -1.724 -11.151   1.585  1.00  0.00     0.010 A 
ATOM     35  C   UNL     1      -1.194  -9.707   3.458  1.00  0.00     0.010 A 
ATOM     36  C   UNL     1      -1.444 -10.992   2.952  1.00  0.00    -0.014 A 
BRANCH  36  37
ATOM     37  C   UNL     1      -1.403 -12.157   3.869  1.00  0.00     0.031 A 
ATOM     38  C   UNL     1      -2.401 -12.273   4.986  1.00  0.00     0.074 A 
ATOM     39  C   UNL     1      -0.426 -13.074   3.736  1.00  0.00     0.049 A 
ATOM     40  N   UNL     1      -2.487 -13.179   5.926  1.00  0.00    -0.248 NA
ATOM     41  C   UNL     1      -3.419 -11.215   5.074  1.00  0.00     0.031 C 
ATOM     42  C   UNL     1       0.632 -13.046   2.724  1.00  0.00     0.029 A 
ATOM     43  N   UNL     1      -0.158 -14.206   4.464  1.00  0.00    -0.354 N 
ATOM     44  C   UNL     1      -3.557 -12.792   6.724  1.00  0.00     0.074 A 
ATOM     45  C   UNL     1      -4.053 -11.543   6.190  1.00  0.00     0.031 C 
ATOM     46  C   UNL     1       1.418 -14.123   2.879  1.00  0.00     0.029 A 
ATOM     47  C   UNL     1       0.942 -14.899   4.020  1.00  0.00     0.049 A 
ATOM     48  H   UNL     1      -0.702 -14.494   5.232  1.00  0.00     0.167 HD
ATOM     49  C   UNL     1      -4.093 -13.434   7.789  1.00  0.00     0.037 A 
ATOM     50  C   UNL     1       1.504 -16.031   4.484  1.00  0.00     0.037 A 
ATOM     51  C   UNL     1      -3.613 -14.689   8.303  1.00  0.00     0.049 A 
ATOM     52  C   UNL     1       0.891 -16.723   5.669  1.00  0.00     0.074 A 
ATOM     53  C   UNL     1      -4.124 -15.449   9.340  1.00  0.00     0.029 A 
ATOM     54  N   UNL     1      -2.506 -15.369   7.815  1.00  0.00    -0.354 N 
ATOM     55  N   UNL     1      -0.161 -16.383   6.372  1.00  0.00    -0.248 NA
ATOM     56  C   UNL     1       1.543 -17.961   6.121  1.00  0.00     0.031 C 
ATOM     57  C   UNL     1      -3.304 -16.571   9.505  1.00  0.00     0.029 A 
ATOM     58  C   UNL     1      -2.308 -16.531   8.543  1.00  0.00     0.049 A 
ATOM     59  H   UNL     1      -1.945 -15.070   7.064  1.00  0.00     0.167 HD
ATOM     60  C   UNL     1      -0.315 -17.375   7.331  1.00  0.00     0.074 A 
ATOM     61  C   UNL     1       0.745 -18.337   7.111  1.00  0.00     0.031 C 
ATOM     62  C   UNL     1      -1.251 -17.481   8.306  1.00  0.00     0.037 A 
BRANCH  49  63
ATOM     63  C   UNL     1      -5.266 -12.784   8.463  1.00  0.00     0.057 A 
ATOM     64  C   UNL     1      -6.523 -12.712   7.848  1.00  0.00     0.134 A 
ATOM     65  C   UNL     1      -5.144 -12.242   9.748  1.00  0.00     0.134 A 
ATOM     66  F   UNL     1      -6.703 -13.200   6.611  1.00  0.00    -0.206 F 
ATOM     67  C   UNL     1      -7.608 -12.096   8.473  1.00  0.00     0.040 A 
ATOM     68  C   UNL     1      -6.229 -11.647  10.395  1.00  0.00     0.040 A 
ATOM     69  F   UNL     1      -3.971 -12.282  10.397  1.00  0.00    -0.206 F 
ATOM     70  C   UNL     1      -7.464 -11.566   9.753  1.00  0.00     0.006 A 
ENDBRANCH  49  63
BRANCH  50  71
ATOM     71  C   UNL     1       2.694 -16.601   3.805  1.00  0.00     0.057 A 
ATOM     72  C   UNL     1       2.598 -17.777   3.053  1.00  0.00     0.134 A 
ATOM     73  C   UNL     1       3.950 -15.990   3.890  1.00  0.00     0.134 A 
ATOM     74  F   UNL     1       1.423 -18.417   2.949  1.00  0.00    -0.206 F 
ATOM     75  C   UNL     1       3.711 -18.337   2.424  1.00  0.00     0.040 A 
ATOM     76  C   UNL     1       5.068 -16.526   3.248  1.00  0.00     0.040 A 
ATOM     77  F   UNL     1       4.106 -14.856   4.589  1.00  0.00    -0.206 F 
ATOM     78  C   UNL     1       4.950 -17.707   2.518  1.00  0.00     0.006 A 
ENDBRANCH  50  71
BRANCH  62  79
ATOM     79  C   UNL     1      -1.189 -18.694   9.186  1.00  0.00     0.057 A 
ATOM     80  C   UNL     1      -0.202 -18.846  10.167  1.00  0.00     0.134 A 
ATOM     81  C   UNL     1      -2.154 -19.704   9.074  1.00  0.00     0.134 A 
ATOM     82  F   UNL     1       0.758 -17.920  10.315  1.00  0.00    -0.206 F 
ATOM     83  C   UNL     1      -0.164 -19.970  10.993  1.00  0.00     0.040 A 
ATOM     84  C   UNL     1      -2.140 -20.820   9.911  1.00  0.00     0.040 A 
ATOM     85  F   UNL     1      -3.131 -19.615   8.159  1.00  0.00    -0.206 F 
ATOM     86  C   UNL     1      -1.139 -20.957  10.871  1.00  0.00     0.006 A 
ENDBRANCH  62  79
ENDBRANCH  36  37
ENDBRANCH  28  31
ENDBRANCH  26  27
ENDBRANCH  25  26
ENDBRANCH  24  25
ENDBRANCH   1  24
TORSDOF 16
