REMARK SMILES NS(=O)(=O)c1ccc(/N=N/c2ccc(O)c(C(=O)NCCCCNC(=O)c3ccc(-c4c5nc(c(-c6c(F)cccc6F)c6ccc([nH]6)c(-c6c(F)cccc6F)c6nc(c(-c7c(F)cccc7F)c7ccc4[nH]7)C=C6)C=C5)cc3)c2)cc1
REMARK SMILES IDX 20 1 19 2 17 3 18 4 16 6 11 7 12 8 81 9 13 10 14 11 10 12
REMARK SMILES IDX 9 13 8 14 5 15 6 16 83 17 7 18 82 19 2 20 3 21 4 22 1 23
REMARK SMILES IDX 15 26 21 28 22 29 23 30 24 31 25 32 26 34 27 35 28 36 80 37
REMARK SMILES IDX 29 38 79 39 30 40 31 41 32 42 73 43 33 44 78 45 72 46 74 47
REMARK SMILES IDX 34 48 77 49 71 50 70 51 35 53 61 54 44 55 60 56 45 57 48 58
REMARK SMILES IDX 59 59 75 60 46 61 47 62 58 64 76 65 49 66 36 67 37 68 42 69
REMARK SMILES IDX 38 70 39 71 41 72 43 73 40 74 62 75 63 76 68 77 64 78 65 79
REMARK SMILES IDX 67 80 69 81 66 82 50 83 51 84 56 85 52 86 53 87 55 88 57 89
REMARK SMILES IDX 54 90
REMARK H PARENT 19 5 1 24 1 25 15 27 24 33 74 52 48 63
REMARK Flexibility Score: inf
ROOT
ATOM      1  C   UNL     1       5.447  -1.131   8.020  1.00  0.00     0.116 C 
ENDROOT
BRANCH   1   2
ATOM      2  N   UNL     1       5.655  -1.297   9.451  1.00  0.00    -0.352 N 
ATOM      3  C   UNL     1       5.041  -0.687  10.524  1.00  0.00     0.255 C 
ATOM      4  O   UNL     1       5.440  -0.928  11.664  1.00  0.00    -0.269 OA
ATOM      5  H   UNL     1       6.349  -1.953   9.693  1.00  0.00     0.163 HD
BRANCH   3   6
ATOM      6  C   UNL     1       3.968   0.325  10.357  1.00  0.00     0.083 A 
ATOM      7  C   UNL     1       2.235   1.336   8.973  1.00  0.00     0.087 A 
ATOM      8  C   UNL     1       2.216   2.442   9.829  1.00  0.00     0.034 A 
ATOM      9  C   UNL     1       3.041   0.241   9.318  1.00  0.00     0.048 A 
ATOM     10  C   UNL     1       3.020   2.468  10.975  1.00  0.00     0.049 A 
ATOM     11  C   UNL     1       3.903   1.420  11.227  1.00  0.00     0.128 A 
BRANCH   7  12
ATOM     12  N   UNL     1       1.513   1.382   7.753  1.00  0.00    -0.151 NA
ATOM     13  N   UNL     1       2.155   0.785   6.858  1.00  0.00    -0.151 NA
BRANCH  13  14
ATOM     14  C   UNL     1       1.613   0.945   5.575  1.00  0.00     0.086 A 
ATOM     15  C   UNL     1       0.844   1.178   2.890  1.00  0.00     0.082 A 
ATOM     16  C   UNL     1       0.918  -0.085   3.481  1.00  0.00     0.024 A 
ATOM     17  C   UNL     1       1.147   2.326   3.628  1.00  0.00     0.024 A 
ATOM     18  C   UNL     1       1.307  -0.195   4.819  1.00  0.00     0.031 A 
ATOM     19  C   UNL     1       1.529   2.205   4.967  1.00  0.00     0.031 A 
BRANCH  15  20
ATOM     20  S   UNL     1       0.426   1.337   1.178  1.00  0.00     0.238 S 
ATOM     21  O   UNL     1       1.068   2.517   0.649  1.00  0.00    -0.207 OA
ATOM     22  O   UNL     1      -0.985   1.078   1.029  1.00  0.00    -0.207 OA
BRANCH  20  23
ATOM     23  N   UNL     1       1.224   0.046   0.456  1.00  0.00    -0.225 NA
ATOM     24  H   UNL     1       1.041   0.052  -0.548  1.00  0.00     0.137 HD
ATOM     25  H   UNL     1       0.887  -0.829   0.857  1.00  0.00     0.137 HD
ENDBRANCH  20  23
ENDBRANCH  15  20
ENDBRANCH  13  14
ENDBRANCH   7  12
BRANCH  11  26
ATOM     26  O   UNL     1       4.689   1.533  12.342  1.00  0.00    -0.507 OA
ATOM     27  H   UNL     1       4.611   2.285  12.896  1.00  0.00     0.293 HD
ENDBRANCH  11  26
ENDBRANCH   3   6
ENDBRANCH   1   2
BRANCH   1  28
ATOM     28  C   UNL     1       6.726  -0.977   7.206  1.00  0.00     0.023 C 
BRANCH  28  29
ATOM     29  C   UNL     1       7.679  -2.165   7.203  1.00  0.00     0.023 C 
BRANCH  29  30
ATOM     30  C   UNL     1       7.061  -3.520   6.881  1.00  0.00     0.116 C 
BRANCH  30  31
ATOM     31  N   UNL     1       6.358  -3.563   5.606  1.00  0.00    -0.352 N 
ATOM     32  C   UNL     1       6.475  -4.459   4.568  1.00  0.00     0.251 C 
ATOM     33  H   UNL     1       5.700  -2.844   5.466  1.00  0.00     0.163 HD
ATOM     34  O   UNL     1       5.837  -4.291   3.534  1.00  0.00    -0.269 OA
BRANCH  32  35
ATOM     35  C   UNL     1       7.408  -5.601   4.681  1.00  0.00     0.039 A 
ATOM     36  C   UNL     1       8.292  -5.855   3.630  1.00  0.00     0.014 A 
ATOM     37  C   UNL     1       7.444  -6.390   5.833  1.00  0.00     0.014 A 
ATOM     38  C   UNL     1       9.275  -6.837   3.774  1.00  0.00     0.010 A 
ATOM     39  C   UNL     1       8.476  -7.306   6.010  1.00  0.00     0.010 A 
ATOM     40  C   UNL     1       9.408  -7.534   4.986  1.00  0.00    -0.014 A 
BRANCH  40  41
ATOM     41  C   UNL     1      10.526  -8.488   5.209  1.00  0.00     0.031 A 
ATOM     42  C   UNL     1      10.242  -9.940   5.475  1.00  0.00     0.074 A 
ATOM     43  C   UNL     1      11.794  -8.032   5.248  1.00  0.00     0.049 A 
ATOM     44  N   UNL     1      11.076 -10.907   5.764  1.00  0.00    -0.248 NA
ATOM     45  C   UNL     1       8.830 -10.355   5.442  1.00  0.00     0.031 C 
ATOM     46  C   UNL     1      12.200  -6.637   5.063  1.00  0.00     0.029 A 
ATOM     47  N   UNL     1      12.977  -8.694   5.468  1.00  0.00    -0.354 N 
ATOM     48  C   UNL     1      10.291 -12.036   5.960  1.00  0.00     0.074 A 
ATOM     49  C   UNL     1       8.912 -11.623   5.815  1.00  0.00     0.031 C 
ATOM     50  C   UNL     1      13.537  -6.552   5.150  1.00  0.00     0.029 A 
ATOM     51  C   UNL     1      14.081  -7.876   5.436  1.00  0.00     0.049 A 
ATOM     52  H   UNL     1      13.029  -9.663   5.633  1.00  0.00     0.167 HD
ATOM     53  C   UNL     1      10.684 -13.307   6.212  1.00  0.00     0.037 A 
ATOM     54  C   UNL     1      15.384  -8.159   5.622  1.00  0.00     0.037 A 
ATOM     55  C   UNL     1      12.057 -13.721   6.332  1.00  0.00     0.049 A 
ATOM     56  C   UNL     1      15.795  -9.578   5.905  1.00  0.00     0.074 A 
ATOM     57  C   UNL     1      12.560 -14.997   6.524  1.00  0.00     0.029 A 
ATOM     58  N   UNL     1      13.148 -12.867   6.274  1.00  0.00    -0.354 N 
ATOM     59  N   UNL     1      15.047 -10.649   6.014  1.00  0.00    -0.248 NA
ATOM     60  C   UNL     1      17.232  -9.829   6.085  1.00  0.00     0.031 C 
ATOM     61  C   UNL     1      13.952 -14.908   6.627  1.00  0.00     0.029 A 
ATOM     62  C   UNL     1      14.320 -13.584   6.448  1.00  0.00     0.049 A 
ATOM     63  H   UNL     1      13.097 -11.894   6.129  1.00  0.00     0.167 HD
ATOM     64  C   UNL     1      15.922 -11.703   6.246  1.00  0.00     0.074 A 
ATOM     65  C   UNL     1      17.258 -11.144   6.247  1.00  0.00     0.031 C 
ATOM     66  C   UNL     1      15.644 -13.015   6.440  1.00  0.00     0.037 A 
BRANCH  53  67
ATOM     67  C   UNL     1       9.610 -14.345   6.368  1.00  0.00     0.057 A 
ATOM     68  C   UNL     1       8.833 -14.772   5.283  1.00  0.00     0.134 A 
ATOM     69  C   UNL     1       9.370 -14.946   7.609  1.00  0.00     0.134 A 
ATOM     70  F   UNL     1       9.003 -14.228   4.068  1.00  0.00    -0.206 F 
ATOM     71  C   UNL     1       7.837 -15.739   5.432  1.00  0.00     0.040 A 
ATOM     72  C   UNL     1       8.396 -15.935   7.766  1.00  0.00     0.040 A 
ATOM     73  F   UNL     1      10.081 -14.589   8.689  1.00  0.00    -0.206 F 
ATOM     74  C   UNL     1       7.621 -16.328   6.676  1.00  0.00     0.006 A 
ENDBRANCH  53  67
BRANCH  54  75
ATOM     75  C   UNL     1      16.403  -7.083   5.524  1.00  0.00     0.057 A 
ATOM     76  C   UNL     1      17.308  -7.042   4.456  1.00  0.00     0.134 A 
ATOM     77  C   UNL     1      16.506  -6.079   6.494  1.00  0.00     0.134 A 
ATOM     78  F   UNL     1      17.272  -7.987   3.505  1.00  0.00    -0.206 F 
ATOM     79  C   UNL     1      18.291  -6.056   4.367  1.00  0.00     0.040 A 
ATOM     80  C   UNL     1      17.468  -5.072   6.405  1.00  0.00     0.040 A 
ATOM     81  F   UNL     1      15.664  -6.057   7.538  1.00  0.00    -0.206 F 
ATOM     82  C   UNL     1      18.370  -5.063   5.342  1.00  0.00     0.006 A 
ENDBRANCH  54  75
BRANCH  66  83
ATOM     83  C   UNL     1      16.807 -13.943   6.634  1.00  0.00     0.057 A 
ATOM     84  C   UNL     1      17.563 -13.947   7.813  1.00  0.00     0.134 A 
ATOM     85  C   UNL     1      17.151 -14.870   5.641  1.00  0.00     0.134 A 
ATOM     86  F   UNL     1      17.294 -13.075   8.796  1.00  0.00    -0.206 F 
ATOM     87  C   UNL     1      18.634 -14.825   7.989  1.00  0.00     0.040 A 
ATOM     88  C   UNL     1      18.202 -15.771   5.817  1.00  0.00     0.040 A 
ATOM     89  F   UNL     1      16.462 -14.925   4.492  1.00  0.00    -0.206 F 
ATOM     90  C   UNL     1      18.951 -15.746   6.992  1.00  0.00     0.006 A 
ENDBRANCH  66  83
ENDBRANCH  40  41
ENDBRANCH  32  35
ENDBRANCH  30  31
ENDBRANCH  29  30
ENDBRANCH  28  29
ENDBRANCH   1  28
TORSDOF 16
