REMARK SMILES CCc1ccc2c(CC(=O)NCCCCNC(=O)c3ccc(-c4c5nc(c(-c6c(F)cccc6F)c6ccc([nH]6)c(-c6c(F)cccc6F)c6nc(c(-c7c(F)cccc7F)c7ccc4[nH]7)C=C6)C=C5)cc3)c(C(=O)c3cc(C)ccn3)[nH]c2c1
REMARK SMILES IDX 13 1 12 2 11 3 9 4 10 5 8 7 7 8 3 9 4 10 85 11 5 12 84 13
REMARK SMILES IDX 6 14 83 15 73 16 2 18 1 19 74 20 75 21 76 22 77 23 82 24
REMARK SMILES IDX 78 25 81 26 79 27 80 28 14 29 15 30 16 31 17 32 18 34 19 35
REMARK SMILES IDX 20 36 72 37 21 38 71 39 22 40 23 41 24 42 65 43 25 44 70 45
REMARK SMILES IDX 64 46 66 47 26 48 69 49 63 50 62 51 27 53 53 54 36 55 52 56
REMARK SMILES IDX 37 57 40 58 51 59 67 60 38 61 39 62 50 64 68 65 41 66 28 67
REMARK SMILES IDX 29 68 34 69 30 70 31 71 33 72 35 73 32 74 54 75 55 76 60 77
REMARK SMILES IDX 56 78 57 79 59 80 61 81 58 82 42 83 43 84 48 85 44 86 45 87
REMARK SMILES IDX 47 88 49 89 46 90
REMARK H PARENT 11 6 83 17 16 33 66 52 40 63
REMARK Flexibility Score: inf
ROOT
ATOM      1  C   UNL     1      -0.583   3.801   5.935  1.00  0.00     0.023 C 
ENDROOT
BRANCH   1   2
ATOM      2  C   UNL     1      -0.748   5.123   5.187  1.00  0.00     0.116 C 
BRANCH   2   3
ATOM      3  N   UNL     1       0.044   6.190   5.760  1.00  0.00    -0.356 N 
ATOM      4  C   UNL     1       1.208   6.749   5.313  1.00  0.00     0.224 C 
ATOM      5  O   UNL     1       1.572   7.786   5.875  1.00  0.00    -0.275 OA
ATOM      6  H   UNL     1      -0.309   6.570   6.597  1.00  0.00     0.163 HD
BRANCH   4   7
ATOM      7  C   UNL     1       1.942   6.206   4.090  1.00  0.00     0.138 C 
BRANCH   7   8
ATOM      8  C   UNL     1       2.328   4.751   4.161  1.00  0.00    -0.002 A 
ATOM      9  C   UNL     1       1.113   1.276   2.079  1.00  0.00    -0.046 A 
ATOM     10  C   UNL     1       0.600   2.486   1.601  1.00  0.00     0.004 A 
ATOM     11  C   UNL     1       2.004   1.277   3.166  1.00  0.00     0.030 A 
ATOM     12  C   UNL     1       0.956   3.704   2.188  1.00  0.00     0.011 A 
ATOM     13  C   UNL     1       2.342   2.508   3.747  1.00  0.00     0.046 A 
ATOM     14  C   UNL     1       1.832   3.719   3.294  1.00  0.00     0.004 A 
ATOM     15  N   UNL     1       3.163   2.794   4.812  1.00  0.00    -0.352 N 
ATOM     16  C   UNL     1       3.236   4.154   5.039  1.00  0.00     0.093 A 
ATOM     17  H   UNL     1       3.638   2.115   5.345  1.00  0.00     0.167 HD
BRANCH   9  18
ATOM     18  C   UNL     1       0.691  -0.026   1.438  1.00  0.00     0.032 C 
ATOM     19  C   UNL     1       1.157  -0.150  -0.006  1.00  0.00     0.009 C 
ENDBRANCH   9  18
BRANCH  16  20
ATOM     20  C   UNL     1       4.083   4.806   6.033  1.00  0.00     0.227 C 
ATOM     21  O   UNL     1       4.156   6.028   6.153  1.00  0.00    -0.285 OA
BRANCH  20  22
ATOM     22  C   UNL     1       4.950   3.985   6.920  1.00  0.00     0.113 A 
ATOM     23  C   UNL     1       6.002   3.251   6.378  1.00  0.00     0.036 A 
ATOM     24  N   UNL     1       4.684   4.057   8.248  1.00  0.00    -0.253 NA
ATOM     25  C   UNL     1       6.835   2.546   7.250  1.00  0.00    -0.047 A 
ATOM     26  C   UNL     1       5.525   3.397   9.069  1.00  0.00     0.112 A 
ATOM     27  C   UNL     1       7.997   1.747   6.742  1.00  0.00     0.044 C 
ATOM     28  C   UNL     1       6.596   2.637   8.624  1.00  0.00     0.023 A 
ENDBRANCH  20  22
ENDBRANCH  16  20
ENDBRANCH   7   8
ENDBRANCH   4   7
ENDBRANCH   2   3
ENDBRANCH   1   2
BRANCH   1  29
ATOM     29  C   UNL     1      -1.173   3.775   7.348  1.00  0.00     0.023 C 
BRANCH  29  30
ATOM     30  C   UNL     1      -2.651   4.133   7.454  1.00  0.00     0.116 C 
BRANCH  30  31
ATOM     31  N   UNL     1      -3.511   3.295   6.635  1.00  0.00    -0.352 N 
ATOM     32  C   UNL     1      -4.791   2.863   6.880  1.00  0.00     0.251 C 
ATOM     33  H   UNL     1      -3.119   2.993   5.784  1.00  0.00     0.163 HD
ATOM     34  O   UNL     1      -5.330   2.077   6.104  1.00  0.00    -0.269 OA
BRANCH  32  35
ATOM     35  C   UNL     1      -5.512   3.304   8.095  1.00  0.00     0.039 A 
ATOM     36  C   UNL     1      -6.224   2.350   8.828  1.00  0.00     0.014 A 
ATOM     37  C   UNL     1      -5.503   4.639   8.511  1.00  0.00     0.014 A 
ATOM     38  C   UNL     1      -6.873   2.720  10.008  1.00  0.00     0.010 A 
ATOM     39  C   UNL     1      -6.100   4.995   9.719  1.00  0.00     0.010 A 
ATOM     40  C   UNL     1      -6.790   4.039  10.479  1.00  0.00    -0.014 A 
BRANCH  40  41
ATOM     41  C   UNL     1      -7.414   4.426  11.769  1.00  0.00     0.031 A 
ATOM     42  C   UNL     1      -8.582   5.371  11.797  1.00  0.00     0.074 A 
ATOM     43  C   UNL     1      -6.902   3.955  12.922  1.00  0.00     0.049 A 
ATOM     44  N   UNL     1      -9.241   5.840  12.826  1.00  0.00    -0.248 NA
ATOM     45  C   UNL     1      -9.061   5.871  10.498  1.00  0.00     0.031 C 
ATOM     46  C   UNL     1      -5.743   3.067  13.034  1.00  0.00     0.029 A 
ATOM     47  N   UNL     1      -7.290   4.159  14.222  1.00  0.00    -0.354 N 
ATOM     48  C   UNL     1     -10.204   6.693  12.303  1.00  0.00     0.074 A 
ATOM     49  C   UNL     1     -10.015   6.714  10.868  1.00  0.00     0.031 C 
ATOM     50  C   UNL     1      -5.532   2.781  14.329  1.00  0.00     0.029 A 
ATOM     51  C   UNL     1      -6.521   3.485  15.139  1.00  0.00     0.049 A 
ATOM     52  H   UNL     1      -8.049   4.734  14.474  1.00  0.00     0.167 HD
ATOM     53  C   UNL     1     -11.173   7.378  12.955  1.00  0.00     0.037 A 
ATOM     54  C   UNL     1      -6.609   3.435  16.481  1.00  0.00     0.037 A 
ATOM     55  C   UNL     1     -11.378   7.343  14.379  1.00  0.00     0.049 A 
ATOM     56  C   UNL     1      -7.698   4.200  17.179  1.00  0.00     0.074 A 
ATOM     57  C   UNL     1     -12.357   7.974  15.127  1.00  0.00     0.029 A 
ATOM     58  N   UNL     1     -10.590   6.632  15.271  1.00  0.00    -0.354 N 
ATOM     59  N   UNL     1      -8.635   4.958  16.665  1.00  0.00    -0.248 NA
ATOM     60  C   UNL     1      -7.745   4.094  18.644  1.00  0.00     0.031 C 
ATOM     61  C   UNL     1     -12.147   7.664  16.476  1.00  0.00     0.029 A 
ATOM     62  C   UNL     1     -11.056   6.815  16.563  1.00  0.00     0.049 A 
ATOM     63  H   UNL     1      -9.813   6.080  15.024  1.00  0.00     0.167 HD
ATOM     64  C   UNL     1      -9.399   5.397  17.738  1.00  0.00     0.074 A 
ATOM     65  C   UNL     1      -8.823   4.810  18.931  1.00  0.00     0.031 C 
ATOM     66  C   UNL     1     -10.480   6.213  17.736  1.00  0.00     0.037 A 
BRANCH  53  67
ATOM     67  C   UNL     1     -12.100   8.215  12.126  1.00  0.00     0.057 A 
ATOM     68  C   UNL     1     -13.087   7.634  11.319  1.00  0.00     0.134 A 
ATOM     69  C   UNL     1     -12.030   9.613  12.158  1.00  0.00     0.134 A 
ATOM     70  F   UNL     1     -13.197   6.300  11.236  1.00  0.00    -0.206 F 
ATOM     71  C   UNL     1     -13.959   8.414  10.558  1.00  0.00     0.040 A 
ATOM     72  C   UNL     1     -12.910  10.404  11.418  1.00  0.00     0.040 A 
ATOM     73  F   UNL     1     -11.110  10.232  12.913  1.00  0.00    -0.206 F 
ATOM     74  C   UNL     1     -13.876   9.803  10.611  1.00  0.00     0.006 A 
ENDBRANCH  53  67
BRANCH  54  75
ATOM     75  C   UNL     1      -5.660   2.602  17.258  1.00  0.00     0.057 A 
ATOM     76  C   UNL     1      -6.081   1.413  17.866  1.00  0.00     0.134 A 
ATOM     77  C   UNL     1      -4.323   2.978  17.428  1.00  0.00     0.134 A 
ATOM     78  F   UNL     1      -7.356   1.013  17.754  1.00  0.00    -0.206 F 
ATOM     79  C   UNL     1      -5.212   0.638  18.634  1.00  0.00     0.040 A 
ATOM     80  C   UNL     1      -3.437   2.201  18.176  1.00  0.00     0.040 A 
ATOM     81  F   UNL     1      -3.859   4.103  16.866  1.00  0.00    -0.206 F 
ATOM     82  C   UNL     1      -3.883   1.031  18.788  1.00  0.00     0.006 A 
ENDBRANCH  54  75
BRANCH  66  83
ATOM     83  C   UNL     1     -11.129   6.487  19.059  1.00  0.00     0.057 A 
ATOM     84  C   UNL     1     -10.551   7.348  20.000  1.00  0.00     0.134 A 
ATOM     85  C   UNL     1     -12.358   5.900  19.384  1.00  0.00     0.134 A 
ATOM     86  F   UNL     1      -9.367   7.929  19.752  1.00  0.00    -0.206 F 
ATOM     87  C   UNL     1     -11.163   7.599  21.229  1.00  0.00     0.040 A 
ATOM     88  C   UNL     1     -12.989   6.159  20.601  1.00  0.00     0.040 A 
ATOM     89  F   UNL     1     -12.966   5.069  18.523  1.00  0.00    -0.206 F 
ATOM     90  C   UNL     1     -12.389   7.007  21.529  1.00  0.00     0.006 A 
ENDBRANCH  66  83
ENDBRANCH  40  41
ENDBRANCH  32  35
ENDBRANCH  30  31
ENDBRANCH  29  30
ENDBRANCH   1  29
TORSDOF 15
