REMARK SMILES CS(=O)(=O)c1ccc(C2=NN(c3ccc(C(=O)NCCCCNC(=O)c4ccc(-c5c6nc(c(-c7c(F)cccc7F)c7ccc([nH]7)c(-c7c(F)cccc7F)c7nc(c(-c8c(F)cccc8F)c8ccc5[nH]8)C=C7)C=C6)cc4)cc3)[C@H](c3ccc(F)cc3)C2)cc1
REMARK SMILES IDX 20 1 19 2 18 3 16 4 17 5 15 7 12 8 13 9 81 10 14 11 80 12
REMARK SMILES IDX 11 13 9 14 10 15 90 16 82 17 8 18 5 19 6 20 92 21 7 22 91 23
REMARK SMILES IDX 2 24 1 25 3 26 4 27 83 28 84 29 89 30 85 31 88 32 86 33
REMARK SMILES IDX 87 34 21 35 22 36 23 37 24 38 25 40 26 41 27 42 79 43 28 44
REMARK SMILES IDX 78 45 29 46 30 47 31 48 72 49 32 50 77 51 71 52 73 53 33 54
REMARK SMILES IDX 76 55 70 56 69 57 34 59 60 60 43 61 59 62 44 63 47 64 58 65
REMARK SMILES IDX 74 66 45 67 46 68 57 70 75 71 48 72 35 73 36 74 41 75 37 76
REMARK SMILES IDX 38 77 40 78 42 79 39 80 61 81 62 82 67 83 63 84 64 85 66 86
REMARK SMILES IDX 68 87 65 88 49 89 50 90 55 91 51 92 52 93 54 94 56 95 53 96
REMARK H PARENT 18 6 23 39 73 58 47 69
REMARK Flexibility Score: inf
ROOT
ATOM      1  C   UNL     1       8.486  10.385  -7.657  1.00  0.00     0.023 C 
ENDROOT
BRANCH   1   2
ATOM      2  C   UNL     1       7.227  11.232  -7.454  1.00  0.00     0.116 C 
BRANCH   2   3
ATOM      3  N   UNL     1       6.289  11.030  -8.543  1.00  0.00    -0.352 N 
ATOM      4  C   UNL     1       5.148  10.267  -8.614  1.00  0.00     0.251 C 
ATOM      5  O   UNL     1       4.473  10.313  -9.641  1.00  0.00    -0.269 OA
ATOM      6  H   UNL     1       6.506  11.521  -9.368  1.00  0.00     0.163 HD
BRANCH   4   7
ATOM      7  C   UNL     1       4.676   9.458  -7.461  1.00  0.00     0.039 A 
ATOM      8  C   UNL     1       3.680   8.160  -5.174  1.00  0.00     0.060 A 
ATOM      9  C   UNL     1       2.804   8.749  -6.090  1.00  0.00     0.029 A 
ATOM     10  C   UNL     1       5.043   8.138  -5.469  1.00  0.00     0.029 A 
ATOM     11  C   UNL     1       3.296   9.393  -7.230  1.00  0.00     0.016 A 
ATOM     12  C   UNL     1       5.536   8.765  -6.609  1.00  0.00     0.016 A 
BRANCH   8  13
ATOM     13  N   UNL     1       3.237   7.609  -3.989  1.00  0.00    -0.257 N 
ATOM     14  C   UNL     1       2.297   6.103  -2.843  1.00  0.00     0.071 C 
ATOM     15  N   UNL     1       2.954   6.293  -3.942  1.00  0.00    -0.176 NA
ATOM     16  C   UNL     1       2.030   7.335  -2.019  1.00  0.00     0.091 C 
ATOM     17  C   UNL     1       2.881   8.366  -2.788  1.00  0.00     0.144 C 
BRANCH  14  18
ATOM     18  C   UNL     1       1.825   4.765  -2.457  1.00  0.00    -0.002 A 
ATOM     19  C   UNL     1       0.950   2.183  -1.926  1.00  0.00     0.067 A 
ATOM     20  C   UNL     1       2.215   2.375  -2.485  1.00  0.00     0.021 A 
ATOM     21  C   UNL     1       0.114   3.271  -1.641  1.00  0.00     0.021 A 
ATOM     22  C   UNL     1       2.648   3.671  -2.755  1.00  0.00     0.011 A 
ATOM     23  C   UNL     1       0.559   4.571  -1.897  1.00  0.00     0.011 A 
BRANCH  19  24
ATOM     24  S   UNL     1       0.370   0.526  -1.645  1.00  0.00     0.175 S 
ATOM     25  C   UNL     1       1.003   0.148  -0.032  1.00  0.00     0.163 C 
ATOM     26  O   UNL     1       1.038  -0.337  -2.605  1.00  0.00    -0.224 OA
ATOM     27  O   UNL     1      -1.074   0.575  -1.564  1.00  0.00    -0.224 OA
ENDBRANCH  19  24
ENDBRANCH  14  18
BRANCH  17  28
ATOM     28  C   UNL     1       4.137   8.921  -2.109  1.00  0.00    -0.023 A 
ATOM     29  C   UNL     1       4.736   8.355  -0.971  1.00  0.00     0.009 A 
ATOM     30  C   UNL     1       4.763  10.051  -2.684  1.00  0.00     0.009 A 
ATOM     31  C   UNL     1       5.906   8.903  -0.428  1.00  0.00     0.039 A 
ATOM     32  C   UNL     1       5.946  10.577  -2.161  1.00  0.00     0.039 A 
ATOM     33  C   UNL     1       6.504  10.001  -1.032  1.00  0.00     0.123 A 
ATOM     34  F   UNL     1       7.636  10.503  -0.522  1.00  0.00    -0.207 F 
ENDBRANCH  17  28
ENDBRANCH   8  13
ENDBRANCH   4   7
ENDBRANCH   2   3
ENDBRANCH   1   2
BRANCH   1  35
ATOM     35  C   UNL     1       9.444  10.935  -8.710  1.00  0.00     0.023 C 
BRANCH  35  36
ATOM     36  C   UNL     1      10.044  12.290  -8.369  1.00  0.00     0.116 C 
BRANCH  36  37
ATOM     37  N   UNL     1      10.828  12.283  -7.141  1.00  0.00    -0.352 N 
ATOM     38  C   UNL     1      11.988  12.975  -6.883  1.00  0.00     0.251 C 
ATOM     39  H   UNL     1      10.488  11.716  -6.412  1.00  0.00     0.163 HD
ATOM     40  O   UNL     1      12.614  12.805  -5.844  1.00  0.00    -0.269 OA
BRANCH  38  41
ATOM     41  C   UNL     1      12.485  13.903  -7.916  1.00  0.00     0.039 A 
ATOM     42  C   UNL     1      13.770  13.724  -8.431  1.00  0.00     0.014 A 
ATOM     43  C   UNL     1      11.625  14.867  -8.448  1.00  0.00     0.014 A 
ATOM     44  C   UNL     1      14.168  14.463  -9.545  1.00  0.00     0.010 A 
ATOM     45  C   UNL     1      11.994  15.541  -9.602  1.00  0.00     0.010 A 
ATOM     46  C   UNL     1      13.265  15.342 -10.167  1.00  0.00    -0.014 A 
BRANCH  46  47
ATOM     47  C   UNL     1      13.608  16.073 -11.411  1.00  0.00     0.031 A 
ATOM     48  C   UNL     1      13.629  17.575 -11.401  1.00  0.00     0.074 A 
ATOM     49  C   UNL     1      13.787  15.399 -12.563  1.00  0.00     0.049 A 
ATOM     50  N   UNL     1      13.735  18.409 -12.402  1.00  0.00    -0.248 NA
ATOM     51  C   UNL     1      13.473  18.225 -10.089  1.00  0.00     0.031 C 
ATOM     52  C   UNL     1      13.766  13.942 -12.709  1.00  0.00     0.029 A 
ATOM     53  N   UNL     1      14.000  15.856 -13.840  1.00  0.00    -0.354 N 
ATOM     54  C   UNL     1      13.627  19.677 -11.847  1.00  0.00     0.074 A 
ATOM     55  C   UNL     1      13.401  19.502 -10.429  1.00  0.00     0.031 C 
ATOM     56  C   UNL     1      13.975  13.626 -13.997  1.00  0.00     0.029 A 
ATOM     57  C   UNL     1      14.091  14.854 -14.777  1.00  0.00     0.049 A 
ATOM     58  H   UNL     1      14.079  16.811 -14.064  1.00  0.00     0.167 HD
ATOM     59  C   UNL     1      13.721  20.879 -12.463  1.00  0.00     0.037 A 
ATOM     60  C   UNL     1      14.233  14.921 -16.115  1.00  0.00     0.037 A 
ATOM     61  C   UNL     1      13.975  21.044 -13.869  1.00  0.00     0.049 A 
ATOM     62  C   UNL     1      14.305  16.269 -16.779  1.00  0.00     0.074 A 
ATOM     63  C   UNL     1      14.159  22.218 -14.577  1.00  0.00     0.029 A 
ATOM     64  N   UNL     1      14.075  20.004 -14.781  1.00  0.00    -0.354 N 
ATOM     65  N   UNL     1      14.262  17.462 -16.237  1.00  0.00    -0.248 NA
ATOM     66  C   UNL     1      14.440  16.282 -18.243  1.00  0.00     0.031 C 
ATOM     67  C   UNL     1      14.312  21.892 -15.928  1.00  0.00     0.029 A 
ATOM     68  C   UNL     1      14.288  20.511 -16.051  1.00  0.00     0.049 A 
ATOM     69  H   UNL     1      14.005  19.047 -14.558  1.00  0.00     0.167 HD
ATOM     70  C   UNL     1      14.410  18.363 -17.284  1.00  0.00     0.074 A 
ATOM     71  C   UNL     1      14.540  17.579 -18.495  1.00  0.00     0.031 C 
ATOM     72  C   UNL     1      14.442  19.717 -17.244  1.00  0.00     0.037 A 
BRANCH  59  73
ATOM     73  C   UNL     1      13.535  22.107 -11.620  1.00  0.00     0.057 A 
ATOM     74  C   UNL     1      14.468  22.493 -10.649  1.00  0.00     0.134 A 
ATOM     75  C   UNL     1      12.416  22.930 -11.802  1.00  0.00     0.134 A 
ATOM     76  F   UNL     1      15.556  21.743 -10.414  1.00  0.00    -0.206 F 
ATOM     77  C   UNL     1      14.279  23.634  -9.867  1.00  0.00     0.040 A 
ATOM     78  C   UNL     1      12.233  24.091 -11.049  1.00  0.00     0.040 A 
ATOM     79  F   UNL     1      11.486  22.624 -12.719  1.00  0.00    -0.206 F 
ATOM     80  C   UNL     1      13.162  24.441 -10.072  1.00  0.00     0.006 A 
ENDBRANCH  59  73
BRANCH  60  81
ATOM     81  C   UNL     1      14.337  13.676 -16.919  1.00  0.00     0.057 A 
ATOM     82  C   UNL     1      15.539  13.327 -17.546  1.00  0.00     0.134 A 
ATOM     83  C   UNL     1      13.247  12.815 -17.093  1.00  0.00     0.134 A 
ATOM     84  F   UNL     1      16.614  14.121 -17.432  1.00  0.00    -0.206 F 
ATOM     85  C   UNL     1      15.649  12.180 -18.333  1.00  0.00     0.040 A 
ATOM     86  C   UNL     1      13.350  11.650 -17.856  1.00  0.00     0.040 A 
ATOM     87  F   UNL     1      12.068  13.088 -16.515  1.00  0.00    -0.206 F 
ATOM     88  C   UNL     1      14.552  11.334 -18.485  1.00  0.00     0.006 A 
ENDBRANCH  60  81
BRANCH  72  89
ATOM     89  C   UNL     1      14.690  20.448 -18.531  1.00  0.00     0.057 A 
ATOM     90  C   UNL     1      13.715  20.550 -19.530  1.00  0.00     0.134 A 
ATOM     91  C   UNL     1      15.900  21.125 -18.736  1.00  0.00     0.134 A 
ATOM     92  F   UNL     1      12.540  19.916 -19.402  1.00  0.00    -0.206 F 
ATOM     93  C   UNL     1      13.938  21.292 -20.692  1.00  0.00     0.040 A 
ATOM     94  C   UNL     1      16.124  21.892 -19.879  1.00  0.00     0.040 A 
ATOM     95  F   UNL     1      16.873  21.074 -17.813  1.00  0.00    -0.206 F 
ATOM     96  C   UNL     1      15.141  21.975 -20.862  1.00  0.00     0.006 A 
ENDBRANCH  72  89
ENDBRANCH  46  47
ENDBRANCH  38  41
ENDBRANCH  36  37
ENDBRANCH  35  36
ENDBRANCH   1  35
TORSDOF 15
