REMARK SMILES CC(C)(C)OC(=O)C1=C(C(=O)NCCCCNC(=O)c2ccc(-c3c4nc(c(-c5c(F)cccc5F)c5ccc([nH]5)c(-c5c(F)cccc5F)c5nc(c(-c6c(F)cccc6F)c6ccc3[nH]6)C=C5)C=C4)cc2)C[C@@H]([NH3+])C=C1
REMARK SMILES IDX 14 1 13 2 12 3 10 4 11 5 9 7 8 8 78 9 74 10 77 11 75 12 6 13
REMARK SMILES IDX 7 14 5 15 2 16 1 17 3 18 4 19 76 20 15 24 16 25 17 26 18 27
REMARK SMILES IDX 19 29 20 30 21 31 73 32 22 33 72 34 23 35 24 36 25 37 66 38
REMARK SMILES IDX 26 39 71 40 65 41 67 42 27 43 70 44 64 45 63 46 28 48 54 49
REMARK SMILES IDX 37 50 53 51 38 52 41 53 52 54 68 55 39 56 40 57 51 59 69 60
REMARK SMILES IDX 42 61 29 62 30 63 35 64 31 65 32 66 34 67 36 68 33 69 55 70
REMARK SMILES IDX 56 71 61 72 57 73 58 74 60 75 62 76 59 77 43 78 44 79 49 80
REMARK SMILES IDX 45 81 46 82 48 83 50 84 47 85
REMARK H PARENT 12 6 76 21 76 22 76 23 17 28 67 47 41 58
REMARK Flexibility Score: inf
ROOT
ATOM      1  C   UNL     1      -1.656  -5.096  -7.654  1.00  0.00     0.023 C 
ENDROOT
BRANCH   1   2
ATOM      2  C   UNL     1      -1.713  -3.601  -7.355  1.00  0.00     0.116 C 
BRANCH   2   3
ATOM      3  N   UNL     1      -1.819  -3.310  -5.937  1.00  0.00    -0.352 N 
ATOM      4  C   UNL     1      -0.978  -2.895  -4.954  1.00  0.00     0.248 C 
ATOM      5  O   UNL     1      -1.538  -2.567  -3.905  1.00  0.00    -0.270 OA
ATOM      6  H   UNL     1      -2.734  -3.450  -5.601  1.00  0.00     0.163 HD
BRANCH   4   7
ATOM      7  C   UNL     1       0.509  -2.736  -5.109  1.00  0.00     0.038 C 
ATOM      8  C   UNL     1       1.282  -2.551  -4.010  1.00  0.00     0.068 C 
ATOM      9  C   UNL     1       2.692  -2.201  -4.130  1.00  0.00     0.018 C 
ATOM     10  C   UNL     1       1.121  -2.662  -6.484  1.00  0.00     0.111 C 
ATOM     11  C   UNL     1       3.322  -2.115  -5.307  1.00  0.00     0.038 C 
ATOM     12  C   UNL     1       2.646  -2.408  -6.601  1.00  0.00     0.209 C 
BRANCH   8  13
ATOM     13  C   UNL     1       0.755  -2.705  -2.619  1.00  0.00     0.339 C 
ATOM     14  O   UNL     1       0.347  -3.762  -2.162  1.00  0.00    -0.246 OA
BRANCH  13  15
ATOM     15  O   UNL     1       0.923  -1.527  -1.968  1.00  0.00    -0.456 OA
BRANCH  15  16
ATOM     16  C   UNL     1       0.485  -1.364  -0.596  1.00  0.00     0.104 C 
ATOM     17  C   UNL     1       0.997   0.025  -0.184  1.00  0.00     0.056 C 
ATOM     18  C   UNL     1       1.103  -2.402   0.347  1.00  0.00     0.056 C 
ATOM     19  C   UNL     1      -1.044  -1.372  -0.529  1.00  0.00     0.056 C 
ENDBRANCH  15  16
ENDBRANCH  13  15
ENDBRANCH   8  13
BRANCH  12  20
ATOM     20  N   UNL     1       2.939  -1.327  -7.544  1.00  0.00    -0.352 N 
ATOM     21  H   UNL     1       2.556  -0.452  -7.188  1.00  0.00     0.345 HD
ATOM     22  H   UNL     1       2.517  -1.541  -8.447  1.00  0.00     0.345 HD
ATOM     23  H   UNL     1       3.949  -1.237  -7.654  1.00  0.00     0.345 HD
ENDBRANCH  12  20
ENDBRANCH   4   7
ENDBRANCH   2   3
ENDBRANCH   1   2
BRANCH   1  24
ATOM     24  C   UNL     1      -3.014  -5.806  -7.627  1.00  0.00     0.023 C 
BRANCH  24  25
ATOM     25  C   UNL     1      -4.106  -5.195  -8.505  1.00  0.00     0.116 C 
BRANCH  25  26
ATOM     26  N   UNL     1      -3.709  -4.989  -9.890  1.00  0.00    -0.352 N 
ATOM     27  C   UNL     1      -4.501  -4.987 -11.014  1.00  0.00     0.251 C 
ATOM     28  H   UNL     1      -2.749  -4.831 -10.042  1.00  0.00     0.163 HD
ATOM     29  O   UNL     1      -4.002  -4.860 -12.127  1.00  0.00    -0.269 OA
BRANCH  27  30
ATOM     30  C   UNL     1      -5.958  -5.189 -10.874  1.00  0.00     0.039 A 
ATOM     31  C   UNL     1      -6.572  -6.187 -11.636  1.00  0.00     0.014 A 
ATOM     32  C   UNL     1      -6.703  -4.430  -9.969  1.00  0.00     0.014 A 
ATOM     33  C   UNL     1      -7.921  -6.479 -11.429  1.00  0.00     0.010 A 
ATOM     34  C   UNL     1      -8.032  -4.760  -9.723  1.00  0.00     0.010 A 
ATOM     35  C   UNL     1      -8.650  -5.796 -10.442  1.00  0.00    -0.014 A 
BRANCH  35  36
ATOM     36  C   UNL     1     -10.055  -6.158 -10.135  1.00  0.00     0.031 A 
ATOM     37  C   UNL     1     -11.163  -5.183 -10.416  1.00  0.00     0.074 A 
ATOM     38  C   UNL     1     -10.324  -7.335  -9.539  1.00  0.00     0.049 A 
ATOM     39  N   UNL     1     -12.437  -5.277 -10.133  1.00  0.00    -0.248 NA
ATOM     40  C   UNL     1     -10.783  -3.927 -11.081  1.00  0.00     0.031 C 
ATOM     41  C   UNL     1      -9.331  -8.349  -9.177  1.00  0.00     0.029 A 
ATOM     42  N   UNL     1     -11.515  -7.873  -9.121  1.00  0.00    -0.354 N 
ATOM     43  C   UNL     1     -13.009  -4.091 -10.575  1.00  0.00     0.074 A 
ATOM     44  C   UNL     1     -11.936  -3.274 -11.101  1.00  0.00     0.031 C 
ATOM     45  C   UNL     1      -9.956  -9.393  -8.607  1.00  0.00     0.029 A 
ATOM     46  C   UNL     1     -11.386  -9.109  -8.534  1.00  0.00     0.049 A 
ATOM     47  H   UNL     1     -12.380  -7.417  -9.230  1.00  0.00     0.167 HD
ATOM     48  C   UNL     1     -14.312  -3.725 -10.564  1.00  0.00     0.037 A 
ATOM     49  C   UNL     1     -12.316  -9.918  -7.995  1.00  0.00     0.037 A 
ATOM     50  C   UNL     1     -15.382  -4.545 -10.060  1.00  0.00     0.049 A 
ATOM     51  C   UNL     1     -13.756  -9.487  -7.995  1.00  0.00     0.074 A 
ATOM     52  C   UNL     1     -16.739  -4.273 -10.031  1.00  0.00     0.029 A 
ATOM     53  N   UNL     1     -15.213  -5.803  -9.503  1.00  0.00    -0.354 N 
ATOM     54  N   UNL     1     -14.287  -8.380  -8.453  1.00  0.00    -0.248 NA
ATOM     55  C   UNL     1     -14.727 -10.421  -7.407  1.00  0.00     0.031 C 
ATOM     56  C   UNL     1     -17.390  -5.360  -9.437  1.00  0.00     0.029 A 
ATOM     57  C   UNL     1     -16.441  -6.320  -9.125  1.00  0.00     0.049 A 
ATOM     58  H   UNL     1     -14.349  -6.261  -9.393  1.00  0.00     0.167 HD
ATOM     59  C   UNL     1     -15.653  -8.496  -8.236  1.00  0.00     0.074 A 
ATOM     60  C   UNL     1     -15.871  -9.785  -7.614  1.00  0.00     0.031 C 
ATOM     61  C   UNL     1     -16.639  -7.613  -8.524  1.00  0.00     0.037 A 
BRANCH  48  62
ATOM     62  C   UNL     1     -14.651  -2.380 -11.132  1.00  0.00     0.057 A 
ATOM     63  C   UNL     1     -14.612  -2.138 -12.511  1.00  0.00     0.134 A 
ATOM     64  C   UNL     1     -15.046  -1.326 -10.300  1.00  0.00     0.134 A 
ATOM     65  F   UNL     1     -14.227  -3.103 -13.360  1.00  0.00    -0.206 F 
ATOM     66  C   UNL     1     -14.932  -0.887 -13.041  1.00  0.00     0.040 A 
ATOM     67  C   UNL     1     -15.390  -0.077 -10.820  1.00  0.00     0.040 A 
ATOM     68  F   UNL     1     -15.108  -1.493  -8.970  1.00  0.00    -0.206 F 
ATOM     69  C   UNL     1     -15.328   0.146 -12.195  1.00  0.00     0.006 A 
ENDBRANCH  48  62
BRANCH  49  70
ATOM     70  C   UNL     1     -11.925 -11.233  -7.429  1.00  0.00     0.057 A 
ATOM     71  C   UNL     1     -12.263 -12.424  -8.081  1.00  0.00     0.134 A 
ATOM     72  C   UNL     1     -11.230 -11.332  -6.218  1.00  0.00     0.134 A 
ATOM     73  F   UNL     1     -12.946 -12.391  -9.235  1.00  0.00    -0.206 F 
ATOM     74  C   UNL     1     -11.943 -13.670  -7.540  1.00  0.00     0.040 A 
ATOM     75  C   UNL     1     -10.885 -12.571  -5.676  1.00  0.00     0.040 A 
ATOM     76  F   UNL     1     -10.873 -10.226  -5.549  1.00  0.00    -0.206 F 
ATOM     77  C   UNL     1     -11.249 -13.745  -6.334  1.00  0.00     0.006 A 
ENDBRANCH  49  70
BRANCH  61  78
ATOM     78  C   UNL     1     -18.043  -8.031  -8.209  1.00  0.00     0.057 A 
ATOM     79  C   UNL     1     -18.532  -8.042  -6.898  1.00  0.00     0.134 A 
ATOM     80  C   UNL     1     -18.924  -8.395  -9.236  1.00  0.00     0.134 A 
ATOM     81  F   UNL     1     -17.732  -7.718  -5.871  1.00  0.00    -0.206 F 
ATOM     82  C   UNL     1     -19.846  -8.418  -6.615  1.00  0.00     0.040 A 
ATOM     83  C   UNL     1     -20.245  -8.753  -8.968  1.00  0.00     0.040 A 
ATOM     84  F   UNL     1     -18.516  -8.399 -10.514  1.00  0.00    -0.206 F 
ATOM     85  C   UNL     1     -20.708  -8.769  -7.653  1.00  0.00     0.006 A 
ENDBRANCH  61  78
ENDBRANCH  35  36
ENDBRANCH  27  30
ENDBRANCH  25  26
ENDBRANCH  24  25
ENDBRANCH   1  24
TORSDOF 15
