REMARK SMILES C[C@@H](Sc1ccccc1[N+](=O)[O-])[C@@H](C)C(=O)NCCCCNC(=O)c1ccc(-c2c3nc(c(-c4c(F)cccc4F)c4ccc([nH]4)c(-c4c(F)cccc4F)c4nc(c(-c5c(F)cccc5F)c5ccc2[nH]5)C=C4)C=C3)cc1
REMARK SMILES IDX 18 1 17 2 15 3 16 4 13 6 14 7 2 8 1 9 3 10 4 11 5 12 9 13
REMARK SMILES IDX 6 14 8 15 7 16 10 17 11 18 12 19 19 20 20 21 21 22 22 23
REMARK SMILES IDX 23 24 24 26 25 27 26 28 78 29 27 30 77 31 28 32 29 33 30 34
REMARK SMILES IDX 71 35 31 36 76 37 70 38 72 39 32 40 75 41 69 42 68 43 33 45
REMARK SMILES IDX 59 46 42 47 58 48 43 49 46 50 57 51 73 52 44 53 45 54 56 56
REMARK SMILES IDX 74 57 47 58 34 59 35 60 40 61 36 62 37 63 39 64 41 65 38 66
REMARK SMILES IDX 60 67 61 68 66 69 62 70 63 71 65 72 67 73 64 74 48 75 49 76
REMARK SMILES IDX 54 77 50 78 51 79 53 80 55 81 52 82
REMARK H PARENT 17 5 22 25 72 44 46 55
REMARK Flexibility Score: inf
ROOT
ATOM      1  C   UNL     1      -0.268  -1.361   3.697  1.00  0.00     0.116 C 
ENDROOT
BRANCH   1   2
ATOM      2  N   UNL     1      -1.153  -0.217   3.631  1.00  0.00    -0.356 N 
ATOM      3  C   UNL     1      -1.509   0.589   2.595  1.00  0.00     0.223 C 
ATOM      4  O   UNL     1      -2.331   1.477   2.836  1.00  0.00    -0.275 OA
ATOM      5  H   UNL     1      -1.571   0.020   4.490  1.00  0.00     0.163 HD
BRANCH   3   6
ATOM      6  C   UNL     1      -0.982   0.386   1.175  1.00  0.00     0.088 C 
ATOM      7  C   UNL     1      -1.606  -0.887   0.589  1.00  0.00     0.019 C 
BRANCH   6   8
ATOM      8  C   UNL     1       0.561   0.493   1.048  1.00  0.00     0.061 C 
ATOM      9  C   UNL     1       1.036   0.246  -0.385  1.00  0.00     0.020 C 
BRANCH   8  10
ATOM     10  S   UNL     1       1.089   2.178   1.627  1.00  0.00    -0.115 SA
BRANCH  10  11
ATOM     11  C   UNL     1       2.885   2.175   1.690  1.00  0.00     0.085 A 
ATOM     12  C   UNL     1       3.597   0.974   1.859  1.00  0.00     0.022 A 
ATOM     13  C   UNL     1       3.648   3.364   1.675  1.00  0.00     0.282 A 
ATOM     14  C   UNL     1       4.994   0.953   1.979  1.00  0.00     0.002 A 
ATOM     15  C   UNL     1       5.052   3.345   1.805  1.00  0.00     0.087 A 
ATOM     16  C   UNL     1       5.721   2.136   1.954  1.00  0.00     0.007 A 
BRANCH  13  17
ATOM     17  N   UNL     1       3.039   4.687   1.536  1.00  0.00     0.063 N 
ATOM     18  O   UNL     1       3.483   5.585   2.268  1.00  0.00    -0.258 OA
ATOM     19  O   UNL     1       2.191   4.856   0.651  1.00  0.00    -0.258 OA
ENDBRANCH  13  17
ENDBRANCH  10  11
ENDBRANCH   8  10
ENDBRANCH   6   8
ENDBRANCH   3   6
ENDBRANCH   1   2
BRANCH   1  20
ATOM     20  C   UNL     1       1.014  -1.044   4.463  1.00  0.00     0.023 C 
BRANCH  20  21
ATOM     21  C   UNL     1       0.818  -0.811   5.962  1.00  0.00     0.023 C 
BRANCH  21  22
ATOM     22  C   UNL     1       0.087  -1.927   6.698  1.00  0.00     0.116 C 
BRANCH  22  23
ATOM     23  N   UNL     1       0.714  -3.229   6.526  1.00  0.00    -0.352 N 
ATOM     24  C   UNL     1       0.950  -4.204   7.462  1.00  0.00     0.251 C 
ATOM     25  H   UNL     1       1.011  -3.439   5.611  1.00  0.00     0.163 HD
ATOM     26  O   UNL     1       1.616  -5.193   7.167  1.00  0.00    -0.269 OA
BRANCH  24  27
ATOM     27  C   UNL     1       0.428  -4.043   8.834  1.00  0.00     0.039 A 
ATOM     28  C   UNL     1       1.274  -4.313   9.912  1.00  0.00     0.014 A 
ATOM     29  C   UNL     1      -0.881  -3.608   9.057  1.00  0.00     0.014 A 
ATOM     30  C   UNL     1       0.825  -4.085  11.213  1.00  0.00     0.010 A 
ATOM     31  C   UNL     1      -1.297  -3.301  10.349  1.00  0.00     0.010 A 
ATOM     32  C   UNL     1      -0.451  -3.543  11.441  1.00  0.00    -0.014 A 
BRANCH  32  33
ATOM     33  C   UNL     1      -0.910  -3.225  12.816  1.00  0.00     0.031 A 
ATOM     34  C   UNL     1      -2.096  -3.938  13.403  1.00  0.00     0.074 A 
ATOM     35  C   UNL     1      -0.288  -2.258  13.518  1.00  0.00     0.049 A 
ATOM     36  N   UNL     1      -2.659  -3.780  14.575  1.00  0.00    -0.248 NA
ATOM     37  C   UNL     1      -2.754  -4.944  12.554  1.00  0.00     0.031 C 
ATOM     38  C   UNL     1       0.839  -1.455  13.038  1.00  0.00     0.029 A 
ATOM     39  N   UNL     1      -0.516  -1.784  14.785  1.00  0.00    -0.354 N 
ATOM     40  C   UNL     1      -3.737  -4.656  14.598  1.00  0.00     0.074 A 
ATOM     41  C   UNL     1      -3.788  -5.298  13.303  1.00  0.00     0.031 C 
ATOM     42  C   UNL     1       1.223  -0.611  14.009  1.00  0.00     0.029 A 
ATOM     43  C   UNL     1       0.348  -0.785  15.164  1.00  0.00     0.049 A 
ATOM     44  H   UNL     1      -1.232  -2.126  15.367  1.00  0.00     0.167 HD
ATOM     45  C   UNL     1      -4.590  -4.923  15.616  1.00  0.00     0.037 A 
ATOM     46  C   UNL     1       0.425  -0.087  16.312  1.00  0.00     0.037 A 
ATOM     47  C   UNL     1      -4.526  -4.294  16.909  1.00  0.00     0.049 A 
ATOM     48  C   UNL     1      -0.541  -0.395  17.423  1.00  0.00     0.074 A 
ATOM     49  C   UNL     1      -5.309  -4.535  18.024  1.00  0.00     0.029 A 
ATOM     50  N   UNL     1      -3.631  -3.294  17.257  1.00  0.00    -0.354 N 
ATOM     51  N   UNL     1      -1.506  -1.282  17.459  1.00  0.00    -0.248 NA
ATOM     52  C   UNL     1      -0.400   0.390  18.657  1.00  0.00     0.031 C 
ATOM     53  C   UNL     1      -4.922  -3.644  19.030  1.00  0.00     0.029 A 
ATOM     54  C   UNL     1      -3.858  -2.890  18.563  1.00  0.00     0.049 A 
ATOM     55  H   UNL     1      -2.936  -2.925  16.665  1.00  0.00     0.167 HD
ATOM     56  C   UNL     1      -2.067  -1.183  18.726  1.00  0.00     0.074 A 
ATOM     57  C   UNL     1      -1.321  -0.163  19.433  1.00  0.00     0.031 C 
ATOM     58  C   UNL     1      -3.105  -1.875  19.256  1.00  0.00     0.037 A 
BRANCH  45  59
ATOM     59  C   UNL     1      -5.665  -5.944  15.368  1.00  0.00     0.057 A 
ATOM     60  C   UNL     1      -5.370  -7.305  15.207  1.00  0.00     0.134 A 
ATOM     61  C   UNL     1      -7.013  -5.567  15.323  1.00  0.00     0.134 A 
ATOM     62  F   UNL     1      -4.099  -7.733  15.227  1.00  0.00    -0.206 F 
ATOM     63  C   UNL     1      -6.374  -8.248  14.981  1.00  0.00     0.040 A 
ATOM     64  C   UNL     1      -8.028  -6.506  15.129  1.00  0.00     0.040 A 
ATOM     65  F   UNL     1      -7.367  -4.282  15.476  1.00  0.00    -0.206 F 
ATOM     66  C   UNL     1      -7.708  -7.850  14.949  1.00  0.00     0.006 A 
ENDBRANCH  45  59
BRANCH  46  67
ATOM     67  C   UNL     1       1.470   0.956  16.482  1.00  0.00     0.057 A 
ATOM     68  C   UNL     1       2.526   0.780  17.384  1.00  0.00     0.134 A 
ATOM     69  C   UNL     1       1.432   2.154  15.760  1.00  0.00     0.134 A 
ATOM     70  F   UNL     1       2.608  -0.339  18.118  1.00  0.00    -0.206 F 
ATOM     71  C   UNL     1       3.493   1.768  17.581  1.00  0.00     0.040 A 
ATOM     72  C   UNL     1       2.408   3.139  15.925  1.00  0.00     0.040 A 
ATOM     73  F   UNL     1       0.452   2.381  14.874  1.00  0.00    -0.206 F 
ATOM     74  C   UNL     1       3.437   2.950  16.846  1.00  0.00     0.006 A 
ENDBRANCH  46  67
BRANCH  58  75
ATOM     75  C   UNL     1      -3.470  -1.579  20.683  1.00  0.00     0.057 A 
ATOM     76  C   UNL     1      -4.069  -0.371  21.062  1.00  0.00     0.134 A 
ATOM     77  C   UNL     1      -3.242  -2.530  21.686  1.00  0.00     0.134 A 
ATOM     78  F   UNL     1      -4.303   0.587  20.152  1.00  0.00    -0.206 F 
ATOM     79  C   UNL     1      -4.399  -0.107  22.392  1.00  0.00     0.040 A 
ATOM     80  C   UNL     1      -3.598  -2.290  23.014  1.00  0.00     0.040 A 
ATOM     81  F   UNL     1      -2.682  -3.713  21.391  1.00  0.00    -0.206 F 
ATOM     82  C   UNL     1      -4.170  -1.071  23.371  1.00  0.00     0.006 A 
ENDBRANCH  58  75
ENDBRANCH  32  33
ENDBRANCH  24  27
ENDBRANCH  22  23
ENDBRANCH  21  22
ENDBRANCH  20  21
ENDBRANCH   1  20
TORSDOF 15
