REMARK SMILES CCc1cc(OC(F)(F)F)cc2c1O[C@@H](C(F)(F)F)C(C(=O)NCCCCNC(=O)c1ccc(-c3c4nc(c(-c5c(F)cccc5F)c5ccc([nH]5)c(-c5c(F)cccc5F)c5nc(c(-c6c(F)cccc6F)c6ccc3[nH]6)C=C5)C=C4)cc1)=C2
REMARK SMILES IDX 25 1 24 2 23 3 21 4 22 5 20 7 3 8 4 9 13 10 5 11 12 12 14 13
REMARK SMILES IDX 11 14 85 15 15 16 2 17 1 18 6 19 7 20 8 21 9 22 10 23 16 24
REMARK SMILES IDX 17 25 18 26 19 27 26 28 27 29 28 30 29 31 30 33 31 34 32 35
REMARK SMILES IDX 84 36 33 37 83 38 34 39 35 40 36 41 77 42 37 43 82 44 76 45
REMARK SMILES IDX 78 46 38 47 81 48 75 49 74 50 39 52 65 53 48 54 64 55 49 56
REMARK SMILES IDX 52 57 63 58 79 59 50 60 51 61 62 63 80 64 53 65 40 66 41 67
REMARK SMILES IDX 46 68 42 69 43 70 45 71 47 72 44 73 66 74 67 75 72 76 68 77
REMARK SMILES IDX 69 78 71 79 73 80 70 81 54 82 55 83 60 84 56 85 57 86 59 87
REMARK SMILES IDX 61 88 58 89
REMARK H PARENT 23 6 28 32 78 51 52 62
REMARK Flexibility Score: inf
ROOT
ATOM      1  C   UNL     1       1.139   6.339   5.659  1.00  0.00     0.023 C 
ENDROOT
BRANCH   1   2
ATOM      2  C   UNL     1      -0.193   5.945   5.009  1.00  0.00     0.116 C 
BRANCH   2   3
ATOM      3  N   UNL     1      -0.178   6.290   3.600  1.00  0.00    -0.352 N 
ATOM      4  C   UNL     1       0.224   5.605   2.497  1.00  0.00     0.251 C 
ATOM      5  O   UNL     1       0.291   6.215   1.434  1.00  0.00    -0.270 OA
ATOM      6  H   UNL     1      -0.525   7.191   3.405  1.00  0.00     0.163 HD
BRANCH   4   7
ATOM      7  C   UNL     1       0.516   4.147   2.516  1.00  0.00     0.067 C 
ATOM      8  C   UNL     1       1.008  -0.028   2.382  1.00  0.00    -0.002 A 
ATOM      9  C   UNL     1       1.662  -0.671   3.452  1.00  0.00     0.054 A 
ATOM     10  C   UNL     1       0.836   1.363   2.429  1.00  0.00     0.131 A 
ATOM     11  C   UNL     1       2.140   0.060   4.542  1.00  0.00     0.130 A 
ATOM     12  C   UNL     1       1.346   2.102   3.493  1.00  0.00     0.021 A 
ATOM     13  O   UNL     1       0.078   1.945   1.454  1.00  0.00    -0.475 OA
ATOM     14  C   UNL     1       1.995   1.448   4.545  1.00  0.00     0.058 A 
ATOM     15  C   UNL     1       1.124   3.538   3.544  1.00  0.00     0.025 C 
ATOM     16  C   UNL     1       0.242   3.375   1.230  1.00  0.00     0.314 C 
BRANCH   8  17
ATOM     17  C   UNL     1       0.490  -0.849   1.222  1.00  0.00     0.036 C 
ATOM     18  C   UNL     1       1.156  -0.499  -0.104  1.00  0.00     0.009 C 
ENDBRANCH   8  17
BRANCH  11  19
ATOM     19  O   UNL     1       2.748  -0.439   5.658  1.00  0.00    -0.406 OA
BRANCH  19  20
ATOM     20  C   UNL     1       2.852  -1.846   5.787  1.00  0.00     0.573 C 
ATOM     21  F   UNL     1       1.638  -2.435   5.740  1.00  0.00    -0.132 F 
ATOM     22  F   UNL     1       3.642  -2.361   4.821  1.00  0.00    -0.132 F 
ATOM     23  F   UNL     1       3.410  -2.130   6.984  1.00  0.00    -0.132 F 
ENDBRANCH  19  20
ENDBRANCH  11  19
BRANCH  16  24
ATOM     24  C   UNL     1      -0.964   3.832   0.377  1.00  0.00     0.429 C 
ATOM     25  F   UNL     1      -0.665   4.859  -0.448  1.00  0.00    -0.167 F 
ATOM     26  F   UNL     1      -1.385   2.826  -0.439  1.00  0.00    -0.167 F 
ATOM     27  F   UNL     1      -2.027   4.187   1.135  1.00  0.00    -0.167 F 
ENDBRANCH  16  24
ENDBRANCH   4   7
ENDBRANCH   2   3
ENDBRANCH   1   2
BRANCH   1  28
ATOM     28  C   UNL     1       1.280   7.835   5.947  1.00  0.00     0.023 C 
BRANCH  28  29
ATOM     29  C   UNL     1       0.302   8.376   6.981  1.00  0.00     0.116 C 
BRANCH  29  30
ATOM     30  N   UNL     1       0.403   7.709   8.269  1.00  0.00    -0.352 N 
ATOM     31  C   UNL     1       0.131   8.219   9.517  1.00  0.00     0.251 C 
ATOM     32  H   UNL     1       0.705   6.772   8.245  1.00  0.00     0.163 HD
ATOM     33  O   UNL     1       0.361   7.566  10.522  1.00  0.00    -0.269 OA
BRANCH  31  34
ATOM     34  C   UNL     1      -0.401   9.593   9.622  1.00  0.00     0.039 A 
ATOM     35  C   UNL     1       0.237  10.493  10.478  1.00  0.00     0.014 A 
ATOM     36  C   UNL     1      -1.490   9.998   8.847  1.00  0.00     0.014 A 
ATOM     37  C   UNL     1      -0.178  11.825  10.507  1.00  0.00     0.010 A 
ATOM     38  C   UNL     1      -1.858  11.338   8.826  1.00  0.00     0.010 A 
ATOM     39  C   UNL     1      -1.204  12.263   9.654  1.00  0.00    -0.014 A 
BRANCH  39  40
ATOM     40  C   UNL     1      -1.608  13.688   9.610  1.00  0.00     0.031 A 
ATOM     41  C   UNL     1      -2.985  14.093  10.053  1.00  0.00     0.074 A 
ATOM     42  C   UNL     1      -0.762  14.603   9.099  1.00  0.00     0.049 A 
ATOM     43  N   UNL     1      -3.550  15.272  10.017  1.00  0.00    -0.248 NA
ATOM     44  C   UNL     1      -3.851  13.025  10.577  1.00  0.00     0.031 C 
ATOM     45  C   UNL     1       0.581  14.322   8.586  1.00  0.00     0.029 A 
ATOM     46  N   UNL     1      -0.912  15.954   8.916  1.00  0.00    -0.354 N 
ATOM     47  C   UNL     1      -4.840  15.085  10.496  1.00  0.00     0.074 A 
ATOM     48  C   UNL     1      -4.990  13.672  10.769  1.00  0.00     0.031 C 
ATOM     49  C   UNL     1       1.138  15.469   8.164  1.00  0.00     0.029 A 
ATOM     50  C   UNL     1       0.183  16.557   8.347  1.00  0.00     0.049 A 
ATOM     51  H   UNL     1      -1.727  16.445   9.169  1.00  0.00     0.167 HD
ATOM     52  C   UNL     1      -5.805  16.011  10.709  1.00  0.00     0.037 A 
ATOM     53  C   UNL     1       0.390  17.843   8.007  1.00  0.00     0.037 A 
ATOM     54  C   UNL     1      -5.641  17.419  10.465  1.00  0.00     0.049 A 
ATOM     55  C   UNL     1      -0.690  18.854   8.269  1.00  0.00     0.074 A 
ATOM     56  C   UNL     1      -6.534  18.447  10.711  1.00  0.00     0.029 A 
ATOM     57  N   UNL     1      -4.504  17.997   9.920  1.00  0.00    -0.354 N 
ATOM     58  N   UNL     1      -1.881  18.675   8.787  1.00  0.00    -0.248 NA
ATOM     59  C   UNL     1      -0.396  20.248   7.906  1.00  0.00     0.031 C 
ATOM     60  C   UNL     1      -5.951  19.644  10.282  1.00  0.00     0.029 A 
ATOM     61  C   UNL     1      -4.679  19.366   9.806  1.00  0.00     0.049 A 
ATOM     62  H   UNL     1      -3.693  17.507   9.652  1.00  0.00     0.167 HD
ATOM     63  C   UNL     1      -2.467  19.933   8.838  1.00  0.00     0.074 A 
ATOM     64  C   UNL     1      -1.496  20.868   8.308  1.00  0.00     0.031 C 
ATOM     65  C   UNL     1      -3.697  20.282   9.286  1.00  0.00     0.037 A 
BRANCH  52  66
ATOM     66  C   UNL     1      -7.121  15.525  11.239  1.00  0.00     0.057 A 
ATOM     67  C   UNL     1      -7.262  15.066  12.555  1.00  0.00     0.134 A 
ATOM     68  C   UNL     1      -8.266  15.538  10.433  1.00  0.00     0.134 A 
ATOM     69  F   UNL     1      -6.200  15.015  13.374  1.00  0.00    -0.206 F 
ATOM     70  C   UNL     1      -8.488  14.612  13.043  1.00  0.00     0.040 A 
ATOM     71  C   UNL     1      -9.504  15.111  10.917  1.00  0.00     0.040 A 
ATOM     72  F   UNL     1      -8.202  15.969   9.164  1.00  0.00    -0.206 F 
ATOM     73  C   UNL     1      -9.615  14.640  12.224  1.00  0.00     0.006 A 
ENDBRANCH  52  66
BRANCH  53  74
ATOM     74  C   UNL     1       1.685  18.253   7.411  1.00  0.00     0.057 A 
ATOM     75  C   UNL     1       2.606  19.010   8.144  1.00  0.00     0.134 A 
ATOM     76  C   UNL     1       2.035  17.900   6.103  1.00  0.00     0.134 A 
ATOM     77  F   UNL     1       2.320  19.392   9.397  1.00  0.00    -0.206 F 
ATOM     78  C   UNL     1       3.822  19.418   7.592  1.00  0.00     0.040 A 
ATOM     79  C   UNL     1       3.256  18.282   5.545  1.00  0.00     0.040 A 
ATOM     80  F   UNL     1       1.198  17.168   5.353  1.00  0.00    -0.206 F 
ATOM     81  C   UNL     1       4.151  19.049   6.289  1.00  0.00     0.006 A 
ENDBRANCH  53  74
BRANCH  65  82
ATOM     82  C   UNL     1      -4.049  21.739   9.255  1.00  0.00     0.057 A 
ATOM     83  C   UNL     1      -4.353  22.400   8.058  1.00  0.00     0.134 A 
ATOM     84  C   UNL     1      -4.127  22.477  10.443  1.00  0.00     0.134 A 
ATOM     85  F   UNL     1      -4.284  21.751   6.886  1.00  0.00    -0.206 F 
ATOM     86  C   UNL     1      -4.706  23.750   8.043  1.00  0.00     0.040 A 
ATOM     87  C   UNL     1      -4.501  23.821  10.442  1.00  0.00     0.040 A 
ATOM     88  F   UNL     1      -3.855  21.900  11.623  1.00  0.00    -0.206 F 
ATOM     89  C   UNL     1      -4.788  24.462   9.238  1.00  0.00     0.006 A 
ENDBRANCH  65  82
ENDBRANCH  39  40
ENDBRANCH  31  34
ENDBRANCH  29  30
ENDBRANCH  28  29
ENDBRANCH   1  28
TORSDOF 15
