REMARK SMILES Cc1ccc(CN(CC(=O)NCCCCNC(=O)c2ccc(-c3c4nc(c(-c5c(F)cccc5F)c5ccc([nH]5)c(-c5c(F)cccc5F)c5nc(c(-c6c(F)cccc6F)c6ccc3[nH]6)C=C5)C=C4)cc2)C(=O)c2cc3c(s2)CCOC3)cc1
REMARK SMILES IDX 13 1 12 2 11 3 9 4 10 5 8 7 7 8 6 9 5 10 1 11 2 12 3 13
REMARK SMILES IDX 85 14 4 15 84 16 73 17 74 18 75 19 76 20 79 21 77 22 78 23
REMARK SMILES IDX 83 24 80 25 82 26 81 27 14 28 15 29 16 30 17 31 18 33 19 34
REMARK SMILES IDX 20 35 72 36 21 37 71 38 22 39 23 40 24 41 65 42 25 43 70 44
REMARK SMILES IDX 64 45 66 46 26 47 69 48 63 49 62 50 27 52 53 53 36 54 52 55
REMARK SMILES IDX 37 56 40 57 51 58 67 59 38 60 39 61 50 63 68 64 41 65 28 66
REMARK SMILES IDX 29 67 34 68 30 69 31 70 33 71 35 72 32 73 54 74 55 75 60 76
REMARK SMILES IDX 56 77 57 78 59 79 61 80 58 81 42 82 43 83 48 84 44 85 45 86
REMARK SMILES IDX 47 87 49 88 46 89
REMARK H PARENT 11 6 16 32 66 51 40 62
REMARK Flexibility Score: inf
ROOT
ATOM      1  C   UNL     1      -6.006   1.810  -0.691  1.00  0.00     0.023 C 
ENDROOT
BRANCH   1   2
ATOM      2  C   UNL     1      -6.434   0.499  -0.018  1.00  0.00     0.116 C 
BRANCH   2   3
ATOM      3  N   UNL     1      -6.738  -0.599  -0.917  1.00  0.00    -0.355 N 
ATOM      4  C   UNL     1      -5.998  -1.680  -1.295  1.00  0.00     0.239 C 
ATOM      5  O   UNL     1      -6.629  -2.646  -1.740  1.00  0.00    -0.273 OA
ATOM      6  H   UNL     1      -7.633  -0.555  -1.325  1.00  0.00     0.163 HD
BRANCH   4   7
ATOM      7  C   UNL     1      -4.474  -1.786  -1.101  1.00  0.00     0.220 C 
BRANCH   7   8
ATOM      8  N   UNL     1      -3.705  -0.559  -1.306  1.00  0.00    -0.324 N 
BRANCH   8   9
ATOM      9  C   UNL     1      -3.098   0.061  -0.131  1.00  0.00     0.156 C 
BRANCH   9  10
ATOM     10  C   UNL     1      -1.593  -0.019  -0.092  1.00  0.00    -0.029 A 
ATOM     11  C   UNL     1       2.717  -0.124   0.043  1.00  0.00     0.044 C 
ATOM     12  C   UNL     1       1.219  -0.083   0.011  1.00  0.00    -0.051 A 
ATOM     13  C   UNL     1       0.479  -1.272   0.005  1.00  0.00     0.004 A 
ATOM     14  C   UNL     1       0.544   1.139  -0.035  1.00  0.00     0.004 A 
ATOM     15  C   UNL     1      -0.918  -1.242  -0.044  1.00  0.00     0.006 A 
ATOM     16  C   UNL     1      -0.847   1.170  -0.086  1.00  0.00     0.006 A 
ENDBRANCH   9  10
ENDBRANCH   8   9
BRANCH   8  17
ATOM     17  C   UNL     1      -3.445   0.010  -2.569  1.00  0.00     0.264 C 
ATOM     18  O   UNL     1      -2.922   1.122  -2.656  1.00  0.00    -0.268 OA
BRANCH  17  19
ATOM     19  C   UNL     1      -3.784  -0.763  -3.756  1.00  0.00     0.093 A 
ATOM     20  C   UNL     1      -5.003  -1.224  -4.222  1.00  0.00     0.032 A 
ATOM     21  S   UNL     1      -2.510  -1.193  -4.829  1.00  0.00    -0.135 S 
ATOM     22  C   UNL     1      -4.854  -2.126  -5.317  1.00  0.00    -0.008 A 
ATOM     23  C   UNL     1      -3.550  -2.151  -5.761  1.00  0.00     0.013 A 
ATOM     24  C   UNL     1      -5.901  -3.005  -5.934  1.00  0.00     0.196 C 
ATOM     25  C   UNL     1      -3.120  -2.967  -6.934  1.00  0.00     0.075 C 
ATOM     26  O   UNL     1      -5.465  -3.627  -7.163  1.00  0.00    -0.376 OA
ATOM     27  C   UNL     1      -4.117  -4.127  -7.082  1.00  0.00     0.166 C 
ENDBRANCH  17  19
ENDBRANCH   8  17
ENDBRANCH   7   8
ENDBRANCH   4   7
ENDBRANCH   2   3
ENDBRANCH   1   2
BRANCH   1  28
ATOM     28  C   UNL     1      -6.962   2.408  -1.718  1.00  0.00     0.023 C 
BRANCH  28  29
ATOM     29  C   UNL     1      -8.276   2.898  -1.142  1.00  0.00     0.116 C 
BRANCH  29  30
ATOM     30  N   UNL     1      -8.231   4.215  -0.519  1.00  0.00    -0.352 N 
ATOM     31  C   UNL     1      -9.190   4.842   0.264  1.00  0.00     0.251 C 
ATOM     32  H   UNL     1      -7.407   4.730  -0.675  1.00  0.00     0.163 HD
ATOM     33  O   UNL     1      -9.009   5.981   0.669  1.00  0.00    -0.269 OA
BRANCH  31  34
ATOM     34  C   UNL     1     -10.367   4.066   0.734  1.00  0.00     0.039 A 
ATOM     35  C   UNL     1     -10.684   4.131   2.096  1.00  0.00     0.014 A 
ATOM     36  C   UNL     1     -10.967   3.107  -0.077  1.00  0.00     0.014 A 
ATOM     37  C   UNL     1     -11.353   3.064   2.688  1.00  0.00     0.010 A 
ATOM     38  C   UNL     1     -11.528   1.997   0.521  1.00  0.00     0.010 A 
ATOM     39  C   UNL     1     -11.641   1.943   1.913  1.00  0.00    -0.014 A 
BRANCH  39  40
ATOM     40  C   UNL     1     -11.925   0.634   2.487  1.00  0.00     0.031 A 
ATOM     41  C   UNL     1     -13.289   0.073   2.433  1.00  0.00     0.074 A 
ATOM     42  C   UNL     1     -10.911  -0.088   3.015  1.00  0.00     0.049 A 
ATOM     43  N   UNL     1     -13.711  -0.876   3.197  1.00  0.00    -0.248 NA
ATOM     44  C   UNL     1     -14.328   0.613   1.563  1.00  0.00     0.031 C 
ATOM     45  C   UNL     1     -10.921  -1.500   3.387  1.00  0.00     0.029 A 
ATOM     46  N   UNL     1      -9.701   0.399   3.535  1.00  0.00    -0.354 N 
ATOM     47  C   UNL     1     -14.949  -1.264   2.740  1.00  0.00     0.074 A 
ATOM     48  C   UNL     1     -15.338  -0.220   1.828  1.00  0.00     0.031 C 
ATOM     49  C   UNL     1      -9.958  -1.716   4.296  1.00  0.00     0.029 A 
ATOM     50  C   UNL     1      -9.396  -0.422   4.642  1.00  0.00     0.049 A 
ATOM     51  H   UNL     1      -9.174   1.158   3.196  1.00  0.00     0.167 HD
ATOM     52  C   UNL     1     -15.418  -2.495   3.094  1.00  0.00     0.037 A 
ATOM     53  C   UNL     1      -9.331   0.086   5.907  1.00  0.00     0.037 A 
ATOM     54  C   UNL     1     -14.617  -3.052   4.190  1.00  0.00     0.049 A 
ATOM     55  C   UNL     1     -10.317  -0.532   6.871  1.00  0.00     0.074 A 
ATOM     56  C   UNL     1     -13.641  -4.032   4.253  1.00  0.00     0.029 A 
ATOM     57  N   UNL     1     -14.583  -2.387   5.415  1.00  0.00    -0.354 N 
ATOM     58  N   UNL     1     -11.352  -1.235   6.501  1.00  0.00    -0.248 NA
ATOM     59  C   UNL     1     -10.239  -0.377   8.322  1.00  0.00     0.031 C 
ATOM     60  C   UNL     1     -12.956  -3.888   5.489  1.00  0.00     0.029 A 
ATOM     61  C   UNL     1     -13.539  -2.848   6.192  1.00  0.00     0.049 A 
ATOM     62  H   UNL     1     -15.217  -1.684   5.688  1.00  0.00     0.167 HD
ATOM     63  C   UNL     1     -12.088  -1.583   7.604  1.00  0.00     0.074 A 
ATOM     64  C   UNL     1     -11.333  -1.049   8.722  1.00  0.00     0.031 C 
ATOM     65  C   UNL     1     -13.268  -2.261   7.500  1.00  0.00     0.037 A 
BRANCH  52  66
ATOM     66  C   UNL     1     -16.437  -3.315   2.309  1.00  0.00     0.057 A 
ATOM     67  C   UNL     1     -16.665  -4.668   2.646  1.00  0.00     0.134 A 
ATOM     68  C   UNL     1     -17.131  -2.904   1.152  1.00  0.00     0.134 A 
ATOM     69  F   UNL     1     -16.117  -5.223   3.736  1.00  0.00    -0.206 F 
ATOM     70  C   UNL     1     -17.454  -5.536   1.872  1.00  0.00     0.040 A 
ATOM     71  C   UNL     1     -17.939  -3.755   0.383  1.00  0.00     0.040 A 
ATOM     72  F   UNL     1     -17.064  -1.665   0.665  1.00  0.00    -0.206 F 
ATOM     73  C   UNL     1     -18.090  -5.083   0.729  1.00  0.00     0.006 A 
ENDBRANCH  52  66
BRANCH  53  74
ATOM     74  C   UNL     1      -8.856   1.493   5.952  1.00  0.00     0.057 A 
ATOM     75  C   UNL     1      -7.539   1.770   5.542  1.00  0.00     0.134 A 
ATOM     76  C   UNL     1      -9.743   2.570   6.014  1.00  0.00     0.134 A 
ATOM     77  F   UNL     1      -6.637   0.779   5.458  1.00  0.00    -0.206 F 
ATOM     78  C   UNL     1      -7.154   3.038   5.102  1.00  0.00     0.040 A 
ATOM     79  C   UNL     1      -9.364   3.848   5.585  1.00  0.00     0.040 A 
ATOM     80  F   UNL     1     -11.021   2.381   6.371  1.00  0.00    -0.206 F 
ATOM     81  C   UNL     1      -8.080   4.075   5.090  1.00  0.00     0.006 A 
ENDBRANCH  53  74
BRANCH  65  82
ATOM     82  C   UNL     1     -14.243  -2.496   8.626  1.00  0.00     0.057 A 
ATOM     83  C   UNL     1     -14.440  -1.612   9.698  1.00  0.00     0.134 A 
ATOM     84  C   UNL     1     -15.139  -3.587   8.577  1.00  0.00     0.134 A 
ATOM     85  F   UNL     1     -13.735  -0.478   9.809  1.00  0.00    -0.206 F 
ATOM     86  C   UNL     1     -15.415  -1.828  10.682  1.00  0.00     0.040 A 
ATOM     87  C   UNL     1     -16.149  -3.784   9.524  1.00  0.00     0.040 A 
ATOM     88  F   UNL     1     -15.084  -4.497   7.593  1.00  0.00    -0.206 F 
ATOM     89  C   UNL     1     -16.281  -2.910  10.592  1.00  0.00     0.006 A 
ENDBRANCH  65  82
ENDBRANCH  39  40
ENDBRANCH  31  34
ENDBRANCH  29  30
ENDBRANCH  28  29
ENDBRANCH   1  28
TORSDOF 16
