REMARK SMILES CC1CCN(S(=O)(=O)c2ccc3c(ccn3CC(=O)NCCCCNC(=O)c3ccc(-c4c5nc(c(-c6c(F)cccc6F)c6ccc([nH]6)c(-c6c(F)cccc6F)c6nc(c(-c7c(F)cccc7F)c7ccc4[nH]7)C=C6)C=C5)cc3)c2)CC1
REMARK SMILES IDX 22 1 21 2 20 3 18 4 19 5 17 7 16 8 9 9 10 10 82 11 11 12
REMARK SMILES IDX 13 13 12 14 14 15 15 16 6 17 7 18 8 19 5 20 1 21 2 22 3 23
REMARK SMILES IDX 84 24 4 25 83 26 23 27 24 28 25 29 26 30 27 32 28 33 29 34
REMARK SMILES IDX 81 35 30 36 80 37 31 38 32 39 33 40 74 41 34 42 79 43 73 44
REMARK SMILES IDX 75 45 35 46 78 47 72 48 71 49 36 51 62 52 45 53 61 54 46 55
REMARK SMILES IDX 49 56 60 57 76 58 47 59 48 60 59 62 77 63 50 64 37 65 38 66
REMARK SMILES IDX 43 67 39 68 40 69 42 70 44 71 41 72 63 73 64 74 69 75 65 76
REMARK SMILES IDX 66 77 68 78 70 79 67 80 51 81 52 82 57 83 53 84 54 85 56 86
REMARK SMILES IDX 58 87 55 88
REMARK H PARENT 20 6 25 31 75 50 49 61
REMARK Flexibility Score: inf
ROOT
ATOM      1  C   UNL     1       2.260  -4.266  -6.826  1.00  0.00     0.023 C 
ENDROOT
BRANCH   1   2
ATOM      2  C   UNL     1       2.322  -5.543  -5.989  1.00  0.00     0.116 C 
BRANCH   2   3
ATOM      3  N   UNL     1       3.480  -6.356  -6.307  1.00  0.00    -0.355 N 
ATOM      4  C   UNL     1       4.604  -6.587  -5.565  1.00  0.00     0.239 C 
ATOM      5  O   UNL     1       5.471  -7.322  -6.045  1.00  0.00    -0.273 OA
ATOM      6  H   UNL     1       3.452  -6.806  -7.183  1.00  0.00     0.163 HD
BRANCH   4   7
ATOM      7  C   UNL     1       4.748  -6.017  -4.168  1.00  0.00     0.222 C 
BRANCH   7   8
ATOM      8  N   UNL     1       4.920  -4.571  -4.146  1.00  0.00    -0.338 N 
ATOM      9  C   UNL     1       2.686  -1.440  -2.632  1.00  0.00     0.083 A 
ATOM     10  C   UNL     1       2.164  -2.718  -2.436  1.00  0.00     0.024 A 
ATOM     11  C   UNL     1       3.899  -1.258  -3.309  1.00  0.00     0.032 A 
ATOM     12  C   UNL     1       2.883  -3.850  -2.815  1.00  0.00     0.028 A 
ATOM     13  C   UNL     1       4.589  -2.389  -3.790  1.00  0.00     0.001 A 
ATOM     14  C   UNL     1       4.076  -3.664  -3.530  1.00  0.00     0.049 A 
ATOM     15  C   UNL     1       5.771  -2.560  -4.561  1.00  0.00     0.028 A 
ATOM     16  C   UNL     1       5.957  -3.909  -4.754  1.00  0.00     0.087 A 
BRANCH   9  17
ATOM     17  S   UNL     1       1.704  -0.026  -2.189  1.00  0.00     0.243 S 
ATOM     18  O   UNL     1       0.381  -0.261  -2.716  1.00  0.00    -0.207 OA
ATOM     19  O   UNL     1       2.447   1.159  -2.586  1.00  0.00    -0.207 OA
BRANCH  17  20
ATOM     20  N   UNL     1       1.636  -0.010  -0.472  1.00  0.00    -0.198 NA
ATOM     21  C   UNL     1      -2.608   0.035   0.004  1.00  0.00     0.008 C 
ATOM     22  C   UNL     1      -1.151   0.058   0.467  1.00  0.00    -0.012 C 
ATOM     23  C   UNL     1      -0.438   1.308  -0.078  1.00  0.00     0.020 C 
ATOM     24  C   UNL     1      -0.450  -1.251   0.072  1.00  0.00     0.020 C 
ATOM     25  C   UNL     1       1.080   1.254   0.094  1.00  0.00     0.103 C 
ATOM     26  C   UNL     1       1.059  -1.165   0.259  1.00  0.00     0.103 C 
ENDBRANCH  17  20
ENDBRANCH   9  17
ENDBRANCH   7   8
ENDBRANCH   4   7
ENDBRANCH   2   3
ENDBRANCH   1   2
BRANCH   1  27
ATOM     27  C   UNL     1       1.907  -4.486  -8.304  1.00  0.00     0.023 C 
BRANCH  27  28
ATOM     28  C   UNL     1       0.603  -5.248  -8.554  1.00  0.00     0.116 C 
BRANCH  28  29
ATOM     29  N   UNL     1      -0.556  -4.654  -7.919  1.00  0.00    -0.352 N 
ATOM     30  C   UNL     1      -1.565  -3.827  -8.332  1.00  0.00     0.251 C 
ATOM     31  H   UNL     1      -0.637  -4.903  -6.970  1.00  0.00     0.163 HD
ATOM     32  O   UNL     1      -2.526  -3.729  -7.565  1.00  0.00    -0.269 OA
BRANCH  30  33
ATOM     33  C   UNL     1      -1.559  -3.003  -9.573  1.00  0.00     0.039 A 
ATOM     34  C   UNL     1      -0.532  -2.963 -10.512  1.00  0.00     0.014 A 
ATOM     35  C   UNL     1      -2.655  -2.129  -9.742  1.00  0.00     0.014 A 
ATOM     36  C   UNL     1      -0.556  -2.015 -11.532  1.00  0.00     0.010 A 
ATOM     37  C   UNL     1      -2.685  -1.181 -10.764  1.00  0.00     0.010 A 
ATOM     38  C   UNL     1      -1.610  -1.095 -11.635  1.00  0.00    -0.014 A 
BRANCH  38  39
ATOM     39  C   UNL     1      -1.569  -0.150 -12.750  1.00  0.00     0.031 A 
ATOM     40  C   UNL     1      -1.498  -0.804 -14.085  1.00  0.00     0.074 A 
ATOM     41  C   UNL     1      -1.598   1.195 -12.649  1.00  0.00     0.049 A 
ATOM     42  N   UNL     1      -0.473  -0.862 -14.870  1.00  0.00    -0.248 NA
ATOM     43  C   UNL     1      -2.641  -1.612 -14.529  1.00  0.00     0.031 C 
ATOM     44  C   UNL     1      -1.908   2.026 -11.486  1.00  0.00     0.029 A 
ATOM     45  N   UNL     1      -1.383   2.119 -13.634  1.00  0.00    -0.354 N 
ATOM     46  C   UNL     1      -0.884  -1.570 -15.996  1.00  0.00     0.074 A 
ATOM     47  C   UNL     1      -2.178  -2.117 -15.675  1.00  0.00     0.031 C 
ATOM     48  C   UNL     1      -2.055   3.315 -11.879  1.00  0.00     0.029 A 
ATOM     49  C   UNL     1      -1.701   3.427 -13.285  1.00  0.00     0.049 A 
ATOM     50  H   UNL     1      -1.031   1.877 -14.521  1.00  0.00     0.167 HD
ATOM     51  C   UNL     1      -0.199  -1.477 -17.169  1.00  0.00     0.037 A 
ATOM     52  C   UNL     1      -1.683   4.516 -14.098  1.00  0.00     0.037 A 
ATOM     53  C   UNL     1       1.126  -0.952 -16.953  1.00  0.00     0.049 A 
ATOM     54  C   UNL     1      -0.798   4.206 -15.245  1.00  0.00     0.074 A 
ATOM     55  C   UNL     1       2.246  -1.366 -16.259  1.00  0.00     0.029 A 
ATOM     56  N   UNL     1       1.333   0.376 -17.233  1.00  0.00    -0.354 N 
ATOM     57  N   UNL     1       0.496   4.103 -15.155  1.00  0.00    -0.248 NA
ATOM     58  C   UNL     1      -1.395   3.594 -16.420  1.00  0.00     0.031 C 
ATOM     59  C   UNL     1       2.827  -0.168 -15.746  1.00  0.00     0.029 A 
ATOM     60  C   UNL     1       2.064   0.905 -16.204  1.00  0.00     0.049 A 
ATOM     61  H   UNL     1       1.013   0.859 -18.029  1.00  0.00     0.167 HD
ATOM     62  C   UNL     1       0.818   3.043 -15.988  1.00  0.00     0.074 A 
ATOM     63  C   UNL     1      -0.368   2.838 -16.817  1.00  0.00     0.031 C 
ATOM     64  C   UNL     1       1.906   2.260 -15.732  1.00  0.00     0.037 A 
BRANCH  51  65
ATOM     65  C   UNL     1      -0.839  -1.470 -18.539  1.00  0.00     0.057 A 
ATOM     66  C   UNL     1      -2.204  -1.214 -18.776  1.00  0.00     0.134 A 
ATOM     67  C   UNL     1      -0.010  -1.374 -19.675  1.00  0.00     0.134 A 
ATOM     68  F   UNL     1      -3.121  -1.236 -17.804  1.00  0.00    -0.206 F 
ATOM     69  C   UNL     1      -2.693  -0.819 -20.024  1.00  0.00     0.040 A 
ATOM     70  C   UNL     1      -0.482  -0.934 -20.917  1.00  0.00     0.040 A 
ATOM     71  F   UNL     1       1.308  -1.612 -19.590  1.00  0.00    -0.206 F 
ATOM     72  C   UNL     1      -1.826  -0.635 -21.089  1.00  0.00     0.006 A 
ENDBRANCH  51  65
BRANCH  52  73
ATOM     73  C   UNL     1      -2.547   5.718 -14.102  1.00  0.00     0.057 A 
ATOM     74  C   UNL     1      -3.881   5.649 -13.668  1.00  0.00     0.134 A 
ATOM     75  C   UNL     1      -2.192   6.876 -14.813  1.00  0.00     0.134 A 
ATOM     76  F   UNL     1      -4.346   4.557 -13.044  1.00  0.00    -0.206 F 
ATOM     77  C   UNL     1      -4.813   6.655 -13.948  1.00  0.00     0.040 A 
ATOM     78  C   UNL     1      -3.116   7.890 -15.103  1.00  0.00     0.040 A 
ATOM     79  F   UNL     1      -0.954   7.020 -15.308  1.00  0.00    -0.206 F 
ATOM     80  C   UNL     1      -4.437   7.774 -14.682  1.00  0.00     0.006 A 
ENDBRANCH  52  73
BRANCH  64  81
ATOM     81  C   UNL     1       2.892   2.748 -14.707  1.00  0.00     0.057 A 
ATOM     82  C   UNL     1       4.230   2.895 -15.086  1.00  0.00     0.134 A 
ATOM     83  C   UNL     1       2.588   2.960 -13.353  1.00  0.00     0.134 A 
ATOM     84  F   UNL     1       4.605   2.656 -16.353  1.00  0.00    -0.206 F 
ATOM     85  C   UNL     1       5.222   3.251 -14.170  1.00  0.00     0.040 A 
ATOM     86  C   UNL     1       3.566   3.353 -12.433  1.00  0.00     0.040 A 
ATOM     87  F   UNL     1       1.355   2.747 -12.875  1.00  0.00    -0.206 F 
ATOM     88  C   UNL     1       4.889   3.494 -12.841  1.00  0.00     0.006 A 
ENDBRANCH  64  81
ENDBRANCH  38  39
ENDBRANCH  30  33
ENDBRANCH  28  29
ENDBRANCH  27  28
ENDBRANCH   1  27
TORSDOF 14
