REMARK SMILES Cc1nc(C[N@@H+]2CCC[C@H]2C(=O)NCCCCNC(=O)c2ccc(-c3c4nc(c(-c5c(F)cccc5F)c5ccc([nH]5)c(-c5c(F)cccc5F)c5nc(c(-c6c(F)cccc6F)c6ccc3[nH]6)C=C5)C=C4)cc2)cs1
REMARK SMILES IDX 15 1 14 2 13 3 11 4 12 5 10 7 6 8 7 9 8 11 9 12 5 13 4 14
REMARK SMILES IDX 1 15 2 16 3 17 76 18 75 19 16 20 17 21 18 22 19 23 20 25
REMARK SMILES IDX 21 26 22 27 74 28 23 29 73 30 24 31 25 32 26 33 67 34 27 35
REMARK SMILES IDX 72 36 66 37 68 38 28 39 71 40 65 41 64 42 29 44 55 45 38 46
REMARK SMILES IDX 54 47 39 48 42 49 53 50 69 51 40 52 41 53 52 55 70 56 43 57
REMARK SMILES IDX 30 58 31 59 36 60 32 61 33 62 35 63 37 64 34 65 56 66 57 67
REMARK SMILES IDX 62 68 58 69 59 70 61 71 63 72 60 73 44 74 45 75 50 76 46 77
REMARK SMILES IDX 47 78 49 79 51 80 48 81
REMARK H PARENT 13 6 6 10 18 24 68 43 42 54
REMARK Flexibility Score: inf
ROOT
ATOM      1  C   UNL     1       3.609  -5.954  -1.259  1.00  0.00     0.023 C 
ENDROOT
BRANCH   1   2
ATOM      2  C   UNL     1       4.098  -4.610  -1.788  1.00  0.00     0.116 C 
BRANCH   2   3
ATOM      3  N   UNL     1       3.466  -4.261  -3.045  1.00  0.00    -0.351 N 
ATOM      4  C   UNL     1       2.604  -3.275  -3.413  1.00  0.00     0.278 C 
ATOM      5  O   UNL     1       2.254  -3.306  -4.602  1.00  0.00    -0.268 OA
ATOM      6  H   UNL     1       3.711  -4.862  -3.786  1.00  0.00     0.163 HD
BRANCH   4   7
ATOM      7  C   UNL     1       2.008  -2.208  -2.459  1.00  0.00     0.274 C 
ATOM      8  N   UNL     1       2.782  -2.017  -1.226  1.00  0.00    -0.320 N 
ATOM      9  C   UNL     1       3.640  -0.857  -1.392  1.00  0.00     0.263 C 
ATOM     10  H   UNL     1       3.398  -2.817  -1.084  1.00  0.00     0.349 HD
ATOM     11  C   UNL     1       2.890   0.073  -2.318  1.00  0.00     0.068 C 
ATOM     12  C   UNL     1       2.006  -0.838  -3.157  1.00  0.00     0.081 C 
BRANCH   8  13
ATOM     13  C   UNL     1       2.007  -2.111   0.013  1.00  0.00     0.321 C 
BRANCH  13  14
ATOM     14  C   UNL     1       1.021  -1.005   0.238  1.00  0.00     0.106 A 
ATOM     15  C   UNL     1      -2.479   0.003  -0.065  1.00  0.00     0.079 C 
ATOM     16  C   UNL     1      -1.017  -0.131   0.180  1.00  0.00     0.090 A 
ATOM     17  N   UNL     1      -0.299  -1.181  -0.157  1.00  0.00    -0.241 NA
ATOM     18  S   UNL     1      -0.154   1.139   0.950  1.00  0.00    -0.127 S 
ATOM     19  C   UNL     1       1.271   0.197   0.877  1.00  0.00     0.096 A 
ENDBRANCH  13  14
ENDBRANCH   8  13
ENDBRANCH   4   7
ENDBRANCH   2   3
ENDBRANCH   1   2
BRANCH   1  20
ATOM     20  C   UNL     1       4.043  -7.160  -2.092  1.00  0.00     0.023 C 
BRANCH  20  21
ATOM     21  C   UNL     1       5.542  -7.267  -2.351  1.00  0.00     0.116 C 
BRANCH  21  22
ATOM     22  N   UNL     1       6.338  -7.284  -1.132  1.00  0.00    -0.352 N 
ATOM     23  C   UNL     1       7.407  -8.086  -0.808  1.00  0.00     0.251 C 
ATOM     24  H   UNL     1       6.075  -6.630  -0.445  1.00  0.00     0.163 HD
ATOM     25  O   UNL     1       7.899  -8.046   0.311  1.00  0.00    -0.269 OA
BRANCH  23  26
ATOM     26  C   UNL     1       7.934  -9.029  -1.817  1.00  0.00     0.039 A 
ATOM     27  C   UNL     1       8.143 -10.360  -1.450  1.00  0.00     0.014 A 
ATOM     28  C   UNL     1       8.183  -8.607  -3.125  1.00  0.00     0.014 A 
ATOM     29  C   UNL     1       8.533 -11.287  -2.418  1.00  0.00     0.010 A 
ATOM     30  C   UNL     1       8.495  -9.546  -4.103  1.00  0.00     0.010 A 
ATOM     31  C   UNL     1       8.673 -10.895  -3.759  1.00  0.00    -0.014 A 
BRANCH  31  32
ATOM     32  C   UNL     1       8.998 -11.879  -4.820  1.00  0.00     0.031 A 
ATOM     33  C   UNL     1      10.286 -11.767  -5.585  1.00  0.00     0.074 A 
ATOM     34  C   UNL     1       8.102 -12.831  -5.145  1.00  0.00     0.049 A 
ATOM     35  N   UNL     1      10.721 -12.492  -6.584  1.00  0.00    -0.248 NA
ATOM     36  C   UNL     1      11.192 -10.677  -5.193  1.00  0.00     0.031 C 
ATOM     37  C   UNL     1       6.795 -13.015  -4.511  1.00  0.00     0.029 A 
ATOM     38  N   UNL     1       8.153 -13.819  -6.095  1.00  0.00    -0.354 N 
ATOM     39  C   UNL     1      11.940 -11.935  -6.950  1.00  0.00     0.074 A 
ATOM     40  C   UNL     1      12.146 -10.779  -6.105  1.00  0.00     0.031 C 
ATOM     41  C   UNL     1       6.183 -14.072  -5.067  1.00  0.00     0.029 A 
ATOM     42  C   UNL     1       7.035 -14.616  -6.120  1.00  0.00     0.049 A 
ATOM     43  H   UNL     1       8.918 -13.944  -6.702  1.00  0.00     0.167 HD
ATOM     44  C   UNL     1      12.819 -12.362  -7.888  1.00  0.00     0.037 A 
ATOM     45  C   UNL     1       6.731 -15.667  -6.905  1.00  0.00     0.037 A 
ATOM     46  C   UNL     1      12.619 -13.524  -8.714  1.00  0.00     0.049 A 
ATOM     47  C   UNL     1       7.714 -16.115  -7.949  1.00  0.00     0.074 A 
ATOM     48  C   UNL     1      13.477 -14.077  -9.648  1.00  0.00     0.029 A 
ATOM     49  N   UNL     1      11.474 -14.307  -8.709  1.00  0.00    -0.354 N 
ATOM     50  N   UNL     1       8.895 -15.624  -8.237  1.00  0.00    -0.248 NA
ATOM     51  C   UNL     1       7.322 -17.265  -8.775  1.00  0.00     0.031 C 
ATOM     52  C   UNL     1      12.832 -15.168 -10.241  1.00  0.00     0.029 A 
ATOM     53  C   UNL     1      11.592 -15.324  -9.642  1.00  0.00     0.049 A 
ATOM     54  H   UNL     1      10.693 -14.161  -8.129  1.00  0.00     0.167 HD
ATOM     55  C   UNL     1       9.400 -16.421  -9.256  1.00  0.00     0.074 A 
ATOM     56  C   UNL     1       8.400 -17.433  -9.529  1.00  0.00     0.031 C 
ATOM     57  C   UNL     1      10.588 -16.325  -9.903  1.00  0.00     0.037 A 
BRANCH  44  58
ATOM     58  C   UNL     1      14.074 -11.556  -8.065  1.00  0.00     0.057 A 
ATOM     59  C   UNL     1      15.070 -11.510  -7.079  1.00  0.00     0.134 A 
ATOM     60  C   UNL     1      14.288 -10.812  -9.232  1.00  0.00     0.134 A 
ATOM     61  F   UNL     1      14.923 -12.189  -5.931  1.00  0.00    -0.206 F 
ATOM     62  C   UNL     1      16.212 -10.721  -7.229  1.00  0.00     0.040 A 
ATOM     63  C   UNL     1      15.440 -10.043  -9.406  1.00  0.00     0.040 A 
ATOM     64  F   UNL     1      13.380 -10.816 -10.219  1.00  0.00    -0.206 F 
ATOM     65  C   UNL     1      16.401  -9.987  -8.398  1.00  0.00     0.006 A 
ENDBRANCH  44  58
BRANCH  45  66
ATOM     66  C   UNL     1       5.455 -16.395  -6.699  1.00  0.00     0.057 A 
ATOM     67  C   UNL     1       5.445 -17.673  -6.129  1.00  0.00     0.134 A 
ATOM     68  C   UNL     1       4.221 -15.832  -7.044  1.00  0.00     0.134 A 
ATOM     69  F   UNL     1       6.598 -18.271  -5.794  1.00  0.00    -0.206 F 
ATOM     70  C   UNL     1       4.255 -18.371  -5.918  1.00  0.00     0.040 A 
ATOM     71  C   UNL     1       3.021 -16.509  -6.819  1.00  0.00     0.040 A 
ATOM     72  F   UNL     1       4.164 -14.607  -7.587  1.00  0.00    -0.206 F 
ATOM     73  C   UNL     1       3.037 -17.785  -6.258  1.00  0.00     0.006 A 
ENDBRANCH  45  66
BRANCH  57  74
ATOM     74  C   UNL     1      10.885 -17.361 -10.948  1.00  0.00     0.057 A 
ATOM     75  C   UNL     1      10.237 -17.367 -12.190  1.00  0.00     0.134 A 
ATOM     76  C   UNL     1      11.858 -18.342 -10.721  1.00  0.00     0.134 A 
ATOM     77  F   UNL     1       9.284 -16.463 -12.465  1.00  0.00    -0.206 F 
ATOM     78  C   UNL     1      10.533 -18.325 -13.161  1.00  0.00     0.040 A 
ATOM     79  C   UNL     1      12.181 -19.289 -11.694  1.00  0.00     0.040 A 
ATOM     80  F   UNL     1      12.521 -18.387  -9.556  1.00  0.00    -0.206 F 
ATOM     81  C   UNL     1      11.513 -19.285 -12.916  1.00  0.00     0.006 A 
ENDBRANCH  57  74
ENDBRANCH  31  32
ENDBRANCH  23  26
ENDBRANCH  21  22
ENDBRANCH  20  21
ENDBRANCH   1  20
TORSDOF 13
