REMARK SMILES Cc1ccccc1C(=O)Nc1ccc(N2CCC(n3c(C)nc4cccnc43)CC2)c(C(=O)NCCCCNC(=O)c2ccc(-c3c4nc(c(-c5c(F)cccc5F)c5ccc([nH]5)c(-c5c(F)cccc5F)c5nc(c(-c6c(F)cccc6F)c6ccc3[nH]6)C=C5)C=C4)cc2)c1
REMARK SMILES IDX 36 1 35 2 34 3 32 4 33 5 31 7 11 8 12 9 96 10 13 11 14 12
REMARK SMILES IDX 10 13 8 14 9 15 7 17 1 18 2 19 3 20 4 21 6 22 5 23 15 24
REMARK SMILES IDX 16 25 30 26 17 27 29 28 18 29 19 30 20 31 28 32 21 33 22 34
REMARK SMILES IDX 23 35 27 36 24 37 26 38 25 39 37 40 38 41 39 42 40 43 41 45
REMARK SMILES IDX 42 46 43 47 95 48 44 49 94 50 45 51 46 52 47 53 88 54 48 55
REMARK SMILES IDX 93 56 87 57 89 58 49 59 92 60 86 61 85 62 50 64 76 65 59 66
REMARK SMILES IDX 75 67 60 68 63 69 74 70 90 71 61 72 62 73 73 75 91 76 64 77
REMARK SMILES IDX 51 78 52 79 57 80 53 81 54 82 56 83 58 84 55 85 77 86 78 87
REMARK SMILES IDX 83 88 79 89 80 90 82 91 84 92 81 93 65 94 66 95 71 96 67 97
REMARK SMILES IDX 68 98 70 99 72 100 69 101
REMARK H PARENT 34 6 10 16 39 44 89 63 63 74
REMARK Flexibility Score: inf
ROOT
ATOM      1  C   UNL     1       9.391  -1.892  -0.264  1.00  0.00     0.023 C 
ENDROOT
BRANCH   1   2
ATOM      2  C   UNL     1       7.957  -1.677   0.208  1.00  0.00     0.116 C 
BRANCH   2   3
ATOM      3  N   UNL     1       7.640  -0.796   1.303  1.00  0.00    -0.352 N 
ATOM      4  C   UNL     1       6.467  -0.070   1.496  1.00  0.00     0.253 C 
ATOM      5  O   UNL     1       6.359   0.514   2.579  1.00  0.00    -0.269 OA
ATOM      6  H   UNL     1       8.333  -0.696   1.995  1.00  0.00     0.163 HD
BRANCH   4   7
ATOM      7  C   UNL     1       5.353   0.107   0.474  1.00  0.00     0.065 A 
ATOM      8  C   UNL     1       3.442   1.532  -0.136  1.00  0.00     0.042 A 
ATOM      9  C   UNL     1       3.178   0.753  -1.244  1.00  0.00     0.028 A 
ATOM     10  C   UNL     1       4.603   1.302   0.621  1.00  0.00     0.042 A 
ATOM     11  C   UNL     1       3.917  -0.406  -1.428  1.00  0.00     0.029 A 
ATOM     12  C   UNL     1       4.905  -0.821  -0.498  1.00  0.00     0.050 A 
BRANCH   8  13
ATOM     13  N   UNL     1       2.514   2.469   0.328  1.00  0.00    -0.322 N 
ATOM     14  C   UNL     1       1.129   2.432   0.347  1.00  0.00     0.255 C 
ATOM     15  O   UNL     1       0.547   3.495   0.586  1.00  0.00    -0.269 OA
ATOM     16  H   UNL     1       2.909   3.289   0.702  1.00  0.00     0.170 HD
BRANCH  14  17
ATOM     17  C   UNL     1       0.281   1.192   0.179  1.00  0.00     0.043 A 
ATOM     18  C   UNL     1       1.758  -0.537   1.424  1.00  0.00     0.045 C 
ATOM     19  C   UNL     1       0.561  -0.118   0.627  1.00  0.00    -0.038 A 
ATOM     20  C   UNL     1      -0.368  -1.157   0.377  1.00  0.00     0.004 A 
ATOM     21  C   UNL     1      -1.618  -0.897  -0.170  1.00  0.00     0.000 A 
ATOM     22  C   UNL     1      -1.007   1.429  -0.352  1.00  0.00     0.014 A 
ATOM     23  C   UNL     1      -1.951   0.406  -0.504  1.00  0.00     0.001 A 
ENDBRANCH  14  17
ENDBRANCH   8  13
BRANCH  12  24
ATOM     24  N   UNL     1       5.178  -2.194  -0.491  1.00  0.00    -0.371 N 
ATOM     25  C   UNL     1       5.648  -2.808  -1.725  1.00  0.00     0.118 C 
ATOM     26  C   UNL     1       4.910  -2.915   0.748  1.00  0.00     0.118 C 
ATOM     27  C   UNL     1       5.489  -4.302  -1.811  1.00  0.00     0.047 C 
ATOM     28  C   UNL     1       4.418  -4.317   0.477  1.00  0.00     0.047 C 
ATOM     29  C   UNL     1       5.294  -5.080  -0.507  1.00  0.00     0.094 C 
BRANCH  29  30
ATOM     30  N   UNL     1       4.794  -6.410  -0.886  1.00  0.00    -0.310 N 
ATOM     31  C   UNL     1       3.520  -6.944  -0.823  1.00  0.00     0.108 A 
ATOM     32  C   UNL     1       5.537  -7.264  -1.673  1.00  0.00     0.160 A 
ATOM     33  C   UNL     1       2.482  -6.623   0.193  1.00  0.00     0.088 C 
ATOM     34  N   UNL     1       3.363  -7.884  -1.740  1.00  0.00    -0.232 NA
ATOM     35  C   UNL     1       4.614  -8.135  -2.227  1.00  0.00     0.108 A 
ATOM     36  N   UNL     1       6.870  -7.240  -1.872  1.00  0.00    -0.237 NA
ATOM     37  C   UNL     1       5.087  -9.140  -3.079  1.00  0.00     0.034 A 
ATOM     38  C   UNL     1       7.291  -8.259  -2.661  1.00  0.00     0.113 A 
ATOM     39  C   UNL     1       6.471  -9.210  -3.267  1.00  0.00     0.022 A 
ENDBRANCH  29  30
ENDBRANCH  12  24
ENDBRANCH   4   7
ENDBRANCH   2   3
ENDBRANCH   1   2
BRANCH   1  40
ATOM     40  C   UNL     1      10.356  -2.696   0.600  1.00  0.00     0.023 C 
BRANCH  40  41
ATOM     41  C   UNL     1       9.893  -4.066   1.058  1.00  0.00     0.116 C 
BRANCH  41  42
ATOM     42  N   UNL     1      10.022  -5.188   0.151  1.00  0.00    -0.352 N 
ATOM     43  C   UNL     1       9.991  -6.553   0.436  1.00  0.00     0.251 C 
ATOM     44  H   UNL     1      10.150  -4.954  -0.797  1.00  0.00     0.163 HD
ATOM     45  O   UNL     1      10.296  -7.342  -0.435  1.00  0.00    -0.269 OA
BRANCH  43  46
ATOM     46  C   UNL     1       9.488  -7.079   1.752  1.00  0.00     0.039 A 
ATOM     47  C   UNL     1       9.365  -8.474   1.923  1.00  0.00     0.014 A 
ATOM     48  C   UNL     1       8.973  -6.253   2.741  1.00  0.00     0.014 A 
ATOM     49  C   UNL     1       8.581  -8.996   2.956  1.00  0.00     0.010 A 
ATOM     50  C   UNL     1       8.139  -6.745   3.698  1.00  0.00     0.010 A 
ATOM     51  C   UNL     1       7.886  -8.108   3.756  1.00  0.00    -0.014 A 
BRANCH  51  52
ATOM     52  C   UNL     1       6.865  -8.401   4.738  1.00  0.00     0.031 A 
ATOM     53  C   UNL     1       7.260  -8.408   6.151  1.00  0.00     0.074 A 
ATOM     54  C   UNL     1       5.618  -8.103   4.313  1.00  0.00     0.049 A 
ATOM     55  N   UNL     1       6.464  -8.622   7.133  1.00  0.00    -0.248 NA
ATOM     56  C   UNL     1       8.639  -8.169   6.567  1.00  0.00     0.031 C 
ATOM     57  C   UNL     1       4.466  -7.608   5.057  1.00  0.00     0.029 A 
ATOM     58  N   UNL     1       5.109  -8.373   3.040  1.00  0.00    -0.354 N 
ATOM     59  C   UNL     1       7.121  -8.238   8.284  1.00  0.00     0.074 A 
ATOM     60  C   UNL     1       8.500  -8.092   7.892  1.00  0.00     0.031 C 
ATOM     61  C   UNL     1       3.352  -7.879   4.350  1.00  0.00     0.029 A 
ATOM     62  C   UNL     1       3.768  -8.741   3.251  1.00  0.00     0.049 A 
ATOM     63  H   UNL     1       5.587  -8.318   2.181  1.00  0.00     0.167 HD
ATOM     64  C   UNL     1       6.369  -7.930   9.380  1.00  0.00     0.037 A 
ATOM     65  C   UNL     1       3.407 -10.059   3.132  1.00  0.00     0.037 A 
ATOM     66  C   UNL     1       4.953  -8.183   9.090  1.00  0.00     0.049 A 
ATOM     67  C   UNL     1       2.824 -10.604   4.396  1.00  0.00     0.074 A 
ATOM     68  C   UNL     1       3.917  -7.348   8.704  1.00  0.00     0.029 A 
ATOM     69  N   UNL     1       4.533  -9.482   8.822  1.00  0.00    -0.354 N 
ATOM     70  N   UNL     1       3.226 -10.263   5.587  1.00  0.00    -0.248 NA
ATOM     71  C   UNL     1       1.698 -11.523   4.399  1.00  0.00     0.031 C 
ATOM     72  C   UNL     1       2.887  -8.157   8.154  1.00  0.00     0.029 A 
ATOM     73  C   UNL     1       3.286  -9.483   8.228  1.00  0.00     0.049 A 
ATOM     74  H   UNL     1       5.054 -10.291   9.028  1.00  0.00     0.167 HD
ATOM     75  C   UNL     1       2.432 -10.886   6.511  1.00  0.00     0.074 A 
ATOM     76  C   UNL     1       1.483 -11.646   5.717  1.00  0.00     0.031 C 
ATOM     77  C   UNL     1       2.636 -10.733   7.850  1.00  0.00     0.037 A 
BRANCH  64  78
ATOM     78  C   UNL     1       6.832  -7.149  10.598  1.00  0.00     0.057 A 
ATOM     79  C   UNL     1       5.885  -6.552  11.457  1.00  0.00     0.134 A 
ATOM     80  C   UNL     1       8.166  -6.902  10.974  1.00  0.00     0.134 A 
ATOM     81  F   UNL     1       4.568  -6.743  11.298  1.00  0.00    -0.206 F 
ATOM     82  C   UNL     1       6.232  -5.725  12.536  1.00  0.00     0.040 A 
ATOM     83  C   UNL     1       8.528  -6.053  12.033  1.00  0.00     0.040 A 
ATOM     84  F   UNL     1       9.201  -7.500  10.383  1.00  0.00    -0.206 F 
ATOM     85  C   UNL     1       7.560  -5.453  12.816  1.00  0.00     0.006 A 
ENDBRANCH  64  78
BRANCH  65  86
ATOM     86  C   UNL     1       4.315 -10.831   2.232  1.00  0.00     0.057 A 
ATOM     87  C   UNL     1       4.426 -10.361   0.921  1.00  0.00     0.134 A 
ATOM     88  C   UNL     1       5.373 -11.604   2.722  1.00  0.00     0.134 A 
ATOM     89  F   UNL     1       3.416  -9.664   0.384  1.00  0.00    -0.206 F 
ATOM     90  C   UNL     1       5.637 -10.427   0.239  1.00  0.00     0.040 A 
ATOM     91  C   UNL     1       6.566 -11.742   2.000  1.00  0.00     0.040 A 
ATOM     92  F   UNL     1       5.323 -12.136   3.950  1.00  0.00    -0.206 F 
ATOM     93  C   UNL     1       6.727 -11.083   0.787  1.00  0.00     0.006 A 
ENDBRANCH  65  86
BRANCH  77  94
ATOM     94  C   UNL     1       2.192 -11.708   8.918  1.00  0.00     0.057 A 
ATOM     95  C   UNL     1       1.739 -13.014   8.669  1.00  0.00     0.134 A 
ATOM     96  C   UNL     1       2.376 -11.407  10.288  1.00  0.00     0.134 A 
ATOM     97  F   UNL     1       1.636 -13.515   7.433  1.00  0.00    -0.206 F 
ATOM     98  C   UNL     1       1.429 -13.919   9.691  1.00  0.00     0.040 A 
ATOM     99  C   UNL     1       2.142 -12.328  11.312  1.00  0.00     0.040 A 
ATOM    100  F   UNL     1       2.835 -10.217  10.703  1.00  0.00    -0.206 F 
ATOM    101  C   UNL     1       1.647 -13.585  11.018  1.00  0.00     0.006 A 
ENDBRANCH  77  94
ENDBRANCH  51  52
ENDBRANCH  43  46
ENDBRANCH  41  42
ENDBRANCH  40  41
ENDBRANCH   1  40
TORSDOF 15
