REMARK SMILES CCOc1ccc(NC(=O)Nc2cccc(C(=O)NCCCCNC(=O)c3ccc(-c4c5nc(c(-c6c(F)cccc6F)c6ccc([nH]6)c(-c6c(F)cccc6F)c6nc(c(-c7c(F)cccc7F)c7ccc4[nH]7)C=C6)C=C5)cc3)c2)cc1
REMARK SMILES IDX 20 1 19 2 17 3 18 4 16 6 12 7 13 8 81 9 14 10 15 11 11 12
REMARK SMILES IDX 8 13 9 14 10 16 7 18 4 19 5 20 83 21 6 22 82 23 3 24 2 25
REMARK SMILES IDX 1 26 21 27 22 28 23 29 24 30 25 31 26 33 27 34 28 35 80 36
REMARK SMILES IDX 29 37 79 38 30 39 31 40 32 41 73 42 33 43 78 44 72 45 74 46
REMARK SMILES IDX 34 47 77 48 71 49 70 50 35 52 61 53 44 54 60 55 45 56 48 57
REMARK SMILES IDX 59 58 75 59 46 60 47 61 58 63 76 64 49 65 36 66 37 67 42 68
REMARK SMILES IDX 38 69 39 70 41 71 43 72 40 73 62 74 63 75 68 76 64 77 65 78
REMARK SMILES IDX 67 79 69 80 66 81 50 82 51 83 56 84 52 85 53 86 55 87 57 88
REMARK SMILES IDX 54 89
REMARK H PARENT 19 5 8 15 11 17 24 32 74 51 48 62
REMARK Flexibility Score: inf
ROOT
ATOM      1  C   UNL     1       4.646   2.077  -2.660  1.00  0.00     0.116 C 
ENDROOT
BRANCH   1   2
ATOM      2  N   UNL     1       3.332   2.351  -3.193  1.00  0.00    -0.352 N 
ATOM      3  C   UNL     1       2.669   1.911  -4.310  1.00  0.00     0.251 C 
ATOM      4  O   UNL     1       1.531   2.353  -4.479  1.00  0.00    -0.269 OA
ATOM      5  H   UNL     1       2.808   2.980  -2.646  1.00  0.00     0.163 HD
BRANCH   3   6
ATOM      6  C   UNL     1       3.206   0.900  -5.273  1.00  0.00     0.041 A 
ATOM      7  C   UNL     1       4.890  -0.645  -6.084  1.00  0.00     0.043 A 
ATOM      8  C   UNL     1       3.982  -1.207  -6.980  1.00  0.00     0.026 A 
ATOM      9  C   UNL     1       4.536   0.487  -5.348  1.00  0.00     0.040 A 
ATOM     10  C   UNL     1       2.665  -0.754  -6.986  1.00  0.00     0.003 A 
ATOM     11  C   UNL     1       2.273   0.264  -6.111  1.00  0.00     0.014 A 
BRANCH   7  12
ATOM     12  N   UNL     1       6.105  -1.313  -5.866  1.00  0.00    -0.308 N 
ATOM     13  N   UNL     1       6.337  -1.415  -3.481  1.00  0.00    -0.308 N 
ATOM     14  C   UNL     1       6.851  -1.440  -4.739  1.00  0.00     0.323 C 
ATOM     15  H   UNL     1       7.021  -1.234  -2.796  1.00  0.00     0.171 HD
ATOM     16  O   UNL     1       8.068  -1.608  -4.857  1.00  0.00    -0.248 OA
ATOM     17  H   UNL     1       6.477  -1.762  -6.660  1.00  0.00     0.171 HD
BRANCH  13  18
ATOM     18  C   UNL     1       5.049  -1.587  -2.931  1.00  0.00     0.043 A 
ATOM     19  C   UNL     1       2.458  -1.385  -1.870  1.00  0.00     0.119 A 
ATOM     20  C   UNL     1       2.666  -2.002  -3.098  1.00  0.00     0.048 A 
ATOM     21  C   UNL     1       3.555  -1.025  -1.095  1.00  0.00     0.048 A 
ATOM     22  C   UNL     1       3.963  -2.130  -3.611  1.00  0.00     0.030 A 
ATOM     23  C   UNL     1       4.848  -1.142  -1.618  1.00  0.00     0.030 A 
BRANCH  19  24
ATOM     24  O   UNL     1       1.167  -1.244  -1.450  1.00  0.00    -0.494 OA
BRANCH  24  25
ATOM     25  C   UNL     1       0.810   0.088  -1.052  1.00  0.00     0.226 C 
ATOM     26  C   UNL     1       0.734   0.184   0.463  1.00  0.00     0.049 C 
ENDBRANCH  24  25
ENDBRANCH  19  24
ENDBRANCH  13  18
ENDBRANCH   7  12
ENDBRANCH   3   6
ENDBRANCH   1   2
BRANCH   1  27
ATOM     27  C   UNL     1       5.652   3.127  -3.117  1.00  0.00     0.023 C 
BRANCH  27  28
ATOM     28  C   UNL     1       5.666   4.352  -2.207  1.00  0.00     0.023 C 
BRANCH  28  29
ATOM     29  C   UNL     1       6.126   4.065  -0.781  1.00  0.00     0.116 C 
BRANCH  29  30
ATOM     30  N   UNL     1       7.464   3.500  -0.717  1.00  0.00    -0.352 N 
ATOM     31  C   UNL     1       8.474   3.780   0.170  1.00  0.00     0.251 C 
ATOM     32  H   UNL     1       7.675   2.825  -1.403  1.00  0.00     0.163 HD
ATOM     33  O   UNL     1       9.592   3.317   0.002  1.00  0.00    -0.269 OA
BRANCH  31  34
ATOM     34  C   UNL     1       8.202   4.676   1.313  1.00  0.00     0.039 A 
ATOM     35  C   UNL     1       9.118   5.690   1.597  1.00  0.00     0.014 A 
ATOM     36  C   UNL     1       7.044   4.532   2.083  1.00  0.00     0.014 A 
ATOM     37  C   UNL     1       8.847   6.588   2.627  1.00  0.00     0.010 A 
ATOM     38  C   UNL     1       6.732   5.483   3.048  1.00  0.00     0.010 A 
ATOM     39  C   UNL     1       7.638   6.512   3.341  1.00  0.00    -0.014 A 
BRANCH  39  40
ATOM     40  C   UNL     1       7.328   7.507   4.397  1.00  0.00     0.031 A 
ATOM     41  C   UNL     1       7.175   7.078   5.830  1.00  0.00     0.074 A 
ATOM     42  C   UNL     1       7.173   8.802   4.058  1.00  0.00     0.049 A 
ATOM     43  N   UNL     1       6.967   7.814   6.893  1.00  0.00    -0.248 NA
ATOM     44  C   UNL     1       7.239   5.634   6.106  1.00  0.00     0.031 C 
ATOM     45  C   UNL     1       7.228   9.330   2.692  1.00  0.00     0.029 A 
ATOM     46  N   UNL     1       6.950   9.911   4.833  1.00  0.00    -0.354 N 
ATOM     47  C   UNL     1       6.877   6.925   7.956  1.00  0.00     0.074 A 
ATOM     48  C   UNL     1       6.980   5.593   7.404  1.00  0.00     0.031 C 
ATOM     49  C   UNL     1       7.092  10.665   2.732  1.00  0.00     0.029 A 
ATOM     50  C   UNL     1       6.908  11.083   4.118  1.00  0.00     0.049 A 
ATOM     51  H   UNL     1       6.832   9.870   5.810  1.00  0.00     0.167 HD
ATOM     52  C   UNL     1       6.753   7.195   9.277  1.00  0.00     0.037 A 
ATOM     53  C   UNL     1       6.750  12.353   4.534  1.00  0.00     0.037 A 
ATOM     54  C   UNL     1       6.662   8.524   9.822  1.00  0.00     0.049 A 
ATOM     55  C   UNL     1       6.621  12.628   6.007  1.00  0.00     0.074 A 
ATOM     56  C   UNL     1       6.583   8.908  11.149  1.00  0.00     0.029 A 
ATOM     57  N   UNL     1       6.631   9.687   9.067  1.00  0.00    -0.354 N 
ATOM     58  N   UNL     1       6.624  11.783   7.010  1.00  0.00    -0.248 NA
ATOM     59  C   UNL     1       6.483  14.035   6.407  1.00  0.00     0.031 C 
ATOM     60  C   UNL     1       6.451  10.300  11.194  1.00  0.00     0.029 A 
ATOM     61  C   UNL     1       6.513  10.788   9.899  1.00  0.00     0.049 A 
ATOM     62  H   UNL     1       6.686   9.724   8.084  1.00  0.00     0.167 HD
ATOM     63  C   UNL     1       6.523  12.556   8.159  1.00  0.00     0.074 A 
ATOM     64  C   UNL     1       6.476  13.938   7.728  1.00  0.00     0.031 C 
ATOM     65  C   UNL     1       6.475  12.159   9.455  1.00  0.00     0.037 A 
BRANCH  52  66
ATOM     66  C   UNL     1       6.714   6.027  10.223  1.00  0.00     0.057 A 
ATOM     67  C   UNL     1       7.836   5.218  10.447  1.00  0.00     0.134 A 
ATOM     68  C   UNL     1       5.551   5.728  10.944  1.00  0.00     0.134 A 
ATOM     69  F   UNL     1       8.979   5.440   9.780  1.00  0.00    -0.206 F 
ATOM     70  C   UNL     1       7.795   4.137  11.329  1.00  0.00     0.040 A 
ATOM     71  C   UNL     1       5.507   4.669  11.853  1.00  0.00     0.040 A 
ATOM     72  F   UNL     1       4.441   6.463  10.784  1.00  0.00    -0.206 F 
ATOM     73  C   UNL     1       6.629   3.865  12.042  1.00  0.00     0.006 A 
ENDBRANCH  52  66
BRANCH  53  74
ATOM     74  C   UNL     1       6.746  13.463   3.547  1.00  0.00     0.057 A 
ATOM     75  C   UNL     1       7.791  14.393   3.494  1.00  0.00     0.134 A 
ATOM     76  C   UNL     1       5.694  13.625   2.637  1.00  0.00     0.134 A 
ATOM     77  F   UNL     1       8.821  14.301   4.348  1.00  0.00    -0.206 F 
ATOM     78  C   UNL     1       7.779  15.457   2.589  1.00  0.00     0.040 A 
ATOM     79  C   UNL     1       5.683  14.666   1.708  1.00  0.00     0.040 A 
ATOM     80  F   UNL     1       4.668  12.761   2.628  1.00  0.00    -0.206 F 
ATOM     81  C   UNL     1       6.725  15.592   1.689  1.00  0.00     0.006 A 
ENDBRANCH  53  74
BRANCH  65  82
ATOM     82  C   UNL     1       6.416  13.235  10.501  1.00  0.00     0.057 A 
ATOM     83  C   UNL     1       5.280  14.033  10.688  1.00  0.00     0.134 A 
ATOM     84  C   UNL     1       7.507  13.456  11.352  1.00  0.00     0.134 A 
ATOM     85  F   UNL     1       4.204  13.880   9.900  1.00  0.00    -0.206 F 
ATOM     86  C   UNL     1       5.244  15.034  11.659  1.00  0.00     0.040 A 
ATOM     87  C   UNL     1       7.470  14.432  12.349  1.00  0.00     0.040 A 
ATOM     88  F   UNL     1       8.622  12.719  11.237  1.00  0.00    -0.206 F 
ATOM     89  C   UNL     1       6.340  15.231  12.498  1.00  0.00     0.006 A 
ENDBRANCH  65  82
ENDBRANCH  39  40
ENDBRANCH  31  34
ENDBRANCH  29  30
ENDBRANCH  28  29
ENDBRANCH  27  28
ENDBRANCH   1  27
TORSDOF 15
