REMARK SMILES C[C@@H]1CN(C(=O)NC(=O)CCCCC(=O)NCCCCNC(=O)c2ccc(-c3c4nc(c(-c5c(F)cccc5F)c5ccc([nH]5)c(-c5c(F)cccc5F)c5nc(c(-c6c(F)cccc6F)c6ccc3[nH]6)C=C5)C=C4)cc2)CCO1
REMARK SMILES IDX 17 1 16 2 14 3 15 4 13 6 12 7 11 8 10 9 8 10 5 11 6 12 7 13
REMARK SMILES IDX 9 15 4 16 1 17 2 18 3 19 80 20 79 21 78 22 18 23 19 24 20 25
REMARK SMILES IDX 21 26 22 27 23 29 24 30 25 31 77 32 26 33 76 34 27 35 28 36
REMARK SMILES IDX 29 37 70 38 30 39 75 40 69 41 71 42 31 43 74 44 68 45 67 46
REMARK SMILES IDX 32 48 58 49 41 50 57 51 42 52 45 53 56 54 72 55 43 56 44 57
REMARK SMILES IDX 55 59 73 60 46 61 33 62 34 63 39 64 35 65 36 66 38 67 40 68
REMARK SMILES IDX 37 69 59 70 60 71 65 72 61 73 62 74 64 75 66 76 63 77 47 78
REMARK SMILES IDX 48 79 53 80 49 81 50 82 52 83 54 84 51 85
REMARK H PARENT 16 5 7 14 21 28 71 47 45 58
REMARK Flexibility Score: inf
ROOT
ATOM      1  C   UNL     1       1.728  -1.096  -2.022  1.00  0.00     0.116 C 
ENDROOT
BRANCH   1   2
ATOM      2  N   UNL     1       0.785  -0.350  -2.816  1.00  0.00    -0.356 N 
ATOM      3  C   UNL     1      -0.573  -0.456  -2.847  1.00  0.00     0.219 C 
ATOM      4  O   UNL     1      -1.189   0.177  -3.703  1.00  0.00    -0.275 OA
ATOM      5  H   UNL     1       1.173   0.326  -3.416  1.00  0.00     0.163 HD
BRANCH   3   6
ATOM      6  C   UNL     1      -1.296  -1.266  -1.786  1.00  0.00     0.100 C 
BRANCH   6   7
ATOM      7  C   UNL     1      -1.528  -2.752  -2.041  1.00  0.00     0.010 C 
BRANCH   7   8
ATOM      8  C   UNL     1      -0.517  -3.764  -1.478  1.00  0.00     0.010 C 
BRANCH   8   9
ATOM      9  C   UNL     1      -0.062  -3.623  -0.023  1.00  0.00     0.100 C 
BRANCH   9  10
ATOM     10  C   UNL     1      -1.075  -3.936   1.051  1.00  0.00     0.227 C 
ATOM     11  C   UNL     1      -2.011  -1.800   1.630  1.00  0.00     0.324 C 
ATOM     12  O   UNL     1      -3.224  -1.829   1.433  1.00  0.00    -0.248 OA
ATOM     13  N   UNL     1      -1.358  -2.952   1.972  1.00  0.00    -0.278 N 
ATOM     14  H   UNL     1      -1.081  -3.082   2.907  1.00  0.00     0.174 HD
ATOM     15  O   UNL     1      -1.554  -5.062   1.176  1.00  0.00    -0.275 OA
BRANCH  11  16
ATOM     16  N   UNL     1      -1.296  -0.612   1.686  1.00  0.00    -0.320 N 
ATOM     17  C   UNL     1       2.208   0.938   1.701  1.00  0.00     0.040 C 
ATOM     18  C   UNL     1       0.730   0.867   2.076  1.00  0.00     0.134 C 
ATOM     19  C   UNL     1       0.167  -0.524   1.746  1.00  0.00     0.153 C 
ATOM     20  O   UNL     1       0.060   1.880   1.314  1.00  0.00    -0.375 OA
ATOM     21  C   UNL     1      -1.329   1.910   1.650  1.00  0.00     0.182 C 
ATOM     22  C   UNL     1      -2.018   0.601   1.275  1.00  0.00     0.150 C 
ENDBRANCH  11  16
ENDBRANCH   9  10
ENDBRANCH   8   9
ENDBRANCH   7   8
ENDBRANCH   6   7
ENDBRANCH   3   6
ENDBRANCH   1   2
BRANCH   1  23
ATOM     23  C   UNL     1       2.600  -1.987  -2.896  1.00  0.00     0.023 C 
BRANCH  23  24
ATOM     24  C   UNL     1       3.807  -1.251  -3.463  1.00  0.00     0.023 C 
BRANCH  24  25
ATOM     25  C   UNL     1       4.782  -0.760  -2.401  1.00  0.00     0.116 C 
BRANCH  25  26
ATOM     26  N   UNL     1       5.366  -1.845  -1.619  1.00  0.00    -0.352 N 
ATOM     27  C   UNL     1       6.701  -2.083  -1.377  1.00  0.00     0.251 C 
ATOM     28  H   UNL     1       4.731  -2.482  -1.218  1.00  0.00     0.163 HD
ATOM     29  O   UNL     1       7.083  -3.081  -0.795  1.00  0.00    -0.269 OA
BRANCH  27  30
ATOM     30  C   UNL     1       7.657  -1.081  -1.880  1.00  0.00     0.039 A 
ATOM     31  C   UNL     1       8.553  -1.442  -2.887  1.00  0.00     0.014 A 
ATOM     32  C   UNL     1       7.514   0.247  -1.471  1.00  0.00     0.014 A 
ATOM     33  C   UNL     1       9.269  -0.443  -3.545  1.00  0.00     0.010 A 
ATOM     34  C   UNL     1       8.166   1.242  -2.183  1.00  0.00     0.010 A 
ATOM     35  C   UNL     1       9.047   0.907  -3.226  1.00  0.00    -0.014 A 
BRANCH  35  36
ATOM     36  C   UNL     1       9.742   2.005  -3.938  1.00  0.00     0.031 A 
ATOM     37  C   UNL     1      10.654   2.910  -3.161  1.00  0.00     0.074 A 
ATOM     38  C   UNL     1       9.476   2.255  -5.235  1.00  0.00     0.049 A 
ATOM     39  N   UNL     1      11.217   4.032  -3.524  1.00  0.00    -0.248 NA
ATOM     40  C   UNL     1      10.929   2.519  -1.768  1.00  0.00     0.031 C 
ATOM     41  C   UNL     1       8.575   1.476  -6.086  1.00  0.00     0.029 A 
ATOM     42  N   UNL     1       9.928   3.256  -6.058  1.00  0.00    -0.354 N 
ATOM     43  C   UNL     1      11.873   4.501  -2.394  1.00  0.00     0.074 A 
ATOM     44  C   UNL     1      11.600   3.569  -1.323  1.00  0.00     0.031 C 
ATOM     45  C   UNL     1       8.552   2.020  -7.315  1.00  0.00     0.029 A 
ATOM     46  C   UNL     1       9.404   3.206  -7.327  1.00  0.00     0.049 A 
ATOM     47  H   UNL     1      10.567   3.946  -5.766  1.00  0.00     0.167 HD
ATOM     48  C   UNL     1      12.651   5.601  -2.266  1.00  0.00     0.037 A 
ATOM     49  C   UNL     1       9.586   4.031  -8.375  1.00  0.00     0.037 A 
ATOM     50  C   UNL     1      12.965   6.491  -3.349  1.00  0.00     0.049 A 
ATOM     51  C   UNL     1      10.490   5.223  -8.223  1.00  0.00     0.074 A 
ATOM     52  C   UNL     1      13.799   7.595  -3.344  1.00  0.00     0.029 A 
ATOM     53  N   UNL     1      12.467   6.368  -4.637  1.00  0.00    -0.354 N 
ATOM     54  N   UNL     1      11.142   5.633  -7.162  1.00  0.00    -0.248 NA
ATOM     55  C   UNL     1      10.686   6.065  -9.412  1.00  0.00     0.031 C 
ATOM     56  C   UNL     1      13.786   8.154  -4.626  1.00  0.00     0.029 A 
ATOM     57  C   UNL     1      12.973   7.378  -5.436  1.00  0.00     0.049 A 
ATOM     58  H   UNL     1      11.845   5.666  -4.938  1.00  0.00     0.167 HD
ATOM     59  C   UNL     1      11.852   6.758  -7.562  1.00  0.00     0.074 A 
ATOM     60  C   UNL     1      11.551   6.966  -8.964  1.00  0.00     0.031 C 
ATOM     61  C   UNL     1      12.680   7.547  -6.836  1.00  0.00     0.037 A 
BRANCH  48  62
ATOM     62  C   UNL     1      13.214   5.886  -0.907  1.00  0.00     0.057 A 
ATOM     63  C   UNL     1      14.214   5.086  -0.338  1.00  0.00     0.134 A 
ATOM     64  C   UNL     1      12.748   6.971  -0.155  1.00  0.00     0.134 A 
ATOM     65  F   UNL     1      14.689   4.019  -0.999  1.00  0.00    -0.206 F 
ATOM     66  C   UNL     1      14.705   5.334   0.945  1.00  0.00     0.040 A 
ATOM     67  C   UNL     1      13.252   7.247   1.117  1.00  0.00     0.040 A 
ATOM     68  F   UNL     1      11.793   7.778  -0.642  1.00  0.00    -0.206 F 
ATOM     69  C   UNL     1      14.227   6.421   1.674  1.00  0.00     0.006 A 
ENDBRANCH  48  62
BRANCH  49  70
ATOM     70  C   UNL     1       8.924   3.742  -9.672  1.00  0.00     0.057 A 
ATOM     71  C   UNL     1       9.663   3.274 -10.765  1.00  0.00     0.134 A 
ATOM     72  C   UNL     1       7.548   3.922  -9.852  1.00  0.00     0.134 A 
ATOM     73  F   UNL     1      10.988   3.099 -10.657  1.00  0.00    -0.206 F 
ATOM     74  C   UNL     1       9.061   3.011 -11.996  1.00  0.00     0.040 A 
ATOM     75  C   UNL     1       6.929   3.643 -11.072  1.00  0.00     0.040 A 
ATOM     76  F   UNL     1       6.784   4.360  -8.840  1.00  0.00    -0.206 F 
ATOM     77  C   UNL     1       7.688   3.192 -12.150  1.00  0.00     0.006 A 
ENDBRANCH  49  70
BRANCH  61  78
ATOM     78  C   UNL     1      13.364   8.673  -7.550  1.00  0.00     0.057 A 
ATOM     79  C   UNL     1      12.690   9.852  -7.885  1.00  0.00     0.134 A 
ATOM     80  C   UNL     1      14.733   8.599  -7.837  1.00  0.00     0.134 A 
ATOM     81  F   UNL     1      11.377   9.977  -7.645  1.00  0.00    -0.206 F 
ATOM     82  C   UNL     1      13.354  10.919  -8.492  1.00  0.00     0.040 A 
ATOM     83  C   UNL     1      15.411   9.666  -8.425  1.00  0.00     0.040 A 
ATOM     84  F   UNL     1      15.434   7.497  -7.531  1.00  0.00    -0.206 F 
ATOM     85  C   UNL     1      14.721  10.831  -8.755  1.00  0.00     0.006 A 
ENDBRANCH  61  78
ENDBRANCH  35  36
ENDBRANCH  27  30
ENDBRANCH  25  26
ENDBRANCH  24  25
ENDBRANCH  23  24
ENDBRANCH   1  23
TORSDOF 16
