REMARK SMILES O=C(NCCCCNC(=O)c1cnc2c(C(F)(F)F)cccc2c1NCc1cccnc1)c1ccc(-c2c3nc(c(-c4c(F)cccc4F)c4ccc([nH]4)c(-c4c(F)cccc4F)c4nc(c(-c5c(F)cccc5F)c5ccc2[nH]5)C=C4)C=C3)cc1
REMARK SMILES IDX 6 1 5 2 4 3 3 4 1 5 2 6 33 8 34 9 86 10 35 11 85 12 36 13
REMARK SMILES IDX 37 14 38 15 79 16 39 17 84 18 78 19 80 20 40 21 83 22 77 23
REMARK SMILES IDX 76 24 41 26 67 27 50 28 66 29 51 30 54 31 65 32 81 33 52 34
REMARK SMILES IDX 53 35 64 37 82 38 55 39 42 40 43 41 48 42 44 43 45 44 47 45
REMARK SMILES IDX 49 46 46 47 68 48 69 49 74 50 70 51 71 52 73 53 75 54 72 55
REMARK SMILES IDX 56 56 57 57 62 58 58 59 59 60 61 61 63 62 60 63 7 64 8 65
REMARK SMILES IDX 9 66 10 68 11 69 12 70 24 71 13 72 23 73 14 74 22 75 15 76
REMARK SMILES IDX 21 77 20 78 25 79 26 81 27 82 28 83 32 84 29 85 31 86 30 87
REMARK SMILES IDX 16 88 17 89 18 90 19 91
REMARK H PARENT 3 7 80 25 54 36 8 67 25 80
REMARK Flexibility Score: inf
ROOT
ATOM      1  C   UNL     1       4.612  -0.030   3.805  1.00  0.00     0.023 C 
ENDROOT
BRANCH   1   2
ATOM      2  C   UNL     1       5.087   0.536   2.468  1.00  0.00     0.023 C 
BRANCH   2   3
ATOM      3  C   UNL     1       4.688  -0.257   1.229  1.00  0.00     0.116 C 
BRANCH   3   4
ATOM      4  N   UNL     1       3.250  -0.353   1.045  1.00  0.00    -0.352 N 
ATOM      5  O   UNL     1       1.253  -0.052   0.047  1.00  0.00    -0.269 OA
ATOM      6  C   UNL     1       2.478   0.004  -0.033  1.00  0.00     0.251 C 
ATOM      7  H   UNL     1       2.755  -0.731   1.808  1.00  0.00     0.163 HD
BRANCH   6   8
ATOM      8  C   UNL     1       3.109   0.489  -1.280  1.00  0.00     0.039 A 
ATOM      9  C   UNL     1       4.209  -0.165  -1.840  1.00  0.00     0.014 A 
ATOM     10  C   UNL     1       2.570   1.616  -1.910  1.00  0.00     0.014 A 
ATOM     11  C   UNL     1       4.851   0.382  -2.948  1.00  0.00     0.010 A 
ATOM     12  C   UNL     1       3.170   2.121  -3.066  1.00  0.00     0.010 A 
ATOM     13  C   UNL     1       4.334   1.526  -3.576  1.00  0.00    -0.014 A 
BRANCH  13  14
ATOM     14  C   UNL     1       4.984   2.058  -4.799  1.00  0.00     0.031 A 
ATOM     15  C   UNL     1       5.632   3.413  -4.804  1.00  0.00     0.074 A 
ATOM     16  C   UNL     1       4.967   1.315  -5.921  1.00  0.00     0.049 A 
ATOM     17  N   UNL     1       6.201   4.051  -5.796  1.00  0.00    -0.248 NA
ATOM     18  C   UNL     1       5.632   4.154  -3.534  1.00  0.00     0.031 C 
ATOM     19  C   UNL     1       4.351  -0.007  -6.045  1.00  0.00     0.029 A 
ATOM     20  N   UNL     1       5.473   1.566  -7.171  1.00  0.00    -0.354 N 
ATOM     21  C   UNL     1       6.607   5.275  -5.279  1.00  0.00     0.074 A 
ATOM     22  C   UNL     1       6.200   5.299  -3.889  1.00  0.00     0.031 C 
ATOM     23  C   UNL     1       4.523  -0.456  -7.296  1.00  0.00     0.029 A 
ATOM     24  C   UNL     1       5.213   0.567  -8.075  1.00  0.00     0.049 A 
ATOM     25  H   UNL     1       5.973   2.383  -7.397  1.00  0.00     0.167 HD
ATOM     26  C   UNL     1       7.263   6.281  -5.905  1.00  0.00     0.037 A 
ATOM     27  C   UNL     1       5.473   0.490  -9.393  1.00  0.00     0.037 A 
ATOM     28  C   UNL     1       7.680   6.244  -7.284  1.00  0.00     0.049 A 
ATOM     29  C   UNL     1       6.185   1.622 -10.069  1.00  0.00     0.074 A 
ATOM     30  C   UNL     1       8.406   7.188  -7.991  1.00  0.00     0.029 A 
ATOM     31  N   UNL     1       7.398   5.213  -8.168  1.00  0.00    -0.354 N 
ATOM     32  N   UNL     1       6.611   2.751  -9.555  1.00  0.00    -0.248 NA
ATOM     33  C   UNL     1       6.454   1.474 -11.506  1.00  0.00     0.031 C 
ATOM     34  C   UNL     1       8.523   6.748  -9.315  1.00  0.00     0.029 A 
ATOM     35  C   UNL     1       7.909   5.511  -9.421  1.00  0.00     0.049 A 
ATOM     36  H   UNL     1       6.907   4.391  -7.939  1.00  0.00     0.167 HD
ATOM     37  C   UNL     1       7.207   3.443 -10.599  1.00  0.00     0.074 A 
ATOM     38  C   UNL     1       7.101   2.601 -11.774  1.00  0.00     0.031 C 
ATOM     39  C   UNL     1       7.791   4.666 -10.583  1.00  0.00     0.037 A 
BRANCH  26  40
ATOM     40  C   UNL     1       7.552   7.520  -5.109  1.00  0.00     0.057 A 
ATOM     41  C   UNL     1       8.521   7.545  -4.098  1.00  0.00     0.134 A 
ATOM     42  C   UNL     1       6.870   8.714  -5.379  1.00  0.00     0.134 A 
ATOM     43  F   UNL     1       9.203   6.434  -3.783  1.00  0.00    -0.206 F 
ATOM     44  C   UNL     1       8.781   8.705  -3.364  1.00  0.00     0.040 A 
ATOM     45  C   UNL     1       7.138   9.886  -4.669  1.00  0.00     0.040 A 
ATOM     46  F   UNL     1       5.936   8.763  -6.341  1.00  0.00    -0.206 F 
ATOM     47  C   UNL     1       8.092   9.881  -3.653  1.00  0.00     0.006 A 
ENDBRANCH  26  40
BRANCH  27  48
ATOM     48  C   UNL     1       5.033  -0.709 -10.146  1.00  0.00     0.057 A 
ATOM     49  C   UNL     1       5.950  -1.670 -10.580  1.00  0.00     0.134 A 
ATOM     50  C   UNL     1       3.676  -0.946 -10.398  1.00  0.00     0.134 A 
ATOM     51  F   UNL     1       7.264  -1.490 -10.379  1.00  0.00    -0.206 F 
ATOM     52  C   UNL     1       5.534  -2.828 -11.239  1.00  0.00     0.040 A 
ATOM     53  C   UNL     1       3.244  -2.109 -11.035  1.00  0.00     0.040 A 
ATOM     54  F   UNL     1       2.749  -0.064  -9.995  1.00  0.00    -0.206 F 
ATOM     55  C   UNL     1       4.176  -3.054 -11.459  1.00  0.00     0.006 A 
ENDBRANCH  27  48
BRANCH  39  56
ATOM     56  C   UNL     1       8.375   5.162 -11.871  1.00  0.00     0.057 A 
ATOM     57  C   UNL     1       7.567   5.637 -12.910  1.00  0.00     0.134 A 
ATOM     58  C   UNL     1       9.763   5.211 -12.053  1.00  0.00     0.134 A 
ATOM     59  F   UNL     1       6.230   5.603 -12.803  1.00  0.00    -0.206 F 
ATOM     60  C   UNL     1       8.119   6.134 -14.092  1.00  0.00     0.040 A 
ATOM     61  C   UNL     1      10.327   5.725 -13.221  1.00  0.00     0.040 A 
ATOM     62  F   UNL     1      10.592   4.775 -11.092  1.00  0.00    -0.206 F 
ATOM     63  C   UNL     1       9.503   6.186 -14.246  1.00  0.00     0.006 A 
ENDBRANCH  39  56
ENDBRANCH  13  14
ENDBRANCH   6   8
ENDBRANCH   3   4
ENDBRANCH   2   3
ENDBRANCH   1   2
BRANCH   1  64
ATOM     64  C   UNL     1       4.865  -1.517   4.029  1.00  0.00     0.116 C 
BRANCH  64  65
ATOM     65  N   UNL     1       6.258  -1.904   3.859  1.00  0.00    -0.352 N 
ATOM     66  C   UNL     1       7.065  -2.618   4.715  1.00  0.00     0.254 C 
ATOM     67  H   UNL     1       6.680  -1.617   3.017  1.00  0.00     0.163 HD
ATOM     68  O   UNL     1       8.202  -2.936   4.382  1.00  0.00    -0.269 OA
BRANCH  66  69
ATOM     69  C   UNL     1       6.545  -3.007   6.030  1.00  0.00     0.081 A 
ATOM     70  C   UNL     1       5.580  -4.001   5.974  1.00  0.00     0.127 A 
ATOM     71  C   UNL     1       6.952  -2.500   7.277  1.00  0.00     0.058 A 
ATOM     72  N   UNL     1       4.906  -4.463   7.039  1.00  0.00    -0.255 NA
ATOM     73  C   UNL     1       6.257  -3.024   8.434  1.00  0.00     0.025 A 
ATOM     74  C   UNL     1       5.222  -3.986   8.245  1.00  0.00     0.085 A 
ATOM     75  C   UNL     1       6.530  -2.630   9.771  1.00  0.00     0.012 A 
ATOM     76  C   UNL     1       4.490  -4.457   9.333  1.00  0.00     0.082 A 
ATOM     77  C   UNL     1       5.824  -3.144  10.858  1.00  0.00     0.001 A 
ATOM     78  C   UNL     1       4.798  -4.046  10.639  1.00  0.00     0.015 A 
BRANCH  71  79
ATOM     79  N   UNL     1       7.872  -1.465   7.475  1.00  0.00    -0.380 N 
ATOM     80  H   UNL     1       8.025  -1.210   8.413  1.00  0.00     0.160 HD
BRANCH  79  81
ATOM     81  C   UNL     1       8.637  -0.712   6.491  1.00  0.00     0.150 C 
BRANCH  81  82
ATOM     82  C   UNL     1       8.623   0.776   6.747  1.00  0.00    -0.011 A 
ATOM     83  C   UNL     1       7.933   1.406   7.785  1.00  0.00     0.009 A 
ATOM     84  C   UNL     1       9.292   1.603   5.843  1.00  0.00     0.116 A 
ATOM     85  C   UNL     1       7.936   2.797   7.876  1.00  0.00     0.020 A 
ATOM     86  N   UNL     1       9.309   2.954   5.903  1.00  0.00    -0.264 NA
ATOM     87  C   UNL     1       8.627   3.520   6.919  1.00  0.00     0.111 A 
ENDBRANCH  81  82
ENDBRANCH  79  81
ENDBRANCH  71  79
BRANCH  76  88
ATOM     88  C   UNL     1       3.329  -5.388   9.091  1.00  0.00     0.418 C 
ATOM     89  F   UNL     1       2.332  -4.822   8.352  1.00  0.00    -0.166 F 
ATOM     90  F   UNL     1       3.664  -6.552   8.470  1.00  0.00    -0.166 F 
ATOM     91  F   UNL     1       2.720  -5.776  10.255  1.00  0.00    -0.166 F 
ENDBRANCH  76  88
ENDBRANCH  66  69
ENDBRANCH  64  65
ENDBRANCH   1  64
TORSDOF 15
