REMARK SMILES C[C@@H](C(=O)NCCCCNC(=O)c1ccc(-c2c3nc(c(-c4c(F)cccc4F)c4ccc([nH]4)c(-c4c(F)cccc4F)c4nc(c(-c5c(F)cccc5F)c5ccc2[nH]5)C=C4)C=C3)cc1)[C@@H](N[S@](=O)C(C)(C)C)C(C)(C)C
REMARK SMILES IDX 6 1 5 2 3 3 4 4 2 6 1 7 67 8 68 9 69 11 70 12 71 13 72 14
REMARK SMILES IDX 73 15 74 16 75 17 76 18 77 19 78 20 7 21 8 22 9 23 10 24
REMARK SMILES IDX 11 25 12 27 13 28 14 29 66 30 15 31 65 32 16 33 17 34 18 35
REMARK SMILES IDX 59 36 19 37 64 38 58 39 60 40 20 41 63 42 57 43 56 44 21 46
REMARK SMILES IDX 47 47 30 48 46 49 31 50 34 51 45 52 61 53 32 54 33 55 44 57
REMARK SMILES IDX 62 58 35 59 22 60 23 61 28 62 24 63 25 64 27 65 29 66 26 67
REMARK SMILES IDX 48 68 49 69 54 70 50 71 51 72 53 73 55 74 52 75 36 76 37 77
REMARK SMILES IDX 42 78 38 79 39 80 41 81 43 82 40 83
REMARK H PARENT 5 5 68 10 10 26 60 45 34 56
REMARK Flexibility Score: inf
ROOT
ATOM      1  C   UNL     1      -3.839  -7.247   1.503  1.00  0.00     0.116 C 
ENDROOT
BRANCH   1   2
ATOM      2  N   UNL     1      -2.937  -6.618   0.556  1.00  0.00    -0.356 N 
ATOM      3  C   UNL     1      -2.883  -5.318   0.147  1.00  0.00     0.224 C 
ATOM      4  O   UNL     1      -2.350  -5.080  -0.936  1.00  0.00    -0.275 OA
ATOM      5  H   UNL     1      -2.268  -7.216   0.150  1.00  0.00     0.163 HD
BRANCH   3   6
ATOM      6  C   UNL     1      -3.495  -4.231   1.020  1.00  0.00     0.094 C 
ATOM      7  C   UNL     1      -4.950  -4.077   0.540  1.00  0.00     0.020 C 
BRANCH   6   8
ATOM      8  C   UNL     1      -2.681  -2.887   0.954  1.00  0.00     0.085 C 
BRANCH   8   9
ATOM      9  N   UNL     1      -3.457  -1.835   1.659  1.00  0.00    -0.233 NA
ATOM     10  H   UNL     1      -2.943  -1.630   2.517  1.00  0.00     0.138 HD
BRANCH   9  11
ATOM     11  S   UNL     1      -3.798  -0.369   0.966  1.00  0.00     0.097 S 
ATOM     12  O   UNL     1      -2.647   0.225   0.218  1.00  0.00    -0.242 OA
BRANCH  11  13
ATOM     13  C   UNL     1      -4.075   0.614   2.537  1.00  0.00     0.052 C 
ATOM     14  C   UNL     1      -3.363   0.048   3.772  1.00  0.00     0.027 C 
ATOM     15  C   UNL     1      -3.566   2.047   2.299  1.00  0.00     0.027 C 
ATOM     16  C   UNL     1      -5.590   0.651   2.785  1.00  0.00     0.027 C 
ENDBRANCH  11  13
ENDBRANCH   9  11
ENDBRANCH   8   9
BRANCH   8  17
ATOM     17  C   UNL     1      -1.209  -2.944   1.571  1.00  0.00    -0.021 C 
ATOM     18  C   UNL     1      -0.288  -3.958   0.860  1.00  0.00     0.012 C 
ATOM     19  C   UNL     1      -0.495  -1.580   1.410  1.00  0.00     0.012 C 
ATOM     20  C   UNL     1      -1.227  -3.304   3.071  1.00  0.00     0.012 C 
ENDBRANCH   8  17
ENDBRANCH   6   8
ENDBRANCH   3   6
ENDBRANCH   1   2
BRANCH   1  21
ATOM     21  C   UNL     1      -4.925  -8.028   0.760  1.00  0.00     0.023 C 
BRANCH  21  22
ATOM     22  C   UNL     1      -4.405  -9.213  -0.061  1.00  0.00     0.023 C 
BRANCH  22  23
ATOM     23  C   UNL     1      -3.701 -10.296   0.748  1.00  0.00     0.116 C 
BRANCH  23  24
ATOM     24  N   UNL     1      -4.580 -10.926   1.721  1.00  0.00    -0.352 N 
ATOM     25  C   UNL     1      -4.759 -12.261   1.989  1.00  0.00     0.251 C 
ATOM     26  H   UNL     1      -5.122 -10.308   2.264  1.00  0.00     0.163 HD
ATOM     27  O   UNL     1      -5.659 -12.622   2.742  1.00  0.00    -0.269 OA
BRANCH  25  28
ATOM     28  C   UNL     1      -3.884 -13.264   1.347  1.00  0.00     0.039 A 
ATOM     29  C   UNL     1      -4.463 -14.405   0.786  1.00  0.00     0.014 A 
ATOM     30  C   UNL     1      -2.500 -13.078   1.295  1.00  0.00     0.014 A 
ATOM     31  C   UNL     1      -3.659 -15.332   0.118  1.00  0.00     0.010 A 
ATOM     32  C   UNL     1      -1.711 -13.964   0.567  1.00  0.00     0.010 A 
ATOM     33  C   UNL     1      -2.281 -15.102  -0.025  1.00  0.00    -0.014 A 
BRANCH  33  34
ATOM     34  C   UNL     1      -1.413 -16.041  -0.780  1.00  0.00     0.031 A 
ATOM     35  C   UNL     1      -0.310 -16.778  -0.073  1.00  0.00     0.074 A 
ATOM     36  C   UNL     1      -1.568 -16.174  -2.111  1.00  0.00     0.049 A 
ATOM     37  N   UNL     1       0.614 -17.561  -0.569  1.00  0.00    -0.248 NA
ATOM     38  C   UNL     1      -0.217 -16.586   1.383  1.00  0.00     0.031 C 
ATOM     39  C   UNL     1      -2.573 -15.483  -2.921  1.00  0.00     0.029 A 
ATOM     40  N   UNL     1      -0.867 -16.925  -3.021  1.00  0.00    -0.354 N 
ATOM     41  C   UNL     1       1.407 -17.938   0.507  1.00  0.00     0.074 A 
ATOM     42  C   UNL     1       0.888 -17.257   1.674  1.00  0.00     0.031 C 
ATOM     43  C   UNL     1      -2.435 -15.855  -4.204  1.00  0.00     0.029 A 
ATOM     44  C   UNL     1      -1.308 -16.777  -4.314  1.00  0.00     0.049 A 
ATOM     45  H   UNL     1      -0.119 -17.514  -2.771  1.00  0.00     0.167 HD
ATOM     46  C   UNL     1       2.459 -18.791   0.527  1.00  0.00     0.037 A 
ATOM     47  C   UNL     1      -0.849 -17.315  -5.460  1.00  0.00     0.037 A 
ATOM     48  C   UNL     1       2.958 -19.486  -0.631  1.00  0.00     0.049 A 
ATOM     49  C   UNL     1       0.327 -18.251  -5.414  1.00  0.00     0.074 A 
ATOM     50  C   UNL     1       3.981 -20.415  -0.704  1.00  0.00     0.029 A 
ATOM     51  N   UNL     1       2.470 -19.326  -1.919  1.00  0.00    -0.354 N 
ATOM     52  N   UNL     1       1.029 -18.647  -4.381  1.00  0.00    -0.248 NA
ATOM     53  C   UNL     1       0.771 -18.819  -6.695  1.00  0.00     0.031 C 
ATOM     54  C   UNL     1       4.142 -20.783  -2.043  1.00  0.00     0.029 A 
ATOM     55  C   UNL     1       3.186 -20.122  -2.798  1.00  0.00     0.049 A 
ATOM     56  H   UNL     1       1.726 -18.733  -2.172  1.00  0.00     0.167 HD
ATOM     57  C   UNL     1       1.976 -19.533  -4.880  1.00  0.00     0.074 A 
ATOM     58  C   UNL     1       1.751 -19.623  -6.308  1.00  0.00     0.031 C 
ATOM     59  C   UNL     1       2.944 -20.210  -4.215  1.00  0.00     0.037 A 
BRANCH  46  60
ATOM     60  C   UNL     1       3.140 -19.017   1.846  1.00  0.00     0.057 A 
ATOM     61  C   UNL     1       2.518 -19.716   2.890  1.00  0.00     0.134 A 
ATOM     62  C   UNL     1       4.443 -18.553   2.067  1.00  0.00     0.134 A 
ATOM     63  F   UNL     1       1.266 -20.177   2.748  1.00  0.00    -0.206 F 
ATOM     64  C   UNL     1       3.155 -19.916   4.116  1.00  0.00     0.040 A 
ATOM     65  C   UNL     1       5.101 -18.774   3.278  1.00  0.00     0.040 A 
ATOM     66  F   UNL     1       5.100 -17.883   1.109  1.00  0.00    -0.206 F 
ATOM     67  C   UNL     1       4.453 -19.450   4.310  1.00  0.00     0.006 A 
ENDBRANCH  46  60
BRANCH  47  68
ATOM     68  C   UNL     1      -1.515 -16.998  -6.748  1.00  0.00     0.057 A 
ATOM     69  C   UNL     1      -2.261 -17.965  -7.431  1.00  0.00     0.134 A 
ATOM     70  C   UNL     1      -1.419 -15.728  -7.331  1.00  0.00     0.134 A 
ATOM     71  F   UNL     1      -2.375 -19.205  -6.933  1.00  0.00    -0.206 F 
ATOM     72  C   UNL     1      -2.872 -17.689  -8.656  1.00  0.00     0.040 A 
ATOM     73  C   UNL     1      -2.045 -15.430  -8.542  1.00  0.00     0.040 A 
ATOM     74  F   UNL     1      -0.724 -14.755  -6.723  1.00  0.00    -0.206 F 
ATOM     75  C   UNL     1      -2.768 -16.415  -9.212  1.00  0.00     0.006 A 
ENDBRANCH  47  68
BRANCH  59  76
ATOM     76  C   UNL     1       3.806 -21.142  -5.016  1.00  0.00     0.057 A 
ATOM     77  C   UNL     1       4.779 -20.672  -5.906  1.00  0.00     0.134 A 
ATOM     78  C   UNL     1       3.687 -22.530  -4.861  1.00  0.00     0.134 A 
ATOM     79  F   UNL     1       4.935 -19.356  -6.110  1.00  0.00    -0.206 F 
ATOM     80  C   UNL     1       5.590 -21.550  -6.629  1.00  0.00     0.040 A 
ATOM     81  C   UNL     1       4.510 -23.416  -5.557  1.00  0.00     0.040 A 
ATOM     82  F   UNL     1       2.780 -23.046  -4.017  1.00  0.00    -0.206 F 
ATOM     83  C   UNL     1       5.461 -22.926  -6.449  1.00  0.00     0.006 A 
ENDBRANCH  59  76
ENDBRANCH  33  34
ENDBRANCH  25  28
ENDBRANCH  23  24
ENDBRANCH  22  23
ENDBRANCH  21  22
ENDBRANCH   1  21
TORSDOF 16
