REMARK SMILES O=C(NCCCCNC(=O)[C@H]1CC[C@@H]2CCCC[C@@H]2N1C(=O)NC1CC1)c1ccc(-c2c3nc(c(-c4c(F)cccc4F)c4ccc([nH]4)c(-c4c(F)cccc4F)c4nc(c(-c5c(F)cccc5F)c5ccc2[nH]5)C=C4)C=C3)cc1
REMARK SMILES IDX 5 1 4 2 3 3 1 4 2 5 27 7 28 8 80 9 29 10 79 11 30 12 31 13
REMARK SMILES IDX 32 14 73 15 33 16 78 17 72 18 74 19 34 20 77 21 71 22 70 23
REMARK SMILES IDX 35 25 61 26 44 27 60 28 45 29 48 30 59 31 75 32 46 33 47 34
REMARK SMILES IDX 58 36 76 37 49 38 36 39 37 40 42 41 38 42 39 43 41 44 43 45
REMARK SMILES IDX 40 46 62 47 63 48 68 49 64 50 65 51 67 52 69 53 66 54 50 55
REMARK SMILES IDX 51 56 56 57 52 58 53 59 55 60 57 61 54 62 6 63 7 64 8 65
REMARK SMILES IDX 9 66 10 68 11 69 12 70 20 71 13 72 19 73 14 74 18 75 15 76
REMARK SMILES IDX 17 77 16 78 21 79 22 80 23 81 24 83 25 84 26 85
REMARK H PARENT 3 6 74 24 48 35 8 67 23 82
REMARK Flexibility Score: inf
ROOT
ATOM      1  C   UNL     1       3.790   5.859   1.121  1.00  0.00     0.023 C 
ENDROOT
BRANCH   1   2
ATOM      2  C   UNL     1       3.119   7.021   1.841  1.00  0.00     0.116 C 
BRANCH   2   3
ATOM      3  N   UNL     1       3.603   8.300   1.348  1.00  0.00    -0.352 N 
ATOM      4  O   UNL     1       3.626  10.076  -0.041  1.00  0.00    -0.269 OA
ATOM      5  C   UNL     1       2.983   9.188   0.505  1.00  0.00     0.251 C 
ATOM      6  H   UNL     1       4.498   8.565   1.661  1.00  0.00     0.163 HD
BRANCH   5   7
ATOM      7  C   UNL     1       1.531   9.065   0.267  1.00  0.00     0.039 A 
ATOM      8  C   UNL     1       0.663   8.850   1.341  1.00  0.00     0.014 A 
ATOM      9  C   UNL     1       1.030   9.214  -1.028  1.00  0.00     0.014 A 
ATOM     10  C   UNL     1      -0.694   8.675   1.109  1.00  0.00     0.010 A 
ATOM     11  C   UNL     1      -0.347   9.131  -1.248  1.00  0.00     0.010 A 
ATOM     12  C   UNL     1      -1.217   8.860  -0.179  1.00  0.00    -0.014 A 
BRANCH  12  13
ATOM     13  C   UNL     1      -2.687   8.917  -0.358  1.00  0.00     0.031 A 
ATOM     14  C   UNL     1      -3.416   7.904  -1.187  1.00  0.00     0.074 A 
ATOM     15  C   UNL     1      -3.352   9.929   0.235  1.00  0.00     0.049 A 
ATOM     16  N   UNL     1      -4.691   7.848  -1.476  1.00  0.00    -0.248 NA
ATOM     17  C   UNL     1      -2.619   6.815  -1.774  1.00  0.00     0.031 C 
ATOM     18  C   UNL     1      -2.734  10.981   1.050  1.00  0.00     0.029 A 
ATOM     19  N   UNL     1      -4.685  10.246   0.247  1.00  0.00    -0.354 N 
ATOM     20  C   UNL     1      -4.849   6.738  -2.294  1.00  0.00     0.074 A 
ATOM     21  C   UNL     1      -3.537   6.151  -2.466  1.00  0.00     0.031 C 
ATOM     22  C   UNL     1      -3.685  11.812   1.495  1.00  0.00     0.029 A 
ATOM     23  C   UNL     1      -4.966  11.400   0.939  1.00  0.00     0.049 A 
ATOM     24  H   UNL     1      -5.375   9.701  -0.197  1.00  0.00     0.167 HD
ATOM     25  C   UNL     1      -5.989   6.263  -2.848  1.00  0.00     0.037 A 
ATOM     26  C   UNL     1      -6.118  12.081   1.073  1.00  0.00     0.037 A 
ATOM     27  C   UNL     1      -7.290   6.851  -2.650  1.00  0.00     0.049 A 
ATOM     28  C   UNL     1      -7.353  11.547   0.408  1.00  0.00     0.074 A 
ATOM     29  C   UNL     1      -8.517   6.393  -3.102  1.00  0.00     0.029 A 
ATOM     30  N   UNL     1      -7.532   8.029  -1.961  1.00  0.00    -0.354 N 
ATOM     31  N   UNL     1      -7.501  10.451  -0.295  1.00  0.00    -0.248 NA
ATOM     32  C   UNL     1      -8.576  12.347   0.545  1.00  0.00     0.031 C 
ATOM     33  C   UNL     1      -9.490   7.331  -2.746  1.00  0.00     0.029 A 
ATOM     34  C   UNL     1      -8.881   8.342  -2.021  1.00  0.00     0.049 A 
ATOM     35  H   UNL     1      -6.848   8.565  -1.498  1.00  0.00     0.167 HD
ATOM     36  C   UNL     1      -8.835  10.424  -0.676  1.00  0.00     0.074 A 
ATOM     37  C   UNL     1      -9.459  11.597  -0.099  1.00  0.00     0.031 C 
ATOM     38  C   UNL     1      -9.483   9.515  -1.443  1.00  0.00     0.037 A 
BRANCH  25  39
ATOM     39  C   UNL     1      -5.901   5.062  -3.744  1.00  0.00     0.057 A 
ATOM     40  C   UNL     1      -5.688   3.773  -3.242  1.00  0.00     0.134 A 
ATOM     41  C   UNL     1      -6.141   5.189  -5.119  1.00  0.00     0.134 A 
ATOM     42  F   UNL     1      -5.446   3.582  -1.937  1.00  0.00    -0.206 F 
ATOM     43  C   UNL     1      -5.714   2.653  -4.077  1.00  0.00     0.040 A 
ATOM     44  C   UNL     1      -6.192   4.076  -5.959  1.00  0.00     0.040 A 
ATOM     45  F   UNL     1      -6.362   6.396  -5.663  1.00  0.00    -0.206 F 
ATOM     46  C   UNL     1      -5.979   2.802  -5.437  1.00  0.00     0.006 A 
ENDBRANCH  25  39
BRANCH  26  47
ATOM     47  C   UNL     1      -6.143  13.366   1.816  1.00  0.00     0.057 A 
ATOM     48  C   UNL     1      -6.864  13.505   3.007  1.00  0.00     0.134 A 
ATOM     49  C   UNL     1      -5.464  14.495   1.338  1.00  0.00     0.134 A 
ATOM     50  F   UNL     1      -7.547  12.466   3.508  1.00  0.00    -0.206 F 
ATOM     51  C   UNL     1      -6.933  14.727   3.679  1.00  0.00     0.040 A 
ATOM     52  C   UNL     1      -5.496  15.712   2.017  1.00  0.00     0.040 A 
ATOM     53  F   UNL     1      -4.746  14.425   0.207  1.00  0.00    -0.206 F 
ATOM     54  C   UNL     1      -6.244  15.834   3.186  1.00  0.00     0.006 A 
ENDBRANCH  26  47
BRANCH  38  55
ATOM     55  C   UNL     1     -10.943   9.751  -1.693  1.00  0.00     0.057 A 
ATOM     56  C   UNL     1     -11.386  10.770  -2.545  1.00  0.00     0.134 A 
ATOM     57  C   UNL     1     -11.912   8.924  -1.110  1.00  0.00     0.134 A 
ATOM     58  F   UNL     1     -10.508  11.607  -3.119  1.00  0.00    -0.206 F 
ATOM     59  C   UNL     1     -12.744  10.969  -2.796  1.00  0.00     0.040 A 
ATOM     60  C   UNL     1     -13.270   9.095  -1.377  1.00  0.00     0.040 A 
ATOM     61  F   UNL     1     -11.552   7.926  -0.289  1.00  0.00    -0.206 F 
ATOM     62  C   UNL     1     -13.689  10.123  -2.219  1.00  0.00     0.006 A 
ENDBRANCH  38  55
ENDBRANCH  12  13
ENDBRANCH   5   7
ENDBRANCH   2   3
ENDBRANCH   1   2
BRANCH   1  63
ATOM     63  C   UNL     1       5.313   5.803   1.299  1.00  0.00     0.023 C 
BRANCH  63  64
ATOM     64  C   UNL     1       5.776   5.822   2.757  1.00  0.00     0.116 C 
BRANCH  64  65
ATOM     65  N   UNL     1       5.262   4.661   3.453  1.00  0.00    -0.354 N 
ATOM     66  C   UNL     1       5.979   3.813   4.242  1.00  0.00     0.242 C 
ATOM     67  H   UNL     1       4.303   4.466   3.346  1.00  0.00     0.163 HD
ATOM     68  O   UNL     1       5.971   2.618   3.932  1.00  0.00    -0.273 OA
BRANCH  66  69
ATOM     69  C   UNL     1       6.826   4.329   5.404  1.00  0.00     0.176 C 
ATOM     70  C   UNL     1       6.966   5.798   5.790  1.00  0.00     0.036 C 
ATOM     71  N   UNL     1       6.957   3.524   6.637  1.00  0.00    -0.310 N 
ATOM     72  C   UNL     1       8.441   6.004   6.178  1.00  0.00     0.008 C 
ATOM     73  C   UNL     1       8.354   3.565   7.146  1.00  0.00     0.091 C 
ATOM     74  C   UNL     1       8.894   5.014   7.275  1.00  0.00     0.012 C 
ATOM     75  C   UNL     1       9.240   2.546   6.407  1.00  0.00     0.025 C 
ATOM     76  C   UNL     1      10.414   4.981   7.441  1.00  0.00     0.006 C 
ATOM     77  C   UNL     1      10.512   3.052   5.737  1.00  0.00     0.002 C 
ATOM     78  C   UNL     1      11.127   4.348   6.255  1.00  0.00     0.000 C 
BRANCH  71  79
ATOM     79  C   UNL     1       6.060   2.906   7.450  1.00  0.00     0.318 C 
ATOM     80  O   UNL     1       6.462   2.285   8.453  1.00  0.00    -0.249 OA
ATOM     81  N   UNL     1       4.731   2.822   7.379  1.00  0.00    -0.335 N 
ATOM     82  H   UNL     1       4.466   2.184   8.082  1.00  0.00     0.165 HD
BRANCH  81  83
ATOM     83  C   UNL     1       3.524   3.228   6.758  1.00  0.00     0.084 C 
ATOM     84  C   UNL     1       3.289   4.384   5.860  1.00  0.00     0.027 C 
ATOM     85  C   UNL     1       3.180   2.971   5.329  1.00  0.00     0.027 C 
ENDBRANCH  81  83
ENDBRANCH  71  79
ENDBRANCH  66  69
ENDBRANCH  64  65
ENDBRANCH  63  64
ENDBRANCH   1  63
TORSDOF 13
