REMARK SMILES [NH3+][C@H](CS[C@@H]1CC(=O)N(c2ccc3ccccc3c2)C1=O)C(=O)NCCCCNC(=O)c1ccc(-c2c3nc(c(-c4c(F)cccc4F)c4ccc([nH]4)c(-c4c(F)cccc4F)c4nc(c(-c5c(F)cccc5F)c5ccc2[nH]5)C=C4)C=C3)cc1
REMARK SMILES IDX 25 1 24 2 22 3 23 4 2 6 1 7 3 11 4 12 5 13 6 14 20 15 7 16
REMARK SMILES IDX 9 17 21 18 8 19 10 20 11 21 19 22 12 23 18 24 13 25 17 26
REMARK SMILES IDX 14 27 16 28 15 29 26 30 27 31 28 32 29 33 30 34 31 36 32 37
REMARK SMILES IDX 33 38 85 39 34 40 84 41 35 42 36 43 37 44 78 45 38 46 83 47
REMARK SMILES IDX 77 48 79 49 39 50 82 51 76 52 75 53 40 55 66 56 49 57 65 58
REMARK SMILES IDX 50 59 53 60 64 61 80 62 51 63 52 64 63 66 81 67 54 68 41 69
REMARK SMILES IDX 42 70 47 71 43 72 44 73 46 74 48 75 45 76 67 77 68 78 73 79
REMARK SMILES IDX 69 80 70 81 72 82 74 83 71 84 55 85 56 86 61 87 57 88 58 89
REMARK SMILES IDX 60 90 62 91 59 92
REMARK H PARENT 24 5 1 8 1 9 1 10 29 35 79 54 53 65
REMARK Flexibility Score: inf
ROOT
ATOM      1  C   UNL     1      -0.297   1.774   1.870  1.00  0.00     0.116 C 
ENDROOT
BRANCH   1   2
ATOM      2  N   UNL     1      -0.888   0.516   2.240  1.00  0.00    -0.351 N 
ATOM      3  C   UNL     1      -0.526  -0.762   1.954  1.00  0.00     0.279 C 
ATOM      4  O   UNL     1      -1.188  -1.678   2.444  1.00  0.00    -0.268 OA
ATOM      5  H   UNL     1      -1.696   0.595   2.797  1.00  0.00     0.163 HD
BRANCH   3   6
ATOM      6  C   UNL     1       0.686  -1.043   1.060  1.00  0.00     0.280 C 
BRANCH   6   7
ATOM      7  N   UNL     1       1.942  -0.623   1.735  1.00  0.00    -0.347 N 
ATOM      8  H   UNL     1       1.963  -1.002   2.682  1.00  0.00     0.345 HD
ATOM      9  H   UNL     1       1.982   0.396   1.776  1.00  0.00     0.345 HD
ATOM     10  H   UNL     1       2.744  -0.973   1.211  1.00  0.00     0.345 HD
ENDBRANCH   6   7
BRANCH   6  11
ATOM     11  C   UNL     1       0.545  -0.522  -0.389  1.00  0.00     0.145 C 
BRANCH  11  12
ATOM     12  S   UNL     1      -1.186  -0.408  -1.072  1.00  0.00    -0.141 SA
BRANCH  12  13
ATOM     13  C   UNL     1      -1.774   1.401  -0.956  1.00  0.00     0.146 C 
ATOM     14  C   UNL     1      -0.668   3.001  -1.532  1.00  0.00     0.125 C 
ATOM     15  C   UNL     1      -2.565   1.901   0.846  1.00  0.00     0.247 C 
ATOM     16  C   UNL     1      -0.910   4.369  -0.066  1.00  0.00     0.235 C 
ATOM     17  N   UNL     1      -1.948   3.572   1.191  1.00  0.00    -0.250 N 
ATOM     18  O   UNL     1      -3.378   1.301   1.531  1.00  0.00    -0.273 OA
ATOM     19  O   UNL     1      -0.390   5.470   0.018  1.00  0.00    -0.274 OA
BRANCH  17  20
ATOM     20  C   UNL     1      -2.255   4.218   2.436  1.00  0.00     0.052 A 
ATOM     21  C   UNL     1      -3.553   4.186   2.947  1.00  0.00     0.027 A 
ATOM     22  C   UNL     1      -1.247   4.818   3.202  1.00  0.00     0.035 A 
ATOM     23  C   UNL     1      -3.875   4.884   4.112  1.00  0.00     0.011 A 
ATOM     24  C   UNL     1      -1.525   5.309   4.497  1.00  0.00    -0.016 A 
ATOM     25  C   UNL     1      -2.868   5.425   4.913  1.00  0.00    -0.018 A 
ATOM     26  C   UNL     1      -0.512   5.641   5.416  1.00  0.00     0.009 A 
ATOM     27  C   UNL     1      -3.172   6.016   6.149  1.00  0.00     0.009 A 
ATOM     28  C   UNL     1      -0.828   6.127   6.689  1.00  0.00     0.001 A 
ATOM     29  C   UNL     1      -2.155   6.356   7.038  1.00  0.00     0.001 A 
ENDBRANCH  17  20
ENDBRANCH  12  13
ENDBRANCH  11  12
ENDBRANCH   6  11
ENDBRANCH   3   6
ENDBRANCH   1   2
BRANCH   1  30
ATOM     30  C   UNL     1      -0.674   2.420   0.354  1.00  0.00     0.023 C 
BRANCH  30  31
ATOM     31  C   UNL     1      -2.465   3.247  -0.644  1.00  0.00     0.023 C 
BRANCH  31  32
ATOM     32  C   UNL     1      -3.519   4.577  -0.363  1.00  0.00     0.116 C 
BRANCH  32  33
ATOM     33  N   UNL     1      -3.023   5.934  -0.188  1.00  0.00    -0.352 N 
ATOM     34  C   UNL     1      -3.731   7.106  -0.183  1.00  0.00     0.251 C 
ATOM     35  H   UNL     1      -2.051   6.020  -0.055  1.00  0.00     0.163 HD
ATOM     36  O   UNL     1      -3.171   8.194  -0.157  1.00  0.00    -0.269 OA
BRANCH  34  37
ATOM     37  C   UNL     1      -5.190   7.037  -0.213  1.00  0.00     0.039 A 
ATOM     38  C   UNL     1      -5.885   7.724  -1.206  1.00  0.00     0.014 A 
ATOM     39  C   UNL     1      -5.851   6.284   0.758  1.00  0.00     0.014 A 
ATOM     40  C   UNL     1      -7.268   7.632  -1.234  1.00  0.00     0.010 A 
ATOM     41  C   UNL     1      -7.214   6.103   0.665  1.00  0.00     0.010 A 
ATOM     42  C   UNL     1      -7.929   6.807  -0.309  1.00  0.00    -0.014 A 
BRANCH  42  43
ATOM     43  C   UNL     1      -9.395   6.703  -0.307  1.00  0.00     0.031 A 
ATOM     44  C   UNL     1     -10.156   7.222   0.876  1.00  0.00     0.074 A 
ATOM     45  C   UNL     1      -9.989   6.081  -1.339  1.00  0.00     0.049 A 
ATOM     46  N   UNL     1     -11.440   7.195   1.104  1.00  0.00    -0.248 NA
ATOM     47  C   UNL     1      -9.364   7.810   1.973  1.00  0.00     0.031 C 
ATOM     48  C   UNL     1      -9.287   5.486  -2.481  1.00  0.00     0.029 A 
ATOM     49  N   UNL     1     -11.308   5.846  -1.597  1.00  0.00    -0.354 N 
ATOM     50  C   UNL     1     -11.604   7.740   2.371  1.00  0.00     0.074 A 
ATOM     51  C   UNL     1     -10.289   8.017   2.896  1.00  0.00     0.031 C 
ATOM     52  C   UNL     1     -10.191   4.995  -3.343  1.00  0.00     0.029 A 
ATOM     53  C   UNL     1     -11.523   5.208  -2.794  1.00  0.00     0.049 A 
ATOM     54  H   UNL     1     -12.034   6.108  -0.986  1.00  0.00     0.167 HD
ATOM     55  C   UNL     1     -12.761   8.014   3.015  1.00  0.00     0.037 A 
ATOM     56  C   UNL     1     -12.681   4.851  -3.373  1.00  0.00     0.037 A 
ATOM     57  C   UNL     1     -14.049   7.749   2.436  1.00  0.00     0.049 A 
ATOM     58  C   UNL     1     -13.953   5.196  -2.652  1.00  0.00     0.074 A 
ATOM     59  C   UNL     1     -15.302   8.036   2.940  1.00  0.00     0.029 A 
ATOM     60  N   UNL     1     -14.239   7.129   1.206  1.00  0.00    -0.354 N 
ATOM     61  N   UNL     1     -14.108   5.791  -1.491  1.00  0.00    -0.248 NA
ATOM     62  C   UNL     1     -15.207   4.838  -3.320  1.00  0.00     0.031 C 
ATOM     63  C   UNL     1     -16.250   7.540   2.039  1.00  0.00     0.029 A 
ATOM     64  C   UNL     1     -15.589   7.001   0.944  1.00  0.00     0.049 A 
ATOM     65  H   UNL     1     -13.517   6.825   0.609  1.00  0.00     0.167 HD
ATOM     66  C   UNL     1     -15.476   5.902  -1.298  1.00  0.00     0.074 A 
ATOM     67  C   UNL     1     -16.103   5.330  -2.476  1.00  0.00     0.031 C 
ATOM     68  C   UNL     1     -16.160   6.423  -0.248  1.00  0.00     0.037 A 
BRANCH  55  69
ATOM     69  C   UNL     1     -12.671   8.618   4.389  1.00  0.00     0.057 A 
ATOM     70  C   UNL     1     -12.154   9.903   4.607  1.00  0.00     0.134 A 
ATOM     71  C   UNL     1     -13.110   7.906   5.513  1.00  0.00     0.134 A 
ATOM     72  F   UNL     1     -11.698  10.637   3.580  1.00  0.00    -0.206 F 
ATOM     73  C   UNL     1     -12.044  10.443   5.891  1.00  0.00     0.040 A 
ATOM     74  C   UNL     1     -13.036   8.448   6.798  1.00  0.00     0.040 A 
ATOM     75  F   UNL     1     -13.614   6.670   5.383  1.00  0.00    -0.206 F 
ATOM     76  C   UNL     1     -12.493   9.717   6.991  1.00  0.00     0.006 A 
ENDBRANCH  55  69
BRANCH  56  77
ATOM     77  C   UNL     1     -12.678   4.194  -4.704  1.00  0.00     0.057 A 
ATOM     78  C   UNL     1     -13.156   4.860  -5.839  1.00  0.00     0.134 A 
ATOM     79  C   UNL     1     -12.166   2.904  -4.886  1.00  0.00     0.134 A 
ATOM     80  F   UNL     1     -13.659   6.099  -5.733  1.00  0.00    -0.206 F 
ATOM     81  C   UNL     1     -13.147   4.260  -7.100  1.00  0.00     0.040 A 
ATOM     82  C   UNL     1     -12.126   2.301  -6.145  1.00  0.00     0.040 A 
ATOM     83  F   UNL     1     -11.669   2.219  -3.845  1.00  0.00    -0.206 F 
ATOM     84  C   UNL     1     -12.626   2.977  -7.256  1.00  0.00     0.006 A 
ENDBRANCH  56  77
BRANCH  68  85
ATOM     85  C   UNL     1     -17.655   6.418  -0.355  1.00  0.00     0.057 A 
ATOM     86  C   UNL     1     -18.397   5.235  -0.262  1.00  0.00     0.134 A 
ATOM     87  C   UNL     1     -18.357   7.620  -0.510  1.00  0.00     0.134 A 
ATOM     88  F   UNL     1     -17.779   4.052  -0.126  1.00  0.00    -0.206 F 
ATOM     89  C   UNL     1     -19.788   5.244  -0.350  1.00  0.00     0.040 A 
ATOM     90  C   UNL     1     -19.749   7.645  -0.563  1.00  0.00     0.040 A 
ATOM     91  F   UNL     1     -17.702   8.788  -0.591  1.00  0.00    -0.206 F 
ATOM     92  C   UNL     1     -20.468   6.453  -0.492  1.00  0.00     0.006 A 
ENDBRANCH  68  85
ENDBRANCH  42  43
ENDBRANCH  34  37
ENDBRANCH  32  33
ENDBRANCH  31  32
ENDBRANCH  30  31
ENDBRANCH   1  30
TORSDOF 16
