REMARK SMILES C=CCn1nc(C(=O)NCCCCNC(=O)c2ccc(-c3c4nc(c(-c5c(F)cccc5F)c5ccc([nH]5)c(-c5c(F)cccc5F)c5nc(c(-c6c(F)cccc6F)c6ccc3[nH]6)C=C5)C=C4)cc2)c2c1CC[C@@H]([NH2+]Cc1nc(C)cc(=O)[nH]1)C2
REMARK SMILES IDX 11 1 10 2 9 3 7 4 8 5 6 7 4 8 5 9 72 10 71 11 73 12 86 13
REMARK SMILES IDX 74 14 75 15 3 16 2 17 1 18 76 19 77 22 78 23 79 24 85 25
REMARK SMILES IDX 80 26 83 27 81 29 82 30 84 31 12 32 13 33 14 34 15 35 16 37
REMARK SMILES IDX 17 38 18 39 70 40 19 41 69 42 20 43 21 44 22 45 63 46 23 47
REMARK SMILES IDX 68 48 62 49 64 50 24 51 67 52 61 53 60 54 25 56 51 57 34 58
REMARK SMILES IDX 50 59 35 60 38 61 49 62 65 63 36 64 37 65 48 67 66 68 39 69
REMARK SMILES IDX 26 70 27 71 32 72 28 73 29 74 31 75 33 76 30 77 52 78 53 79
REMARK SMILES IDX 58 80 54 81 55 82 57 83 59 84 56 85 40 86 41 87 46 88 42 89
REMARK SMILES IDX 43 90 45 91 47 92 44 93
REMARK H PARENT 9 6 76 20 76 21 85 28 14 36 64 55 38 66
REMARK Flexibility Score: inf
ROOT
ATOM      1  C   UNL     1      -2.174   7.261  -4.032  1.00  0.00     0.023 C 
ENDROOT
BRANCH   1   2
ATOM      2  C   UNL     1      -3.482   6.606  -3.536  1.00  0.00     0.116 C 
BRANCH   2   3
ATOM      3  N   UNL     1      -3.711   5.292  -4.115  1.00  0.00    -0.351 N 
ATOM      4  C   UNL     1      -3.530   3.974  -3.753  1.00  0.00     0.272 C 
ATOM      5  O   UNL     1      -4.055   3.193  -4.561  1.00  0.00    -0.267 OA
ATOM      6  H   UNL     1      -4.103   5.364  -5.015  1.00  0.00     0.163 HD
BRANCH   4   7
ATOM      7  C   UNL     1      -2.776   3.454  -2.571  1.00  0.00     0.153 A 
ATOM      8  N   UNL     1      -1.831   1.851  -1.451  1.00  0.00    -0.265 N 
ATOM      9  N   UNL     1      -2.732   2.105  -2.417  1.00  0.00    -0.167 NA
ATOM     10  C   UNL     1      -1.387   2.991  -0.852  1.00  0.00     0.043 A 
ATOM     11  C   UNL     1      -1.962   4.040  -1.550  1.00  0.00     0.012 A 
ATOM     12  C   UNL     1      -0.288   3.088   0.158  1.00  0.00     0.062 C 
ATOM     13  C   UNL     1      -1.503   5.423  -1.280  1.00  0.00     0.105 C 
ATOM     14  C   UNL     1       0.026   4.553   0.492  1.00  0.00     0.072 C 
ATOM     15  C   UNL     1      -0.045   5.476  -0.747  1.00  0.00     0.187 C 
BRANCH   8  16
ATOM     16  C   UNL     1      -1.425   0.467  -1.188  1.00  0.00     0.171 C 
BRANCH  16  17
ATOM     17  C   UNL     1       0.068   0.249  -1.234  1.00  0.00    -0.011 C 
ATOM     18  C   UNL     1       0.816  -0.132  -0.187  1.00  0.00     0.006 C 
ENDBRANCH  16  17
ENDBRANCH   8  16
BRANCH  15  19
ATOM     19  N   UNL     1       1.067   5.245  -1.722  1.00  0.00    -0.337 N 
ATOM     20  H   UNL     1       1.749   4.626  -1.284  1.00  0.00     0.346 HD
ATOM     21  H   UNL     1       1.444   6.166  -1.948  1.00  0.00     0.346 HD
BRANCH  19  22
ATOM     22  C   UNL     1       0.657   4.642  -3.000  1.00  0.00     0.337 C 
BRANCH  22  23
ATOM     23  C   UNL     1       1.825   4.373  -3.923  1.00  0.00     0.164 A 
ATOM     24  N   UNL     1       1.968   3.193  -4.436  1.00  0.00    -0.234 NA
ATOM     25  N   UNL     1       2.619   5.434  -4.237  1.00  0.00    -0.306 N 
ATOM     26  C   UNL     1       2.955   3.020  -5.370  1.00  0.00     0.045 A 
ATOM     27  C   UNL     1       3.627   5.329  -5.148  1.00  0.00     0.251 A 
ATOM     28  H   UNL     1       2.462   6.299  -3.795  1.00  0.00     0.171 HD
ATOM     29  C   UNL     1       3.020   1.653  -5.988  1.00  0.00     0.067 C 
ATOM     30  C   UNL     1       3.780   4.000  -5.764  1.00  0.00     0.095 A 
ATOM     31  O   UNL     1       4.353   6.265  -5.458  1.00  0.00    -0.270 OA
ENDBRANCH  22  23
ENDBRANCH  19  22
ENDBRANCH  15  19
ENDBRANCH   4   7
ENDBRANCH   2   3
ENDBRANCH   1   2
BRANCH   1  32
ATOM     32  C   UNL     1      -2.306   8.469  -4.961  1.00  0.00     0.023 C 
BRANCH  32  33
ATOM     33  C   UNL     1      -2.912   9.695  -4.290  1.00  0.00     0.116 C 
BRANCH  33  34
ATOM     34  N   UNL     1      -2.059  10.298  -3.266  1.00  0.00    -0.352 N 
ATOM     35  C   UNL     1      -2.402  11.351  -2.430  1.00  0.00     0.251 C 
ATOM     36  H   UNL     1      -1.156   9.921  -3.159  1.00  0.00     0.163 HD
ATOM     37  O   UNL     1      -1.564  12.055  -1.899  1.00  0.00    -0.269 OA
BRANCH  35  38
ATOM     38  C   UNL     1      -3.838  11.580  -2.191  1.00  0.00     0.039 A 
ATOM     39  C   UNL     1      -4.414  12.837  -2.377  1.00  0.00     0.014 A 
ATOM     40  C   UNL     1      -4.613  10.464  -1.873  1.00  0.00     0.014 A 
ATOM     41  C   UNL     1      -5.802  12.943  -2.337  1.00  0.00     0.010 A 
ATOM     42  C   UNL     1      -5.983  10.548  -1.953  1.00  0.00     0.010 A 
ATOM     43  C   UNL     1      -6.584  11.787  -2.159  1.00  0.00    -0.014 A 
BRANCH  43  44
ATOM     44  C   UNL     1      -8.030  11.838  -2.377  1.00  0.00     0.031 A 
ATOM     45  C   UNL     1      -8.416  12.417  -3.696  1.00  0.00     0.074 A 
ATOM     46  C   UNL     1      -8.931  11.231  -1.572  1.00  0.00     0.049 A 
ATOM     47  N   UNL     1      -9.017  13.539  -3.909  1.00  0.00    -0.248 NA
ATOM     48  C   UNL     1      -7.940  11.760  -4.927  1.00  0.00     0.031 C 
ATOM     49  C   UNL     1      -8.671  10.371  -0.413  1.00  0.00     0.029 A 
ATOM     50  N   UNL     1     -10.290  11.176  -1.676  1.00  0.00    -0.354 N 
ATOM     51  C   UNL     1      -9.211  13.616  -5.286  1.00  0.00     0.074 A 
ATOM     52  C   UNL     1      -8.361  12.612  -5.866  1.00  0.00     0.031 C 
ATOM     53  C   UNL     1      -9.796   9.701  -0.078  1.00  0.00     0.029 A 
ATOM     54  C   UNL     1     -10.895  10.204  -0.880  1.00  0.00     0.049 A 
ATOM     55  H   UNL     1     -10.803  11.775  -2.266  1.00  0.00     0.167 HD
ATOM     56  C   UNL     1     -10.267  14.310  -5.795  1.00  0.00     0.037 A 
ATOM     57  C   UNL     1     -12.201   9.830  -0.891  1.00  0.00     0.037 A 
ATOM     58  C   UNL     1     -10.812  15.207  -4.803  1.00  0.00     0.049 A 
ATOM     59  C   UNL     1     -12.966  10.930  -1.521  1.00  0.00     0.074 A 
ATOM     60  C   UNL     1     -10.316  16.254  -4.050  1.00  0.00     0.029 A 
ATOM     61  N   UNL     1     -11.972  14.817  -4.181  1.00  0.00    -0.354 N 
ATOM     62  N   UNL     1     -13.126  12.104  -0.981  1.00  0.00    -0.248 NA
ATOM     63  C   UNL     1     -13.168  10.869  -2.959  1.00  0.00     0.031 C 
ATOM     64  C   UNL     1     -10.934  16.112  -2.772  1.00  0.00     0.029 A 
ATOM     65  C   UNL     1     -11.834  15.048  -2.840  1.00  0.00     0.049 A 
ATOM     66  H   UNL     1     -12.765  14.437  -4.624  1.00  0.00     0.167 HD
ATOM     67  C   UNL     1     -12.976  12.991  -2.034  1.00  0.00     0.074 A 
ATOM     68  C   UNL     1     -13.100  12.172  -3.240  1.00  0.00     0.031 C 
ATOM     69  C   UNL     1     -12.470  14.242  -1.825  1.00  0.00     0.037 A 
BRANCH  56  70
ATOM     70  C   UNL     1     -11.084  13.868  -6.993  1.00  0.00     0.057 A 
ATOM     71  C   UNL     1     -12.142  14.690  -7.431  1.00  0.00     0.134 A 
ATOM     72  C   UNL     1     -11.099  12.558  -7.516  1.00  0.00     0.134 A 
ATOM     73  F   UNL     1     -12.247  15.960  -7.009  1.00  0.00    -0.206 F 
ATOM     74  C   UNL     1     -13.187  14.213  -8.232  1.00  0.00     0.040 A 
ATOM     75  C   UNL     1     -12.111  12.087  -8.357  1.00  0.00     0.040 A 
ATOM     76  F   UNL     1     -10.202  11.630  -7.169  1.00  0.00    -0.206 F 
ATOM     77  C   UNL     1     -13.181  12.902  -8.687  1.00  0.00     0.006 A 
ENDBRANCH  56  70
BRANCH  57  78
ATOM     78  C   UNL     1     -12.801   8.486  -0.693  1.00  0.00     0.057 A 
ATOM     79  C   UNL     1     -14.188   8.331  -0.533  1.00  0.00     0.134 A 
ATOM     80  C   UNL     1     -12.081   7.311  -0.968  1.00  0.00     0.134 A 
ATOM     81  F   UNL     1     -14.970   9.396  -0.303  1.00  0.00    -0.206 F 
ATOM     82  C   UNL     1     -14.826   7.092  -0.683  1.00  0.00     0.040 A 
ATOM     83  C   UNL     1     -12.706   6.066  -1.114  1.00  0.00     0.040 A 
ATOM     84  F   UNL     1     -10.761   7.345  -1.199  1.00  0.00    -0.206 F 
ATOM     85  C   UNL     1     -14.085   5.956  -0.992  1.00  0.00     0.006 A 
ENDBRANCH  57  78
BRANCH  69  86
ATOM     86  C   UNL     1     -12.378  14.739  -0.408  1.00  0.00     0.057 A 
ATOM     87  C   UNL     1     -11.589  14.159   0.598  1.00  0.00     0.134 A 
ATOM     88  C   UNL     1     -13.020  15.941  -0.090  1.00  0.00     0.134 A 
ATOM     89  F   UNL     1     -10.861  13.059   0.367  1.00  0.00    -0.206 F 
ATOM     90  C   UNL     1     -11.481  14.731   1.871  1.00  0.00     0.040 A 
ATOM     91  C   UNL     1     -12.892  16.541   1.163  1.00  0.00     0.040 A 
ATOM     92  F   UNL     1     -13.753  16.580  -1.017  1.00  0.00    -0.206 F 
ATOM     93  C   UNL     1     -12.128  15.930   2.154  1.00  0.00     0.006 A 
ENDBRANCH  69  86
ENDBRANCH  43  44
ENDBRANCH  35  38
ENDBRANCH  33  34
ENDBRANCH  32  33
ENDBRANCH   1  32
TORSDOF 16
