REMARK SMILES CCCc1n[nH]c(C(=O)Nc2ccc(Br)cc2C(=O)NCCCCNC(=O)c2ccc(-c3c4nc(c(-c5c(F)cccc5F)c5ccc([nH]5)c(-c5c(F)cccc5F)c5nc(c(-c6c(F)cccc6F)c6ccc3[nH]6)C=C5)C=C4)cc2)n1
REMARK SMILES IDX 21 1 20 2 18 3 19 4 17 6 11 7 12 8 13 9 16 10 14 11 15 12
REMARK SMILES IDX 10 13 8 14 9 15 7 17 4 18 5 19 82 20 6 21 3 23 2 24 1 25
REMARK SMILES IDX 22 26 23 27 24 28 25 29 26 30 27 32 28 33 29 34 81 35 30 36
REMARK SMILES IDX 80 37 31 38 32 39 33 40 74 41 34 42 79 43 73 44 75 45 35 46
REMARK SMILES IDX 78 47 72 48 71 49 36 51 62 52 45 53 61 54 46 55 49 56 60 57
REMARK SMILES IDX 76 58 47 59 48 60 59 62 77 63 50 64 37 65 38 66 43 67 39 68
REMARK SMILES IDX 40 69 42 70 44 71 41 72 63 73 64 74 69 75 65 76 66 77 68 78
REMARK SMILES IDX 70 79 67 80 51 81 52 82 57 83 53 84 54 85 56 86 58 87 55 88
REMARK H PARENT 20 5 10 16 6 22 25 31 75 50 49 61
REMARK Flexibility Score: inf
ROOT
ATOM      1  C   UNL     1      -1.267  -7.302   2.167  1.00  0.00     0.116 C 
ENDROOT
BRANCH   1   2
ATOM      2  N   UNL     1      -1.008  -8.525   1.447  1.00  0.00    -0.352 N 
ATOM      3  C   UNL     1      -0.030  -8.834   0.532  1.00  0.00     0.253 C 
ATOM      4  O   UNL     1       0.004  -9.996   0.122  1.00  0.00    -0.269 OA
ATOM      5  H   UNL     1      -1.635  -9.259   1.644  1.00  0.00     0.163 HD
BRANCH   3   6
ATOM      6  C   UNL     1       0.942  -7.859  -0.050  1.00  0.00     0.064 A 
ATOM      7  C   UNL     1       1.680  -6.865   0.622  1.00  0.00     0.054 A 
ATOM      8  C   UNL     1       2.627  -6.108  -0.092  1.00  0.00     0.028 A 
ATOM      9  C   UNL     1       2.789  -6.256  -1.468  1.00  0.00     0.018 A 
ATOM     10  C   UNL     1       1.130  -8.006  -1.442  1.00  0.00     0.031 A 
ATOM     11  C   UNL     1       2.029  -7.200  -2.140  1.00  0.00     0.018 A 
ATOM     12  Br  UNL     1       2.227  -7.397  -4.009  1.00  0.00    -0.051 Br
BRANCH   7  13
ATOM     13  N   UNL     1       1.591  -6.644   2.007  1.00  0.00    -0.319 N 
ATOM     14  C   UNL     1       1.263  -5.455   2.659  1.00  0.00     0.293 C 
ATOM     15  O   UNL     1       1.141  -5.504   3.887  1.00  0.00    -0.265 OA
ATOM     16  H   UNL     1       1.783  -7.418   2.585  1.00  0.00     0.170 HD
BRANCH  14  17
ATOM     17  C   UNL     1       0.883  -4.263   1.921  1.00  0.00     0.214 A 
ATOM     18  C   UNL     1       0.513  -2.773   0.452  1.00  0.00     0.151 A 
ATOM     19  N   UNL     1      -0.092  -2.276   1.536  1.00  0.00    -0.158 NA
ATOM     20  N   UNL     1       1.073  -4.004   0.645  1.00  0.00    -0.207 NA
ATOM     21  N   UNL     1       0.186  -3.217   2.459  1.00  0.00    -0.255 N 
ATOM     22  H   UNL     1      -0.080  -3.159   3.406  1.00  0.00     0.192 HD
BRANCH  18  23
ATOM     23  C   UNL     1       0.631  -2.107  -0.874  1.00  0.00     0.079 C 
BRANCH  23  24
ATOM     24  C   UNL     1       0.180  -0.652  -0.970  1.00  0.00     0.005 C 
ATOM     25  C   UNL     1       1.003   0.304  -0.117  1.00  0.00     0.004 C 
ENDBRANCH  23  24
ENDBRANCH  18  23
ENDBRANCH  14  17
ENDBRANCH   7  13
ENDBRANCH   3   6
ENDBRANCH   1   2
BRANCH   1  26
ATOM     26  C   UNL     1      -2.682  -7.109   2.695  1.00  0.00     0.023 C 
BRANCH  26  27
ATOM     27  C   UNL     1      -3.224  -8.193   3.625  1.00  0.00     0.023 C 
BRANCH  27  28
ATOM     28  C   UNL     1      -2.277  -8.733   4.694  1.00  0.00     0.116 C 
BRANCH  28  29
ATOM     29  N   UNL     1      -1.847  -7.747   5.675  1.00  0.00    -0.352 N 
ATOM     30  C   UNL     1      -2.098  -7.658   7.026  1.00  0.00     0.251 C 
ATOM     31  H   UNL     1      -1.283  -7.025   5.313  1.00  0.00     0.163 HD
ATOM     32  O   UNL     1      -1.692  -6.686   7.660  1.00  0.00    -0.269 OA
BRANCH  30  33
ATOM     33  C   UNL     1      -2.895  -8.696   7.720  1.00  0.00     0.039 A 
ATOM     34  C   UNL     1      -3.893  -8.295   8.615  1.00  0.00     0.014 A 
ATOM     35  C   UNL     1      -2.676 -10.055   7.493  1.00  0.00     0.014 A 
ATOM     36  C   UNL     1      -4.737  -9.249   9.191  1.00  0.00     0.010 A 
ATOM     37  C   UNL     1      -3.578 -10.994   7.987  1.00  0.00     0.010 A 
ATOM     38  C   UNL     1      -4.623 -10.603   8.837  1.00  0.00    -0.014 A 
BRANCH  38  39
ATOM     39  C   UNL     1      -5.580 -11.626   9.339  1.00  0.00     0.031 A 
ATOM     40  C   UNL     1      -5.085 -12.787  10.160  1.00  0.00     0.074 A 
ATOM     41  C   UNL     1      -6.880 -11.563   8.987  1.00  0.00     0.049 A 
ATOM     42  N   UNL     1      -5.738 -13.835  10.593  1.00  0.00    -0.248 NA
ATOM     43  C   UNL     1      -3.655 -12.784  10.510  1.00  0.00     0.031 C 
ATOM     44  C   UNL     1      -7.485 -10.523   8.153  1.00  0.00     0.029 A 
ATOM     45  N   UNL     1      -7.927 -12.402   9.278  1.00  0.00    -0.354 N 
ATOM     46  C   UNL     1      -4.797 -14.626  11.241  1.00  0.00     0.074 A 
ATOM     47  C   UNL     1      -3.518 -13.965  11.094  1.00  0.00     0.031 C 
ATOM     48  C   UNL     1      -8.799 -10.769   8.025  1.00  0.00     0.029 A 
ATOM     49  C   UNL     1      -9.123 -12.003   8.733  1.00  0.00     0.049 A 
ATOM     50  H   UNL     1      -7.830 -13.214   9.827  1.00  0.00     0.167 HD
ATOM     51  C   UNL     1      -4.982 -15.783  11.920  1.00  0.00     0.037 A 
ATOM     52  C   UNL     1     -10.344 -12.569   8.793  1.00  0.00     0.037 A 
ATOM     53  C   UNL     1      -6.258 -16.423  12.099  1.00  0.00     0.049 A 
ATOM     54  C   UNL     1     -10.527 -13.847   9.564  1.00  0.00     0.074 A 
ATOM     55  C   UNL     1      -6.556 -17.569  12.815  1.00  0.00     0.029 A 
ATOM     56  N   UNL     1      -7.451 -15.966  11.560  1.00  0.00    -0.354 N 
ATOM     57  N   UNL     1      -9.638 -14.555  10.216  1.00  0.00    -0.248 NA
ATOM     58  C   UNL     1     -11.888 -14.402   9.611  1.00  0.00     0.031 C 
ATOM     59  C   UNL     1      -7.926 -17.823  12.684  1.00  0.00     0.029 A 
ATOM     60  C   UNL     1      -8.487 -16.811  11.921  1.00  0.00     0.049 A 
ATOM     61  H   UNL     1      -7.548 -15.160  11.003  1.00  0.00     0.167 HD
ATOM     62  C   UNL     1     -10.335 -15.615  10.781  1.00  0.00     0.074 A 
ATOM     63  C   UNL     1     -11.722 -15.454  10.400  1.00  0.00     0.031 C 
ATOM     64  C   UNL     1      -9.867 -16.628  11.550  1.00  0.00     0.037 A 
BRANCH  51  65
ATOM     65  C   UNL     1      -3.767 -16.423  12.528  1.00  0.00     0.057 A 
ATOM     66  C   UNL     1      -3.100 -15.850  13.620  1.00  0.00     0.134 A 
ATOM     67  C   UNL     1      -3.262 -17.628  12.025  1.00  0.00     0.134 A 
ATOM     68  F   UNL     1      -3.524 -14.689  14.142  1.00  0.00    -0.206 F 
ATOM     69  C   UNL     1      -1.956 -16.434  14.166  1.00  0.00     0.040 A 
ATOM     70  C   UNL     1      -2.136 -18.237  12.581  1.00  0.00     0.040 A 
ATOM     71  F   UNL     1      -3.856 -18.235  10.986  1.00  0.00    -0.206 F 
ATOM     72  C   UNL     1      -1.474 -17.634  13.649  1.00  0.00     0.006 A 
ENDBRANCH  51  65
BRANCH  52  73
ATOM     73  C   UNL     1     -11.503 -11.911   8.139  1.00  0.00     0.057 A 
ATOM     74  C   UNL     1     -12.505 -11.301   8.903  1.00  0.00     0.134 A 
ATOM     75  C   UNL     1     -11.644 -11.881   6.747  1.00  0.00     0.134 A 
ATOM     76  F   UNL     1     -12.434 -11.315  10.242  1.00  0.00    -0.206 F 
ATOM     77  C   UNL     1     -13.616 -10.702   8.308  1.00  0.00     0.040 A 
ATOM     78  C   UNL     1     -12.739 -11.264   6.138  1.00  0.00     0.040 A 
ATOM     79  F   UNL     1     -10.714 -12.441   5.960  1.00  0.00    -0.206 F 
ATOM     80  C   UNL     1     -13.732 -10.679   6.920  1.00  0.00     0.006 A 
ENDBRANCH  52  73
BRANCH  64  81
ATOM     81  C   UNL     1     -10.870 -17.612  12.076  1.00  0.00     0.057 A 
ATOM     82  C   UNL     1     -11.473 -18.569  11.252  1.00  0.00     0.134 A 
ATOM     83  C   UNL     1     -11.206 -17.622  13.436  1.00  0.00     0.134 A 
ATOM     84  F   UNL     1     -11.204 -18.603   9.938  1.00  0.00    -0.206 F 
ATOM     85  C   UNL     1     -12.393 -19.489  11.758  1.00  0.00     0.040 A 
ATOM     86  C   UNL     1     -12.105 -18.553  13.958  1.00  0.00     0.040 A 
ATOM     87  F   UNL     1     -10.658 -16.736  14.280  1.00  0.00    -0.206 F 
ATOM     88  C   UNL     1     -12.706 -19.487  13.117  1.00  0.00     0.006 A 
ENDBRANCH  64  81
ENDBRANCH  38  39
ENDBRANCH  30  33
ENDBRANCH  28  29
ENDBRANCH  27  28
ENDBRANCH  26  27
ENDBRANCH   1  26
TORSDOF 15
