REMARK SMILES Cc1ccc(C)c(Oc2cccc(F)c2C(=O)NCCCCNC(=O)c2ccc(-c3c4nc(c(-c5c(F)cccc5F)c5ccc([nH]5)c(-c5c(F)cccc5F)c5nc(c(-c6c(F)cccc6F)c6ccc3[nH]6)C=C5)C=C4)cc2)c1
REMARK SMILES IDX 20 1 19 2 18 3 16 4 17 5 15 7 9 8 10 9 11 10 13 11 12 12
REMARK SMILES IDX 14 13 8 14 7 15 1 16 2 17 3 18 80 19 4 20 5 21 6 22 21 23
REMARK SMILES IDX 22 24 23 25 24 26 25 28 26 29 27 30 79 31 28 32 78 33 29 34
REMARK SMILES IDX 30 35 31 36 72 37 32 38 77 39 71 40 73 41 33 42 76 43 70 44
REMARK SMILES IDX 69 45 34 47 60 48 43 49 59 50 44 51 47 52 58 53 74 54 45 55
REMARK SMILES IDX 46 56 57 58 75 59 48 60 35 61 36 62 41 63 37 64 38 65 40 66
REMARK SMILES IDX 42 67 39 68 61 69 62 70 67 71 63 72 64 73 66 74 68 75 65 76
REMARK SMILES IDX 49 77 50 78 55 79 51 80 52 81 54 82 56 83 53 84
REMARK H PARENT 18 6 23 27 73 46 47 57
REMARK Flexibility Score: inf
ROOT
ATOM      1  C   UNL     1      -2.780   7.797   2.927  1.00  0.00     0.023 C 
ENDROOT
BRANCH   1   2
ATOM      2  C   UNL     1      -1.615   6.806   2.985  1.00  0.00     0.116 C 
BRANCH   2   3
ATOM      3  N   UNL     1      -1.943   5.390   2.939  1.00  0.00    -0.352 N 
ATOM      4  C   UNL     1      -1.423   4.335   2.204  1.00  0.00     0.258 C 
ATOM      5  O   UNL     1      -1.799   3.207   2.527  1.00  0.00    -0.269 OA
ATOM      6  H   UNL     1      -2.674   5.131   3.546  1.00  0.00     0.163 HD
BRANCH   4   7
ATOM      7  C   UNL     1      -0.539   4.505   1.012  1.00  0.00     0.118 A 
ATOM      8  C   UNL     1      -0.669   3.655  -0.104  1.00  0.00     0.143 A 
ATOM      9  C   UNL     1      -0.046   3.960  -1.330  1.00  0.00     0.048 A 
ATOM     10  C   UNL     1       0.839   5.027  -1.414  1.00  0.00     0.007 A 
ATOM     11  C   UNL     1       0.462   5.473   0.936  1.00  0.00     0.139 A 
ATOM     12  C   UNL     1       1.127   5.755  -0.264  1.00  0.00     0.040 A 
ATOM     13  F   UNL     1       0.879   6.127   2.030  1.00  0.00    -0.206 F 
BRANCH   8  14
ATOM     14  O   UNL     1      -1.376   2.474  -0.026  1.00  0.00    -0.456 OA
BRANCH  14  15
ATOM     15  C   UNL     1      -0.654   1.282  -0.052  1.00  0.00     0.130 A 
ATOM     16  C   UNL     1       2.924  -0.083  -0.129  1.00  0.00     0.044 C 
ATOM     17  C   UNL     1       1.423  -0.023  -0.115  1.00  0.00    -0.047 A 
ATOM     18  C   UNL     1       0.674  -1.198  -0.160  1.00  0.00     0.004 A 
ATOM     19  C   UNL     1       0.753   1.208  -0.042  1.00  0.00     0.050 A 
ATOM     20  C   UNL     1      -0.720  -1.142  -0.129  1.00  0.00     0.007 A 
ATOM     21  C   UNL     1      -1.397   0.090  -0.078  1.00  0.00    -0.008 A 
ATOM     22  C   UNL     1      -2.899   0.070  -0.034  1.00  0.00     0.048 C 
ENDBRANCH  14  15
ENDBRANCH   8  14
ENDBRANCH   4   7
ENDBRANCH   2   3
ENDBRANCH   1   2
BRANCH   1  23
ATOM     23  C   UNL     1      -3.796   7.889   4.072  1.00  0.00     0.023 C 
BRANCH  23  24
ATOM     24  C   UNL     1      -3.291   8.254   5.470  1.00  0.00     0.116 C 
BRANCH  24  25
ATOM     25  N   UNL     1      -2.517   9.507   5.555  1.00  0.00    -0.352 N 
ATOM     26  C   UNL     1      -1.561   9.932   6.481  1.00  0.00     0.251 C 
ATOM     27  H   UNL     1      -2.708  10.155   4.838  1.00  0.00     0.163 HD
ATOM     28  O   UNL     1      -1.307  11.118   6.614  1.00  0.00    -0.269 OA
BRANCH  26  29
ATOM     29  C   UNL     1      -0.815   8.934   7.276  1.00  0.00     0.039 A 
ATOM     30  C   UNL     1      -0.041   9.179   8.415  1.00  0.00     0.014 A 
ATOM     31  C   UNL     1      -0.743   7.680   6.734  1.00  0.00     0.014 A 
ATOM     32  C   UNL     1       0.769   8.138   8.906  1.00  0.00     0.010 A 
ATOM     33  C   UNL     1      -0.470   6.631   7.534  1.00  0.00     0.010 A 
ATOM     34  C   UNL     1       0.594   6.865   8.365  1.00  0.00    -0.014 A 
BRANCH  34  35
ATOM     35  C   UNL     1       1.351   5.658   8.626  1.00  0.00     0.031 A 
ATOM     36  C   UNL     1       0.923   4.932   9.843  1.00  0.00     0.074 A 
ATOM     37  C   UNL     1       2.007   5.027   7.625  1.00  0.00     0.049 A 
ATOM     38  N   UNL     1       1.556   4.847  10.964  1.00  0.00    -0.248 NA
ATOM     39  C   UNL     1      -0.456   4.408   9.900  1.00  0.00     0.031 C 
ATOM     40  C   UNL     1       2.123   5.403   6.208  1.00  0.00     0.029 A 
ATOM     41  N   UNL     1       2.624   3.818   7.657  1.00  0.00    -0.354 N 
ATOM     42  C   UNL     1       0.738   4.080  11.785  1.00  0.00     0.074 A 
ATOM     43  C   UNL     1      -0.570   4.122  11.197  1.00  0.00     0.031 C 
ATOM     44  C   UNL     1       2.599   4.353   5.497  1.00  0.00     0.029 A 
ATOM     45  C   UNL     1       2.932   3.277   6.413  1.00  0.00     0.049 A 
ATOM     46  H   UNL     1       2.838   3.357   8.500  1.00  0.00     0.167 HD
ATOM     47  C   UNL     1       1.254   3.221  12.706  1.00  0.00     0.037 A 
ATOM     48  C   UNL     1       3.362   2.008   6.189  1.00  0.00     0.037 A 
ATOM     49  C   UNL     1       2.674   3.430  12.858  1.00  0.00     0.049 A 
ATOM     50  C   UNL     1       3.844   1.477   7.495  1.00  0.00     0.074 A 
ATOM     51  C   UNL     1       3.456   4.523  13.185  1.00  0.00     0.029 A 
ATOM     52  N   UNL     1       3.518   2.540  12.234  1.00  0.00    -0.354 N 
ATOM     53  N   UNL     1       4.901   1.923   8.117  1.00  0.00    -0.248 NA
ATOM     54  C   UNL     1       2.880   0.774   8.333  1.00  0.00     0.031 C 
ATOM     55  C   UNL     1       4.578   4.446  12.309  1.00  0.00     0.029 A 
ATOM     56  C   UNL     1       4.465   3.273  11.562  1.00  0.00     0.049 A 
ATOM     57  H   UNL     1       3.454   1.558  12.263  1.00  0.00     0.167 HD
ATOM     58  C   UNL     1       4.540   1.947   9.457  1.00  0.00     0.074 A 
ATOM     59  C   UNL     1       3.319   1.146   9.539  1.00  0.00     0.031 C 
ATOM     60  C   UNL     1       5.077   2.863  10.317  1.00  0.00     0.037 A 
BRANCH  47  61
ATOM     61  C   UNL     1       0.567   1.973  13.206  1.00  0.00     0.057 A 
ATOM     62  C   UNL     1      -0.463   1.277  12.537  1.00  0.00     0.134 A 
ATOM     63  C   UNL     1       1.119   1.295  14.306  1.00  0.00     0.134 A 
ATOM     64  F   UNL     1      -1.026   1.721  11.408  1.00  0.00    -0.206 F 
ATOM     65  C   UNL     1      -0.913   0.015  12.935  1.00  0.00     0.040 A 
ATOM     66  C   UNL     1       0.719   0.005  14.675  1.00  0.00     0.040 A 
ATOM     67  F   UNL     1       2.117   1.838  15.019  1.00  0.00    -0.206 F 
ATOM     68  C   UNL     1      -0.301  -0.640  13.988  1.00  0.00     0.006 A 
ENDBRANCH  47  61
BRANCH  48  69
ATOM     69  C   UNL     1       3.057   1.108   5.048  1.00  0.00     0.057 A 
ATOM     70  C   UNL     1       1.910   1.279   4.255  1.00  0.00     0.134 A 
ATOM     71  C   UNL     1       3.723  -0.121   4.908  1.00  0.00     0.134 A 
ATOM     72  F   UNL     1       1.178   2.398   4.318  1.00  0.00    -0.206 F 
ATOM     73  C   UNL     1       1.416   0.265   3.430  1.00  0.00     0.040 A 
ATOM     74  C   UNL     1       3.241  -1.143   4.079  1.00  0.00     0.040 A 
ATOM     75  F   UNL     1       4.820  -0.389   5.631  1.00  0.00    -0.206 F 
ATOM     76  C   UNL     1       2.067  -0.959   3.358  1.00  0.00     0.006 A 
ENDBRANCH  48  69
BRANCH  60  77
ATOM     77  C   UNL     1       6.233   3.702   9.834  1.00  0.00     0.057 A 
ATOM     78  C   UNL     1       7.412   3.719  10.584  1.00  0.00     0.134 A 
ATOM     79  C   UNL     1       6.148   4.627   8.780  1.00  0.00     0.134 A 
ATOM     80  F   UNL     1       7.551   2.904  11.641  1.00  0.00    -0.206 F 
ATOM     81  C   UNL     1       8.450   4.615  10.310  1.00  0.00     0.040 A 
ATOM     82  C   UNL     1       7.191   5.505   8.473  1.00  0.00     0.040 A 
ATOM     83  F   UNL     1       5.031   4.760   8.061  1.00  0.00    -0.206 F 
ATOM     84  C   UNL     1       8.344   5.509   9.248  1.00  0.00     0.006 A 
ENDBRANCH  60  77
ENDBRANCH  34  35
ENDBRANCH  26  29
ENDBRANCH  24  25
ENDBRANCH  23  24
ENDBRANCH   1  23
TORSDOF 13
