REMARK SMILES Cc1ccc2c(=O)c3cccc(CC(=O)NCCCCNC(=O)c4ccc(-c5c6nc(c(-c7c(F)cccc7F)c7ccc([nH]7)c(-c7c(F)cccc7F)c7nc(c(-c8c(F)cccc8F)c8ccc5[nH]8)C=C7)C=C6)cc4)c3oc2c1C
REMARK SMILES IDX 19 1 18 2 17 3 16 4 14 5 15 6 13 8 12 9 1 10 2 11 3 12 81 13
REMARK SMILES IDX 4 14 80 15 82 16 5 17 79 18 6 19 78 20 7 21 8 22 9 23 11 24
REMARK SMILES IDX 10 25 20 26 21 27 22 28 23 30 24 31 25 32 77 33 26 34 76 35
REMARK SMILES IDX 27 36 28 37 29 38 70 39 30 40 75 41 69 42 71 43 31 44 74 45
REMARK SMILES IDX 68 46 67 47 32 49 58 50 41 51 57 52 42 53 45 54 56 55 72 56
REMARK SMILES IDX 43 57 44 58 55 60 73 61 46 62 33 63 34 64 39 65 35 66 36 67
REMARK SMILES IDX 38 68 40 69 37 70 59 71 60 72 65 73 61 74 62 75 64 76 66 77
REMARK SMILES IDX 63 78 47 79 48 80 53 81 49 82 50 83 52 84 54 85 51 86
REMARK H PARENT 16 7 21 29 71 48 45 59
REMARK Flexibility Score: inf
ROOT
ATOM      1  C   UNL     1       3.148   3.322   7.805  1.00  0.00     0.023 C 
ENDROOT
BRANCH   1   2
ATOM      2  C   UNL     1       1.661   3.668   7.908  1.00  0.00     0.023 C 
BRANCH   2   3
ATOM      3  C   UNL     1       1.276   5.040   7.355  1.00  0.00     0.116 C 
BRANCH   3   4
ATOM      4  N   UNL     1       1.459   5.130   5.920  1.00  0.00    -0.356 N 
ATOM      5  C   UNL     1       0.535   5.018   4.921  1.00  0.00     0.224 C 
ATOM      6  O   UNL     1       0.919   5.179   3.760  1.00  0.00    -0.275 OA
ATOM      7  H   UNL     1       2.383   5.295   5.623  1.00  0.00     0.163 HD
BRANCH   5   8
ATOM      8  C   UNL     1      -0.932   4.785   5.244  1.00  0.00     0.139 C 
BRANCH   8   9
ATOM      9  C   UNL     1      -1.244   3.459   5.903  1.00  0.00     0.005 A 
ATOM     10  C   UNL     1       1.109   0.044  -0.109  1.00  0.00     0.045 C 
ATOM     11  C   UNL     1       0.606   0.016   1.310  1.00  0.00    -0.044 A 
ATOM     12  C   UNL     1       0.391  -1.234   1.916  1.00  0.00     0.005 A 
ATOM     13  C   UNL     1       0.369   1.198   2.049  1.00  0.00    -0.005 A 
ATOM     14  C   UNL     1      -0.075  -1.323   3.225  1.00  0.00     0.016 A 
ATOM     15  C   UNL     1      -0.122   1.097   3.369  1.00  0.00     0.141 A 
ATOM     16  C   UNL     1       0.618   2.569   1.471  1.00  0.00     0.049 C 
ATOM     17  C   UNL     1      -0.336  -0.156   3.941  1.00  0.00     0.066 A 
ATOM     18  O   UNL     1      -0.371   2.275   4.037  1.00  0.00    -0.455 OA
ATOM     19  C   UNL     1      -0.853  -0.232   5.313  1.00  0.00     0.200 A 
ATOM     20  C   UNL     1      -0.933   2.232   5.290  1.00  0.00     0.142 A 
ATOM     21  O   UNL     1      -1.003  -1.304   5.886  1.00  0.00    -0.288 OA
ATOM     22  C   UNL     1      -1.193   1.039   5.965  1.00  0.00     0.066 A 
ATOM     23  C   UNL     1      -1.772   1.042   7.238  1.00  0.00     0.016 A 
ATOM     24  C   UNL     1      -1.867   3.449   7.166  1.00  0.00     0.008 A 
ATOM     25  C   UNL     1      -2.117   2.250   7.834  1.00  0.00     0.001 A 
ENDBRANCH   8   9
ENDBRANCH   5   8
ENDBRANCH   3   4
ENDBRANCH   2   3
ENDBRANCH   1   2
BRANCH   1  26
ATOM     26  C   UNL     1       4.093   4.287   8.509  1.00  0.00     0.116 C 
BRANCH  26  27
ATOM     27  N   UNL     1       3.860   4.397   9.941  1.00  0.00    -0.352 N 
ATOM     28  C   UNL     1       4.783   4.581  10.946  1.00  0.00     0.251 C 
ATOM     29  H   UNL     1       2.921   4.332  10.229  1.00  0.00     0.163 HD
ATOM     30  O   UNL     1       4.435   4.568  12.123  1.00  0.00    -0.269 OA
BRANCH  28  31
ATOM     31  C   UNL     1       6.211   4.738  10.595  1.00  0.00     0.039 A 
ATOM     32  C   UNL     1       6.602   5.623   9.589  1.00  0.00     0.014 A 
ATOM     33  C   UNL     1       7.159   3.937  11.238  1.00  0.00     0.014 A 
ATOM     34  C   UNL     1       7.905   5.579   9.105  1.00  0.00     0.010 A 
ATOM     35  C   UNL     1       8.486   3.950  10.800  1.00  0.00     0.010 A 
ATOM     36  C   UNL     1       8.855   4.726   9.690  1.00  0.00    -0.014 A 
BRANCH  36  37
ATOM     37  C   UNL     1      10.214   4.634   9.096  1.00  0.00     0.031 A 
ATOM     38  C   UNL     1      10.676   3.361   8.436  1.00  0.00     0.074 A 
ATOM     39  C   UNL     1      11.010   5.720   9.092  1.00  0.00     0.049 A 
ATOM     40  N   UNL     1      11.814   3.107   7.838  1.00  0.00    -0.248 NA
ATOM     41  C   UNL     1       9.743   2.224   8.451  1.00  0.00     0.031 C 
ATOM     42  C   UNL     1      10.675   7.014   9.688  1.00  0.00     0.029 A 
ATOM     43  N   UNL     1      12.253   5.915   8.548  1.00  0.00    -0.354 N 
ATOM     44  C   UNL     1      11.742   1.781   7.428  1.00  0.00     0.074 A 
ATOM     45  C   UNL     1      10.459   1.275   7.865  1.00  0.00     0.031 C 
ATOM     46  C   UNL     1      11.665   7.883   9.435  1.00  0.00     0.029 A 
ATOM     47  C   UNL     1      12.725   7.194   8.706  1.00  0.00     0.049 A 
ATOM     48  H   UNL     1      12.758   5.206   8.088  1.00  0.00     0.167 HD
ATOM     49  C   UNL     1      12.656   1.055   6.741  1.00  0.00     0.037 A 
ATOM     50  C   UNL     1      13.887   7.749   8.315  1.00  0.00     0.037 A 
ATOM     51  C   UNL     1      13.919   1.564   6.275  1.00  0.00     0.049 A 
ATOM     52  C   UNL     1      14.894   6.911   7.582  1.00  0.00     0.074 A 
ATOM     53  C   UNL     1      14.893   0.914   5.536  1.00  0.00     0.029 A 
ATOM     54  N   UNL     1      14.383   2.850   6.503  1.00  0.00    -0.354 N 
ATOM     55  N   UNL     1      14.803   5.665   7.189  1.00  0.00    -0.248 NA
ATOM     56  C   UNL     1      16.171   7.558   7.248  1.00  0.00     0.031 C 
ATOM     57  C   UNL     1      15.962   1.798   5.346  1.00  0.00     0.029 A 
ATOM     58  C   UNL     1      15.638   3.007   5.938  1.00  0.00     0.049 A 
ATOM     59  H   UNL     1      13.893   3.548   6.994  1.00  0.00     0.167 HD
ATOM     60  C   UNL     1      16.003   5.380   6.554  1.00  0.00     0.074 A 
ATOM     61  C   UNL     1      16.797   6.591   6.594  1.00  0.00     0.031 C 
ATOM     62  C   UNL     1      16.415   4.217   5.992  1.00  0.00     0.037 A 
BRANCH  49  63
ATOM     63  C   UNL     1      12.327  -0.382   6.460  1.00  0.00     0.057 A 
ATOM     64  C   UNL     1      12.981  -1.410   7.149  1.00  0.00     0.134 A 
ATOM     65  C   UNL     1      11.391  -0.750   5.484  1.00  0.00     0.134 A 
ATOM     66  F   UNL     1      13.892  -1.126   8.092  1.00  0.00    -0.206 F 
ATOM     67  C   UNL     1      12.718  -2.754   6.878  1.00  0.00     0.040 A 
ATOM     68  C   UNL     1      11.104  -2.090   5.218  1.00  0.00     0.040 A 
ATOM     69  F   UNL     1      10.720   0.188   4.798  1.00  0.00    -0.206 F 
ATOM     70  C   UNL     1      11.773  -3.097   5.913  1.00  0.00     0.006 A 
ENDBRANCH  49  63
BRANCH  50  71
ATOM     71  C   UNL     1      14.166   9.174   8.615  1.00  0.00     0.057 A 
ATOM     72  C   UNL     1      14.421   9.606   9.922  1.00  0.00     0.134 A 
ATOM     73  C   UNL     1      14.198  10.133   7.598  1.00  0.00     0.134 A 
ATOM     74  F   UNL     1      14.402   8.733  10.940  1.00  0.00    -0.206 F 
ATOM     75  C   UNL     1      14.689  10.944  10.208  1.00  0.00     0.040 A 
ATOM     76  C   UNL     1      14.488  11.471   7.866  1.00  0.00     0.040 A 
ATOM     77  F   UNL     1      13.982   9.774   6.324  1.00  0.00    -0.206 F 
ATOM     78  C   UNL     1      14.730  11.880   9.177  1.00  0.00     0.006 A 
ENDBRANCH  50  71
BRANCH  62  79
ATOM     79  C   UNL     1      17.777   4.215   5.368  1.00  0.00     0.057 A 
ATOM     80  C   UNL     1      17.928   4.228   3.976  1.00  0.00     0.134 A 
ATOM     81  C   UNL     1      18.941   4.192   6.148  1.00  0.00     0.134 A 
ATOM     82  F   UNL     1      16.852   4.245   3.175  1.00  0.00    -0.206 F 
ATOM     83  C   UNL     1      19.190   4.223   3.381  1.00  0.00     0.040 A 
ATOM     84  C   UNL     1      20.208   4.208   5.564  1.00  0.00     0.040 A 
ATOM     85  F   UNL     1      18.861   4.196   7.487  1.00  0.00    -0.206 F 
ATOM     86  C   UNL     1      20.334   4.220   4.176  1.00  0.00     0.006 A 
ENDBRANCH  62  79
ENDBRANCH  36  37
ENDBRANCH  28  31
ENDBRANCH  26  27
ENDBRANCH   1  26
TORSDOF 12
