REMARK SMILES O=C(NCCCCNC(=O)c1c(C(=O)N2CCc3ccccc32)cccc1[N+](=O)[O-])c1ccc(-c2c3nc(c(-c4c(F)cccc4F)c4ccc([nH]4)c(-c4c(F)cccc4F)c4nc(c(-c5c(F)cccc5F)c5ccc2[nH]5)C=C4)C=C3)cc1
REMARK SMILES IDX 5 1 4 2 3 3 1 4 2 5 31 7 32 8 84 9 33 10 83 11 34 12 35 13
REMARK SMILES IDX 36 14 77 15 37 16 82 17 76 18 78 19 38 20 81 21 75 22 74 23
REMARK SMILES IDX 39 25 65 26 48 27 64 28 49 29 52 30 63 31 79 32 50 33 51 34
REMARK SMILES IDX 62 36 80 37 53 38 40 39 41 40 46 41 42 42 43 43 45 44 47 45
REMARK SMILES IDX 44 46 66 47 67 48 72 49 68 50 69 51 71 52 73 53 70 54 54 55
REMARK SMILES IDX 55 56 60 57 56 58 57 59 59 60 61 61 58 62 6 63 7 64 8 65
REMARK SMILES IDX 9 66 10 68 11 69 12 70 27 71 24 72 26 73 25 74 13 75 14 76
REMARK SMILES IDX 15 77 16 78 23 79 17 80 18 81 22 82 19 83 21 84 20 85 28 86
REMARK SMILES IDX 29 87 30 88
REMARK H PARENT 3 6 78 24 52 35 8 67
REMARK Flexibility Score: inf
ROOT
ATOM      1  C   UNL     1       4.923  -1.653   2.145  1.00  0.00     0.023 C 
ENDROOT
BRANCH   1   2
ATOM      2  C   UNL     1       4.589  -1.285   0.702  1.00  0.00     0.116 C 
BRANCH   2   3
ATOM      3  N   UNL     1       3.160  -1.179   0.455  1.00  0.00    -0.352 N 
ATOM      4  O   UNL     1       1.177  -0.185   0.063  1.00  0.00    -0.269 OA
ATOM      5  C   UNL     1       2.402  -0.093   0.084  1.00  0.00     0.251 C 
ATOM      6  H   UNL     1       2.656  -2.016   0.573  1.00  0.00     0.163 HD
BRANCH   5   7
ATOM      7  C   UNL     1       3.042   1.198  -0.260  1.00  0.00     0.039 A 
ATOM      8  C   UNL     1       4.166   1.256  -1.086  1.00  0.00     0.014 A 
ATOM      9  C   UNL     1       2.482   2.381   0.235  1.00  0.00     0.014 A 
ATOM     10  C   UNL     1       4.817   2.471  -1.290  1.00  0.00     0.010 A 
ATOM     11  C   UNL     1       3.094   3.610  -0.032  1.00  0.00     0.010 A 
ATOM     12  C   UNL     1       4.290   3.661  -0.764  1.00  0.00    -0.014 A 
BRANCH  12  13
ATOM     13  C   UNL     1       4.988   4.949  -1.011  1.00  0.00     0.031 A 
ATOM     14  C   UNL     1       5.621   5.716   0.118  1.00  0.00     0.074 A 
ATOM     15  C   UNL     1       5.075   5.417  -2.271  1.00  0.00     0.049 A 
ATOM     16  N   UNL     1       6.279   6.848   0.079  1.00  0.00    -0.248 NA
ATOM     17  C   UNL     1       5.494   5.144   1.467  1.00  0.00     0.031 C 
ATOM     18  C   UNL     1       4.495   4.773  -3.450  1.00  0.00     0.029 A 
ATOM     19  N   UNL     1       5.694   6.534  -2.771  1.00  0.00    -0.354 N 
ATOM     20  C   UNL     1       6.626   7.133   1.393  1.00  0.00     0.074 A 
ATOM     21  C   UNL     1       6.089   6.067   2.211  1.00  0.00     0.031 C 
ATOM     22  C   UNL     1       4.818   5.484  -4.541  1.00  0.00     0.029 A 
ATOM     23  C   UNL     1       5.586   6.656  -4.134  1.00  0.00     0.049 A 
ATOM     24  H   UNL     1       6.171   7.185  -2.207  1.00  0.00     0.167 HD
ATOM     25  C   UNL     1       7.336   8.183   1.873  1.00  0.00     0.037 A 
ATOM     26  C   UNL     1       6.046   7.609  -4.966  1.00  0.00     0.037 A 
ATOM     27  C   UNL     1       7.892   9.233   1.059  1.00  0.00     0.049 A 
ATOM     28  C   UNL     1       6.822   8.764  -4.408  1.00  0.00     0.074 A 
ATOM     29  C   UNL     1       8.659  10.316   1.454  1.00  0.00     0.029 A 
ATOM     30  N   UNL     1       7.741   9.331  -0.315  1.00  0.00    -0.354 N 
ATOM     31  N   UNL     1       7.163   9.005  -3.166  1.00  0.00    -0.248 NA
ATOM     32  C   UNL     1       7.273   9.783  -5.366  1.00  0.00     0.031 C 
ATOM     33  C   UNL     1       8.946  11.088   0.322  1.00  0.00     0.029 A 
ATOM     34  C   UNL     1       8.386  10.466  -0.782  1.00  0.00     0.049 A 
ATOM     35  H   UNL     1       7.249   8.690  -0.877  1.00  0.00     0.167 HD
ATOM     36  C   UNL     1       7.876  10.195  -3.192  1.00  0.00     0.074 A 
ATOM     37  C   UNL     1       7.934  10.618  -4.577  1.00  0.00     0.031 C 
ATOM     38  C   UNL     1       8.430  10.877  -2.161  1.00  0.00     0.037 A 
BRANCH  25  39
ATOM     39  C   UNL     1       7.544   8.258   3.357  1.00  0.00     0.057 A 
ATOM     40  C   UNL     1       8.457   7.426   4.016  1.00  0.00     0.134 A 
ATOM     41  C   UNL     1       6.855   9.203   4.127  1.00  0.00     0.134 A 
ATOM     42  F   UNL     1       9.140   6.492   3.337  1.00  0.00    -0.206 F 
ATOM     43  C   UNL     1       8.667   7.522   5.394  1.00  0.00     0.040 A 
ATOM     44  C   UNL     1       7.070   9.321   5.501  1.00  0.00     0.040 A 
ATOM     45  F   UNL     1       5.970  10.033   3.555  1.00  0.00    -0.206 F 
ATOM     46  C   UNL     1       7.976   8.476   6.139  1.00  0.00     0.006 A 
ENDBRANCH  25  39
BRANCH  26  47
ATOM     47  C   UNL     1       5.780   7.499  -6.420  1.00  0.00     0.057 A 
ATOM     48  C   UNL     1       6.800   7.165  -7.316  1.00  0.00     0.134 A 
ATOM     49  C   UNL     1       4.497   7.700  -6.941  1.00  0.00     0.134 A 
ATOM     50  F   UNL     1       8.053   6.979  -6.875  1.00  0.00    -0.206 F 
ATOM     51  C   UNL     1       6.555   7.040  -8.684  1.00  0.00     0.040 A 
ATOM     52  C   UNL     1       4.233   7.557  -8.303  1.00  0.00     0.040 A 
ATOM     53  F   UNL     1       3.478   8.017  -6.129  1.00  0.00    -0.206 F 
ATOM     54  C   UNL     1       5.266   7.229  -9.180  1.00  0.00     0.006 A 
ENDBRANCH  26  47
BRANCH  38  55
ATOM     55  C   UNL     1       9.157  12.143  -2.497  1.00  0.00     0.057 A 
ATOM     56  C   UNL     1       8.469  13.321  -2.810  1.00  0.00     0.134 A 
ATOM     57  C   UNL     1      10.556  12.190  -2.482  1.00  0.00     0.134 A 
ATOM     58  F   UNL     1       7.128  13.335  -2.855  1.00  0.00    -0.206 F 
ATOM     59  C   UNL     1       9.149  14.501  -3.116  1.00  0.00     0.040 A 
ATOM     60  C   UNL     1      11.247  13.368  -2.767  1.00  0.00     0.040 A 
ATOM     61  F   UNL     1      11.271  11.095  -2.185  1.00  0.00    -0.206 F 
ATOM     62  C   UNL     1      10.543  14.527  -3.090  1.00  0.00     0.006 A 
ENDBRANCH  38  55
ENDBRANCH  12  13
ENDBRANCH   5   7
ENDBRANCH   2   3
ENDBRANCH   1   2
BRANCH   1  63
ATOM     63  C   UNL     1       4.476  -3.041   2.608  1.00  0.00     0.023 C 
BRANCH  63  64
ATOM     64  C   UNL     1       4.877  -4.205   1.705  1.00  0.00     0.116 C 
BRANCH  64  65
ATOM     65  N   UNL     1       6.312  -4.309   1.480  1.00  0.00    -0.352 N 
ATOM     66  C   UNL     1       7.105  -5.419   1.310  1.00  0.00     0.259 C 
ATOM     67  H   UNL     1       6.789  -3.448   1.443  1.00  0.00     0.163 HD
ATOM     68  O   UNL     1       8.313  -5.284   1.151  1.00  0.00    -0.269 OA
BRANCH  66  69
ATOM     69  C   UNL     1       6.514  -6.767   1.375  1.00  0.00     0.130 A 
ATOM     70  C   UNL     1       6.951  -7.681   2.343  1.00  0.00     0.060 A 
ATOM     71  C   UNL     1       5.499  -7.173   0.500  1.00  0.00     0.282 A 
ATOM     72  C   UNL     1       6.301  -8.919   2.489  1.00  0.00     0.015 A 
ATOM     73  C   UNL     1       4.822  -8.392   0.666  1.00  0.00     0.086 A 
ATOM     74  C   UNL     1       5.214  -9.255   1.682  1.00  0.00     0.008 A 
BRANCH  70  75
ATOM     75  C   UNL     1       8.139  -7.439   3.193  1.00  0.00     0.259 C 
ATOM     76  O   UNL     1       9.205  -7.963   2.895  1.00  0.00    -0.269 OA
BRANCH  75  77
ATOM     77  N   UNL     1       7.889  -6.734   4.346  1.00  0.00    -0.308 N 
ATOM     78  C   UNL     1       8.431  -5.389   4.587  1.00  0.00     0.131 C 
ATOM     79  C   UNL     1       7.770  -7.346   5.611  1.00  0.00     0.047 A 
ATOM     80  C   UNL     1       8.020  -5.018   6.019  1.00  0.00     0.059 C 
ATOM     81  C   UNL     1       7.800  -6.375   6.612  1.00  0.00    -0.022 A 
ATOM     82  C   UNL     1       7.657  -8.690   5.919  1.00  0.00     0.026 A 
ATOM     83  C   UNL     1       7.626  -6.716   7.943  1.00  0.00     0.006 A 
ATOM     84  C   UNL     1       7.501  -9.049   7.260  1.00  0.00     0.002 A 
ATOM     85  C   UNL     1       7.467  -8.067   8.263  1.00  0.00     0.000 A 
ENDBRANCH  75  77
ENDBRANCH  70  75
BRANCH  71  86
ATOM     86  N   UNL     1       5.141  -6.366  -0.653  1.00  0.00     0.063 N 
ATOM     87  O   UNL     1       3.933  -6.168  -0.841  1.00  0.00    -0.258 OA
ATOM     88  O   UNL     1       6.055  -5.950  -1.372  1.00  0.00    -0.258 OA
ENDBRANCH  71  86
ENDBRANCH  66  69
ENDBRANCH  64  65
ENDBRANCH  63  64
ENDBRANCH   1  63
TORSDOF 14
