REMARK SMILES C[C@]1(C(=O)NCCCCNC(=O)c2ccc(-c3c4nc(c(-c5c(F)cccc5F)c5ccc([nH]5)c(-c5c(F)cccc5F)c5nc(c(-c6c(F)cccc6F)c6ccc3[nH]6)C=C5)C=C4)cc2)[NH2+]C2(C(=O)c3ccccc3C2=O)[C@@H]2C(=O)N(c3ccccc3)C(=O)[C@H]21
REMARK SMILES IDX 8 1 7 2 6 3 5 4 3 5 4 6 2 8 1 9 67 10 91 11 68 12 79 15
REMARK SMILES IDX 89 16 69 17 77 18 80 19 82 20 90 21 70 22 71 23 76 24 78 25
REMARK SMILES IDX 81 26 72 27 75 28 73 29 74 30 83 31 84 32 88 33 85 34 87 35
REMARK SMILES IDX 86 36 9 37 10 38 11 39 12 41 13 42 14 43 66 44 15 45 65 46
REMARK SMILES IDX 16 47 17 48 18 49 59 50 19 51 64 52 58 53 60 54 20 55 63 56
REMARK SMILES IDX 57 57 56 58 21 60 47 61 30 62 46 63 31 64 34 65 45 66 61 67
REMARK SMILES IDX 32 68 33 69 44 71 62 72 35 73 22 74 23 75 28 76 24 77 25 78
REMARK SMILES IDX 27 79 29 80 26 81 48 82 49 83 54 84 50 85 51 86 53 87 55 88
REMARK SMILES IDX 52 89 36 90 37 91 42 92 38 93 39 94 41 95 43 96 40 97
REMARK H PARENT 5 7 67 13 67 14 10 40 60 59 34 70
REMARK Flexibility Score: inf
ROOT
ATOM      1  C   UNL     1       2.315  -0.101   6.894  1.00  0.00     0.023 C 
ENDROOT
BRANCH   1   2
ATOM      2  C   UNL     1       1.893  -0.892   5.678  1.00  0.00     0.023 C 
BRANCH   2   3
ATOM      3  C   UNL     1       1.202  -0.107   4.574  1.00  0.00     0.116 C 
BRANCH   3   4
ATOM      4  N   UNL     1       1.976   0.441   3.507  1.00  0.00    -0.351 N 
ATOM      5  C   UNL     1       1.714   0.472   2.165  1.00  0.00     0.281 C 
ATOM      6  O   UNL     1       2.581   1.074   1.512  1.00  0.00    -0.268 OA
ATOM      7  H   UNL     1       2.825   0.860   3.778  1.00  0.00     0.163 HD
BRANCH   5   8
ATOM      8  C   UNL     1       0.443  -0.155   1.416  1.00  0.00     0.186 C 
ATOM      9  C   UNL     1       0.731   0.037  -0.097  1.00  0.00     0.091 C 
ATOM     10  N   UNL     1       0.233  -1.640   1.661  1.00  0.00    -0.314 N 
ATOM     11  C   UNL     1      -0.934   0.378   1.698  1.00  0.00     0.170 C 
ATOM     12  C   UNL     1      -1.064  -1.851   2.442  1.00  0.00     0.236 C 
ATOM     13  H   UNL     1       1.016  -2.010   2.199  1.00  0.00     0.348 HD
ATOM     14  H   UNL     1       0.172  -2.126   0.767  1.00  0.00     0.348 HD
ATOM     15  C   UNL     1      -1.469  -0.456   2.844  1.00  0.00     0.177 C 
ATOM     16  C   UNL     1      -1.270   1.751   2.155  1.00  0.00     0.244 C 
ATOM     17  C   UNL     1      -2.142  -2.635   1.684  1.00  0.00     0.232 C 
ATOM     18  C   UNL     1      -0.734  -2.837   3.587  1.00  0.00     0.232 C 
ATOM     19  C   UNL     1      -2.778   0.237   3.057  1.00  0.00     0.245 C 
ATOM     20  N   UNL     1      -2.485   1.587   2.824  1.00  0.00    -0.250 N 
ATOM     21  O   UNL     1      -0.616   2.750   1.949  1.00  0.00    -0.273 OA
ATOM     22  O   UNL     1      -2.629  -2.337   0.609  1.00  0.00    -0.286 OA
ATOM     23  C   UNL     1      -2.486  -3.845   2.462  1.00  0.00     0.036 A 
ATOM     24  C   UNL     1      -1.667  -3.934   3.571  1.00  0.00     0.036 A 
ATOM     25  O   UNL     1       0.191  -2.865   4.376  1.00  0.00    -0.286 OA
ATOM     26  O   UNL     1      -3.772  -0.289   3.525  1.00  0.00    -0.273 OA
ATOM     27  C   UNL     1      -3.414  -4.840   2.224  1.00  0.00     0.013 A 
ATOM     28  C   UNL     1      -1.703  -4.978   4.481  1.00  0.00     0.013 A 
ATOM     29  C   UNL     1      -3.484  -5.911   3.135  1.00  0.00     0.001 A 
ATOM     30  C   UNL     1      -2.635  -5.981   4.256  1.00  0.00     0.001 A 
BRANCH  20  31
ATOM     31  C   UNL     1      -3.142   2.688   3.406  1.00  0.00     0.052 A 
ATOM     32  C   UNL     1      -3.431   3.822   2.635  1.00  0.00     0.027 A 
ATOM     33  C   UNL     1      -3.353   2.727   4.789  1.00  0.00     0.027 A 
ATOM     34  C   UNL     1      -3.936   4.976   3.236  1.00  0.00     0.002 A 
ATOM     35  C   UNL     1      -3.804   3.904   5.394  1.00  0.00     0.002 A 
ATOM     36  C   UNL     1      -4.103   5.023   4.618  1.00  0.00     0.000 A 
ENDBRANCH  20  31
ENDBRANCH   5   8
ENDBRANCH   3   4
ENDBRANCH   2   3
ENDBRANCH   1   2
BRANCH   1  37
ATOM     37  C   UNL     1       1.230   0.779   7.500  1.00  0.00     0.116 C 
BRANCH  37  38
ATOM     38  N   UNL     1       0.060   0.073   8.033  1.00  0.00    -0.352 N 
ATOM     39  C   UNL     1      -0.467   0.089   9.312  1.00  0.00     0.251 C 
ATOM     40  H   UNL     1      -0.421  -0.493   7.386  1.00  0.00     0.163 HD
ATOM     41  O   UNL     1      -1.460  -0.571   9.599  1.00  0.00    -0.269 OA
BRANCH  39  42
ATOM     42  C   UNL     1       0.240   0.862  10.354  1.00  0.00     0.039 A 
ATOM     43  C   UNL     1       0.645   2.162  10.075  1.00  0.00     0.014 A 
ATOM     44  C   UNL     1       0.685   0.212  11.507  1.00  0.00     0.014 A 
ATOM     45  C   UNL     1       1.748   2.665  10.746  1.00  0.00     0.010 A 
ATOM     46  C   UNL     1       1.681   0.808  12.288  1.00  0.00     0.010 A 
ATOM     47  C   UNL     1       2.296   1.993  11.855  1.00  0.00    -0.014 A 
BRANCH  47  48
ATOM     48  C   UNL     1       3.528   2.536  12.495  1.00  0.00     0.031 A 
ATOM     49  C   UNL     1       4.785   1.706  12.620  1.00  0.00     0.074 A 
ATOM     50  C   UNL     1       3.543   3.826  12.889  1.00  0.00     0.049 A 
ATOM     51  N   UNL     1       5.937   2.028  13.159  1.00  0.00    -0.248 NA
ATOM     52  C   UNL     1       4.748   0.336  12.083  1.00  0.00     0.031 C 
ATOM     53  C   UNL     1       2.406   4.747  12.806  1.00  0.00     0.029 A 
ATOM     54  N   UNL     1       4.554   4.598  13.399  1.00  0.00    -0.354 N 
ATOM     55  C   UNL     1       6.740   0.895  13.063  1.00  0.00     0.074 A 
ATOM     56  C   UNL     1       5.938  -0.132  12.434  1.00  0.00     0.031 C 
ATOM     57  C   UNL     1       2.804   5.973  13.166  1.00  0.00     0.029 A 
ATOM     58  C   UNL     1       4.189   5.905  13.611  1.00  0.00     0.049 A 
ATOM     59  H   UNL     1       5.454   4.250  13.595  1.00  0.00     0.167 HD
ATOM     60  C   UNL     1       8.027   0.727  13.456  1.00  0.00     0.037 A 
ATOM     61  C   UNL     1       4.875   6.934  14.137  1.00  0.00     0.037 A 
ATOM     62  C   UNL     1       8.838   1.762  14.048  1.00  0.00     0.049 A 
ATOM     63  C   UNL     1       6.281   6.708  14.603  1.00  0.00     0.074 A 
ATOM     64  C   UNL     1      10.158   1.696  14.462  1.00  0.00     0.029 A 
ATOM     65  N   UNL     1       8.406   3.055  14.306  1.00  0.00    -0.354 N 
ATOM     66  N   UNL     1       7.014   5.625  14.524  1.00  0.00    -0.248 NA
ATOM     67  C   UNL     1       6.948   7.845  15.249  1.00  0.00     0.031 C 
ATOM     68  C   UNL     1      10.509   2.935  15.012  1.00  0.00     0.029 A 
ATOM     69  C   UNL     1       9.425   3.788  14.893  1.00  0.00     0.049 A 
ATOM     70  H   UNL     1       7.507   3.401  14.102  1.00  0.00     0.167 HD
ATOM     71  C   UNL     1       8.234   5.953  15.098  1.00  0.00     0.074 A 
ATOM     72  C   UNL     1       8.149   7.344  15.494  1.00  0.00     0.031 C 
ATOM     73  C   UNL     1       9.325   5.170  15.286  1.00  0.00     0.037 A 
BRANCH  60  74
ATOM     74  C   UNL     1       8.637  -0.638  13.285  1.00  0.00     0.057 A 
ATOM     75  C   UNL     1       8.930  -1.430  14.404  1.00  0.00     0.134 A 
ATOM     76  C   UNL     1       8.967  -1.158  12.027  1.00  0.00     0.134 A 
ATOM     77  F   UNL     1       8.652  -0.992  15.641  1.00  0.00    -0.206 F 
ATOM     78  C   UNL     1       9.524  -2.688  14.278  1.00  0.00     0.040 A 
ATOM     79  C   UNL     1       9.537  -2.426  11.886  1.00  0.00     0.040 A 
ATOM     80  F   UNL     1       8.707  -0.458  10.913  1.00  0.00    -0.206 F 
ATOM     81  C   UNL     1       9.823  -3.192  13.014  1.00  0.00     0.006 A 
ENDBRANCH  60  74
BRANCH  61  82
ATOM     82  C   UNL     1       4.223   8.259  14.288  1.00  0.00     0.057 A 
ATOM     83  C   UNL     1       3.157   8.449  15.176  1.00  0.00     0.134 A 
ATOM     84  C   UNL     1       4.653   9.367  13.550  1.00  0.00     0.134 A 
ATOM     85  F   UNL     1       2.692   7.424  15.906  1.00  0.00    -0.206 F 
ATOM     86  C   UNL     1       2.532   9.687  15.316  1.00  0.00     0.040 A 
ATOM     87  C   UNL     1       4.059  10.620  13.703  1.00  0.00     0.040 A 
ATOM     88  F   UNL     1       5.681   9.252  12.696  1.00  0.00    -0.206 F 
ATOM     89  C   UNL     1       2.991  10.781  14.584  1.00  0.00     0.006 A 
ENDBRANCH  61  82
BRANCH  73  90
ATOM     90  C   UNL     1      10.517   5.821  15.923  1.00  0.00     0.057 A 
ATOM     91  C   UNL     1      11.663   6.101  15.168  1.00  0.00     0.134 A 
ATOM     92  C   UNL     1      10.529   6.180  17.277  1.00  0.00     0.134 A 
ATOM     93  F   UNL     1      11.718   5.780  13.867  1.00  0.00    -0.206 F 
ATOM     94  C   UNL     1      12.777   6.720  15.737  1.00  0.00     0.040 A 
ATOM     95  C   UNL     1      11.626   6.825  17.850  1.00  0.00     0.040 A 
ATOM     96  F   UNL     1       9.455   5.956  18.050  1.00  0.00    -0.206 F 
ATOM     97  C   UNL     1      12.756   7.093  17.079  1.00  0.00     0.006 A 
ENDBRANCH  73  90
ENDBRANCH  47  48
ENDBRANCH  39  42
ENDBRANCH  37  38
ENDBRANCH   1  37
TORSDOF 12
