REMARK SMILES O=C(NCCCCNC(=O)[C@@H]1CCCN(C(=O)/C=C/c2c(F)cccc2Cl)C1)c1ccc(-c2c3nc(c(-c4c(F)cccc4F)c4ccc([nH]4)c(-c4c(F)cccc4F)c4nc(c(-c5c(F)cccc5F)c5ccc2[nH]5)C=C4)C=C3)cc1
REMARK SMILES IDX 6 1 5 2 4 3 3 4 1 5 2 6 29 8 30 9 82 10 31 11 81 12 32 13
REMARK SMILES IDX 33 14 34 15 75 16 35 17 80 18 74 19 76 20 36 21 79 22 73 23
REMARK SMILES IDX 72 24 37 26 63 27 46 28 62 29 47 30 50 31 61 32 77 33 48 34
REMARK SMILES IDX 49 35 60 37 78 38 51 39 38 40 39 41 44 42 40 43 41 44 43 45
REMARK SMILES IDX 45 46 42 47 64 48 65 49 70 50 66 51 67 52 69 53 71 54 68 55
REMARK SMILES IDX 52 56 53 57 58 58 54 59 55 60 57 61 59 62 56 63 7 64 8 65
REMARK SMILES IDX 9 66 10 68 11 69 12 70 28 71 13 72 15 73 14 74 16 75 17 76
REMARK SMILES IDX 18 77 19 78 20 79 21 80 26 81 22 82 23 83 25 84 27 85 24 86
REMARK H PARENT 3 7 76 25 50 36 8 67
REMARK Flexibility Score: inf
ROOT
ATOM      1  C   UNL     1       4.272  -3.291  -1.452  1.00  0.00     0.023 C 
ENDROOT
BRANCH   1   2
ATOM      2  C   UNL     1       4.718  -2.463  -0.245  1.00  0.00     0.023 C 
BRANCH   2   3
ATOM      3  C   UNL     1       4.406  -0.977  -0.343  1.00  0.00     0.116 C 
BRANCH   3   4
ATOM      4  N   UNL     1       2.994  -0.696  -0.565  1.00  0.00    -0.352 N 
ATOM      5  O   UNL     1       1.030   0.382  -0.259  1.00  0.00    -0.269 OA
ATOM      6  C   UNL     1       2.235   0.334  -0.059  1.00  0.00     0.251 C 
ATOM      7  H   UNL     1       2.521  -1.326  -1.155  1.00  0.00     0.163 HD
BRANCH   6   8
ATOM      8  C   UNL     1       2.900   1.357   0.771  1.00  0.00     0.039 A 
ATOM      9  C   UNL     1       4.091   1.941   0.339  1.00  0.00     0.014 A 
ATOM     10  C   UNL     1       2.366   1.671   2.024  1.00  0.00     0.014 A 
ATOM     11  C   UNL     1       4.840   2.697   1.228  1.00  0.00     0.010 A 
ATOM     12  C   UNL     1       3.078   2.510   2.883  1.00  0.00     0.010 A 
ATOM     13  C   UNL     1       4.344   2.989   2.510  1.00  0.00    -0.014 A 
BRANCH  13  14
ATOM     14  C   UNL     1       5.173   3.806   3.430  1.00  0.00     0.031 A 
ATOM     15  C   UNL     1       5.714   3.228   4.709  1.00  0.00     0.074 A 
ATOM     16  C   UNL     1       5.489   5.063   3.067  1.00  0.00     0.049 A 
ATOM     17  N   UNL     1       6.489   3.791   5.602  1.00  0.00    -0.248 NA
ATOM     18  C   UNL     1       5.331   1.846   5.037  1.00  0.00     0.031 C 
ATOM     19  C   UNL     1       5.018   5.730   1.849  1.00  0.00     0.029 A 
ATOM     20  N   UNL     1       6.304   5.990   3.660  1.00  0.00    -0.354 N 
ATOM     21  C   UNL     1       6.657   2.850   6.610  1.00  0.00     0.074 A 
ATOM     22  C   UNL     1       5.893   1.682   6.227  1.00  0.00     0.031 C 
ATOM     23  C   UNL     1       5.606   6.930   1.751  1.00  0.00     0.029 A 
ATOM     24  C   UNL     1       6.443   7.143   2.926  1.00  0.00     0.049 A 
ATOM     25  H   UNL     1       6.747   5.845   4.527  1.00  0.00     0.167 HD
ATOM     26  C   UNL     1       7.385   2.951   7.748  1.00  0.00     0.037 A 
ATOM     27  C   UNL     1       7.162   8.252   3.173  1.00  0.00     0.037 A 
ATOM     28  C   UNL     1       8.176   4.101   8.106  1.00  0.00     0.049 A 
ATOM     29  C   UNL     1       7.974   8.329   4.431  1.00  0.00     0.074 A 
ATOM     30  C   UNL     1       8.975   4.287   9.221  1.00  0.00     0.029 A 
ATOM     31  N   UNL     1       8.272   5.259   7.348  1.00  0.00    -0.354 N 
ATOM     32  N   UNL     1       8.129   7.426   5.369  1.00  0.00    -0.248 NA
ATOM     33  C   UNL     1       8.704   9.580   4.668  1.00  0.00     0.031 C 
ATOM     34  C   UNL     1       9.530   5.570   9.153  1.00  0.00     0.029 A 
ATOM     35  C   UNL     1       9.108   6.168   7.977  1.00  0.00     0.049 A 
ATOM     36  H   UNL     1       7.815   5.412   6.490  1.00  0.00     0.167 HD
ATOM     37  C   UNL     1       8.986   7.992   6.300  1.00  0.00     0.074 A 
ATOM     38  C   UNL     1       9.332   9.309   5.804  1.00  0.00     0.031 C 
ATOM     39  C   UNL     1       9.443   7.471   7.465  1.00  0.00     0.037 A 
BRANCH  26  40
ATOM     40  C   UNL     1       7.345   1.796   8.706  1.00  0.00     0.057 A 
ATOM     41  C   UNL     1       8.014   0.593   8.450  1.00  0.00     0.134 A 
ATOM     42  C   UNL     1       6.660   1.907   9.924  1.00  0.00     0.134 A 
ATOM     43  F   UNL     1       8.678   0.416   7.298  1.00  0.00    -0.206 F 
ATOM     44  C   UNL     1       7.989  -0.464   9.363  1.00  0.00     0.040 A 
ATOM     45  C   UNL     1       6.646   0.866  10.853  1.00  0.00     0.040 A 
ATOM     46  F   UNL     1       6.001   3.034  10.234  1.00  0.00    -0.206 F 
ATOM     47  C   UNL     1       7.309  -0.327  10.571  1.00  0.00     0.006 A 
ENDBRANCH  26  40
BRANCH  27  48
ATOM     48  C   UNL     1       7.149   9.368   2.198  1.00  0.00     0.057 A 
ATOM     49  C   UNL     1       8.276   9.662   1.423  1.00  0.00     0.134 A 
ATOM     50  C   UNL     1       6.005  10.149   1.998  1.00  0.00     0.134 A 
ATOM     51  F   UNL     1       9.406   8.956   1.580  1.00  0.00    -0.206 F 
ATOM     52  C   UNL     1       8.270  10.700   0.490  1.00  0.00     0.040 A 
ATOM     53  C   UNL     1       5.976  11.173   1.052  1.00  0.00     0.040 A 
ATOM     54  F   UNL     1       4.889   9.909   2.704  1.00  0.00    -0.206 F 
ATOM     55  C   UNL     1       7.113  11.454   0.298  1.00  0.00     0.006 A 
ENDBRANCH  27  48
BRANCH  39  56
ATOM     56  C   UNL     1      10.389   8.320   8.258  1.00  0.00     0.057 A 
ATOM     57  C   UNL     1       9.948   9.437   8.979  1.00  0.00     0.134 A 
ATOM     58  C   UNL     1      11.753   8.010   8.308  1.00  0.00     0.134 A 
ATOM     59  F   UNL     1       8.655   9.794   8.958  1.00  0.00    -0.206 F 
ATOM     60  C   UNL     1      10.838  10.232   9.702  1.00  0.00     0.040 A 
ATOM     61  C   UNL     1      12.648   8.785   9.046  1.00  0.00     0.040 A 
ATOM     62  F   UNL     1      12.235   6.949   7.643  1.00  0.00    -0.206 F 
ATOM     63  C   UNL     1      12.192   9.904   9.739  1.00  0.00     0.006 A 
ENDBRANCH  39  56
ENDBRANCH  13  14
ENDBRANCH   6   8
ENDBRANCH   3   4
ENDBRANCH   2   3
ENDBRANCH   1   2
BRANCH   1  64
ATOM     64  C   UNL     1       4.942  -2.898  -2.769  1.00  0.00     0.116 C 
BRANCH  64  65
ATOM     65  N   UNL     1       6.327  -3.305  -2.784  1.00  0.00    -0.356 N 
ATOM     66  C   UNL     1       6.968  -4.415  -3.224  1.00  0.00     0.224 C 
ATOM     67  H   UNL     1       6.934  -2.636  -2.391  1.00  0.00     0.163 HD
ATOM     68  O   UNL     1       8.188  -4.400  -3.030  1.00  0.00    -0.275 OA
BRANCH  66  69
ATOM     69  C   UNL     1       6.305  -5.534  -4.045  1.00  0.00     0.098 C 
ATOM     70  C   UNL     1       4.895  -6.027  -3.679  1.00  0.00     0.017 C 
ATOM     71  C   UNL     1       7.257  -6.759  -4.082  1.00  0.00     0.133 C 
ATOM     72  C   UNL     1       4.867  -6.881  -2.414  1.00  0.00     0.022 C 
ATOM     73  N   UNL     1       7.157  -7.563  -2.855  1.00  0.00    -0.338 N 
ATOM     74  C   UNL     1       5.819  -8.055  -2.549  1.00  0.00     0.120 C 
BRANCH  73  75
ATOM     75  C   UNL     1       8.310  -7.877  -2.157  1.00  0.00     0.246 C 
ATOM     76  O   UNL     1       9.443  -7.707  -2.604  1.00  0.00    -0.270 OA
BRANCH  75  77
ATOM     77  C   UNL     1       8.193  -8.514  -0.819  1.00  0.00     0.072 C 
ATOM     78  C   UNL     1       7.484  -7.985   0.191  1.00  0.00     0.018 C 
BRANCH  78  79
ATOM     79  C   UNL     1       7.480  -8.600   1.526  1.00  0.00     0.029 A 
ATOM     80  C   UNL     1       8.485  -8.254   2.439  1.00  0.00     0.131 A 
ATOM     81  C   UNL     1       6.521  -9.541   1.936  1.00  0.00     0.051 A 
ATOM     82  F   UNL     1       9.418  -7.350   2.103  1.00  0.00    -0.206 F 
ATOM     83  C   UNL     1       8.551  -8.824   3.710  1.00  0.00     0.040 A 
ATOM     84  C   UNL     1       6.583 -10.118   3.212  1.00  0.00     0.021 A 
ATOM     85  Cl  UNL     1       5.219 -10.029   0.907  1.00  0.00    -0.084 Cl
ATOM     86  C   UNL     1       7.599  -9.762   4.098  1.00  0.00     0.005 A 
ENDBRANCH  78  79
ENDBRANCH  75  77
ENDBRANCH  73  75
ENDBRANCH  66  69
ENDBRANCH  64  65
ENDBRANCH   1  64
TORSDOF 14
