REMARK SMILES NC(=O)CC[C@H](C(=O)NCCCCNC(=O)c1ccc(-c2c3nc(c(-c4c(F)cccc4F)c4ccc([nH]4)c(-c4c(F)cccc4F)c4nc(c(-c5c(F)cccc5F)c5ccc2[nH]5)C=C4)C=C3)cc1)N1C(=O)/C(=C/c2ccc(O)c(O)c2)SC1=S
REMARK SMILES IDX 11 1 10 2 9 3 7 4 8 5 6 7 5 8 4 9 2 10 1 11 3 14 71 15 72 16
REMARK SMILES IDX 85 17 73 18 74 19 84 20 86 21 75 22 76 23 77 24 83 25 78 26
REMARK SMILES IDX 81 27 79 28 82 29 80 31 12 33 13 34 14 35 15 36 16 38 17 39
REMARK SMILES IDX 18 40 70 41 19 42 69 43 20 44 21 45 22 46 63 47 23 48 68 49
REMARK SMILES IDX 62 50 64 51 24 52 67 53 61 54 60 55 25 57 51 58 34 59 50 60
REMARK SMILES IDX 35 61 38 62 49 63 65 64 36 65 37 66 48 68 66 69 39 70 26 71
REMARK SMILES IDX 27 72 32 73 28 74 29 75 31 76 33 77 30 78 52 79 53 80 58 81
REMARK SMILES IDX 54 82 55 83 57 84 59 85 56 86 40 87 41 88 46 89 42 90 43 91
REMARK SMILES IDX 45 92 47 93 44 94
REMARK H PARENT 9 6 1 12 1 13 82 30 80 32 14 37 64 56 38 67
REMARK Flexibility Score: inf
ROOT
ATOM      1  C   UNL     1       1.432  -3.517   3.860  1.00  0.00     0.023 C 
ENDROOT
BRANCH   1   2
ATOM      2  C   UNL     1       0.922  -2.419   2.932  1.00  0.00     0.116 C 
BRANCH   2   3
ATOM      3  N   UNL     1       1.299  -1.102   3.399  1.00  0.00    -0.354 N 
ATOM      4  C   UNL     1       2.236  -0.225   2.927  1.00  0.00     0.243 C 
ATOM      5  O   UNL     1       2.224   0.903   3.423  1.00  0.00    -0.273 OA
ATOM      6  H   UNL     1       0.799  -0.786   4.186  1.00  0.00     0.163 HD
BRANCH   4   7
ATOM      7  C   UNL     1       3.139  -0.598   1.721  1.00  0.00     0.181 C 
BRANCH   7   8
ATOM      8  C   UNL     1       4.024   0.570   1.230  1.00  0.00     0.045 C 
BRANCH   8   9
ATOM      9  C   UNL     1       3.448   1.295   0.010  1.00  0.00     0.102 C 
BRANCH   9  10
ATOM     10  C   UNL     1       2.298   2.211   0.353  1.00  0.00     0.217 C 
ATOM     11  N   UNL     1       1.063   1.636   0.347  1.00  0.00    -0.370 N 
ATOM     12  H   UNL     1       0.268   2.175   0.562  1.00  0.00     0.159 HD
ATOM     13  H   UNL     1       0.966   0.681   0.128  1.00  0.00     0.159 HD
ATOM     14  O   UNL     1       2.442   3.398   0.616  1.00  0.00    -0.275 OA
ENDBRANCH   9  10
ENDBRANCH   8   9
ENDBRANCH   7   8
BRANCH   7  15
ATOM     15  N   UNL     1       3.950  -1.806   1.994  1.00  0.00    -0.280 N 
ATOM     16  C   UNL     1       4.899  -1.765   3.003  1.00  0.00     0.266 C 
ATOM     17  C   UNL     1       3.947  -2.950   1.222  1.00  0.00     0.149 C 
ATOM     18  O   UNL     1       5.136  -0.810   3.730  1.00  0.00    -0.268 OA
ATOM     19  C   UNL     1       5.640  -3.056   3.079  1.00  0.00     0.081 C 
ATOM     20  S   UNL     1       4.950  -4.175   1.976  1.00  0.00    -0.054 SA
ATOM     21  S   UNL     1       3.175  -3.232  -0.231  1.00  0.00    -0.052 S 
ATOM     22  C   UNL     1       6.675  -3.232   3.914  1.00  0.00     0.029 C 
BRANCH  22  23
ATOM     23  C   UNL     1       7.456  -4.460   4.152  1.00  0.00    -0.020 A 
ATOM     24  C   UNL     1       7.835  -4.753   5.475  1.00  0.00     0.012 A 
ATOM     25  C   UNL     1       7.853  -5.333   3.127  1.00  0.00     0.058 A 
ATOM     26  C   UNL     1       8.535  -5.924   5.779  1.00  0.00     0.051 A 
ATOM     27  C   UNL     1       8.523  -6.512   3.442  1.00  0.00     0.157 A 
ATOM     28  C   UNL     1       8.856  -6.804   4.760  1.00  0.00     0.157 A 
BRANCH  27  29
ATOM     29  O   UNL     1       8.864  -7.426   2.483  1.00  0.00    -0.504 OA
ATOM     30  H   UNL     1       9.315  -8.211   2.723  1.00  0.00     0.293 HD
ENDBRANCH  27  29
BRANCH  28  31
ATOM     31  O   UNL     1       9.499  -7.969   5.059  1.00  0.00    -0.504 OA
ATOM     32  H   UNL     1       9.724  -8.165   5.947  1.00  0.00     0.293 HD
ENDBRANCH  28  31
ENDBRANCH  22  23
ENDBRANCH   7  15
ENDBRANCH   4   7
ENDBRANCH   2   3
ENDBRANCH   1   2
BRANCH   1  33
ATOM     33  C   UNL     1       0.634  -3.661   5.158  1.00  0.00     0.023 C 
BRANCH  33  34
ATOM     34  C   UNL     1      -0.833  -4.041   4.980  1.00  0.00     0.116 C 
BRANCH  34  35
ATOM     35  N   UNL     1      -1.025  -5.311   4.298  1.00  0.00    -0.352 N 
ATOM     36  C   UNL     1      -1.991  -6.264   4.523  1.00  0.00     0.251 C 
ATOM     37  H   UNL     1      -0.381  -5.515   3.582  1.00  0.00     0.163 HD
ATOM     38  O   UNL     1      -1.959  -7.335   3.927  1.00  0.00    -0.269 OA
BRANCH  36  39
ATOM     39  C   UNL     1      -3.048  -6.001   5.522  1.00  0.00     0.039 A 
ATOM     40  C   UNL     1      -3.303  -6.962   6.503  1.00  0.00     0.014 A 
ATOM     41  C   UNL     1      -3.755  -4.796   5.511  1.00  0.00     0.014 A 
ATOM     42  C   UNL     1      -4.219  -6.684   7.520  1.00  0.00     0.010 A 
ATOM     43  C   UNL     1      -4.615  -4.494   6.562  1.00  0.00     0.010 A 
ATOM     44  C   UNL     1      -4.854  -5.432   7.578  1.00  0.00    -0.014 A 
BRANCH  44  45
ATOM     45  C   UNL     1      -5.772  -5.081   8.691  1.00  0.00     0.031 A 
ATOM     46  C   UNL     1      -7.224  -4.810   8.409  1.00  0.00     0.074 A 
ATOM     47  C   UNL     1      -5.285  -4.928   9.938  1.00  0.00     0.049 A 
ATOM     48  N   UNL     1      -8.160  -4.390   9.222  1.00  0.00    -0.248 NA
ATOM     49  C   UNL     1      -7.676  -5.008   7.022  1.00  0.00     0.031 C 
ATOM     50  C   UNL     1      -3.888  -5.117  10.333  1.00  0.00     0.029 A 
ATOM     51  N   UNL     1      -5.912  -4.564  11.103  1.00  0.00    -0.354 N 
ATOM     52  C   UNL     1      -9.302  -4.255   8.443  1.00  0.00     0.074 A 
ATOM     53  C   UNL     1      -8.932  -4.592   7.086  1.00  0.00     0.031 C 
ATOM     54  C   UNL     1      -3.768  -4.884  11.650  1.00  0.00     0.029 A 
ATOM     55  C   UNL     1      -5.069  -4.494  12.185  1.00  0.00     0.049 A 
ATOM     56  H   UNL     1      -6.876  -4.370  11.158  1.00  0.00     0.167 HD
ATOM     57  C   UNL     1     -10.551  -3.904   8.829  1.00  0.00     0.037 A 
ATOM     58  C   UNL     1      -5.315  -4.145  13.463  1.00  0.00     0.037 A 
ATOM     59  C   UNL     1     -10.926  -3.606  10.185  1.00  0.00     0.049 A 
ATOM     60  C   UNL     1      -6.714  -3.766  13.865  1.00  0.00     0.074 A 
ATOM     61  C   UNL     1     -12.180  -3.302  10.686  1.00  0.00     0.029 A 
ATOM     62  N   UNL     1     -10.049  -3.580  11.259  1.00  0.00    -0.354 N 
ATOM     63  N   UNL     1      -7.798  -3.704  13.130  1.00  0.00    -0.248 NA
ATOM     64  C   UNL     1      -6.925  -3.413  15.277  1.00  0.00     0.031 C 
ATOM     65  C   UNL     1     -12.056  -3.056  12.057  1.00  0.00     0.029 A 
ATOM     66  C   UNL     1     -10.732  -3.250  12.417  1.00  0.00     0.049 A 
ATOM     67  H   UNL     1      -9.084  -3.767  11.205  1.00  0.00     0.167 HD
ATOM     68  C   UNL     1      -8.822  -3.341  13.994  1.00  0.00     0.074 A 
ATOM     69  C   UNL     1      -8.233  -3.204  15.309  1.00  0.00     0.031 C 
ATOM     70  C   UNL     1     -10.134  -3.139  13.722  1.00  0.00     0.037 A 
BRANCH  57  71
ATOM     71  C   UNL     1     -11.610  -3.831   7.768  1.00  0.00     0.057 A 
ATOM     72  C   UNL     1     -12.127  -4.984   7.162  1.00  0.00     0.134 A 
ATOM     73  C   UNL     1     -12.150  -2.599   7.380  1.00  0.00     0.134 A 
ATOM     74  F   UNL     1     -11.643  -6.194   7.481  1.00  0.00    -0.206 F 
ATOM     75  C   UNL     1     -13.128  -4.912   6.193  1.00  0.00     0.040 A 
ATOM     76  C   UNL     1     -13.170  -2.516   6.430  1.00  0.00     0.040 A 
ATOM     77  F   UNL     1     -11.704  -1.457   7.925  1.00  0.00    -0.206 F 
ATOM     78  C   UNL     1     -13.658  -3.675   5.830  1.00  0.00     0.006 A 
ENDBRANCH  57  71
BRANCH  58  79
ATOM     79  C   UNL     1      -4.221  -4.157  14.466  1.00  0.00     0.057 A 
ATOM     80  C   UNL     1      -4.192  -5.112  15.489  1.00  0.00     0.134 A 
ATOM     81  C   UNL     1      -3.195  -3.205  14.444  1.00  0.00     0.134 A 
ATOM     82  F   UNL     1      -5.158  -6.039  15.574  1.00  0.00    -0.206 F 
ATOM     83  C   UNL     1      -3.198  -5.106  16.469  1.00  0.00     0.040 A 
ATOM     84  C   UNL     1      -2.181  -3.201  15.403  1.00  0.00     0.040 A 
ATOM     85  F   UNL     1      -3.162  -2.267  13.486  1.00  0.00    -0.206 F 
ATOM     86  C   UNL     1      -2.186  -4.149  16.425  1.00  0.00     0.006 A 
ENDBRANCH  58  79
BRANCH  70  87
ATOM     87  C   UNL     1     -11.032  -2.798  14.874  1.00  0.00     0.057 A 
ATOM     88  C   UNL     1     -11.011  -1.536  15.481  1.00  0.00     0.134 A 
ATOM     89  C   UNL     1     -11.961  -3.732  15.350  1.00  0.00     0.134 A 
ATOM     90  F   UNL     1     -10.135  -0.603  15.080  1.00  0.00    -0.206 F 
ATOM     91  C   UNL     1     -11.870  -1.222  16.535  1.00  0.00     0.040 A 
ATOM     92  C   UNL     1     -12.842  -3.420  16.386  1.00  0.00     0.040 A 
ATOM     93  F   UNL     1     -12.038  -4.955  14.805  1.00  0.00    -0.206 F 
ATOM     94  C   UNL     1     -12.795  -2.163  16.985  1.00  0.00     0.006 A 
ENDBRANCH  70  87
ENDBRANCH  44  45
ENDBRANCH  36  39
ENDBRANCH  34  35
ENDBRANCH  33  34
ENDBRANCH   1  33
TORSDOF 18
