REMARK SMILES CC(C)Cc1noc(CCCCC(=O)NCCCCNC(=O)c2ccc(-c3c4nc(c(-c5c(F)cccc5F)c5ccc([nH]5)c(-c5c(F)cccc5F)c5nc(c(-c6c(F)cccc6F)c6ccc3[nH]6)C=C5)C=C4)cc2)n1
REMARK SMILES IDX 13 1 14 2 15 3 12 5 11 6 10 7 9 8 8 9 5 10 6 11 77 12 7 13
REMARK SMILES IDX 4 14 2 15 1 16 3 17 16 18 17 19 18 20 19 21 20 22 21 23
REMARK SMILES IDX 22 25 23 26 24 27 76 28 25 29 75 30 26 31 27 32 28 33 69 34
REMARK SMILES IDX 29 35 74 36 68 37 70 38 30 39 73 40 67 41 66 42 31 44 57 45
REMARK SMILES IDX 40 46 56 47 41 48 44 49 55 50 71 51 42 52 43 53 54 55 72 56
REMARK SMILES IDX 45 57 32 58 33 59 38 60 34 61 35 62 37 63 39 64 36 65 58 66
REMARK SMILES IDX 59 67 64 68 60 69 61 70 63 71 65 72 62 73 46 74 47 75 52 76
REMARK SMILES IDX 48 77 49 78 51 79 53 80 50 81
REMARK H PARENT 15 4 20 24 70 43 44 54
REMARK Flexibility Score: inf
ROOT
ATOM      1  C   UNL     1      -3.249  -0.337   7.354  1.00  0.00     0.219 C 
ATOM      2  O   UNL     1      -3.206   0.137   8.490  1.00  0.00    -0.275 OA
ATOM      3  N   UNL     1      -3.193  -1.691   7.220  1.00  0.00    -0.356 N 
ATOM      4  H   UNL     1      -3.222  -2.193   8.066  1.00  0.00     0.163 HD
ENDROOT
BRANCH   1   5
ATOM      5  C   UNL     1      -3.395   0.561   6.139  1.00  0.00     0.100 C 
BRANCH   5   6
ATOM      6  C   UNL     1      -2.076   1.086   5.565  1.00  0.00     0.010 C 
BRANCH   6   7
ATOM      7  C   UNL     1      -1.351   0.200   4.547  1.00  0.00     0.010 C 
BRANCH   7   8
ATOM      8  C   UNL     1      -2.185  -0.278   3.355  1.00  0.00     0.100 C 
BRANCH   8   9
ATOM      9  C   UNL     1      -2.040   0.584   2.168  1.00  0.00     0.226 A 
ATOM     10  C   UNL     1      -1.552   1.452   0.345  1.00  0.00     0.172 A 
ATOM     11  N   UNL     1      -1.957   2.500   1.075  1.00  0.00    -0.063 NA
ATOM     12  N   UNL     1      -1.640   0.240   0.969  1.00  0.00    -0.196 NA
ATOM     13  O   UNL     1      -2.295   1.916   2.301  1.00  0.00    -0.339 OA
BRANCH  10  14
ATOM     14  C   UNL     1      -0.929   1.580  -0.993  1.00  0.00     0.084 C 
BRANCH  14  15
ATOM     15  C   UNL     1       0.611   1.519  -0.928  1.00  0.00    -0.010 C 
ATOM     16  C   UNL     1       1.132   0.179  -0.392  1.00  0.00     0.008 C 
ATOM     17  C   UNL     1       1.198   1.774  -2.315  1.00  0.00     0.008 C 
ENDBRANCH  14  15
ENDBRANCH  10  14
ENDBRANCH   8   9
ENDBRANCH   7   8
ENDBRANCH   6   7
ENDBRANCH   5   6
ENDBRANCH   1   5
BRANCH   3  18
ATOM     18  C   UNL     1      -3.096  -2.506   6.028  1.00  0.00     0.116 C 
BRANCH  18  19
ATOM     19  C   UNL     1      -1.668  -3.021   5.840  1.00  0.00     0.023 C 
BRANCH  19  20
ATOM     20  C   UNL     1      -1.383  -4.366   6.493  1.00  0.00     0.023 C 
BRANCH  20  21
ATOM     21  C   UNL     1      -2.154  -5.531   5.897  1.00  0.00     0.116 C 
BRANCH  21  22
ATOM     22  N   UNL     1      -1.876  -5.768   4.488  1.00  0.00    -0.352 N 
ATOM     23  C   UNL     1      -1.833  -6.974   3.823  1.00  0.00     0.251 C 
ATOM     24  H   UNL     1      -1.696  -4.968   3.943  1.00  0.00     0.163 HD
ATOM     25  O   UNL     1      -1.509  -7.030   2.648  1.00  0.00    -0.269 OA
BRANCH  23  26
ATOM     26  C   UNL     1      -2.139  -8.210   4.577  1.00  0.00     0.039 A 
ATOM     27  C   UNL     1      -1.258  -9.289   4.487  1.00  0.00     0.014 A 
ATOM     28  C   UNL     1      -3.251  -8.272   5.420  1.00  0.00     0.014 A 
ATOM     29  C   UNL     1      -1.460 -10.406   5.297  1.00  0.00     0.010 A 
ATOM     30  C   UNL     1      -3.391  -9.338   6.297  1.00  0.00     0.010 A 
ATOM     31  C   UNL     1      -2.508 -10.425   6.233  1.00  0.00    -0.014 A 
BRANCH  31  32
ATOM     32  C   UNL     1      -2.717 -11.592   7.125  1.00  0.00     0.031 A 
ATOM     33  C   UNL     1      -3.987 -12.393   7.023  1.00  0.00     0.074 A 
ATOM     34  C   UNL     1      -1.792 -11.902   8.054  1.00  0.00     0.049 A 
ATOM     35  N   UNL     1      -4.366 -13.435   7.718  1.00  0.00    -0.248 NA
ATOM     36  C   UNL     1      -4.980 -11.940   6.035  1.00  0.00     0.031 C 
ATOM     37  C   UNL     1      -0.556 -11.157   8.304  1.00  0.00     0.029 A 
ATOM     38  N   UNL     1      -1.750 -12.929   8.961  1.00  0.00    -0.354 N 
ATOM     39  C   UNL     1      -5.640 -13.747   7.263  1.00  0.00     0.074 A 
ATOM     40  C   UNL     1      -6.001 -12.745   6.286  1.00  0.00     0.031 C 
ATOM     41  C   UNL     1       0.142 -11.776   9.270  1.00  0.00     0.029 A 
ATOM     42  C   UNL     1      -0.607 -12.944   9.723  1.00  0.00     0.049 A 
ATOM     43  H   UNL     1      -2.470 -13.593   9.058  1.00  0.00     0.167 HD
ATOM     44  C   UNL     1      -6.427 -14.796   7.599  1.00  0.00     0.037 A 
ATOM     45  C   UNL     1      -0.204 -13.814  10.669  1.00  0.00     0.037 A 
ATOM     46  C   UNL     1      -6.049 -15.816   8.539  1.00  0.00     0.049 A 
ATOM     47  C   UNL     1      -1.075 -14.996  10.993  1.00  0.00     0.074 A 
ATOM     48  C   UNL     1      -6.742 -16.957   8.900  1.00  0.00     0.029 A 
ATOM     49  N   UNL     1      -4.865 -15.818   9.261  1.00  0.00    -0.354 N 
ATOM     50  N   UNL     1      -2.243 -15.325  10.495  1.00  0.00    -0.248 NA
ATOM     51  C   UNL     1      -0.564 -15.937  11.999  1.00  0.00     0.031 C 
ATOM     52  C   UNL     1      -5.990 -17.635   9.866  1.00  0.00     0.029 A 
ATOM     53  C   UNL     1      -4.812 -16.936  10.075  1.00  0.00     0.049 A 
ATOM     54  H   UNL     1      -4.166 -15.127   9.203  1.00  0.00     0.167 HD
ATOM     55  C   UNL     1      -2.594 -16.521  11.107  1.00  0.00     0.074 A 
ATOM     56  C   UNL     1      -1.506 -16.869  11.998  1.00  0.00     0.031 C 
ATOM     57  C   UNL     1      -3.716 -17.265  10.950  1.00  0.00     0.037 A 
BRANCH  44  58
ATOM     58  C   UNL     1      -7.765 -14.893   6.926  1.00  0.00     0.057 A 
ATOM     59  C   UNL     1      -7.884 -15.200   5.563  1.00  0.00     0.134 A 
ATOM     60  C   UNL     1      -8.948 -14.686   7.647  1.00  0.00     0.134 A 
ATOM     61  F   UNL     1      -6.790 -15.391   4.812  1.00  0.00    -0.206 F 
ATOM     62  C   UNL     1      -9.129 -15.265   4.935  1.00  0.00     0.040 A 
ATOM     63  C   UNL     1     -10.199 -14.777   7.035  1.00  0.00     0.040 A 
ATOM     64  F   UNL     1      -8.906 -14.392   8.955  1.00  0.00    -0.206 F 
ATOM     65  C   UNL     1     -10.292 -15.059   5.673  1.00  0.00     0.006 A 
ENDBRANCH  44  58
BRANCH  45  66
ATOM     66  C   UNL     1       1.108 -13.633  11.339  1.00  0.00     0.057 A 
ATOM     67  C   UNL     1       2.177 -14.497  11.073  1.00  0.00     0.134 A 
ATOM     68  C   UNL     1       1.322 -12.608  12.267  1.00  0.00     0.134 A 
ATOM     69  F   UNL     1       2.027 -15.509  10.205  1.00  0.00    -0.206 F 
ATOM     70  C   UNL     1       3.405 -14.364  11.722  1.00  0.00     0.040 A 
ATOM     71  C   UNL     1       2.553 -12.448  12.907  1.00  0.00     0.040 A 
ATOM     72  F   UNL     1       0.341 -11.742  12.558  1.00  0.00    -0.206 F 
ATOM     73  C   UNL     1       3.596 -13.333  12.641  1.00  0.00     0.006 A 
ENDBRANCH  45  66
BRANCH  57  74
ATOM     74  C   UNL     1      -3.805 -18.538  11.738  1.00  0.00     0.057 A 
ATOM     75  C   UNL     1      -4.017 -18.536  13.122  1.00  0.00     0.134 A 
ATOM     76  C   UNL     1      -3.698 -19.780  11.099  1.00  0.00     0.134 A 
ATOM     77  F   UNL     1      -4.116 -17.379  13.793  1.00  0.00    -0.206 F 
ATOM     78  C   UNL     1      -4.091 -19.725  13.848  1.00  0.00     0.040 A 
ATOM     79  C   UNL     1      -3.796 -20.976  11.811  1.00  0.00     0.040 A 
ATOM     80  F   UNL     1      -3.503 -19.850   9.774  1.00  0.00    -0.206 F 
ATOM     81  C   UNL     1      -3.986 -20.950  13.191  1.00  0.00     0.006 A 
ENDBRANCH  57  74
ENDBRANCH  31  32
ENDBRANCH  23  26
ENDBRANCH  21  22
ENDBRANCH  20  21
ENDBRANCH  19  20
ENDBRANCH  18  19
ENDBRANCH   3  18
TORSDOF 17
