REMARK SMILES Nc1nonc1C(=O)N1[C@@H]2CC[C@H]1C[C@H](CC(=O)NCCCCNC(=O)c1ccc(-c3c4nc(c(-c5c(F)cccc5F)c5ccc([nH]5)c(-c5c(F)cccc5F)c5nc(c(-c6c(F)cccc6F)c6ccc3[nH]6)C=C5)C=C4)cc1)C2
REMARK SMILES IDX 20 1 19 2 17 3 18 4 16 6 15 7 9 8 10 9 13 10 11 11 81 12
REMARK SMILES IDX 12 13 14 14 7 15 8 16 6 17 2 18 3 19 4 20 5 21 1 22 21 25
REMARK SMILES IDX 22 26 23 27 24 28 25 29 26 31 27 32 28 33 80 34 29 35 79 36
REMARK SMILES IDX 30 37 31 38 32 39 73 40 33 41 78 42 72 43 74 44 34 45 77 46
REMARK SMILES IDX 71 47 70 48 35 50 61 51 44 52 60 53 45 54 48 55 59 56 75 57
REMARK SMILES IDX 46 58 47 59 58 61 76 62 49 63 36 64 37 65 42 66 38 67 39 68
REMARK SMILES IDX 41 69 43 70 40 71 62 72 63 73 68 74 64 75 65 76 67 77 69 78
REMARK SMILES IDX 66 79 50 80 51 81 56 82 52 83 53 84 55 85 57 86 54 87
REMARK H PARENT 19 5 1 23 1 24 24 30 74 49 48 60
REMARK Flexibility Score: inf
ROOT
ATOM      1  C   UNL     1       5.436   0.361   0.417  1.00  0.00     0.116 C 
ENDROOT
BRANCH   1   2
ATOM      2  N   UNL     1       6.389  -0.328  -0.439  1.00  0.00    -0.356 N 
ATOM      3  C   UNL     1       6.210  -1.156  -1.510  1.00  0.00     0.220 C 
ATOM      4  O   UNL     1       7.209  -1.684  -2.002  1.00  0.00    -0.275 OA
ATOM      5  H   UNL     1       7.332  -0.170  -0.204  1.00  0.00     0.163 HD
BRANCH   3   6
ATOM      6  C   UNL     1       4.829  -1.429  -2.090  1.00  0.00     0.103 C 
BRANCH   6   7
ATOM      7  C   UNL     1       4.183  -2.750  -1.601  1.00  0.00     0.002 C 
ATOM      8  N   UNL     1       1.551  -3.012  -0.495  1.00  0.00    -0.331 N 
ATOM      9  C   UNL     1       1.844  -3.831  -1.665  1.00  0.00     0.086 C 
ATOM     10  C   UNL     1       2.615  -3.337   0.430  1.00  0.00     0.086 C 
ATOM     11  C   UNL     1       2.364  -5.167  -1.092  1.00  0.00     0.027 C 
ATOM     12  C   UNL     1       2.930  -3.083  -2.452  1.00  0.00     0.029 C 
ATOM     13  C   UNL     1       2.740  -4.852   0.356  1.00  0.00     0.027 C 
ATOM     14  C   UNL     1       3.883  -2.665  -0.093  1.00  0.00     0.029 C 
BRANCH   8  15
ATOM     15  C   UNL     1       0.232  -2.962  -0.041  1.00  0.00     0.280 C 
ATOM     16  O   UNL     1      -0.373  -3.994   0.247  1.00  0.00    -0.267 OA
BRANCH  15  17
ATOM     17  C   UNL     1      -0.394  -1.637  -0.030  1.00  0.00     0.216 A 
ATOM     18  C   UNL     1       0.140  -0.325   0.082  1.00  0.00     0.201 A 
ATOM     19  N   UNL     1      -0.843   0.568  -0.010  1.00  0.00    -0.032 NA
ATOM     20  O   UNL     1      -2.002  -0.176  -0.144  1.00  0.00    -0.242 OA
ATOM     21  N   UNL     1      -1.728  -1.532  -0.146  1.00  0.00    -0.042 NA
BRANCH  18  22
ATOM     22  N   UNL     1       1.417   0.040   0.283  1.00  0.00    -0.379 N 
ATOM     23  H   UNL     1       1.653   0.994   0.342  1.00  0.00     0.158 HD
ATOM     24  H   UNL     1       2.116  -0.646   0.373  1.00  0.00     0.158 HD
ENDBRANCH  18  22
ENDBRANCH  15  17
ENDBRANCH   8  15
ENDBRANCH   6   7
ENDBRANCH   3   6
ENDBRANCH   1   2
BRANCH   1  25
ATOM     25  C   UNL     1       5.181  -0.427   1.709  1.00  0.00     0.023 C 
BRANCH  25  26
ATOM     26  C   UNL     1       6.025  -0.043   2.908  1.00  0.00     0.023 C 
BRANCH  26  27
ATOM     27  C   UNL     1       5.645   1.286   3.522  1.00  0.00     0.116 C 
BRANCH  27  28
ATOM     28  N   UNL     1       4.303   1.316   4.093  1.00  0.00    -0.352 N 
ATOM     29  C   UNL     1       3.894   1.910   5.270  1.00  0.00     0.251 C 
ATOM     30  H   UNL     1       3.604   0.855   3.576  1.00  0.00     0.163 HD
ATOM     31  O   UNL     1       2.745   1.797   5.665  1.00  0.00    -0.269 OA
BRANCH  29  32
ATOM     32  C   UNL     1       4.900   2.640   6.069  1.00  0.00     0.039 A 
ATOM     33  C   UNL     1       5.043   2.334   7.424  1.00  0.00     0.014 A 
ATOM     34  C   UNL     1       5.776   3.528   5.443  1.00  0.00     0.014 A 
ATOM     35  C   UNL     1       6.130   2.852   8.129  1.00  0.00     0.010 A 
ATOM     36  C   UNL     1       6.918   3.941   6.111  1.00  0.00     0.010 A 
ATOM     37  C   UNL     1       7.102   3.618   7.464  1.00  0.00    -0.014 A 
BRANCH  37  38
ATOM     38  C   UNL     1       8.303   4.135   8.163  1.00  0.00     0.031 A 
ATOM     39  C   UNL     1       8.529   5.621   8.234  1.00  0.00     0.074 A 
ATOM     40  C   UNL     1       9.222   3.281   8.655  1.00  0.00     0.049 A 
ATOM     41  N   UNL     1       9.560   6.281   8.692  1.00  0.00    -0.248 NA
ATOM     42  C   UNL     1       7.471   6.477   7.670  1.00  0.00     0.031 C 
ATOM     43  C   UNL     1       9.150   1.820   8.592  1.00  0.00     0.029 A 
ATOM     44  N   UNL     1      10.407   3.526   9.302  1.00  0.00    -0.354 N 
ATOM     45  C   UNL     1       9.286   7.620   8.445  1.00  0.00     0.074 A 
ATOM     46  C   UNL     1       8.029   7.675   7.734  1.00  0.00     0.031 C 
ATOM     47  C   UNL     1      10.224   1.299   9.208  1.00  0.00     0.029 A 
ATOM     48  C   UNL     1      11.076   2.386   9.678  1.00  0.00     0.049 A 
ATOM     49  H   UNL     1      10.746   4.433   9.480  1.00  0.00     0.167 HD
ATOM     50  C   UNL     1       9.996   8.712   8.812  1.00  0.00     0.037 A 
ATOM     51  C   UNL     1      12.243   2.241  10.333  1.00  0.00     0.037 A 
ATOM     52  C   UNL     1      11.217   8.657   9.568  1.00  0.00     0.049 A 
ATOM     53  C   UNL     1      12.997   3.470  10.763  1.00  0.00     0.074 A 
ATOM     54  C   UNL     1      11.988   9.703  10.040  1.00  0.00     0.029 A 
ATOM     55  N   UNL     1      11.834   7.484   9.975  1.00  0.00    -0.354 N 
ATOM     56  N   UNL     1      12.698   4.732  10.572  1.00  0.00    -0.248 NA
ATOM     57  C   UNL     1      14.245   3.254  11.508  1.00  0.00     0.031 C 
ATOM     58  C   UNL     1      13.086   9.162  10.717  1.00  0.00     0.029 A 
ATOM     59  C   UNL     1      12.979   7.780  10.694  1.00  0.00     0.049 A 
ATOM     60  H   UNL     1      11.507   6.576   9.782  1.00  0.00     0.167 HD
ATOM     61  C   UNL     1      13.700   5.460  11.200  1.00  0.00     0.074 A 
ATOM     62  C   UNL     1      14.610   4.497  11.786  1.00  0.00     0.031 C 
ATOM     63  C   UNL     1      13.855   6.803  11.286  1.00  0.00     0.037 A 
BRANCH  50  64
ATOM     64  C   UNL     1       9.447  10.051   8.418  1.00  0.00     0.057 A 
ATOM     65  C   UNL     1       8.285  10.571   9.004  1.00  0.00     0.134 A 
ATOM     66  C   UNL     1      10.085  10.830   7.445  1.00  0.00     0.134 A 
ATOM     67  F   UNL     1       7.615   9.865   9.927  1.00  0.00    -0.206 F 
ATOM     68  C   UNL     1       7.759  11.803   8.614  1.00  0.00     0.040 A 
ATOM     69  C   UNL     1       9.585  12.077   7.068  1.00  0.00     0.040 A 
ATOM     70  F   UNL     1      11.202  10.392   6.845  1.00  0.00    -0.206 F 
ATOM     71  C   UNL     1       8.413  12.563   7.647  1.00  0.00     0.006 A 
ENDBRANCH  50  64
BRANCH  51  72
ATOM     72  C   UNL     1      12.752   0.887  10.668  1.00  0.00     0.057 A 
ATOM     73  C   UNL     1      12.751   0.428  11.991  1.00  0.00     0.134 A 
ATOM     74  C   UNL     1      13.266   0.030   9.689  1.00  0.00     0.134 A 
ATOM     75  F   UNL     1      12.286   1.211  12.976  1.00  0.00    -0.206 F 
ATOM     76  C   UNL     1      13.264  -0.824  12.332  1.00  0.00     0.040 A 
ATOM     77  C   UNL     1      13.762  -1.234  10.013  1.00  0.00     0.040 A 
ATOM     78  F   UNL     1      13.287   0.407   8.402  1.00  0.00    -0.206 F 
ATOM     79  C   UNL     1      13.770  -1.661  11.340  1.00  0.00     0.006 A 
ENDBRANCH  51  72
BRANCH  63  80
ATOM     80  C   UNL     1      15.022   7.307  12.079  1.00  0.00     0.057 A 
ATOM     81  C   UNL     1      16.332   7.240  11.591  1.00  0.00     0.134 A 
ATOM     82  C   UNL     1      14.823   7.905  13.330  1.00  0.00     0.134 A 
ATOM     83  F   UNL     1      16.587   6.668  10.404  1.00  0.00    -0.206 F 
ATOM     84  C   UNL     1      17.408   7.733  12.329  1.00  0.00     0.040 A 
ATOM     85  C   UNL     1      15.888   8.422  14.067  1.00  0.00     0.040 A 
ATOM     86  F   UNL     1      13.590   8.007  13.848  1.00  0.00    -0.206 F 
ATOM     87  C   UNL     1      17.187   8.332  13.568  1.00  0.00     0.006 A 
ENDBRANCH  63  80
ENDBRANCH  37  38
ENDBRANCH  29  32
ENDBRANCH  27  28
ENDBRANCH  26  27
ENDBRANCH  25  26
ENDBRANCH   1  25
TORSDOF 15
