REMARK SMILES O=C(NCCCCNC(=O)[C@H]1CSCN1C(=O)c1occc1-c1ccccc1)c1ccc(-c2c3nc(c(-c4c(F)cccc4F)c4ccc([nH]4)c(-c4c(F)cccc4F)c4nc(c(-c5c(F)cccc5F)c5ccc2[nH]5)C=C4)C=C3)cc1
REMARK SMILES IDX 6 1 5 2 4 3 3 4 1 5 2 6 29 8 30 9 82 10 31 11 81 12 32 13
REMARK SMILES IDX 33 14 34 15 75 16 35 17 80 18 74 19 76 20 36 21 79 22 73 23
REMARK SMILES IDX 72 24 37 26 63 27 46 28 62 29 47 30 50 31 61 32 77 33 48 34
REMARK SMILES IDX 49 35 60 37 78 38 51 39 38 40 39 41 44 42 40 43 41 44 43 45
REMARK SMILES IDX 45 46 42 47 64 48 65 49 70 50 66 51 67 52 69 53 71 54 68 55
REMARK SMILES IDX 52 56 53 57 58 58 54 59 55 60 57 61 59 62 56 63 7 64 8 65
REMARK SMILES IDX 9 66 10 68 11 69 12 70 15 71 13 72 14 73 16 74 17 75 18 76
REMARK SMILES IDX 19 77 22 78 20 79 21 80 23 81 24 82 28 83 25 84 27 85 26 86
REMARK H PARENT 3 7 76 25 50 36 8 67
REMARK Flexibility Score: inf
ROOT
ATOM      1  C   UNL     1       4.468  -2.209   3.150  1.00  0.00     0.023 C 
ENDROOT
BRANCH   1   2
ATOM      2  C   UNL     1       4.967  -0.951   2.436  1.00  0.00     0.023 C 
BRANCH   2   3
ATOM      3  C   UNL     1       4.637  -0.851   0.948  1.00  0.00     0.116 C 
BRANCH   3   4
ATOM      4  N   UNL     1       3.211  -0.950   0.668  1.00  0.00    -0.352 N 
ATOM      5  O   UNL     1       1.191  -0.340  -0.118  1.00  0.00    -0.269 OA
ATOM      6  C   UNL     1       2.411  -0.143  -0.093  1.00  0.00     0.251 C 
ATOM      7  H   UNL     1       2.754  -1.713   1.089  1.00  0.00     0.163 HD
BRANCH   6   8
ATOM      8  C   UNL     1       2.979   0.985  -0.859  1.00  0.00     0.039 A 
ATOM      9  C   UNL     1       4.119   0.824  -1.654  1.00  0.00     0.014 A 
ATOM     10  C   UNL     1       2.338   2.226  -0.797  1.00  0.00     0.014 A 
ATOM     11  C   UNL     1       4.683   1.928  -2.291  1.00  0.00     0.010 A 
ATOM     12  C   UNL     1       2.875   3.321  -1.476  1.00  0.00     0.010 A 
ATOM     13  C   UNL     1       4.069   3.187  -2.201  1.00  0.00    -0.014 A 
BRANCH  13  14
ATOM     14  C   UNL     1       4.668   4.362  -2.879  1.00  0.00     0.031 A 
ATOM     15  C   UNL     1       5.279   5.475  -2.078  1.00  0.00     0.074 A 
ATOM     16  C   UNL     1       4.647   4.432  -4.223  1.00  0.00     0.049 A 
ATOM     17  N   UNL     1       5.794   6.604  -2.493  1.00  0.00    -0.248 NA
ATOM     18  C   UNL     1       5.310   5.300  -0.617  1.00  0.00     0.031 C 
ATOM     19  C   UNL     1       4.077   3.419  -5.111  1.00  0.00     0.029 A 
ATOM     20  N   UNL     1       5.112   5.402  -5.073  1.00  0.00    -0.354 N 
ATOM     21  C   UNL     1       6.188   7.285  -1.348  1.00  0.00     0.074 A 
ATOM     22  C   UNL     1       5.842   6.447  -0.219  1.00  0.00     0.031 C 
ATOM     23  C   UNL     1       4.234   3.815  -6.383  1.00  0.00     0.029 A 
ATOM     24  C   UNL     1       4.880   5.125  -6.396  1.00  0.00     0.049 A 
ATOM     25  H   UNL     1       5.568   6.217  -4.764  1.00  0.00     0.167 HD
ATOM     26  C   UNL     1       6.785   8.496  -1.249  1.00  0.00     0.037 A 
ATOM     27  C   UNL     1       5.139   5.852  -7.498  1.00  0.00     0.037 A 
ATOM     28  C   UNL     1       7.152   9.320  -2.371  1.00  0.00     0.049 A 
ATOM     29  C   UNL     1       5.796   7.193  -7.363  1.00  0.00     0.074 A 
ATOM     30  C   UNL     1       7.800  10.543  -2.369  1.00  0.00     0.029 A 
ATOM     31  N   UNL     1       6.900   9.002  -3.696  1.00  0.00    -0.354 N 
ATOM     32  N   UNL     1       6.182   7.815  -6.276  1.00  0.00    -0.248 NA
ATOM     33  C   UNL     1       6.050   7.936  -8.605  1.00  0.00     0.031 C 
ATOM     34  C   UNL     1       7.918  10.978  -3.694  1.00  0.00     0.029 A 
ATOM     35  C   UNL     1       7.367  10.013  -4.521  1.00  0.00     0.049 A 
ATOM     36  H   UNL     1       6.456   8.181  -4.006  1.00  0.00     0.167 HD
ATOM     37  C   UNL     1       6.733   9.015  -6.700  1.00  0.00     0.074 A 
ATOM     38  C   UNL     1       6.641   9.031  -8.146  1.00  0.00     0.031 C 
ATOM     39  C   UNL     1       7.268  10.013  -5.957  1.00  0.00     0.037 A 
BRANCH  26  40
ATOM     40  C   UNL     1       7.067   9.011   0.129  1.00  0.00     0.057 A 
ATOM     41  C   UNL     1       8.135   8.525   0.893  1.00  0.00     0.134 A 
ATOM     42  C   UNL     1       6.278  10.025   0.686  1.00  0.00     0.134 A 
ATOM     43  F   UNL     1       8.918   7.544   0.420  1.00  0.00    -0.206 F 
ATOM     44  C   UNL     1       8.399   9.019   2.172  1.00  0.00     0.040 A 
ATOM     45  C   UNL     1       6.542  10.539   1.956  1.00  0.00     0.040 A 
ATOM     46  F   UNL     1       5.242  10.534   0.002  1.00  0.00    -0.206 F 
ATOM     47  C   UNL     1       7.603  10.033   2.705  1.00  0.00     0.006 A 
ENDBRANCH  26  40
BRANCH  27  48
ATOM     48  C   UNL     1       4.764   5.314  -8.825  1.00  0.00     0.057 A 
ATOM     49  C   UNL     1       5.729   4.786  -9.688  1.00  0.00     0.134 A 
ATOM     50  C   UNL     1       3.428   5.276  -9.241  1.00  0.00     0.134 A 
ATOM     51  F   UNL     1       7.026   4.810  -9.345  1.00  0.00    -0.206 F 
ATOM     52  C   UNL     1       5.380   4.236 -10.921  1.00  0.00     0.040 A 
ATOM     53  C   UNL     1       3.062   4.713 -10.464  1.00  0.00     0.040 A 
ATOM     54  F   UNL     1       2.460   5.762  -8.452  1.00  0.00    -0.206 F 
ATOM     55  C   UNL     1       4.041   4.192 -11.309  1.00  0.00     0.006 A 
ENDBRANCH  27  48
BRANCH  39  56
ATOM     56  C   UNL     1       7.810  11.197  -6.695  1.00  0.00     0.057 A 
ATOM     57  C   UNL     1       6.968  12.198  -7.191  1.00  0.00     0.134 A 
ATOM     58  C   UNL     1       9.190  11.356  -6.873  1.00  0.00     0.134 A 
ATOM     59  F   UNL     1       5.637  12.092  -7.061  1.00  0.00    -0.206 F 
ATOM     60  C   UNL     1       7.479  13.316  -7.850  1.00  0.00     0.040 A 
ATOM     61  C   UNL     1       9.713  12.477  -7.518  1.00  0.00     0.040 A 
ATOM     62  F   UNL     1      10.047  10.431  -6.417  1.00  0.00    -0.206 F 
ATOM     63  C   UNL     1       8.857  13.460  -8.010  1.00  0.00     0.006 A 
ENDBRANCH  39  56
ENDBRANCH  13  14
ENDBRANCH   6   8
ENDBRANCH   3   4
ENDBRANCH   2   3
ENDBRANCH   1   2
BRANCH   1  64
ATOM     64  C   UNL     1       4.849  -3.531   2.491  1.00  0.00     0.116 C 
BRANCH  64  65
ATOM     65  N   UNL     1       6.279  -3.780   2.496  1.00  0.00    -0.354 N 
ATOM     66  C   UNL     1       6.971  -4.837   3.037  1.00  0.00     0.243 C 
ATOM     67  H   UNL     1       6.830  -3.097   2.050  1.00  0.00     0.163 HD
ATOM     68  O   UNL     1       8.175  -4.930   2.793  1.00  0.00    -0.273 OA
BRANCH  66  69
ATOM     69  C   UNL     1       6.188  -5.906   3.827  1.00  0.00     0.185 C 
ATOM     70  C   UNL     1       5.585  -6.857   2.793  1.00  0.00     0.106 C 
ATOM     71  N   UNL     1       6.999  -6.704   4.749  1.00  0.00    -0.314 N 
ATOM     72  S   UNL     1       5.270  -8.395   3.681  1.00  0.00    -0.138 SA
ATOM     73  C   UNL     1       6.456  -8.031   4.988  1.00  0.00     0.191 C 
BRANCH  71  74
ATOM     74  C   UNL     1       7.753  -6.061   5.722  1.00  0.00     0.291 C 
ATOM     75  O   UNL     1       7.638  -4.833   5.873  1.00  0.00    -0.265 OA
BRANCH  74  76
ATOM     76  C   UNL     1       8.630  -6.852   6.567  1.00  0.00     0.199 A 
ATOM     77  O   UNL     1       8.644  -6.544   7.905  1.00  0.00    -0.459 OA
ATOM     78  C   UNL     1       9.528  -7.899   6.340  1.00  0.00     0.033 A 
ATOM     79  C   UNL     1       9.499  -7.389   8.522  1.00  0.00     0.196 A 
ATOM     80  C   UNL     1      10.061  -8.250   7.613  1.00  0.00     0.051 A 
BRANCH  78  81
ATOM     81  C   UNL     1       9.836  -8.493   5.052  1.00  0.00    -0.014 A 
ATOM     82  C   UNL     1       9.756  -9.885   4.897  1.00  0.00     0.009 A 
ATOM     83  C   UNL     1      10.194  -7.703   3.955  1.00  0.00     0.009 A 
ATOM     84  C   UNL     1       9.993 -10.474   3.654  1.00  0.00     0.001 A 
ATOM     85  C   UNL     1      10.445  -8.296   2.714  1.00  0.00     0.001 A 
ATOM     86  C   UNL     1      10.338  -9.678   2.563  1.00  0.00     0.000 A 
ENDBRANCH  78  81
ENDBRANCH  74  76
ENDBRANCH  71  74
ENDBRANCH  66  69
ENDBRANCH  64  65
ENDBRANCH   1  64
TORSDOF 14
