REMARK SMILES O=C(NCCCCNC(=O)[C@@H]1C[NH2+]C[C@H]1c1ccncc1)c1ccc(-c2c3nc(c(-c4c(F)cccc4F)c4ccc([nH]4)c(-c4c(F)cccc4F)c4nc(c(-c5c(F)cccc5F)c5ccc2[nH]5)C=C4)C=C3)cc1
REMARK SMILES IDX 5 1 4 2 3 3 1 4 2 5 22 7 23 8 75 9 24 10 74 11 25 12 26 13
REMARK SMILES IDX 27 14 68 15 28 16 73 17 67 18 69 19 29 20 72 21 66 22 65 23
REMARK SMILES IDX 30 25 56 26 39 27 55 28 40 29 43 30 54 31 70 32 41 33 42 34
REMARK SMILES IDX 53 36 71 37 44 38 31 39 32 40 37 41 33 42 34 43 36 44 38 45
REMARK SMILES IDX 35 46 57 47 58 48 63 49 59 50 60 51 62 52 64 53 61 54 45 55
REMARK SMILES IDX 46 56 51 57 47 58 48 59 50 60 52 61 49 62 6 63 7 64 8 65
REMARK SMILES IDX 9 66 10 68 11 69 12 70 15 71 13 72 14 73 16 76 17 77 21 78
REMARK SMILES IDX 18 79 20 80 19 81
REMARK H PARENT 3 6 69 24 43 35 8 67 13 74 13 75
REMARK Flexibility Score: inf
ROOT
ATOM      1  C   UNL     1       5.190  -0.952   1.997  1.00  0.00     0.023 C 
ENDROOT
BRANCH   1   2
ATOM      2  C   UNL     1       4.657  -0.631   0.608  1.00  0.00     0.116 C 
BRANCH   2   3
ATOM      3  N   UNL     1       3.212  -0.773   0.481  1.00  0.00    -0.352 N 
ATOM      4  O   UNL     1       1.114  -0.143  -0.088  1.00  0.00    -0.269 OA
ATOM      5  C   UNL     1       2.313   0.079  -0.121  1.00  0.00     0.251 C 
ATOM      6  H   UNL     1       2.828  -1.587   0.879  1.00  0.00     0.163 HD
BRANCH   5   7
ATOM      7  C   UNL     1       2.834   1.297  -0.770  1.00  0.00     0.039 A 
ATOM      8  C   UNL     1       3.902   1.208  -1.665  1.00  0.00     0.014 A 
ATOM      9  C   UNL     1       2.309   2.537  -0.402  1.00  0.00     0.014 A 
ATOM     10  C   UNL     1       4.559   2.365  -2.054  1.00  0.00     0.010 A 
ATOM     11  C   UNL     1       2.914   3.702  -0.874  1.00  0.00     0.010 A 
ATOM     12  C   UNL     1       4.069   3.623  -1.668  1.00  0.00    -0.014 A 
BRANCH  12  13
ATOM     13  C   UNL     1       4.757   4.849  -2.136  1.00  0.00     0.031 A 
ATOM     14  C   UNL     1       5.400   5.796  -1.164  1.00  0.00     0.074 A 
ATOM     15  C   UNL     1       4.807   5.091  -3.458  1.00  0.00     0.049 A 
ATOM     16  N   UNL     1       5.979   6.947  -1.397  1.00  0.00    -0.248 NA
ATOM     17  C   UNL     1       5.386   5.408   0.256  1.00  0.00     0.031 C 
ATOM     18  C   UNL     1       4.224   4.233  -4.493  1.00  0.00     0.029 A 
ATOM     19  N   UNL     1       5.380   6.117  -4.160  1.00  0.00    -0.354 N 
ATOM     20  C   UNL     1       6.362   7.439  -0.155  1.00  0.00     0.074 A 
ATOM     21  C   UNL     1       5.946   6.464   0.831  1.00  0.00     0.031 C 
ATOM     22  C   UNL     1       4.501   4.748  -5.698  1.00  0.00     0.029 A 
ATOM     23  C   UNL     1       5.213   6.007  -5.518  1.00  0.00     0.049 A 
ATOM     24  H   UNL     1       5.863   6.861  -3.734  1.00  0.00     0.167 HD
ATOM     25  C   UNL     1       6.999   8.600   0.129  1.00  0.00     0.037 A 
ATOM     26  C   UNL     1       5.562   6.843  -6.511  1.00  0.00     0.037 A 
ATOM     27  C   UNL     1       7.433   9.548  -0.865  1.00  0.00     0.049 A 
ATOM     28  C   UNL     1       6.257   8.124  -6.169  1.00  0.00     0.074 A 
ATOM     29  C   UNL     1       8.111  10.741  -0.683  1.00  0.00     0.029 A 
ATOM     30  N   UNL     1       7.231   9.407  -2.231  1.00  0.00    -0.354 N 
ATOM     31  N   UNL     1       6.605   8.582  -4.991  1.00  0.00    -0.248 NA
ATOM     32  C   UNL     1       6.597   9.011  -7.289  1.00  0.00     0.031 C 
ATOM     33  C   UNL     1       8.290  11.338  -1.937  1.00  0.00     0.029 A 
ATOM     34  C   UNL     1       7.759  10.498  -2.902  1.00  0.00     0.049 A 
ATOM     35  H   UNL     1       6.780   8.644  -2.659  1.00  0.00     0.167 HD
ATOM     36  C   UNL     1       7.213   9.806  -5.225  1.00  0.00     0.074 A 
ATOM     37  C   UNL     1       7.200  10.011  -6.660  1.00  0.00     0.031 C 
ATOM     38  C   UNL     1       7.733  10.681  -4.331  1.00  0.00     0.037 A 
BRANCH  25  39
ATOM     39  C   UNL     1       7.239   8.924   1.575  1.00  0.00     0.057 A 
ATOM     40  C   UNL     1       8.211   8.262   2.336  1.00  0.00     0.134 A 
ATOM     41  C   UNL     1       6.505   9.938   2.206  1.00  0.00     0.134 A 
ATOM     42  F   UNL     1       8.939   7.273   1.796  1.00  0.00    -0.206 F 
ATOM     43  C   UNL     1       8.431   8.583   3.677  1.00  0.00     0.040 A 
ATOM     44  C   UNL     1       6.731  10.282   3.540  1.00  0.00     0.040 A 
ATOM     45  F   UNL     1       5.562  10.615   1.534  1.00  0.00    -0.206 F 
ATOM     46  C   UNL     1       7.693   9.600   4.281  1.00  0.00     0.006 A 
ENDBRANCH  25  39
BRANCH  26  47
ATOM     47  C   UNL     1       5.234   6.481  -7.909  1.00  0.00     0.057 A 
ATOM     48  C   UNL     1       6.228   6.066  -8.800  1.00  0.00     0.134 A 
ATOM     49  C   UNL     1       3.909   6.475  -8.365  1.00  0.00     0.134 A 
ATOM     50  F   UNL     1       7.515   6.062  -8.422  1.00  0.00    -0.206 F 
ATOM     51  C   UNL     1       5.917   5.655 -10.097  1.00  0.00     0.040 A 
ATOM     52  C   UNL     1       3.582   6.044  -9.650  1.00  0.00     0.040 A 
ATOM     53  F   UNL     1       2.912   6.848  -7.550  1.00  0.00    -0.206 F 
ATOM     54  C   UNL     1       4.589   5.633 -10.521  1.00  0.00     0.006 A 
ENDBRANCH  26  47
BRANCH  38  55
ATOM     55  C   UNL     1       8.351  11.926  -4.888  1.00  0.00     0.057 A 
ATOM     56  C   UNL     1       7.569  12.988  -5.356  1.00  0.00     0.134 A 
ATOM     57  C   UNL     1       9.743  12.073  -4.928  1.00  0.00     0.134 A 
ATOM     58  F   UNL     1       6.230  12.898  -5.358  1.00  0.00    -0.206 F 
ATOM     59  C   UNL     1       8.152  14.151  -5.862  1.00  0.00     0.040 A 
ATOM     60  C   UNL     1      10.336  13.239  -5.412  1.00  0.00     0.040 A 
ATOM     61  F   UNL     1      10.544  11.091  -4.489  1.00  0.00    -0.206 F 
ATOM     62  C   UNL     1       9.540  14.280  -5.885  1.00  0.00     0.006 A 
ENDBRANCH  38  55
ENDBRANCH  12  13
ENDBRANCH   5   7
ENDBRANCH   2   3
ENDBRANCH   1   2
BRANCH   1  63
ATOM     63  C   UNL     1       4.747  -2.293   2.568  1.00  0.00     0.023 C 
BRANCH  63  64
ATOM     64  C   UNL     1       5.049  -3.496   1.682  1.00  0.00     0.116 C 
BRANCH  64  65
ATOM     65  N   UNL     1       6.419  -3.945   1.815  1.00  0.00    -0.356 N 
ATOM     66  C   UNL     1       7.013  -5.036   2.348  1.00  0.00     0.229 C 
ATOM     67  H   UNL     1       7.066  -3.311   1.430  1.00  0.00     0.163 HD
ATOM     68  O   UNL     1       8.244  -5.073   2.205  1.00  0.00    -0.275 OA
BRANCH  66  69
ATOM     69  C   UNL     1       6.337  -6.143   3.155  1.00  0.00     0.146 C 
ATOM     70  C   UNL     1       6.904  -7.475   2.657  1.00  0.00     0.274 C 
ATOM     71  C   UNL     1       4.831  -6.410   3.117  1.00  0.00     0.092 C 
ATOM     72  N   UNL     1       6.061  -8.506   3.267  1.00  0.00    -0.345 N 
ATOM     73  C   UNL     1       4.710  -7.938   3.307  1.00  0.00     0.269 C 
ATOM     74  H   UNL     1       6.385  -8.720   4.210  1.00  0.00     0.346 HD
ATOM     75  H   UNL     1       6.088  -9.378   2.738  1.00  0.00     0.346 HD
BRANCH  71  76
ATOM     76  C   UNL     1       3.956  -5.641   4.098  1.00  0.00    -0.035 A 
ATOM     77  C   UNL     1       4.446  -4.644   4.949  1.00  0.00     0.024 A 
ATOM     78  C   UNL     1       2.575  -5.884   4.130  1.00  0.00     0.024 A 
ATOM     79  C   UNL     1       3.562  -3.936   5.753  1.00  0.00     0.111 A 
ATOM     80  C   UNL     1       1.772  -5.138   4.983  1.00  0.00     0.111 A 
ATOM     81  N   UNL     1       2.236  -4.162   5.788  1.00  0.00    -0.265 NA
ENDBRANCH  71  76
ENDBRANCH  66  69
ENDBRANCH  64  65
ENDBRANCH  63  64
ENDBRANCH   1  63
TORSDOF 12
