REMARK SMILES C[N@H+](CC(=O)NCCCCNC(=O)c1ccc(-c2c3nc(c(-c4c(F)cccc4F)c4ccc([nH]4)c(-c4c(F)cccc4F)c4nc(c(-c5c(F)cccc5F)c5ccc2[nH]5)C=C4)C=C3)cc1)Cc1nc(-c2ccsc2)no1
REMARK SMILES IDX 7 1 6 2 4 3 5 4 3 6 2 7 1 8 68 10 69 11 70 12 78 13 71 14
REMARK SMILES IDX 77 15 72 16 73 17 76 18 74 19 75 20 8 21 9 22 10 23 11 24
REMARK SMILES IDX 12 25 13 27 14 28 15 29 67 30 16 31 66 32 17 33 18 34 19 35
REMARK SMILES IDX 60 36 20 37 65 38 59 39 61 40 21 41 64 42 58 43 57 44 22 46
REMARK SMILES IDX 48 47 31 48 47 49 32 50 35 51 46 52 62 53 33 54 34 55 45 57
REMARK SMILES IDX 63 58 36 59 23 60 24 61 29 62 25 63 26 64 28 65 30 66 27 67
REMARK SMILES IDX 49 68 50 69 55 70 51 71 52 72 54 73 56 74 53 75 37 76 38 77
REMARK SMILES IDX 43 78 39 79 40 80 42 81 44 82 41 83
REMARK H PARENT 6 5 2 9 11 26 61 45 35 56
REMARK Flexibility Score: inf
ROOT
ATOM      1  C   UNL     1      -0.429  -1.622  -0.521  1.00  0.00     0.116 C 
ENDROOT
BRANCH   1   2
ATOM      2  N   UNL     1      -1.321  -1.356   0.589  1.00  0.00    -0.351 N 
ATOM      3  C   UNL     1      -1.550  -0.171   1.232  1.00  0.00     0.275 C 
ATOM      4  O   UNL     1      -2.431  -0.127   2.093  1.00  0.00    -0.269 OA
ATOM      5  H   UNL     1      -1.830  -2.130   0.924  1.00  0.00     0.163 HD
BRANCH   3   6
ATOM      6  C   UNL     1      -0.722   1.069   0.876  1.00  0.00     0.363 C 
BRANCH   6   7
ATOM      7  N   UNL     1       0.673   0.894   1.258  1.00  0.00    -0.322 N 
ATOM      8  C   UNL     1       1.709   1.077   0.274  1.00  0.00     0.333 C 
ATOM      9  H   UNL     1       0.618  -0.121   1.174  1.00  0.00     0.348 HD
BRANCH   7  10
ATOM     10  C   UNL     1       1.042   0.922   2.670  1.00  0.00     0.364 C 
BRANCH  10  11
ATOM     11  C   UNL     1       0.689  -0.333   3.400  1.00  0.00     0.282 A 
ATOM     12  N   UNL     1       1.193  -1.547   3.301  1.00  0.00    -0.186 NA
ATOM     13  O   UNL     1      -0.361  -0.253   4.271  1.00  0.00    -0.333 OA
ATOM     14  C   UNL     1       0.342  -2.268   4.099  1.00  0.00     0.203 A 
ATOM     15  N   UNL     1      -0.597  -1.551   4.726  1.00  0.00    -0.057 NA
BRANCH  14  16
ATOM     16  C   UNL     1       0.439  -3.726   4.163  1.00  0.00     0.033 A 
ATOM     17  C   UNL     1      -0.712  -4.568   4.250  1.00  0.00     0.024 A 
ATOM     18  C   UNL     1       1.607  -4.454   4.102  1.00  0.00     0.077 A 
ATOM     19  C   UNL     1      -0.377  -5.905   4.253  1.00  0.00     0.065 A 
ATOM     20  S   UNL     1       1.317  -6.141   4.163  1.00  0.00    -0.152 S 
ENDBRANCH  14  16
ENDBRANCH  10  11
ENDBRANCH   7  10
ENDBRANCH   6   7
ENDBRANCH   3   6
ENDBRANCH   1   2
BRANCH   1  21
ATOM     21  C   UNL     1       0.868  -2.311  -0.101  1.00  0.00     0.023 C 
BRANCH  21  22
ATOM     22  C   UNL     1       0.704  -3.724   0.442  1.00  0.00     0.023 C 
BRANCH  22  23
ATOM     23  C   UNL     1       0.052  -4.708  -0.508  1.00  0.00     0.116 C 
BRANCH  23  24
ATOM     24  N   UNL     1       0.766  -4.857  -1.766  1.00  0.00    -0.352 N 
ATOM     25  C   UNL     1       1.046  -6.010  -2.464  1.00  0.00     0.251 C 
ATOM     26  H   UNL     1       1.093  -4.022  -2.172  1.00  0.00     0.163 HD
ATOM     27  O   UNL     1       1.762  -5.981  -3.450  1.00  0.00    -0.269 OA
BRANCH  25  28
ATOM     28  C   UNL     1       0.487  -7.293  -1.981  1.00  0.00     0.039 A 
ATOM     29  C   UNL     1       1.311  -8.419  -1.943  1.00  0.00     0.014 A 
ATOM     30  C   UNL     1      -0.837  -7.372  -1.545  1.00  0.00     0.014 A 
ATOM     31  C   UNL     1       0.814  -9.616  -1.426  1.00  0.00     0.010 A 
ATOM     32  C   UNL     1      -1.293  -8.528  -0.928  1.00  0.00     0.010 A 
ATOM     33  C   UNL     1      -0.486  -9.673  -0.896  1.00  0.00    -0.014 A 
BRANCH  33  34
ATOM     34  C   UNL     1      -1.056 -10.940  -0.379  1.00  0.00     0.031 A 
ATOM     35  C   UNL     1      -2.266 -11.532  -1.053  1.00  0.00     0.074 A 
ATOM     36  C   UNL     1      -0.528 -11.525   0.713  1.00  0.00     0.049 A 
ATOM     37  N   UNL     1      -2.963 -12.590  -0.727  1.00  0.00    -0.248 NA
ATOM     38  C   UNL     1      -2.788 -10.814  -2.229  1.00  0.00     0.031 C 
ATOM     39  C   UNL     1       0.608 -11.017   1.484  1.00  0.00     0.029 A 
ATOM     40  N   UNL     1      -0.884 -12.678   1.365  1.00  0.00    -0.354 N 
ATOM     41  C   UNL     1      -4.010 -12.646  -1.638  1.00  0.00     0.074 A 
ATOM     42  C   UNL     1      -3.903 -11.479  -2.482  1.00  0.00     0.031 C 
ATOM     43  C   UNL     1       0.877 -11.873   2.484  1.00  0.00     0.029 A 
ATOM     44  C   UNL     1      -0.087 -12.968   2.445  1.00  0.00     0.049 A 
ATOM     45  H   UNL     1      -1.640 -13.244   1.085  1.00  0.00     0.167 HD
ATOM     46  C   UNL     1      -4.955 -13.603  -1.785  1.00  0.00     0.037 A 
ATOM     47  C   UNL     1      -0.132 -14.005   3.303  1.00  0.00     0.037 A 
ATOM     48  C   UNL     1      -5.029 -14.784  -0.970  1.00  0.00     0.049 A 
ATOM     49  C   UNL     1      -1.181 -15.066   3.109  1.00  0.00     0.074 A 
ATOM     50  C   UNL     1      -5.909 -15.847  -1.068  1.00  0.00     0.029 A 
ATOM     51  N   UNL     1      -4.182 -15.059   0.093  1.00  0.00    -0.354 N 
ATOM     52  N   UNL     1      -2.125 -15.142   2.201  1.00  0.00    -0.248 NA
ATOM     53  C   UNL     1      -1.162 -16.194   4.051  1.00  0.00     0.031 C 
ATOM     54  C   UNL     1      -5.620 -16.747  -0.037  1.00  0.00     0.029 A 
ATOM     55  C   UNL     1      -4.526 -16.270   0.668  1.00  0.00     0.049 A 
ATOM     56  H   UNL     1      -3.445 -14.480   0.393  1.00  0.00     0.167 HD
ATOM     57  C   UNL     1      -2.788 -16.339   2.439  1.00  0.00     0.074 A 
ATOM     58  C   UNL     1      -2.130 -16.961   3.570  1.00  0.00     0.031 C 
ATOM     59  C   UNL     1      -3.844 -16.878   1.782  1.00  0.00     0.037 A 
BRANCH  46  60
ATOM     60  C   UNL     1      -5.971 -13.410  -2.874  1.00  0.00     0.057 A 
ATOM     61  C   UNL     1      -5.625 -13.474  -4.232  1.00  0.00     0.134 A 
ATOM     62  C   UNL     1      -7.316 -13.169  -2.565  1.00  0.00     0.134 A 
ATOM     63  F   UNL     1      -4.351 -13.685  -4.599  1.00  0.00    -0.206 F 
ATOM     64  C   UNL     1      -6.570 -13.272  -5.239  1.00  0.00     0.040 A 
ATOM     65  C   UNL     1      -8.276 -12.997  -3.563  1.00  0.00     0.040 A 
ATOM     66  F   UNL     1      -7.719 -13.098  -1.287  1.00  0.00    -0.206 F 
ATOM     67  C   UNL     1      -7.902 -13.040  -4.905  1.00  0.00     0.006 A 
ENDBRANCH  46  60
BRANCH  47  68
ATOM     68  C   UNL     1       0.867 -14.113   4.396  1.00  0.00     0.057 A 
ATOM     69  C   UNL     1       1.850 -15.110   4.380  1.00  0.00     0.134 A 
ATOM     70  C   UNL     1       0.859 -13.235   5.487  1.00  0.00     0.134 A 
ATOM     71  F   UNL     1       1.901 -15.992   3.370  1.00  0.00    -0.206 F 
ATOM     72  C   UNL     1       2.772 -15.247   5.419  1.00  0.00     0.040 A 
ATOM     73  C   UNL     1       1.792 -13.344   6.520  1.00  0.00     0.040 A 
ATOM     74  F   UNL     1      -0.050 -12.252   5.559  1.00  0.00    -0.206 F 
ATOM     75  C   UNL     1       2.747 -14.359   6.492  1.00  0.00     0.006 A 
ENDBRANCH  47  68
BRANCH  59  76
ATOM     76  C   UNL     1      -4.318 -18.228   2.233  1.00  0.00     0.057 A 
ATOM     77  C   UNL     1      -4.996 -18.412   3.445  1.00  0.00     0.134 A 
ATOM     78  C   UNL     1      -4.130 -19.353   1.419  1.00  0.00     0.134 A 
ATOM     79  F   UNL     1      -5.199 -17.378   4.274  1.00  0.00    -0.206 F 
ATOM     80  C   UNL     1      -5.445 -19.672   3.843  1.00  0.00     0.040 A 
ATOM     81  C   UNL     1      -4.601 -20.611   1.793  1.00  0.00     0.040 A 
ATOM     82  F   UNL     1      -3.499 -19.243   0.240  1.00  0.00    -0.206 F 
ATOM     83  C   UNL     1      -5.254 -20.774   3.012  1.00  0.00     0.006 A 
ENDBRANCH  59  76
ENDBRANCH  33  34
ENDBRANCH  25  28
ENDBRANCH  23  24
ENDBRANCH  22  23
ENDBRANCH  21  22
ENDBRANCH   1  21
TORSDOF 15
