REMARK SMILES O=C(NCCCCNC(=O)c1cccnc1Nc1cccc(C(F)(F)F)c1)c1ccc(-c2c3nc(c(-c4c(F)cccc4F)c4ccc([nH]4)c(-c4c(F)cccc4F)c4nc(c(-c5c(F)cccc5F)c5ccc2[nH]5)C=C4)C=C3)cc1
REMARK SMILES IDX 6 1 5 2 4 3 3 4 1 5 2 6 28 8 29 9 81 10 30 11 80 12 31 13
REMARK SMILES IDX 32 14 33 15 74 16 34 17 79 18 73 19 75 20 35 21 78 22 72 23
REMARK SMILES IDX 71 24 36 26 62 27 45 28 61 29 46 30 49 31 60 32 76 33 47 34
REMARK SMILES IDX 48 35 59 37 77 38 50 39 37 40 38 41 43 42 39 43 40 44 42 45
REMARK SMILES IDX 44 46 41 47 63 48 64 49 69 50 65 51 66 52 68 53 70 54 67 55
REMARK SMILES IDX 51 56 52 57 57 58 53 59 54 60 56 61 58 62 55 63 7 64 8 65
REMARK SMILES IDX 9 66 10 68 11 69 12 70 16 71 13 72 15 73 14 74 17 75 18 77
REMARK SMILES IDX 19 78 27 79 20 80 22 81 21 82 23 83 24 84 25 85 26 86
REMARK H PARENT 3 7 75 25 49 36 8 67 17 76
REMARK Flexibility Score: inf
ROOT
ATOM      1  C   UNL     1       4.418  -0.223  -3.895  1.00  0.00     0.023 C 
ENDROOT
BRANCH   1   2
ATOM      2  C   UNL     1       4.926  -0.840  -2.593  1.00  0.00     0.023 C 
BRANCH   2   3
ATOM      3  C   UNL     1       4.617  -0.046  -1.331  1.00  0.00     0.116 C 
BRANCH   3   4
ATOM      4  N   UNL     1       3.192   0.129  -1.095  1.00  0.00    -0.352 N 
ATOM      5  O   UNL     1       1.244  -0.002   0.040  1.00  0.00    -0.269 OA
ATOM      6  C   UNL     1       2.467  -0.100   0.052  1.00  0.00     0.251 C 
ATOM      7  H   UNL     1       2.673   0.459  -1.864  1.00  0.00     0.163 HD
BRANCH   6   8
ATOM      8  C   UNL     1       3.165  -0.501   1.292  1.00  0.00     0.039 A 
ATOM      9  C   UNL     1       4.322   0.163   1.702  1.00  0.00     0.014 A 
ATOM     10  C   UNL     1       2.665  -1.569   2.043  1.00  0.00     0.014 A 
ATOM     11  C   UNL     1       5.063  -0.339   2.765  1.00  0.00     0.010 A 
ATOM     12  C   UNL     1       3.365  -2.017   3.168  1.00  0.00     0.010 A 
ATOM     13  C   UNL     1       4.590  -1.429   3.515  1.00  0.00    -0.014 A 
BRANCH  13  14
ATOM     14  C   UNL     1       5.381  -1.891   4.684  1.00  0.00     0.031 A 
ATOM     15  C   UNL     1       6.022  -3.251   4.709  1.00  0.00     0.074 A 
ATOM     16  C   UNL     1       5.567  -1.038   5.709  1.00  0.00     0.049 A 
ATOM     17  N   UNL     1       6.793  -3.779   5.628  1.00  0.00    -0.248 NA
ATOM     18  C   UNL     1       5.764  -4.136   3.563  1.00  0.00     0.031 C 
ATOM     19  C   UNL     1       4.980   0.301   5.805  1.00  0.00     0.029 A 
ATOM     20  N   UNL     1       6.322  -1.152   6.848  1.00  0.00    -0.354 N 
ATOM     21  C   UNL     1       7.104  -5.056   5.178  1.00  0.00     0.074 A 
ATOM     22  C   UNL     1       6.415  -5.237   3.918  1.00  0.00     0.031 C 
ATOM     23  C   UNL     1       5.439   0.904   6.911  1.00  0.00     0.029 A 
ATOM     24  C   UNL     1       6.306  -0.022   7.629  1.00  0.00     0.049 A 
ATOM     25  H   UNL     1       6.826  -1.964   7.083  1.00  0.00     0.167 HD
ATOM     26  C   UNL     1       7.900  -5.987   5.759  1.00  0.00     0.037 A 
ATOM     27  C   UNL     1       6.916   0.239   8.799  1.00  0.00     0.037 A 
ATOM     28  C   UNL     1       8.591  -5.801   7.010  1.00  0.00     0.049 A 
ATOM     29  C   UNL     1       7.790  -0.810   9.418  1.00  0.00     0.074 A 
ATOM     30  C   UNL     1       9.423  -6.686   7.676  1.00  0.00     0.029 A 
ATOM     31  N   UNL     1       8.535  -4.650   7.781  1.00  0.00    -0.354 N 
ATOM     32  N   UNL     1       8.084  -2.006   8.971  1.00  0.00    -0.248 NA
ATOM     33  C   UNL     1       8.415  -0.475  10.703  1.00  0.00     0.031 C 
ATOM     34  C   UNL     1       9.846  -6.080   8.865  1.00  0.00     0.029 A 
ATOM     35  C   UNL     1       9.309  -4.805   8.920  1.00  0.00     0.049 A 
ATOM     36  H   UNL     1       8.020  -3.842   7.552  1.00  0.00     0.167 HD
ATOM     37  C   UNL     1       8.931  -2.565   9.916  1.00  0.00     0.074 A 
ATOM     38  C   UNL     1       9.129  -1.565  10.945  1.00  0.00     0.031 C 
ATOM     39  C   UNL     1       9.489  -3.800   9.935  1.00  0.00     0.037 A 
BRANCH  26  40
ATOM     40  C   UNL     1       8.067  -7.299   5.049  1.00  0.00     0.057 A 
ATOM     41  C   UNL     1       8.856  -7.417   3.898  1.00  0.00     0.134 A 
ATOM     42  C   UNL     1       7.482  -8.467   5.553  1.00  0.00     0.134 A 
ATOM     43  F   UNL     1       9.435  -6.334   3.357  1.00  0.00    -0.206 F 
ATOM     44  C   UNL     1       9.046  -8.647   3.265  1.00  0.00     0.040 A 
ATOM     45  C   UNL     1       7.681  -9.707   4.942  1.00  0.00     0.040 A 
ATOM     46  F   UNL     1       6.720  -8.426   6.657  1.00  0.00    -0.206 F 
ATOM     47  C   UNL     1       8.463  -9.799   3.793  1.00  0.00     0.006 A 
ENDBRANCH  26  40
BRANCH  27  48
ATOM     48  C   UNL     1       6.711   1.552   9.458  1.00  0.00     0.057 A 
ATOM     49  C   UNL     1       7.743   2.493   9.539  1.00  0.00     0.134 A 
ATOM     50  C   UNL     1       5.473   1.900  10.012  1.00  0.00     0.134 A 
ATOM     51  F   UNL     1       8.956   2.211   9.039  1.00  0.00    -0.206 F 
ATOM     52  C   UNL     1       7.557   3.728  10.161  1.00  0.00     0.040 A 
ATOM     53  C   UNL     1       5.265   3.141  10.613  1.00  0.00     0.040 A 
ATOM     54  F   UNL     1       4.442   1.044   9.956  1.00  0.00    -0.206 F 
ATOM     55  C   UNL     1       6.311   4.057  10.695  1.00  0.00     0.006 A 
ENDBRANCH  27  48
BRANCH  39  56
ATOM     56  C   UNL     1      10.372  -4.122  11.102  1.00  0.00     0.057 A 
ATOM     57  C   UNL     1       9.844  -4.375  12.374  1.00  0.00     0.134 A 
ATOM     58  C   UNL     1      11.763  -4.185  10.951  1.00  0.00     0.134 A 
ATOM     59  F   UNL     1       8.521  -4.313  12.586  1.00  0.00    -0.206 F 
ATOM     60  C   UNL     1      10.671  -4.654  13.463  1.00  0.00     0.040 A 
ATOM     61  C   UNL     1      12.598  -4.485  12.027  1.00  0.00     0.040 A 
ATOM     62  F   UNL     1      12.329  -3.958   9.757  1.00  0.00    -0.206 F 
ATOM     63  C   UNL     1      12.053  -4.713  13.289  1.00  0.00     0.006 A 
ENDBRANCH  39  56
ENDBRANCH  13  14
ENDBRANCH   6   8
ENDBRANCH   3   4
ENDBRANCH   2   3
ENDBRANCH   1   2
BRANCH   1  64
ATOM     64  C   UNL     1       4.804   1.238  -4.116  1.00  0.00     0.116 C 
BRANCH  64  65
ATOM     65  N   UNL     1       6.246   1.423  -4.160  1.00  0.00    -0.352 N 
ATOM     66  C   UNL     1       7.034   1.773  -5.228  1.00  0.00     0.255 C 
ATOM     67  H   UNL     1       6.720   1.279  -3.309  1.00  0.00     0.163 HD
ATOM     68  O   UNL     1       8.253   1.637  -5.165  1.00  0.00    -0.269 OA
BRANCH  66  69
ATOM     69  C   UNL     1       6.422   2.289  -6.463  1.00  0.00     0.082 A 
ATOM     70  C   UNL     1       5.525   3.364  -6.400  1.00  0.00     0.019 A 
ATOM     71  C   UNL     1       6.763   1.740  -7.704  1.00  0.00     0.143 A 
ATOM     72  C   UNL     1       4.907   3.803  -7.563  1.00  0.00     0.021 A 
ATOM     73  N   UNL     1       6.143   2.171  -8.833  1.00  0.00    -0.238 NA
ATOM     74  C   UNL     1       5.237   3.169  -8.744  1.00  0.00     0.113 A 
BRANCH  71  75
ATOM     75  N   UNL     1       7.660   0.654  -7.793  1.00  0.00    -0.340 N 
ATOM     76  H   UNL     1       7.940   0.249  -6.941  1.00  0.00     0.168 HD
BRANCH  75  77
ATOM     77  C   UNL     1       8.199   0.087  -8.960  1.00  0.00     0.040 A 
ATOM     78  C   UNL     1       8.365  -1.299  -9.038  1.00  0.00     0.026 A 
ATOM     79  C   UNL     1       8.647   0.879 -10.024  1.00  0.00     0.039 A 
ATOM     80  C   UNL     1       8.904  -1.888 -10.183  1.00  0.00     0.003 A 
ATOM     81  C   UNL     1       9.213   0.306 -11.172  1.00  0.00     0.058 A 
ATOM     82  C   UNL     1       9.322  -1.090 -11.248  1.00  0.00     0.013 A 
BRANCH  81  83
ATOM     83  C   UNL     1       9.680   1.171 -12.313  1.00  0.00     0.416 C 
ATOM     84  F   UNL     1      10.938   0.850 -12.729  1.00  0.00    -0.166 F 
ATOM     85  F   UNL     1       8.887   1.058 -13.414  1.00  0.00    -0.166 F 
ATOM     86  F   UNL     1       9.721   2.501 -12.017  1.00  0.00    -0.166 F 
ENDBRANCH  81  83
ENDBRANCH  75  77
ENDBRANCH  71  75
ENDBRANCH  66  69
ENDBRANCH  64  65
ENDBRANCH   1  64
TORSDOF 14
