REMARK SMILES CC[NH2+][C@@]1(C(=O)NCCCCNC(=O)c2ccc(-c3c4nc(c(-c5c(F)cccc5F)c5ccc([nH]5)c(-c5c(F)cccc5F)c5nc(c(-c6c(F)cccc6F)c6ccc3[nH]6)C=C5)C=C4)cc2)CC[C@@H]([NH+]2CCC(C)(CC)CC2)C1
REMARK SMILES IDX 9 1 8 2 7 3 5 4 6 5 4 7 69 8 81 9 70 10 71 11 3 12 2 15 1 16
REMARK SMILES IDX 72 17 73 18 80 19 74 21 79 22 75 23 76 24 77 25 78 26 10 27
REMARK SMILES IDX 11 28 12 29 13 30 14 32 15 33 16 34 68 35 17 36 67 37 18 38
REMARK SMILES IDX 19 39 20 40 61 41 21 42 66 43 60 44 62 45 22 46 65 47 59 48
REMARK SMILES IDX 58 49 23 51 49 52 32 53 48 54 33 55 36 56 47 57 63 58 34 59
REMARK SMILES IDX 35 60 46 62 64 63 37 64 24 65 25 66 30 67 26 68 27 69 29 70
REMARK SMILES IDX 31 71 28 72 50 73 51 74 56 75 52 76 53 77 55 78 57 79 54 80
REMARK SMILES IDX 38 81 39 82 44 83 40 84 41 85 43 86 45 87 42 88
REMARK H PARENT 7 6 3 13 3 14 72 20 12 31 62 50 36 61
REMARK Flexibility Score: inf
ROOT
ATOM      1  C   UNL     1       0.873  -0.058   7.485  1.00  0.00     0.023 C 
ENDROOT
BRANCH   1   2
ATOM      2  C   UNL     1       1.051   1.363   6.952  1.00  0.00     0.116 C 
BRANCH   2   3
ATOM      3  N   UNL     1       2.064   1.444   5.926  1.00  0.00    -0.351 N 
ATOM      4  C   UNL     1       1.990   1.489   4.571  1.00  0.00     0.281 C 
ATOM      5  O   UNL     1       3.076   1.650   3.993  1.00  0.00    -0.268 OA
ATOM      6  H   UNL     1       2.984   1.471   6.276  1.00  0.00     0.163 HD
BRANCH   4   7
ATOM      7  C   UNL     1       0.656   1.366   3.728  1.00  0.00     0.181 C 
ATOM      8  C   UNL     1      -0.355   2.483   4.038  1.00  0.00     0.085 C 
ATOM      9  C   UNL     1      -0.083   0.045   3.996  1.00  0.00     0.144 C 
ATOM     10  C   UNL     1      -1.602   1.863   4.665  1.00  0.00     0.072 C 
ATOM     11  C   UNL     1      -1.399   0.344   4.724  1.00  0.00     0.191 C 
BRANCH   7  12
ATOM     12  N   UNL     1       1.062   1.623   2.300  1.00  0.00    -0.334 N 
ATOM     13  H   UNL     1       0.345   2.215   1.880  1.00  0.00     0.347 HD
ATOM     14  H   UNL     1       1.991   2.039   2.365  1.00  0.00     0.347 HD
BRANCH  12  15
ATOM     15  C   UNL     1       1.235   0.466   1.430  1.00  0.00     0.257 C 
ATOM     16  C   UNL     1       1.845   0.873   0.096  1.00  0.00     0.071 C 
ENDBRANCH  12  15
ENDBRANCH   7  12
BRANCH  11  17
ATOM     17  N   UNL     1      -2.598  -0.456   4.425  1.00  0.00    -0.332 N 
ATOM     18  C   UNL     1      -2.494  -1.892   4.683  1.00  0.00     0.263 C 
ATOM     19  C   UNL     1      -3.286  -0.230   3.158  1.00  0.00     0.263 C 
ATOM     20  H   UNL     1      -3.200  -0.043   5.136  1.00  0.00     0.348 HD
ATOM     21  C   UNL     1      -1.823  -2.713   3.577  1.00  0.00     0.068 C 
ATOM     22  C   UNL     1      -2.612  -0.861   1.943  1.00  0.00     0.068 C 
ATOM     23  C   UNL     1      -2.200  -2.347   2.111  1.00  0.00    -0.022 C 
ATOM     24  C   UNL     1      -0.947  -2.620   1.232  1.00  0.00     0.012 C 
BRANCH  23  25
ATOM     25  C   UNL     1      -3.298  -3.289   1.537  1.00  0.00     0.004 C 
ATOM     26  C   UNL     1      -4.698  -3.151   2.107  1.00  0.00     0.004 C 
ENDBRANCH  23  25
ENDBRANCH  11  17
ENDBRANCH   4   7
ENDBRANCH   2   3
ENDBRANCH   1   2
BRANCH   1  27
ATOM     27  C   UNL     1       1.747  -0.409   8.687  1.00  0.00     0.023 C 
BRANCH  27  28
ATOM     28  C   UNL     1       1.550   0.483   9.905  1.00  0.00     0.116 C 
BRANCH  28  29
ATOM     29  N   UNL     1       0.173   0.579  10.371  1.00  0.00    -0.352 N 
ATOM     30  C   UNL     1      -0.249   0.941  11.631  1.00  0.00     0.251 C 
ATOM     31  H   UNL     1      -0.530   0.362   9.716  1.00  0.00     0.163 HD
ATOM     32  O   UNL     1      -1.435   0.925  11.940  1.00  0.00    -0.269 OA
BRANCH  30  33
ATOM     33  C   UNL     1       0.783   1.292  12.624  1.00  0.00     0.039 A 
ATOM     34  C   UNL     1       0.888   0.529  13.787  1.00  0.00     0.014 A 
ATOM     35  C   UNL     1       1.727   2.276  12.321  1.00  0.00     0.014 A 
ATOM     36  C   UNL     1       2.001   0.695  14.611  1.00  0.00     0.010 A 
ATOM     37  C   UNL     1       2.874   2.378  13.096  1.00  0.00     0.010 A 
ATOM     38  C   UNL     1       3.025   1.585  14.244  1.00  0.00    -0.014 A 
BRANCH  38  39
ATOM     39  C   UNL     1       4.267   1.704  15.046  1.00  0.00     0.031 A 
ATOM     40  C   UNL     1       4.604   3.009  15.707  1.00  0.00     0.074 A 
ATOM     41  C   UNL     1       5.125   0.667  15.112  1.00  0.00     0.049 A 
ATOM     42  N   UNL     1       5.674   3.342  16.383  1.00  0.00    -0.248 NA
ATOM     43  C   UNL     1       3.624   4.097  15.557  1.00  0.00     0.031 C 
ATOM     44  C   UNL     1       4.940  -0.632  14.462  1.00  0.00     0.029 A 
ATOM     45  N   UNL     1       6.332   0.547  15.753  1.00  0.00    -0.354 N 
ATOM     46  C   UNL     1       5.503   4.678  16.720  1.00  0.00     0.074 A 
ATOM     47  C   UNL     1       4.260   5.112  16.122  1.00  0.00     0.031 C 
ATOM     48  C   UNL     1       5.980  -1.428  14.765  1.00  0.00     0.029 A 
ATOM     49  C   UNL     1       6.918  -0.686  15.601  1.00  0.00     0.049 A 
ATOM     50  H   UNL     1       6.740   1.277  16.273  1.00  0.00     0.167 HD
ATOM     51  C   UNL     1       6.296   5.466  17.483  1.00  0.00     0.037 A 
ATOM     52  C   UNL     1       8.080  -1.163  16.086  1.00  0.00     0.037 A 
ATOM     53  C   UNL     1       7.512   5.022  18.108  1.00  0.00     0.049 A 
ATOM     54  C   UNL     1       8.936  -0.273  16.945  1.00  0.00     0.074 A 
ATOM     55  C   UNL     1       8.353   5.721  18.955  1.00  0.00     0.029 A 
ATOM     56  N   UNL     1       8.058   3.756  17.954  1.00  0.00    -0.354 N 
ATOM     57  N   UNL     1       8.728   0.967  17.314  1.00  0.00    -0.248 NA
ATOM     58  C   UNL     1      10.185  -0.853  17.458  1.00  0.00     0.031 C 
ATOM     59  C   UNL     1       9.426   4.888  19.289  1.00  0.00     0.029 A 
ATOM     60  C   UNL     1       9.233   3.658  18.679  1.00  0.00     0.049 A 
ATOM     61  H   UNL     1       7.668   3.035  17.409  1.00  0.00     0.167 HD
ATOM     62  C   UNL     1       9.802   1.307  18.126  1.00  0.00     0.074 A 
ATOM     63  C   UNL     1      10.655   0.139  18.202  1.00  0.00     0.031 C 
ATOM     64  C   UNL     1      10.060   2.481  18.752  1.00  0.00     0.037 A 
BRANCH  51  65
ATOM     65  C   UNL     1       5.854   6.885  17.690  1.00  0.00     0.057 A 
ATOM     66  C   UNL     1       4.737   7.202  18.475  1.00  0.00     0.134 A 
ATOM     67  C   UNL     1       6.554   7.946  17.103  1.00  0.00     0.134 A 
ATOM     68  F   UNL     1       4.014   6.230  19.051  1.00  0.00    -0.206 F 
ATOM     69  C   UNL     1       4.311   8.521  18.640  1.00  0.00     0.040 A 
ATOM     70  C   UNL     1       6.154   9.271  17.284  1.00  0.00     0.040 A 
ATOM     71  F   UNL     1       7.634   7.713  16.342  1.00  0.00    -0.206 F 
ATOM     72  C   UNL     1       5.024   9.560  18.047  1.00  0.00     0.006 A 
ENDBRANCH  51  65
BRANCH  52  73
ATOM     73  C   UNL     1       8.484  -2.564  15.811  1.00  0.00     0.057 A 
ATOM     74  C   UNL     1       8.459  -3.530  16.824  1.00  0.00     0.134 A 
ATOM     75  C   UNL     1       8.914  -2.970  14.543  1.00  0.00     0.134 A 
ATOM     76  F   UNL     1       8.073  -3.195  18.064  1.00  0.00    -0.206 F 
ATOM     77  C   UNL     1       8.864  -4.845  16.592  1.00  0.00     0.040 A 
ATOM     78  C   UNL     1       9.302  -4.288  14.291  1.00  0.00     0.040 A 
ATOM     79  F   UNL     1       8.954  -2.094  13.528  1.00  0.00    -0.206 F 
ATOM     80  C   UNL     1       9.284  -5.228  15.320  1.00  0.00     0.006 A 
ENDBRANCH  52  73
BRANCH  64  81
ATOM     81  C   UNL     1      11.293   2.546  19.602  1.00  0.00     0.057 A 
ATOM     82  C   UNL     1      12.573   2.621  19.042  1.00  0.00     0.134 A 
ATOM     83  C   UNL     1      11.192   2.577  20.999  1.00  0.00     0.134 A 
ATOM     84  F   UNL     1      12.736   2.582  17.710  1.00  0.00    -0.206 F 
ATOM     85  C   UNL     1      13.714   2.704  19.842  1.00  0.00     0.040 A 
ATOM     86  C   UNL     1      12.323   2.684  21.809  1.00  0.00     0.040 A 
ATOM     87  F   UNL     1       9.993   2.517  21.597  1.00  0.00    -0.206 F 
ATOM     88  C   UNL     1      13.589   2.743  21.230  1.00  0.00     0.006 A 
ENDBRANCH  64  81
ENDBRANCH  38  39
ENDBRANCH  30  33
ENDBRANCH  28  29
ENDBRANCH  27  28
ENDBRANCH   1  27
TORSDOF 15
