REMARK SMILES O=C(CC1(C[S@](=O)C[C@H]2Cc3ccccc3S2)CC1)NCCCCNC(=O)c1ccc(-c2c3nc(c(-c4c(F)cccc4F)c4ccc([nH]4)c(-c4c(F)cccc4F)c4nc(c(-c5c(F)cccc5F)c5ccc2[nH]5)C=C4)C=C3)cc1
REMARK SMILES IDX 21 1 20 2 1 3 2 4 3 6 4 7 18 8 19 9 5 10 6 11 7 12 8 13 9 14
REMARK SMILES IDX 10 15 17 16 11 17 16 18 12 19 15 20 13 21 14 22 22 23 23 24
REMARK SMILES IDX 24 25 25 26 26 27 27 29 28 30 29 31 81 32 30 33 80 34 31 35
REMARK SMILES IDX 32 36 33 37 74 38 34 39 79 40 73 41 75 42 35 43 78 44 72 45
REMARK SMILES IDX 71 46 36 48 62 49 45 50 61 51 46 52 49 53 60 54 76 55 47 56
REMARK SMILES IDX 48 57 59 59 77 60 50 61 37 62 38 63 43 64 39 65 40 66 42 67
REMARK SMILES IDX 44 68 41 69 63 70 64 71 69 72 65 73 66 74 68 75 70 76 67 77
REMARK SMILES IDX 51 78 52 79 57 80 53 81 54 82 56 83 58 84 55 85
REMARK H PARENT 20 5 25 28 75 47 49 58
REMARK Flexibility Score: inf
ROOT
ATOM      1  C   UNL     1       4.753  -3.022  -1.192  1.00  0.00     0.116 C 
ENDROOT
BRANCH   1   2
ATOM      2  N   UNL     1       5.077  -2.223  -0.033  1.00  0.00    -0.356 N 
ATOM      3  O   UNL     1       5.896  -3.898   1.298  1.00  0.00    -0.275 OA
ATOM      4  C   UNL     1       5.642  -2.709   1.118  1.00  0.00     0.220 C 
ATOM      5  H   UNL     1       4.878  -1.259  -0.072  1.00  0.00     0.163 HD
BRANCH   4   6
ATOM      6  C   UNL     1       5.952  -1.647   2.173  1.00  0.00     0.108 C 
BRANCH   6   7
ATOM      7  C   UNL     1       7.065  -0.674   1.774  1.00  0.00    -0.009 C 
ATOM      8  C   UNL     1       8.372  -0.850   2.556  1.00  0.00     0.009 C 
ATOM      9  C   UNL     1       8.311  -1.269   1.132  1.00  0.00     0.009 C 
BRANCH   7  10
ATOM     10  C   UNL     1       6.712   0.789   1.493  1.00  0.00     0.112 C 
BRANCH  10  11
ATOM     11  S   UNL     1       5.127   1.308   0.857  1.00  0.00     0.023 S 
ATOM     12  O   UNL     1       4.202   0.155   0.644  1.00  0.00    -0.260 OA
BRANCH  11  13
ATOM     13  C   UNL     1       5.333   2.154  -0.713  1.00  0.00     0.120 C 
BRANCH  13  14
ATOM     14  C   UNL     1       6.562   2.094  -1.606  1.00  0.00     0.068 C 
ATOM     15  C   UNL     1       7.760   2.921  -1.107  1.00  0.00     0.052 C 
ATOM     16  S   UNL     1       7.134   0.454  -2.148  1.00  0.00    -0.121 SA
ATOM     17  C   UNL     1       8.981   2.054  -1.144  1.00  0.00    -0.033 A 
ATOM     18  C   UNL     1       8.819   0.808  -1.751  1.00  0.00     0.011 A 
ATOM     19  C   UNL     1      10.207   2.412  -0.593  1.00  0.00     0.005 A 
ATOM     20  C   UNL     1       9.883  -0.075  -1.865  1.00  0.00     0.015 A 
ATOM     21  C   UNL     1      11.268   1.508  -0.656  1.00  0.00     0.000 A 
ATOM     22  C   UNL     1      11.112   0.276  -1.302  1.00  0.00     0.001 A 
ENDBRANCH  13  14
ENDBRANCH  11  13
ENDBRANCH  10  11
ENDBRANCH   7  10
ENDBRANCH   6   7
ENDBRANCH   4   6
ENDBRANCH   1   2
BRANCH   1  23
ATOM     23  C   UNL     1       3.273  -2.919  -1.569  1.00  0.00     0.023 C 
BRANCH  23  24
ATOM     24  C   UNL     1       2.780  -1.523  -1.963  1.00  0.00     0.023 C 
BRANCH  24  25
ATOM     25  C   UNL     1       3.491  -0.876  -3.145  1.00  0.00     0.116 C 
BRANCH  25  26
ATOM     26  N   UNL     1       3.147  -1.485  -4.421  1.00  0.00    -0.352 N 
ATOM     27  C   UNL     1       2.717  -0.896  -5.587  1.00  0.00     0.251 C 
ATOM     28  H   UNL     1       3.235  -2.465  -4.454  1.00  0.00     0.163 HD
ATOM     29  O   UNL     1       2.363  -1.593  -6.535  1.00  0.00    -0.269 OA
BRANCH  27  30
ATOM     30  C   UNL     1       2.630   0.580  -5.697  1.00  0.00     0.039 A 
ATOM     31  C   UNL     1       3.659   1.407  -5.241  1.00  0.00     0.014 A 
ATOM     32  C   UNL     1       1.483   1.145  -6.263  1.00  0.00     0.014 A 
ATOM     33  C   UNL     1       3.468   2.788  -5.194  1.00  0.00     0.010 A 
ATOM     34  C   UNL     1       1.326   2.535  -6.285  1.00  0.00     0.010 A 
ATOM     35  C   UNL     1       2.291   3.368  -5.697  1.00  0.00    -0.014 A 
BRANCH  35  36
ATOM     36  C   UNL     1       2.068   4.834  -5.565  1.00  0.00     0.031 A 
ATOM     37  C   UNL     1       0.950   5.367  -4.705  1.00  0.00     0.074 A 
ATOM     38  C   UNL     1       2.899   5.697  -6.182  1.00  0.00     0.049 A 
ATOM     39  N   UNL     1       0.618   6.611  -4.455  1.00  0.00    -0.248 NA
ATOM     40  C   UNL     1       0.090   4.376  -4.041  1.00  0.00     0.031 C 
ATOM     41  C   UNL     1       4.021   5.320  -7.042  1.00  0.00     0.029 A 
ATOM     42  N   UNL     1       2.935   7.069  -6.170  1.00  0.00    -0.354 N 
ATOM     43  C   UNL     1      -0.493   6.550  -3.622  1.00  0.00     0.074 A 
ATOM     44  C   UNL     1      -0.801   5.148  -3.436  1.00  0.00     0.031 C 
ATOM     45  C   UNL     1       4.660   6.431  -7.442  1.00  0.00     0.029 A 
ATOM     46  C   UNL     1       3.962   7.598  -6.912  1.00  0.00     0.049 A 
ATOM     47  H   UNL     1       2.287   7.621  -5.675  1.00  0.00     0.167 HD
ATOM     48  C   UNL     1      -1.187   7.564  -3.050  1.00  0.00     0.037 A 
ATOM     49  C   UNL     1       4.297   8.880  -7.154  1.00  0.00     0.037 A 
ATOM     50  C   UNL     1      -0.882   8.962  -3.221  1.00  0.00     0.049 A 
ATOM     51  C   UNL     1       3.477   9.986  -6.552  1.00  0.00     0.074 A 
ATOM     52  C   UNL     1      -1.511  10.059  -2.656  1.00  0.00     0.029 A 
ATOM     53  N   UNL     1       0.134   9.456  -4.024  1.00  0.00    -0.354 N 
ATOM     54  N   UNL     1       2.452   9.909  -5.740  1.00  0.00    -0.248 NA
ATOM     55  C   UNL     1       3.861  11.359  -6.910  1.00  0.00     0.031 C 
ATOM     56  C   UNL     1      -0.900  11.218  -3.150  1.00  0.00     0.029 A 
ATOM     57  C   UNL     1       0.137  10.841  -3.987  1.00  0.00     0.049 A 
ATOM     58  H   UNL     1       0.762   8.903  -4.544  1.00  0.00     0.167 HD
ATOM     59  C   UNL     1       2.079  11.221  -5.475  1.00  0.00     0.074 A 
ATOM     60  C   UNL     1       3.003  12.073  -6.195  1.00  0.00     0.031 C 
ATOM     61  C   UNL     1       1.060  11.679  -4.708  1.00  0.00     0.037 A 
BRANCH  48  62
ATOM     62  C   UNL     1      -2.361   7.196  -2.188  1.00  0.00     0.057 A 
ATOM     63  C   UNL     1      -3.671   7.456  -2.613  1.00  0.00     0.134 A 
ATOM     64  C   UNL     1      -2.197   6.609  -0.926  1.00  0.00     0.134 A 
ATOM     65  F   UNL     1      -3.900   8.025  -3.806  1.00  0.00    -0.206 F 
ATOM     66  C   UNL     1      -4.773   7.142  -1.816  1.00  0.00     0.040 A 
ATOM     67  C   UNL     1      -3.293   6.267  -0.131  1.00  0.00     0.040 A 
ATOM     68  F   UNL     1      -0.970   6.324  -0.464  1.00  0.00    -0.206 F 
ATOM     69  C   UNL     1      -4.586   6.538  -0.574  1.00  0.00     0.006 A 
ENDBRANCH  48  62
BRANCH  49  70
ATOM     70  C   UNL     1       5.465   9.194  -8.014  1.00  0.00     0.057 A 
ATOM     71  C   UNL     1       5.442   8.947  -9.392  1.00  0.00     0.134 A 
ATOM     72  C   UNL     1       6.621   9.773  -7.480  1.00  0.00     0.134 A 
ATOM     73  F   UNL     1       4.363   8.392  -9.963  1.00  0.00    -0.206 F 
ATOM     74  C   UNL     1       6.531   9.258 -10.207  1.00  0.00     0.040 A 
ATOM     75  C   UNL     1       7.707  10.113  -8.287  1.00  0.00     0.040 A 
ATOM     76  F   UNL     1       6.693  10.052  -6.170  1.00  0.00    -0.206 F 
ATOM     77  C   UNL     1       7.665   9.851  -9.656  1.00  0.00     0.006 A 
ENDBRANCH  49  70
BRANCH  61  78
ATOM     78  C   UNL     1       0.913  13.168  -4.589  1.00  0.00     0.057 A 
ATOM     79  C   UNL     1       1.236  13.825  -3.395  1.00  0.00     0.134 A 
ATOM     80  C   UNL     1       0.447  13.951  -5.653  1.00  0.00     0.134 A 
ATOM     81  F   UNL     1       1.683  13.133  -2.336  1.00  0.00    -0.206 F 
ATOM     82  C   UNL     1       1.103  15.208  -3.264  1.00  0.00     0.040 A 
ATOM     83  C   UNL     1       0.335  15.338  -5.543  1.00  0.00     0.040 A 
ATOM     84  F   UNL     1       0.137  13.385  -6.829  1.00  0.00    -0.206 F 
ATOM     85  C   UNL     1       0.659  15.970  -4.343  1.00  0.00     0.006 A 
ENDBRANCH  61  78
ENDBRANCH  35  36
ENDBRANCH  27  30
ENDBRANCH  25  26
ENDBRANCH  24  25
ENDBRANCH  23  24
ENDBRANCH   1  23
TORSDOF 16
