REMARK SMILES O=C(NCCCCNC(=O)[C@H]1CC[C@@H](CNC(=O)[C@H]2CCSC2)CC1)c1ccc(-c2c3nc(c(-c4c(F)cccc4F)c4ccc([nH]4)c(-c4c(F)cccc4F)c4nc(c(-c5c(F)cccc5F)c5ccc2[nH]5)C=C4)C=C3)cc1
REMARK SMILES IDX 6 1 5 2 4 3 3 4 1 5 2 6 26 8 27 9 79 10 28 11 78 12 29 13
REMARK SMILES IDX 30 14 31 15 72 16 32 17 77 18 71 19 73 20 33 21 76 22 70 23
REMARK SMILES IDX 69 24 34 26 60 27 43 28 59 29 44 30 47 31 58 32 74 33 45 34
REMARK SMILES IDX 46 35 57 37 75 38 48 39 35 40 36 41 41 42 37 43 38 44 40 45
REMARK SMILES IDX 42 46 39 47 61 48 62 49 67 50 63 51 64 52 66 53 68 54 65 55
REMARK SMILES IDX 49 56 50 57 55 58 51 59 52 60 54 61 56 62 53 63 7 64 8 65
REMARK SMILES IDX 9 66 10 68 11 69 25 70 12 71 24 72 13 73 14 74 15 75 16 76
REMARK SMILES IDX 17 77 18 79 19 80 20 81 23 82 21 83 22 84
REMARK H PARENT 3 7 73 25 47 36 8 67 16 78
REMARK Flexibility Score: inf
ROOT
ATOM      1  C   UNL     1       2.836  11.825 -10.377  1.00  0.00     0.023 C 
ENDROOT
BRANCH   1   2
ATOM      2  C   UNL     1       2.611  12.906 -11.440  1.00  0.00     0.023 C 
BRANCH   2   3
ATOM      3  C   UNL     1       1.158  13.316 -11.633  1.00  0.00     0.116 C 
BRANCH   3   4
ATOM      4  N   UNL     1       0.536  13.851 -10.431  1.00  0.00    -0.352 N 
ATOM      5  O   UNL     1      -0.876  15.183  -9.267  1.00  0.00    -0.269 OA
ATOM      6  C   UNL     1      -0.511  14.744 -10.347  1.00  0.00     0.251 C 
ATOM      7  H   UNL     1       0.907  13.537  -9.574  1.00  0.00     0.163 HD
BRANCH   6   8
ATOM      8  C   UNL     1      -1.153  15.195 -11.599  1.00  0.00     0.039 A 
ATOM      9  C   UNL     1      -1.552  14.261 -12.555  1.00  0.00     0.014 A 
ATOM     10  C   UNL     1      -1.298  16.564 -11.841  1.00  0.00     0.014 A 
ATOM     11  C   UNL     1      -1.947  14.696 -13.811  1.00  0.00     0.010 A 
ATOM     12  C   UNL     1      -1.783  17.000 -13.078  1.00  0.00     0.010 A 
ATOM     13  C   UNL     1      -2.076  16.069 -14.085  1.00  0.00    -0.014 A 
BRANCH  13  14
ATOM     14  C   UNL     1      -2.572  16.479 -15.422  1.00  0.00     0.031 A 
ATOM     15  C   UNL     1      -1.700  17.226 -16.390  1.00  0.00     0.074 A 
ATOM     16  C   UNL     1      -3.811  16.090 -15.784  1.00  0.00     0.049 A 
ATOM     17  N   UNL     1      -1.960  17.581 -17.624  1.00  0.00    -0.248 NA
ATOM     18  C   UNL     1      -0.369  17.636 -15.918  1.00  0.00     0.031 C 
ATOM     19  C   UNL     1      -4.753  15.377 -14.918  1.00  0.00     0.029 A 
ATOM     20  N   UNL     1      -4.475  16.201 -16.977  1.00  0.00    -0.354 N 
ATOM     21  C   UNL     1      -0.836  18.265 -18.070  1.00  0.00     0.074 A 
ATOM     22  C   UNL     1       0.101  18.298 -16.968  1.00  0.00     0.031 C 
ATOM     23  C   UNL     1      -5.844  15.055 -15.626  1.00  0.00     0.029 A 
ATOM     24  C   UNL     1      -5.704  15.589 -16.975  1.00  0.00     0.049 A 
ATOM     25  H   UNL     1      -4.107  16.673 -17.759  1.00  0.00     0.167 HD
ATOM     26  C   UNL     1      -0.608  18.808 -19.291  1.00  0.00     0.037 A 
ATOM     27  C   UNL     1      -6.623  15.473 -17.950  1.00  0.00     0.037 A 
ATOM     28  C   UNL     1      -1.541  18.762 -20.388  1.00  0.00     0.049 A 
ATOM     29  C   UNL     1      -6.334  16.067 -19.295  1.00  0.00     0.074 A 
ATOM     30  C   UNL     1      -1.402  19.283 -21.664  1.00  0.00     0.029 A 
ATOM     31  N   UNL     1      -2.786  18.152 -20.342  1.00  0.00    -0.354 N 
ATOM     32  N   UNL     1      -5.264  16.706 -19.700  1.00  0.00    -0.248 NA
ATOM     33  C   UNL     1      -7.379  15.927 -20.316  1.00  0.00     0.031 C 
ATOM     34  C   UNL     1      -2.574  19.013 -22.380  1.00  0.00     0.029 A 
ATOM     35  C   UNL     1      -3.428  18.291 -21.562  1.00  0.00     0.049 A 
ATOM     36  H   UNL     1      -3.159  17.689 -19.557  1.00  0.00     0.167 HD
ATOM     37  C   UNL     1      -5.508  17.052 -21.021  1.00  0.00     0.074 A 
ATOM     38  C   UNL     1      -6.811  16.515 -21.360  1.00  0.00     0.031 C 
ATOM     39  C   UNL     1      -4.730  17.761 -21.874  1.00  0.00     0.037 A 
BRANCH  26  40
ATOM     40  C   UNL     1       0.701  19.510 -19.508  1.00  0.00     0.057 A 
ATOM     41  C   UNL     1       1.899  18.802 -19.664  1.00  0.00     0.134 A 
ATOM     42  C   UNL     1       0.755  20.905 -19.622  1.00  0.00     0.134 A 
ATOM     43  F   UNL     1       1.918  17.465 -19.554  1.00  0.00    -0.206 F 
ATOM     44  C   UNL     1       3.107  19.457 -19.915  1.00  0.00     0.040 A 
ATOM     45  C   UNL     1       1.953  21.570 -19.893  1.00  0.00     0.040 A 
ATOM     46  F   UNL     1      -0.357  21.643 -19.488  1.00  0.00    -0.206 F 
ATOM     47  C   UNL     1       3.134  20.845 -20.038  1.00  0.00     0.006 A 
ENDBRANCH  26  40
BRANCH  27  48
ATOM     48  C   UNL     1      -7.899  14.769 -17.676  1.00  0.00     0.057 A 
ATOM     49  C   UNL     1      -8.184  13.527 -18.253  1.00  0.00     0.134 A 
ATOM     50  C   UNL     1      -8.854  15.314 -16.809  1.00  0.00     0.134 A 
ATOM     51  F   UNL     1      -7.313  12.961 -19.102  1.00  0.00    -0.206 F 
ATOM     52  C   UNL     1      -9.378  12.857 -17.987  1.00  0.00     0.040 A 
ATOM     53  C   UNL     1     -10.040  14.643 -16.513  1.00  0.00     0.040 A 
ATOM     54  F   UNL     1      -8.633  16.497 -16.217  1.00  0.00    -0.206 F 
ATOM     55  C   UNL     1     -10.307  13.412 -17.108  1.00  0.00     0.006 A 
ENDBRANCH  27  48
BRANCH  39  56
ATOM     56  C   UNL     1      -5.281  17.992 -23.248  1.00  0.00     0.057 A 
ATOM     57  C   UNL     1      -6.321  18.903 -23.475  1.00  0.00     0.134 A 
ATOM     58  C   UNL     1      -4.771  17.298 -24.351  1.00  0.00     0.134 A 
ATOM     59  F   UNL     1      -6.862  19.586 -22.455  1.00  0.00    -0.206 F 
ATOM     60  C   UNL     1      -6.855  19.093 -24.750  1.00  0.00     0.040 A 
ATOM     61  C   UNL     1      -5.282  17.496 -25.634  1.00  0.00     0.040 A 
ATOM     62  F   UNL     1      -3.772  16.416 -24.198  1.00  0.00    -0.206 F 
ATOM     63  C   UNL     1      -6.333  18.390 -25.834  1.00  0.00     0.006 A 
ENDBRANCH  39  56
ENDBRANCH  13  14
ENDBRANCH   6   8
ENDBRANCH   3   4
ENDBRANCH   2   3
ENDBRANCH   1   2
BRANCH   1  64
ATOM     64  C   UNL     1       2.182  10.478 -10.701  1.00  0.00     0.116 C 
BRANCH  64  65
ATOM     65  N   UNL     1       2.918   9.787 -11.738  1.00  0.00    -0.356 N 
ATOM     66  C   UNL     1       3.971   8.932 -11.683  1.00  0.00     0.223 C 
ATOM     67  H   UNL     1       2.596   9.970 -12.650  1.00  0.00     0.163 HD
ATOM     68  O   UNL     1       4.479   8.617 -12.764  1.00  0.00    -0.275 OA
BRANCH  66  69
ATOM     69  C   UNL     1       4.460   8.265 -10.396  1.00  0.00     0.078 C 
ATOM     70  C   UNL     1       4.736   9.164  -9.185  1.00  0.00     0.014 C 
ATOM     71  C   UNL     1       3.556   7.067 -10.078  1.00  0.00     0.014 C 
ATOM     72  C   UNL     1       5.136   8.370  -7.939  1.00  0.00     0.006 C 
ATOM     73  C   UNL     1       4.029   6.315  -8.837  1.00  0.00     0.006 C 
ATOM     74  C   UNL     1       4.152   7.232  -7.611  1.00  0.00     0.008 C 
BRANCH  74  75
ATOM     75  C   UNL     1       2.793   7.781  -7.132  1.00  0.00     0.119 C 
BRANCH  75  76
ATOM     76  N   UNL     1       1.891   6.725  -6.705  1.00  0.00    -0.356 N 
ATOM     77  C   UNL     1       1.202   6.583  -5.536  1.00  0.00     0.223 C 
ATOM     78  H   UNL     1       1.757   6.002  -7.358  1.00  0.00     0.163 HD
ATOM     79  O   UNL     1       0.489   5.591  -5.397  1.00  0.00    -0.275 OA
BRANCH  77  80
ATOM     80  C   UNL     1       1.332   7.655  -4.473  1.00  0.00     0.089 C 
ATOM     81  C   UNL     1       0.528   8.904  -4.833  1.00  0.00     0.025 C 
ATOM     82  C   UNL     1       0.770   7.191  -3.133  1.00  0.00     0.083 C 
ATOM     83  C   UNL     1       0.602   9.824  -3.627  1.00  0.00     0.070 C 
ATOM     84  S   UNL     1       0.520   8.725  -2.188  1.00  0.00    -0.161 SA
ENDBRANCH  77  80
ENDBRANCH  75  76
ENDBRANCH  74  75
ENDBRANCH  66  69
ENDBRANCH  64  65
ENDBRANCH   1  64
TORSDOF 14
