REMARK SMILES O=C(NCCCCNC(=O)c1cnc(Nc2ccccc2)nc1)c1ccc(-c2c3nc(c(-c4c(F)cccc4F)c4ccc([nH]4)c(-c4c(F)cccc4F)c4nc(c(-c5c(F)cccc5F)c5ccc2[nH]5)C=C4)C=C3)cc1
REMARK SMILES IDX 5 1 4 2 3 3 1 4 2 5 24 7 25 8 77 9 26 10 76 11 27 12 28 13
REMARK SMILES IDX 29 14 70 15 30 16 75 17 69 18 71 19 31 20 74 21 68 22 67 23
REMARK SMILES IDX 32 25 58 26 41 27 57 28 42 29 45 30 56 31 72 32 43 33 44 34
REMARK SMILES IDX 55 36 73 37 46 38 33 39 34 40 39 41 35 42 36 43 38 44 40 45
REMARK SMILES IDX 37 46 59 47 60 48 65 49 61 50 62 51 64 52 66 53 63 54 47 55
REMARK SMILES IDX 48 56 53 57 49 58 50 59 52 60 54 61 51 62 6 63 7 64 8 65
REMARK SMILES IDX 9 66 10 68 11 69 12 70 23 71 13 72 22 73 14 74 15 75 16 77
REMARK SMILES IDX 17 78 21 79 18 80 20 81 19 82
REMARK H PARENT 3 6 71 24 45 35 8 67 15 76
REMARK Flexibility Score: inf
ROOT
ATOM      1  C   UNL     1       4.885  -2.369   0.935  1.00  0.00     0.023 C 
ENDROOT
BRANCH   1   2
ATOM      2  C   UNL     1       4.559  -1.238  -0.031  1.00  0.00     0.116 C 
BRANCH   2   3
ATOM      3  N   UNL     1       3.130  -1.054  -0.236  1.00  0.00    -0.352 N 
ATOM      4  O   UNL     1       1.148   0.024  -0.191  1.00  0.00    -0.269 OA
ATOM      5  C   UNL     1       2.370   0.084  -0.101  1.00  0.00     0.251 C 
ATOM      6  H   UNL     1       2.636  -1.861  -0.510  1.00  0.00     0.163 HD
BRANCH   5   7
ATOM      7  C   UNL     1       3.027   1.377   0.187  1.00  0.00     0.039 A 
ATOM      8  C   UNL     1       4.168   1.771  -0.514  1.00  0.00     0.014 A 
ATOM      9  C   UNL     1       2.496   2.201   1.184  1.00  0.00     0.014 A 
ATOM     10  C   UNL     1       4.868   2.902  -0.112  1.00  0.00     0.010 A 
ATOM     11  C   UNL     1       3.154   3.385   1.528  1.00  0.00     0.010 A 
ATOM     12  C   UNL     1       4.367   3.725   0.911  1.00  0.00    -0.014 A 
BRANCH  12  13
ATOM     13  C   UNL     1       5.111   4.953   1.287  1.00  0.00     0.031 A 
ATOM     14  C   UNL     1       5.727   5.104   2.650  1.00  0.00     0.074 A 
ATOM     15  C   UNL     1       5.258   5.928   0.370  1.00  0.00     0.049 A 
ATOM     16  N   UNL     1       6.433   6.098   3.130  1.00  0.00    -0.248 NA
ATOM     17  C   UNL     1       5.518   4.004   3.602  1.00  0.00     0.031 C 
ATOM     18  C   UNL     1       4.700   5.900  -0.984  1.00  0.00     0.029 A 
ATOM     19  N   UNL     1       5.933   7.119   0.427  1.00  0.00    -0.354 N 
ATOM     20  C   UNL     1       6.734   5.755   4.442  1.00  0.00     0.074 A 
ATOM     21  C   UNL     1       6.112   4.471   4.692  1.00  0.00     0.031 C 
ATOM     22  C   UNL     1       5.099   6.995  -1.646  1.00  0.00     0.029 A 
ATOM     23  C   UNL     1       5.889   7.829  -0.747  1.00  0.00     0.049 A 
ATOM     24  H   UNL     1       6.405   7.435   1.232  1.00  0.00     0.167 HD
ATOM     25  C   UNL     1       7.466   6.443   5.351  1.00  0.00     0.037 A 
ATOM     26  C   UNL     1       6.417   9.024  -1.066  1.00  0.00     0.037 A 
ATOM     27  C   UNL     1       8.098   7.712   5.093  1.00  0.00     0.049 A 
ATOM     28  C   UNL     1       7.205   9.776  -0.035  1.00  0.00     0.074 A 
ATOM     29  C   UNL     1       8.895   8.467   5.935  1.00  0.00     0.029 A 
ATOM     30  N   UNL     1       7.998   8.418   3.902  1.00  0.00    -0.354 N 
ATOM     31  N   UNL     1       7.508   9.423   1.190  1.00  0.00    -0.248 NA
ATOM     32  C   UNL     1       7.720  11.093  -0.430  1.00  0.00     0.031 C 
ATOM     33  C   UNL     1       9.242   9.649   5.270  1.00  0.00     0.029 A 
ATOM     34  C   UNL     1       8.699   9.610   3.996  1.00  0.00     0.049 A 
ATOM     35  H   UNL     1       7.502   8.116   3.107  1.00  0.00     0.167 HD
ATOM     36  C   UNL     1       8.264  10.465   1.709  1.00  0.00     0.074 A 
ATOM     37  C   UNL     1       8.385  11.456   0.658  1.00  0.00     0.031 C 
ATOM     38  C   UNL     1       8.808  10.588   2.944  1.00  0.00     0.037 A 
BRANCH  25  39
ATOM     39  C   UNL     1       7.604   5.847   6.723  1.00  0.00     0.057 A 
ATOM     40  C   UNL     1       8.394   4.716   6.966  1.00  0.00     0.134 A 
ATOM     41  C   UNL     1       6.956   6.429   7.820  1.00  0.00     0.134 A 
ATOM     42  F   UNL     1       9.032   4.103   5.957  1.00  0.00    -0.206 F 
ATOM     43  C   UNL     1       8.514   4.170   8.246  1.00  0.00     0.040 A 
ATOM     44  C   UNL     1       7.088   5.906   9.108  1.00  0.00     0.040 A 
ATOM     45  F   UNL     1       6.190   7.518   7.660  1.00  0.00    -0.206 F 
ATOM     46  C   UNL     1       7.863   4.769   9.323  1.00  0.00     0.006 A 
ENDBRANCH  25  39
BRANCH  26  47
ATOM     47  C   UNL     1       6.222   9.569  -2.431  1.00  0.00     0.057 A 
ATOM     48  C   UNL     1       7.283   9.629  -3.341  1.00  0.00     0.134 A 
ATOM     49  C   UNL     1       4.967  10.007  -2.870  1.00  0.00     0.134 A 
ATOM     50  F   UNL     1       8.511   9.236  -2.972  1.00  0.00    -0.206 F 
ATOM     51  C   UNL     1       7.105  10.111  -4.638  1.00  0.00     0.040 A 
ATOM     52  C   UNL     1       4.769  10.468  -4.171  1.00  0.00     0.040 A 
ATOM     53  F   UNL     1       3.910   9.965  -2.046  1.00  0.00    -0.206 F 
ATOM     54  C   UNL     1       5.842  10.524  -5.058  1.00  0.00     0.006 A 
ENDBRANCH  26  47
BRANCH  38  55
ATOM     55  C   UNL     1       9.607  11.828   3.213  1.00  0.00     0.057 A 
ATOM     56  C   UNL     1       8.996  13.075   3.394  1.00  0.00     0.134 A 
ATOM     57  C   UNL     1      11.002  11.770   3.311  1.00  0.00     0.134 A 
ATOM     58  F   UNL     1       7.663  13.200   3.296  1.00  0.00    -0.206 F 
ATOM     59  C   UNL     1       9.747  14.225   3.641  1.00  0.00     0.040 A 
ATOM     60  C   UNL     1      11.763  12.908   3.581  1.00  0.00     0.040 A 
ATOM     61  F   UNL     1      11.648  10.605   3.152  1.00  0.00    -0.206 F 
ATOM     62  C   UNL     1      11.135  14.142   3.741  1.00  0.00     0.006 A 
ENDBRANCH  38  55
ENDBRANCH  12  13
ENDBRANCH   5   7
ENDBRANCH   2   3
ENDBRANCH   1   2
BRANCH   1  63
ATOM     63  C   UNL     1       4.430  -3.758   0.490  1.00  0.00     0.023 C 
BRANCH  63  64
ATOM     64  C   UNL     1       4.900  -4.178  -0.901  1.00  0.00     0.116 C 
BRANCH  64  65
ATOM     65  N   UNL     1       6.354  -4.232  -1.002  1.00  0.00    -0.352 N 
ATOM     66  C   UNL     1       7.157  -5.311  -1.278  1.00  0.00     0.254 C 
ATOM     67  H   UNL     1       6.823  -3.380  -0.853  1.00  0.00     0.163 HD
ATOM     68  O   UNL     1       8.375  -5.241  -1.165  1.00  0.00    -0.269 OA
BRANCH  66  69
ATOM     69  C   UNL     1       6.542  -6.565  -1.695  1.00  0.00     0.076 A 
ATOM     70  C   UNL     1       5.735  -6.650  -2.800  1.00  0.00     0.130 A 
ATOM     71  C   UNL     1       6.693  -7.720  -0.972  1.00  0.00     0.130 A 
ATOM     72  N   UNL     1       5.042  -7.759  -3.114  1.00  0.00    -0.221 NA
ATOM     73  N   UNL     1       6.006  -8.853  -1.246  1.00  0.00    -0.221 NA
ATOM     74  C   UNL     1       5.170  -8.825  -2.301  1.00  0.00     0.227 A 
BRANCH  74  75
ATOM     75  N   UNL     1       4.323  -9.919  -2.439  1.00  0.00    -0.324 N 
ATOM     76  H   UNL     1       4.477 -10.647  -1.794  1.00  0.00     0.170 HD
BRANCH  75  77
ATOM     77  C   UNL     1       3.287 -10.146  -3.350  1.00  0.00     0.041 A 
ATOM     78  C   UNL     1       2.101 -10.745  -2.903  1.00  0.00     0.026 A 
ATOM     79  C   UNL     1       3.337  -9.693  -4.673  1.00  0.00     0.026 A 
ATOM     80  C   UNL     1       1.001 -10.886  -3.755  1.00  0.00     0.002 A 
ATOM     81  C   UNL     1       2.248  -9.847  -5.534  1.00  0.00     0.002 A 
ATOM     82  C   UNL     1       1.076 -10.439  -5.071  1.00  0.00     0.000 A 
ENDBRANCH  75  77
ENDBRANCH  74  75
ENDBRANCH  66  69
ENDBRANCH  64  65
ENDBRANCH  63  64
ENDBRANCH   1  63
TORSDOF 13
