REMARK SMILES CCOc1cc2c(cc1/C=C1/C(=O)N(c3cccc(C(=O)NCCCCNC(=O)c4ccc(-c5c6nc(c(-c7c(F)cccc7F)c7ccc([nH]7)c(-c7c(F)cccc7F)c7nc(c(-c8c(F)cccc8F)c8ccc5[nH]8)C=C7)C=C6)cc4)c3)C(=S)N=C1O)OCO2
REMARK SMILES IDX 23 1 22 2 20 3 21 4 19 6 15 7 16 8 84 9 17 10 18 11 14 12
REMARK SMILES IDX 10 13 11 14 12 15 88 16 13 17 87 18 85 19 86 20 9 21 4 22
REMARK SMILES IDX 5 23 6 24 8 25 7 26 92 27 90 28 91 29 3 30 2 31 1 32 89 33
REMARK SMILES IDX 24 35 25 36 26 37 27 38 28 39 29 41 30 42 31 43 83 44 32 45
REMARK SMILES IDX 82 46 33 47 34 48 35 49 76 50 36 51 81 52 75 53 77 54 37 55
REMARK SMILES IDX 80 56 74 57 73 58 38 60 64 61 47 62 63 63 48 64 51 65 62 66
REMARK SMILES IDX 78 67 49 68 50 69 61 71 79 72 52 73 39 74 40 75 45 76 41 77
REMARK SMILES IDX 42 78 44 79 46 80 43 81 65 82 66 83 71 84 67 85 68 86 70 87
REMARK SMILES IDX 72 88 69 89 53 90 54 91 59 92 55 93 56 94 58 95 60 96 57 97
REMARK H PARENT 22 5 89 34 27 40 77 59 51 70
REMARK Flexibility Score: inf
ROOT
ATOM      1  C   UNL     1       0.200   9.327  -2.758  1.00  0.00     0.116 C 
ENDROOT
BRANCH   1   2
ATOM      2  N   UNL     1      -0.936   9.973  -3.397  1.00  0.00    -0.352 N 
ATOM      3  C   UNL     1      -1.475   9.826  -4.659  1.00  0.00     0.251 C 
ATOM      4  O   UNL     1      -2.456  10.504  -4.961  1.00  0.00    -0.269 OA
ATOM      5  H   UNL     1      -1.401  10.630  -2.830  1.00  0.00     0.163 HD
BRANCH   3   6
ATOM      6  C   UNL     1      -0.861   8.938  -5.686  1.00  0.00     0.041 A 
ATOM      7  C   UNL     1       0.687   7.161  -6.263  1.00  0.00     0.052 A 
ATOM      8  C   UNL     1       0.619   7.562  -7.606  1.00  0.00     0.027 A 
ATOM      9  C   UNL     1      -0.179   7.768  -5.348  1.00  0.00     0.040 A 
ATOM     10  C   UNL     1      -0.203   8.624  -7.992  1.00  0.00     0.003 A 
ATOM     11  C   UNL     1      -0.908   9.339  -7.026  1.00  0.00     0.014 A 
BRANCH   7  12
ATOM     12  N   UNL     1       1.718   6.258  -5.793  1.00  0.00    -0.251 N 
ATOM     13  C   UNL     1       2.279   3.695  -3.230  1.00  0.00     0.031 C 
ATOM     14  C   UNL     1       2.495   4.436  -4.343  1.00  0.00     0.103 C 
ATOM     15  C   UNL     1       1.364   5.283  -4.843  1.00  0.00     0.270 C 
ATOM     16  C   UNL     1       3.690   4.517  -5.174  1.00  0.00     0.226 C 
ATOM     17  O   UNL     1       0.226   5.103  -4.410  1.00  0.00    -0.268 OA
ATOM     18  N   UNL     1       3.956   5.428  -6.027  1.00  0.00    -0.184 NA
ATOM     19  C   UNL     1       3.067   6.464  -6.173  1.00  0.00     0.210 C 
ATOM     20  S   UNL     1       3.713   7.941  -6.727  1.00  0.00    -0.038 S 
BRANCH  13  21
ATOM     21  C   UNL     1       3.157   2.716  -2.544  1.00  0.00     0.021 A 
ATOM     22  C   UNL     1       2.622   1.494  -2.053  1.00  0.00     0.130 A 
ATOM     23  C   UNL     1       3.452   0.451  -1.626  1.00  0.00     0.097 A 
ATOM     24  C   UNL     1       4.802   0.688  -1.587  1.00  0.00     0.169 A 
ATOM     25  C   UNL     1       4.530   2.951  -2.365  1.00  0.00     0.062 A 
ATOM     26  C   UNL     1       5.325   1.912  -1.920  1.00  0.00     0.166 A 
ATOM     27  O   UNL     1       5.756  -0.210  -1.228  1.00  0.00    -0.453 OA
ATOM     28  O   UNL     1       6.680   1.940  -1.806  1.00  0.00    -0.454 OA
ATOM     29  C   UNL     1       6.950   0.566  -1.454  1.00  0.00     0.468 C 
BRANCH  22  30
ATOM     30  O   UNL     1       1.265   1.268  -2.046  1.00  0.00    -0.493 OA
BRANCH  30  31
ATOM     31  C   UNL     1       0.709   1.458  -0.730  1.00  0.00     0.226 C 
ATOM     32  C   UNL     1       0.711   0.174   0.089  1.00  0.00     0.049 C 
ENDBRANCH  30  31
ENDBRANCH  22  30
ENDBRANCH  13  21
BRANCH  16  33
ATOM     33  O   UNL     1       4.583   3.535  -5.078  1.00  0.00    -0.493 OA
ATOM     34  H   UNL     1       4.447   2.836  -4.470  1.00  0.00     0.295 HD
ENDBRANCH  16  33
ENDBRANCH   7  12
ENDBRANCH   3   6
ENDBRANCH   1   2
BRANCH   1  35
ATOM     35  C   UNL     1       1.114  10.256  -1.973  1.00  0.00     0.023 C 
BRANCH  35  36
ATOM     36  C   UNL     1       0.503  10.956  -0.768  1.00  0.00     0.023 C 
BRANCH  36  37
ATOM     37  C   UNL     1      -0.234  10.066   0.226  1.00  0.00     0.116 C 
BRANCH  37  38
ATOM     38  N   UNL     1       0.563   8.961   0.737  1.00  0.00    -0.352 N 
ATOM     39  C   UNL     1       0.775   8.540   2.032  1.00  0.00     0.251 C 
ATOM     40  H   UNL     1       1.024   8.430   0.049  1.00  0.00     0.163 HD
ATOM     41  O   UNL     1       1.546   7.618   2.249  1.00  0.00    -0.269 OA
BRANCH  39  42
ATOM     42  C   UNL     1       0.109   9.228   3.164  1.00  0.00     0.039 A 
ATOM     43  C   UNL     1       0.864   9.507   4.307  1.00  0.00     0.014 A 
ATOM     44  C   UNL     1      -1.235   9.604   3.109  1.00  0.00     0.014 A 
ATOM     45  C   UNL     1       0.292  10.232   5.355  1.00  0.00     0.010 A 
ATOM     46  C   UNL     1      -1.775  10.404   4.114  1.00  0.00     0.010 A 
ATOM     47  C   UNL     1      -1.018  10.728   5.248  1.00  0.00    -0.014 A 
BRANCH  47  48
ATOM     48  C   UNL     1      -1.584  11.602   6.309  1.00  0.00     0.031 A 
ATOM     49  C   UNL     1      -2.784  11.171   7.107  1.00  0.00     0.074 A 
ATOM     50  C   UNL     1      -1.033  12.813   6.529  1.00  0.00     0.049 A 
ATOM     51  N   UNL     1      -3.386  11.790   8.092  1.00  0.00    -0.248 NA
ATOM     52  C   UNL     1      -3.406   9.890   6.736  1.00  0.00     0.031 C 
ATOM     53  C   UNL     1       0.083  13.384   5.772  1.00  0.00     0.029 A 
ATOM     54  N   UNL     1      -1.333  13.780   7.456  1.00  0.00    -0.354 N 
ATOM     55  C   UNL     1      -4.456  10.980   8.451  1.00  0.00     0.074 A 
ATOM     56  C   UNL     1      -4.458   9.857   7.540  1.00  0.00     0.031 C 
ATOM     57  C   UNL     1       0.401  14.580   6.291  1.00  0.00     0.029 A 
ATOM     58  C   UNL     1      -0.504  14.874   7.397  1.00  0.00     0.049 A 
ATOM     59  H   UNL     1      -2.071  13.697   8.101  1.00  0.00     0.167 HD
ATOM     60  C   UNL     1      -5.340  11.141   9.466  1.00  0.00     0.037 A 
ATOM     61  C   UNL     1      -0.469  15.985   8.157  1.00  0.00     0.037 A 
ATOM     62  C   UNL     1      -5.327  12.252  10.382  1.00  0.00     0.049 A 
ATOM     63  C   UNL     1      -1.443  16.128   9.292  1.00  0.00     0.074 A 
ATOM     64  C   UNL     1      -6.141  12.474  11.480  1.00  0.00     0.029 A 
ATOM     65  N   UNL     1      -4.460  13.331  10.304  1.00  0.00    -0.354 N 
ATOM     66  N   UNL     1      -2.391  15.309   9.678  1.00  0.00    -0.248 NA
ATOM     67  C   UNL     1      -1.329  17.343  10.109  1.00  0.00     0.031 C 
ATOM     68  C   UNL     1      -5.795  13.710  12.039  1.00  0.00     0.029 A 
ATOM     69  C   UNL     1      -4.731  14.232  11.322  1.00  0.00     0.049 A 
ATOM     70  H   UNL     1      -3.755  13.440   9.625  1.00  0.00     0.167 HD
ATOM     71  C   UNL     1      -2.971  15.896  10.794  1.00  0.00     0.074 A 
ATOM     72  C   UNL     1      -2.249  17.128  11.039  1.00  0.00     0.031 C 
ATOM     73  C   UNL     1      -4.008  15.458  11.549  1.00  0.00     0.037 A 
BRANCH  60  74
ATOM     74  C   UNL     1      -6.393  10.083   9.640  1.00  0.00     0.057 A 
ATOM     75  C   UNL     1      -6.075   8.789  10.078  1.00  0.00     0.134 A 
ATOM     76  C   UNL     1      -7.742  10.367   9.398  1.00  0.00     0.134 A 
ATOM     77  F   UNL     1      -4.800   8.446  10.316  1.00  0.00    -0.206 F 
ATOM     78  C   UNL     1      -7.056   7.810  10.240  1.00  0.00     0.040 A 
ATOM     79  C   UNL     1      -8.737   9.404   9.585  1.00  0.00     0.040 A 
ATOM     80  F   UNL     1      -8.119  11.585   8.983  1.00  0.00    -0.206 F 
ATOM     81  C   UNL     1      -8.394   8.119  10.000  1.00  0.00     0.006 A 
ENDBRANCH  60  74
BRANCH  61  82
ATOM     82  C   UNL     1       0.552  17.032   7.897  1.00  0.00     0.057 A 
ATOM     83  C   UNL     1       1.605  17.254   8.793  1.00  0.00     0.134 A 
ATOM     84  C   UNL     1       0.497  17.840   6.755  1.00  0.00     0.134 A 
ATOM     85  F   UNL     1       1.702  16.524   9.914  1.00  0.00    -0.206 F 
ATOM     86  C   UNL     1       2.552  18.256   8.576  1.00  0.00     0.040 A 
ATOM     87  C   UNL     1       1.453  18.828   6.512  1.00  0.00     0.040 A 
ATOM     88  F   UNL     1      -0.481  17.672   5.853  1.00  0.00    -0.206 F 
ATOM     89  C   UNL     1       2.480  19.043   7.429  1.00  0.00     0.006 A 
ENDBRANCH  61  82
BRANCH  73  90
ATOM     90  C   UNL     1      -4.400  16.307  12.724  1.00  0.00     0.057 A 
ATOM     91  C   UNL     1      -5.009  17.559  12.565  1.00  0.00     0.134 A 
ATOM     92  C   UNL     1      -4.163  15.867  14.033  1.00  0.00     0.134 A 
ATOM     93  F   UNL     1      -5.253  18.045  11.338  1.00  0.00    -0.206 F 
ATOM     94  C   UNL     1      -5.331  18.360  13.662  1.00  0.00     0.040 A 
ATOM     95  C   UNL     1      -4.509  16.645  15.139  1.00  0.00     0.040 A 
ATOM     96  F   UNL     1      -3.593  14.674  14.259  1.00  0.00    -0.206 F 
ATOM     97  C   UNL     1      -5.083  17.901  14.954  1.00  0.00     0.006 A 
ENDBRANCH  73  90
ENDBRANCH  47  48
ENDBRANCH  39  42
ENDBRANCH  37  38
ENDBRANCH  36  37
ENDBRANCH  35  36
ENDBRANCH   1  35
TORSDOF 16
