REMARK SMILES O=C(NCCCCNC(=O)C1CCN(c2ccc(C(F)(F)F)cc2[N+](=O)[O-])CC1)c1ccc(-c2c3nc(c(-c4c(F)cccc4F)c4ccc([nH]4)c(-c4c(F)cccc4F)c4nc(c(-c5c(F)cccc5F)c5ccc2[nH]5)C=C4)C=C3)cc1
REMARK SMILES IDX 5 1 4 2 3 3 1 4 2 5 30 7 31 8 83 9 32 10 82 11 33 12 34 13
REMARK SMILES IDX 35 14 76 15 36 16 81 17 75 18 77 19 37 20 80 21 74 22 73 23
REMARK SMILES IDX 38 25 64 26 47 27 63 28 48 29 51 30 62 31 78 32 49 33 50 34
REMARK SMILES IDX 61 36 79 37 52 38 39 39 40 40 45 41 41 42 42 43 44 44 46 45
REMARK SMILES IDX 43 46 65 47 66 48 71 49 67 50 68 51 70 52 72 53 69 54 53 55
REMARK SMILES IDX 54 56 59 57 55 58 56 59 58 60 60 61 57 62 6 63 7 64 8 65
REMARK SMILES IDX 9 66 10 68 11 69 12 70 29 71 13 72 28 73 14 74 15 75 16 76
REMARK SMILES IDX 24 77 17 78 23 79 18 80 25 81 26 82 27 83 19 84 20 85 21 86
REMARK SMILES IDX 22 87
REMARK H PARENT 3 6 77 24 51 35 8 67
REMARK Flexibility Score: inf
ROOT
ATOM      1  C   UNL     1       4.674  -0.291  -2.806  1.00  0.00     0.023 C 
ENDROOT
BRANCH   1   2
ATOM      2  C   UNL     1       4.414   0.145  -1.370  1.00  0.00     0.116 C 
BRANCH   2   3
ATOM      3  N   UNL     1       3.001   0.312  -1.064  1.00  0.00    -0.352 N 
ATOM      4  O   UNL     1       1.090   0.018   0.106  1.00  0.00    -0.269 OA
ATOM      5  C   UNL     1       2.310  -0.102   0.051  1.00  0.00     0.251 C 
ATOM      6  H   UNL     1       2.469   0.784  -1.746  1.00  0.00     0.163 HD
BRANCH   5   7
ATOM      7  C   UNL     1       3.045  -0.727   1.171  1.00  0.00     0.039 A 
ATOM      8  C   UNL     1       4.227  -0.156   1.645  1.00  0.00     0.014 A 
ATOM      9  C   UNL     1       2.561  -1.911   1.734  1.00  0.00     0.014 A 
ATOM     10  C   UNL     1       5.002  -0.847   2.567  1.00  0.00     0.010 A 
ATOM     11  C   UNL     1       3.300  -2.561   2.729  1.00  0.00     0.010 A 
ATOM     12  C   UNL     1       4.544  -2.053   3.127  1.00  0.00    -0.014 A 
BRANCH  12  13
ATOM     13  C   UNL     1       5.374  -2.714   4.166  1.00  0.00     0.031 A 
ATOM     14  C   UNL     1       6.011  -4.054   3.929  1.00  0.00     0.074 A 
ATOM     15  C   UNL     1       5.606  -2.048   5.314  1.00  0.00     0.049 A 
ATOM     16  N   UNL     1       6.831  -4.721   4.704  1.00  0.00    -0.248 NA
ATOM     17  C   UNL     1       5.687  -4.740   2.670  1.00  0.00     0.031 C 
ATOM     18  C   UNL     1       5.021  -0.751   5.666  1.00  0.00     0.029 A 
ATOM     19  N   UNL     1       6.417  -2.346   6.378  1.00  0.00    -0.354 N 
ATOM     20  C   UNL     1       7.113  -5.905   4.033  1.00  0.00     0.074 A 
ATOM     21  C   UNL     1       6.353  -5.880   2.801  1.00  0.00     0.031 C 
ATOM     22  C   UNL     1       5.540  -0.337   6.830  1.00  0.00     0.029 A 
ATOM     23  C   UNL     1       6.449  -1.360   7.333  1.00  0.00     0.049 A 
ATOM     24  H   UNL     1       6.928  -3.185   6.450  1.00  0.00     0.167 HD
ATOM     25  C   UNL     1       7.937  -6.913   4.408  1.00  0.00     0.037 A 
ATOM     26  C   UNL     1       7.132  -1.284   8.489  1.00  0.00     0.037 A 
ATOM     27  C   UNL     1       8.699  -6.931   5.631  1.00  0.00     0.049 A 
ATOM     28  C   UNL     1       8.047  -2.409   8.870  1.00  0.00     0.074 A 
ATOM     29  C   UNL     1       9.564  -7.907   6.096  1.00  0.00     0.029 A 
ATOM     30  N   UNL     1       8.690  -5.922   6.582  1.00  0.00    -0.354 N 
ATOM     31  N   UNL     1       8.312  -3.513   8.216  1.00  0.00    -0.248 NA
ATOM     32  C   UNL     1       8.758  -2.278  10.149  1.00  0.00     0.031 C 
ATOM     33  C   UNL     1      10.057  -7.502   7.342  1.00  0.00     0.029 A 
ATOM     34  C   UNL     1       9.528  -6.255   7.635  1.00  0.00     0.049 A 
ATOM     35  H   UNL     1       8.167  -5.091   6.519  1.00  0.00     0.167 HD
ATOM     36  C   UNL     1       9.218  -4.210   9.002  1.00  0.00     0.074 A 
ATOM     37  C   UNL     1       9.485  -3.386  10.164  1.00  0.00     0.031 C 
ATOM     38  C   UNL     1       9.772  -5.428   8.787  1.00  0.00     0.037 A 
BRANCH  25  39
ATOM     39  C   UNL     1       8.060  -8.091   3.485  1.00  0.00     0.057 A 
ATOM     40  C   UNL     1       8.783  -8.015   2.288  1.00  0.00     0.134 A 
ATOM     41  C   UNL     1       7.500  -9.330   3.824  1.00  0.00     0.134 A 
ATOM     42  F   UNL     1       9.334  -6.855   1.899  1.00  0.00    -0.206 F 
ATOM     43  C   UNL     1       8.935  -9.126   1.455  1.00  0.00     0.040 A 
ATOM     44  C   UNL     1       7.663 -10.452   3.010  1.00  0.00     0.040 A 
ATOM     45  F   UNL     1       6.801  -9.473   4.960  1.00  0.00    -0.206 F 
ATOM     46  C   UNL     1       8.380 -10.351   1.819  1.00  0.00     0.006 A 
ENDBRANCH  25  39
BRANCH  26  47
ATOM     47  C   UNL     1       6.968  -0.098   9.364  1.00  0.00     0.057 A 
ATOM     48  C   UNL     1       8.000   0.832   9.530  1.00  0.00     0.134 A 
ATOM     49  C   UNL     1       5.766   0.141  10.041  1.00  0.00     0.134 A 
ATOM     50  F   UNL     1       9.179   0.648   8.918  1.00  0.00    -0.206 F 
ATOM     51  C   UNL     1       7.848   1.950  10.350  1.00  0.00     0.040 A 
ATOM     52  C   UNL     1       5.591   1.269  10.842  1.00  0.00     0.040 A 
ATOM     53  F   UNL     1       4.737  -0.709   9.913  1.00  0.00    -0.206 F 
ATOM     54  C   UNL     1       6.637   2.174  11.004  1.00  0.00     0.006 A 
ENDBRANCH  26  47
BRANCH  38  55
ATOM     55  C   UNL     1      10.719  -5.929   9.835  1.00  0.00     0.057 A 
ATOM     56  C   UNL     1      10.262  -6.382  11.079  1.00  0.00     0.134 A 
ATOM     57  C   UNL     1      12.098  -5.961   9.598  1.00  0.00     0.134 A 
ATOM     58  F   UNL     1       8.952  -6.362  11.371  1.00  0.00    -0.206 F 
ATOM     59  C   UNL     1      11.147  -6.823  12.063  1.00  0.00     0.040 A 
ATOM     60  C   UNL     1      12.991  -6.420  10.566  1.00  0.00     0.040 A 
ATOM     61  F   UNL     1      12.598  -5.545   8.425  1.00  0.00    -0.206 F 
ATOM     62  C   UNL     1      12.517  -6.846  11.806  1.00  0.00     0.006 A 
ENDBRANCH  38  55
ENDBRANCH  12  13
ENDBRANCH   5   7
ENDBRANCH   2   3
ENDBRANCH   1   2
BRANCH   1  63
ATOM     63  C   UNL     1       4.202   0.688  -3.881  1.00  0.00     0.023 C 
BRANCH  63  64
ATOM     64  C   UNL     1       4.719   2.115  -3.718  1.00  0.00     0.116 C 
BRANCH  64  65
ATOM     65  N   UNL     1       6.168   2.175  -3.779  1.00  0.00    -0.356 N 
ATOM     66  C   UNL     1       6.975   2.644  -4.775  1.00  0.00     0.223 C 
ATOM     67  H   UNL     1       6.638   1.827  -2.986  1.00  0.00     0.163 HD
ATOM     68  O   UNL     1       8.189   2.484  -4.665  1.00  0.00    -0.275 OA
BRANCH  66  69
ATOM     69  C   UNL     1       6.340   3.365  -5.955  1.00  0.00     0.082 C 
ATOM     70  C   UNL     1       7.291   3.442  -7.163  1.00  0.00     0.035 C 
ATOM     71  C   UNL     1       5.849   4.760  -5.525  1.00  0.00     0.035 C 
ATOM     72  C   UNL     1       8.372   4.513  -7.021  1.00  0.00     0.117 C 
ATOM     73  C   UNL     1       6.997   5.757  -5.372  1.00  0.00     0.117 C 
ATOM     74  N   UNL     1       7.743   5.768  -6.621  1.00  0.00    -0.366 N 
BRANCH  74  75
ATOM     75  C   UNL     1       8.047   6.938  -7.281  1.00  0.00     0.116 A 
ATOM     76  C   UNL     1       7.622   7.068  -8.615  1.00  0.00     0.034 A 
ATOM     77  C   UNL     1       8.707   8.048  -6.729  1.00  0.00     0.293 A 
ATOM     78  C   UNL     1       7.812   8.247  -9.345  1.00  0.00     0.016 A 
ATOM     79  C   UNL     1       8.909   9.242  -7.448  1.00  0.00     0.101 A 
ATOM     80  C   UNL     1       8.452   9.351  -8.767  1.00  0.00     0.062 A 
BRANCH  77  81
ATOM     81  N   UNL     1       9.256   7.995  -5.385  1.00  0.00     0.064 N 
ATOM     82  O   UNL     1       8.898   8.888  -4.602  1.00  0.00    -0.258 OA
ATOM     83  O   UNL     1      10.076   7.104  -5.126  1.00  0.00    -0.258 OA
ENDBRANCH  77  81
BRANCH  80  84
ATOM     84  C   UNL     1       8.632  10.620  -9.565  1.00  0.00     0.416 C 
ATOM     85  F   UNL     1       9.352  10.419 -10.701  1.00  0.00    -0.166 F 
ATOM     86  F   UNL     1       7.444  11.154  -9.961  1.00  0.00    -0.166 F 
ATOM     87  F   UNL     1       9.276  11.603  -8.880  1.00  0.00    -0.166 F 
ENDBRANCH  80  84
ENDBRANCH  74  75
ENDBRANCH  66  69
ENDBRANCH  64  65
ENDBRANCH  63  64
ENDBRANCH   1  63
TORSDOF 14
