REMARK SMILES Cc1c(CC(=O)NCCCCNC(=O)c2ccc(-c3c4nc(c(-c5c(F)cccc5F)c5ccc([nH]5)c(-c5c(F)cccc5F)c5nc(c(-c6c(F)cccc6F)c6ccc3[nH]6)C=C5)C=C4)cc2)cc(-c2ccc(S(C)(=O)=O)cc2)n1-c1cccc(F)c1
REMARK SMILES IDX 9 1 8 2 7 3 5 4 6 5 4 7 3 8 1 9 2 10 81 11 69 12 70 13 82 14
REMARK SMILES IDX 83 15 88 16 84 17 86 18 85 19 87 20 71 21 72 22 80 23 73 24
REMARK SMILES IDX 79 25 74 26 75 27 76 28 77 29 78 30 10 31 11 32 12 33 13 34
REMARK SMILES IDX 14 36 15 37 16 38 68 39 17 40 67 41 18 42 19 43 20 44 61 45
REMARK SMILES IDX 21 46 66 47 60 48 62 49 22 50 65 51 59 52 58 53 23 55 49 56
REMARK SMILES IDX 32 57 48 58 33 59 36 60 47 61 63 62 34 63 35 64 46 66 64 67
REMARK SMILES IDX 37 68 24 69 25 70 30 71 26 72 27 73 29 74 31 75 28 76 50 77
REMARK SMILES IDX 51 78 56 79 52 80 53 81 55 82 57 83 54 84 38 85 39 86 44 87
REMARK SMILES IDX 40 88 41 89 43 90 45 91 42 92
REMARK H PARENT 7 6 12 35 62 54 36 65
REMARK Flexibility Score: inf
ROOT
ATOM      1  C   UNL     1       2.503   1.608  -4.973  1.00  0.00     0.023 C 
ENDROOT
BRANCH   1   2
ATOM      2  C   UNL     1       1.035   1.160  -4.910  1.00  0.00     0.116 C 
BRANCH   2   3
ATOM      3  N   UNL     1       0.847  -0.104  -4.228  1.00  0.00    -0.356 N 
ATOM      4  C   UNL     1      -0.007  -0.453  -3.221  1.00  0.00     0.224 C 
ATOM      5  O   UNL     1      -0.048  -1.648  -2.907  1.00  0.00    -0.275 OA
ATOM      6  H   UNL     1       1.432  -0.832  -4.541  1.00  0.00     0.163 HD
BRANCH   4   7
ATOM      7  C   UNL     1      -0.911   0.563  -2.538  1.00  0.00     0.137 C 
BRANCH   7   8
ATOM      8  C   UNL     1      -0.190   1.538  -1.654  1.00  0.00    -0.017 A 
ATOM      9  C   UNL     1       1.057  -0.047  -0.012  1.00  0.00     0.065 C 
ATOM     10  C   UNL     1       0.687   1.275  -0.608  1.00  0.00     0.024 A 
ATOM     11  N   UNL     1       1.136   2.489  -0.092  1.00  0.00    -0.313 N 
ATOM     12  C   UNL     1      -0.358   2.947  -1.692  1.00  0.00     0.033 A 
ATOM     13  C   UNL     1       0.484   3.526  -0.760  1.00  0.00     0.053 A 
BRANCH  11  14
ATOM     14  C   UNL     1       2.106   2.652   0.936  1.00  0.00     0.049 A 
ATOM     15  C   UNL     1       1.849   3.511   2.015  1.00  0.00     0.027 A 
ATOM     16  C   UNL     1       3.344   2.013   0.826  1.00  0.00     0.065 A 
ATOM     17  C   UNL     1       2.831   3.726   2.984  1.00  0.00     0.005 A 
ATOM     18  C   UNL     1       4.315   2.252   1.791  1.00  0.00     0.125 A 
ATOM     19  C   UNL     1       4.071   3.099   2.867  1.00  0.00     0.039 A 
ATOM     20  F   UNL     1       5.518   1.676   1.668  1.00  0.00    -0.207 F 
ENDBRANCH  11  14
BRANCH  13  21
ATOM     21  C   UNL     1       0.768   4.956  -0.593  1.00  0.00    -0.001 A 
ATOM     22  C   UNL     1       2.068   5.447  -0.792  1.00  0.00     0.011 A 
ATOM     23  C   UNL     1      -0.258   5.851  -0.265  1.00  0.00     0.011 A 
ATOM     24  C   UNL     1       2.350   6.803  -0.630  1.00  0.00     0.021 A 
ATOM     25  C   UNL     1       0.016   7.213  -0.100  1.00  0.00     0.021 A 
ATOM     26  C   UNL     1       1.324   7.677  -0.271  1.00  0.00     0.067 A 
BRANCH  26  27
ATOM     27  S   UNL     1       1.678   9.407  -0.065  1.00  0.00     0.175 S 
ATOM     28  C   UNL     1       2.761   9.455   1.341  1.00  0.00     0.163 C 
ATOM     29  O   UNL     1       2.461   9.810  -1.244  1.00  0.00    -0.224 OA
ATOM     30  O   UNL     1       0.469  10.077   0.281  1.00  0.00    -0.224 OA
ENDBRANCH  26  27
ENDBRANCH  13  21
ENDBRANCH   7   8
ENDBRANCH   4   7
ENDBRANCH   2   3
ENDBRANCH   1   2
BRANCH   1  31
ATOM     31  C   UNL     1       3.589   0.634  -5.521  1.00  0.00     0.023 C 
BRANCH  31  32
ATOM     32  C   UNL     1       3.393  -0.098  -6.882  1.00  0.00     0.116 C 
BRANCH  32  33
ATOM     33  N   UNL     1       4.332   0.348  -7.925  1.00  0.00    -0.352 N 
ATOM     34  C   UNL     1       5.296  -0.212  -8.756  1.00  0.00     0.251 C 
ATOM     35  H   UNL     1       4.256   1.318  -8.077  1.00  0.00     0.163 HD
ATOM     36  O   UNL     1       5.900   0.607  -9.462  1.00  0.00    -0.269 OA
BRANCH  34  37
ATOM     37  C   UNL     1       5.702  -1.673  -8.917  1.00  0.00     0.039 A 
ATOM     38  C   UNL     1       7.058  -2.008  -9.140  1.00  0.00     0.014 A 
ATOM     39  C   UNL     1       4.825  -2.704  -9.199  1.00  0.00     0.014 A 
ATOM     40  C   UNL     1       7.527  -3.317  -9.605  1.00  0.00     0.010 A 
ATOM     41  C   UNL     1       5.302  -4.020  -9.644  1.00  0.00     0.010 A 
ATOM     42  C   UNL     1       6.678  -4.415  -9.902  1.00  0.00    -0.014 A 
BRANCH  42  43
ATOM     43  C   UNL     1       7.210  -5.490 -11.129  1.00  0.00     0.031 A 
ATOM     44  C   UNL     1       7.296  -4.565 -12.328  1.00  0.00     0.074 A 
ATOM     45  C   UNL     1       7.279  -6.861 -11.551  1.00  0.00     0.049 A 
ATOM     46  N   UNL     1       6.264  -3.794 -12.504  1.00  0.00    -0.248 NA
ATOM     47  C   UNL     1       8.166  -4.655 -13.497  1.00  0.00     0.031 C 
ATOM     48  C   UNL     1       7.515  -7.300 -12.981  1.00  0.00     0.029 A 
ATOM     49  N   UNL     1       7.058  -8.171 -11.034  1.00  0.00    -0.354 N 
ATOM     50  C   UNL     1       5.986  -3.925 -13.829  1.00  0.00     0.074 A 
ATOM     51  C   UNL     1       7.256  -4.341 -14.434  1.00  0.00     0.031 C 
ATOM     52  C   UNL     1       7.646  -8.626 -13.173  1.00  0.00     0.029 A 
ATOM     53  C   UNL     1       7.340  -9.299 -11.931  1.00  0.00     0.049 A 
ATOM     54  H   UNL     1       6.730  -8.313 -10.116  1.00  0.00     0.167 HD
ATOM     55  C   UNL     1       4.774  -4.468 -14.155  1.00  0.00     0.037 A 
ATOM     56  C   UNL     1       6.843 -10.587 -11.978  1.00  0.00     0.037 A 
ATOM     57  C   UNL     1       4.190  -5.534 -13.331  1.00  0.00     0.049 A 
ATOM     58  C   UNL     1       5.368 -10.431 -12.122  1.00  0.00     0.074 A 
ATOM     59  C   UNL     1       4.250  -5.965 -12.026  1.00  0.00     0.029 A 
ATOM     60  N   UNL     1       3.264  -6.405 -13.863  1.00  0.00    -0.354 N 
ATOM     61  N   UNL     1       4.681 -10.373 -13.229  1.00  0.00    -0.248 NA
ATOM     62  C   UNL     1       4.614 -10.333 -10.885  1.00  0.00     0.031 C 
ATOM     63  C   UNL     1       3.365  -7.015 -11.756  1.00  0.00     0.029 A 
ATOM     64  C   UNL     1       3.091  -7.496 -13.010  1.00  0.00     0.049 A 
ATOM     65  H   UNL     1       2.794  -6.276 -14.718  1.00  0.00     0.167 HD
ATOM     66  C   UNL     1       3.455  -9.856 -12.830  1.00  0.00     0.074 A 
ATOM     67  C   UNL     1       3.432  -9.984 -11.378  1.00  0.00     0.031 C 
ATOM     68  C   UNL     1       2.936  -8.822 -13.550  1.00  0.00     0.037 A 
BRANCH  55  69
ATOM     69  C   UNL     1       3.897  -3.343 -14.621  1.00  0.00     0.057 A 
ATOM     70  C   UNL     1       4.372  -2.367 -15.513  1.00  0.00     0.134 A 
ATOM     71  C   UNL     1       2.589  -3.174 -14.137  1.00  0.00     0.134 A 
ATOM     72  F   UNL     1       5.617  -2.430 -16.014  1.00  0.00    -0.206 F 
ATOM     73  C   UNL     1       3.588  -1.286 -15.902  1.00  0.00     0.040 A 
ATOM     74  C   UNL     1       1.783  -2.123 -14.557  1.00  0.00     0.040 A 
ATOM     75  F   UNL     1       2.050  -4.003 -13.231  1.00  0.00    -0.206 F 
ATOM     76  C   UNL     1       2.282  -1.175 -15.440  1.00  0.00     0.006 A 
ENDBRANCH  55  69
BRANCH  56  77
ATOM     77  C   UNL     1       7.213 -11.990 -12.447  1.00  0.00     0.057 A 
ATOM     78  C   UNL     1       7.577 -12.518 -13.697  1.00  0.00     0.134 A 
ATOM     79  C   UNL     1       6.891 -12.973 -11.477  1.00  0.00     0.134 A 
ATOM     80  F   UNL     1       7.865 -11.719 -14.734  1.00  0.00    -0.206 F 
ATOM     81  C   UNL     1       7.609 -13.923 -13.943  1.00  0.00     0.040 A 
ATOM     82  C   UNL     1       6.892 -14.356 -11.711  1.00  0.00     0.040 A 
ATOM     83  F   UNL     1       6.503 -12.580 -10.252  1.00  0.00    -0.206 F 
ATOM     84  C   UNL     1       7.253 -14.843 -12.955  1.00  0.00     0.006 A 
ENDBRANCH  56  77
BRANCH  68  85
ATOM     85  C   UNL     1       2.732  -9.026 -15.003  1.00  0.00     0.057 A 
ATOM     86  C   UNL     1       1.541  -9.633 -15.400  1.00  0.00     0.134 A 
ATOM     87  C   UNL     1       3.515  -8.401 -15.983  1.00  0.00     0.134 A 
ATOM     88  F   UNL     1       0.762 -10.255 -14.500  1.00  0.00    -0.206 F 
ATOM     89  C   UNL     1       1.085  -9.523 -16.709  1.00  0.00     0.040 A 
ATOM     90  C   UNL     1       3.042  -8.236 -17.280  1.00  0.00     0.040 A 
ATOM     91  F   UNL     1       4.670  -7.794 -15.665  1.00  0.00    -0.206 F 
ATOM     92  C   UNL     1       1.815  -8.786 -17.641  1.00  0.00     0.006 A 
ENDBRANCH  68  85
ENDBRANCH  42  43
ENDBRANCH  34  37
ENDBRANCH  32  33
ENDBRANCH  31  32
ENDBRANCH   1  31
TORSDOF 15
