REMARK SMILES O=C(NCCCCNC(=O)[C@@H](c1c[nH]c2ccc(Cl)cc12)[NH+]1CC[NH+](CCNc2cc(=O)oc3ccccc23)CC1)c1ccc(-c2c3nc(c(-c4c(F)cccc4F)c4ccc([nH]4)c(-c4c(F)cccc4F)c4nc(c(-c5c(F)cccc5F)c5ccc2[nH]5)C=C4)C=C3)cc1
REMARK SMILES IDX 7 1 6 2 5 3 4 4 3 5 1 6 2 7 42 9 43 10 95 11 44 12 94 13
REMARK SMILES IDX 45 14 46 15 47 16 88 17 48 18 93 19 87 20 89 21 49 22 92 23
REMARK SMILES IDX 86 24 85 25 50 27 76 28 59 29 75 30 60 31 63 32 74 33 90 34
REMARK SMILES IDX 61 35 62 36 73 38 91 39 64 40 51 41 52 42 57 43 53 44 54 45
REMARK SMILES IDX 56 46 58 47 55 48 77 49 78 50 83 51 79 52 80 53 82 54 84 55
REMARK SMILES IDX 81 56 65 57 66 58 71 59 67 60 68 61 70 62 72 63 69 64 8 65
REMARK SMILES IDX 9 66 10 68 11 69 12 70 13 71 21 72 14 73 15 74 20 75 16 77
REMARK SMILES IDX 18 78 17 79 19 80 22 81 23 82 41 83 24 85 40 86 25 87 26 89
REMARK SMILES IDX 27 90 28 91 29 93 30 94 39 95 31 96 34 97 38 98 32 99 33 100
REMARK SMILES IDX 35 101 37 102 36 103
REMARK H PARENT 3 8 89 26 63 37 8 67 14 76 22 84 25 88 28 92
REMARK Flexibility Score: inf
ROOT
ATOM      1  C   UNL     1       5.691   3.405   1.750  1.00  0.00     0.116 C 
ENDROOT
BRANCH   1   2
ATOM      2  C   UNL     1       5.357   3.737   0.305  1.00  0.00     0.023 C 
BRANCH   2   3
ATOM      3  C   UNL     1       5.614   2.599  -0.674  1.00  0.00     0.023 C 
BRANCH   3   4
ATOM      4  C   UNL     1       4.888   1.290  -0.373  1.00  0.00     0.116 C 
BRANCH   4   5
ATOM      5  N   UNL     1       3.434   1.372  -0.385  1.00  0.00    -0.352 N 
ATOM      6  O   UNL     1       1.339   0.660  -0.894  1.00  0.00    -0.269 OA
ATOM      7  C   UNL     1       2.539   0.439  -0.870  1.00  0.00     0.251 C 
ATOM      8  H   UNL     1       3.043   2.190  -0.002  1.00  0.00     0.163 HD
BRANCH   7   9
ATOM      9  C   UNL     1       3.063  -0.838  -1.407  1.00  0.00     0.039 A 
ATOM     10  C   UNL     1       4.019  -1.571  -0.699  1.00  0.00     0.014 A 
ATOM     11  C   UNL     1       2.642  -1.257  -2.670  1.00  0.00     0.014 A 
ATOM     12  C   UNL     1       4.684  -2.617  -1.324  1.00  0.00     0.010 A 
ATOM     13  C   UNL     1       3.255  -2.359  -3.267  1.00  0.00     0.010 A 
ATOM     14  C   UNL     1       4.314  -3.014  -2.617  1.00  0.00    -0.014 A 
BRANCH  14  15
ATOM     15  C   UNL     1       5.035  -4.124  -3.280  1.00  0.00     0.031 A 
ATOM     16  C   UNL     1       5.853  -3.870  -4.515  1.00  0.00     0.074 A 
ATOM     17  C   UNL     1       4.942  -5.361  -2.758  1.00  0.00     0.049 A 
ATOM     18  N   UNL     1       6.463  -4.729  -5.290  1.00  0.00    -0.248 NA
ATOM     19  C   UNL     1       6.002  -2.468  -4.942  1.00  0.00     0.031 C 
ATOM     20  C   UNL     1       4.183  -5.713  -1.555  1.00  0.00     0.029 A 
ATOM     21  N   UNL     1       5.476  -6.552  -3.175  1.00  0.00    -0.354 N 
ATOM     22  C   UNL     1       7.034  -3.982  -6.313  1.00  0.00     0.074 A 
ATOM     23  C   UNL     1       6.699  -2.597  -6.064  1.00  0.00     0.031 C 
ATOM     24  C   UNL     1       4.303  -7.028  -1.329  1.00  0.00     0.029 A 
ATOM     25  C   UNL     1       5.087  -7.621  -2.405  1.00  0.00     0.049 A 
ATOM     26  H   UNL     1       6.078  -6.633  -3.949  1.00  0.00     0.167 HD
ATOM     27  C   UNL     1       7.767  -4.421  -7.363  1.00  0.00     0.037 A 
ATOM     28  C   UNL     1       5.296  -8.938  -2.576  1.00  0.00     0.037 A 
ATOM     29  C   UNL     1       8.124  -5.800  -7.573  1.00  0.00     0.049 A 
ATOM     30  C   UNL     1       6.085  -9.396  -3.768  1.00  0.00     0.074 A 
ATOM     31  C   UNL     1       8.927  -6.342  -8.562  1.00  0.00     0.029 A 
ATOM     32  N   UNL     1       7.695  -6.855  -6.782  1.00  0.00    -0.354 N 
ATOM     33  N   UNL     1       6.645  -8.677  -4.710  1.00  0.00    -0.248 NA
ATOM     34  C   UNL     1       6.258 -10.845  -3.929  1.00  0.00     0.031 C 
ATOM     35  C   UNL     1       8.945  -7.730  -8.396  1.00  0.00     0.029 A 
ATOM     36  C   UNL     1       8.186  -8.049  -7.282  1.00  0.00     0.049 A 
ATOM     37  H   UNL     1       7.126  -6.768  -5.984  1.00  0.00     0.167 HD
ATOM     38  C   UNL     1       7.238  -9.583  -5.576  1.00  0.00     0.074 A 
ATOM     39  C   UNL     1       6.993 -10.903  -5.031  1.00  0.00     0.031 C 
ATOM     40  C   UNL     1       7.916  -9.348  -6.725  1.00  0.00     0.037 A 
BRANCH  27  41
ATOM     41  C   UNL     1       8.220  -3.418  -8.381  1.00  0.00     0.057 A 
ATOM     42  C   UNL     1       9.278  -2.535  -8.137  1.00  0.00     0.134 A 
ATOM     43  C   UNL     1       7.641  -3.396  -9.657  1.00  0.00     0.134 A 
ATOM     44  F   UNL     1       9.870  -2.498  -6.934  1.00  0.00    -0.206 F 
ATOM     45  C   UNL     1       9.742  -1.663  -9.125  1.00  0.00     0.040 A 
ATOM     46  C   UNL     1       8.107  -2.542 -10.658  1.00  0.00     0.040 A 
ATOM     47  F   UNL     1       6.626  -4.220  -9.958  1.00  0.00    -0.206 F 
ATOM     48  C   UNL     1       9.162  -1.672 -10.393  1.00  0.00     0.006 A 
ENDBRANCH  27  41
BRANCH  28  49
ATOM     49  C   UNL     1       4.697  -9.910  -1.630  1.00  0.00     0.057 A 
ATOM     50  C   UNL     1       5.491 -10.662  -0.759  1.00  0.00     0.134 A 
ATOM     51  C   UNL     1       3.311 -10.105  -1.572  1.00  0.00     0.134 A 
ATOM     52  F   UNL     1       6.826 -10.532  -0.780  1.00  0.00    -0.206 F 
ATOM     53  C   UNL     1       4.930 -11.583   0.128  1.00  0.00     0.040 A 
ATOM     54  C   UNL     1       2.734 -11.002  -0.673  1.00  0.00     0.040 A 
ATOM     55  F   UNL     1       2.494  -9.409  -2.378  1.00  0.00    -0.206 F 
ATOM     56  C   UNL     1       3.547 -11.749   0.176  1.00  0.00     0.006 A 
ENDBRANCH  28  49
BRANCH  40  57
ATOM     57  C   UNL     1       8.433 -10.546  -7.459  1.00  0.00     0.057 A 
ATOM     58  C   UNL     1       7.578 -11.375  -8.195  1.00  0.00     0.134 A 
ATOM     59  C   UNL     1       9.798 -10.858  -7.452  1.00  0.00     0.134 A 
ATOM     60  F   UNL     1       6.258 -11.136  -8.224  1.00  0.00    -0.206 F 
ATOM     61  C   UNL     1       8.061 -12.486  -8.886  1.00  0.00     0.040 A 
ATOM     62  C   UNL     1      10.296 -11.952  -8.158  1.00  0.00     0.040 A 
ATOM     63  F   UNL     1      10.667 -10.097  -6.770  1.00  0.00    -0.206 F 
ATOM     64  C   UNL     1       9.425 -12.773  -8.874  1.00  0.00     0.006 A 
ENDBRANCH  40  57
ENDBRANCH  14  15
ENDBRANCH   7   9
ENDBRANCH   4   5
ENDBRANCH   3   4
ENDBRANCH   2   3
ENDBRANCH   1   2
BRANCH   1  65
ATOM     65  N   UNL     1       6.993   3.821   2.208  1.00  0.00    -0.351 N 
ATOM     66  C   UNL     1       7.324   4.462   3.375  1.00  0.00     0.283 C 
ATOM     67  H   UNL     1       7.743   3.619   1.603  1.00  0.00     0.163 HD
ATOM     68  O   UNL     1       8.526   4.443   3.678  1.00  0.00    -0.268 OA
BRANCH  66  69
ATOM     69  C   UNL     1       6.298   5.191   4.294  1.00  0.00     0.308 C 
BRANCH  69  70
ATOM     70  C   UNL     1       5.414   6.205   3.554  1.00  0.00     0.044 A 
ATOM     71  C   UNL     1       5.896   7.463   3.203  1.00  0.00     0.094 A 
ATOM     72  C   UNL     1       4.075   6.147   2.999  1.00  0.00     0.011 A 
ATOM     73  N   UNL     1       4.997   8.082   2.386  1.00  0.00    -0.361 N 
ATOM     74  C   UNL     1       3.928   7.255   2.156  1.00  0.00     0.046 A 
ATOM     75  C   UNL     1       2.998   5.230   3.030  1.00  0.00     0.031 A 
ATOM     76  H   UNL     1       5.101   8.989   2.017  1.00  0.00     0.166 HD
ATOM     77  C   UNL     1       2.856   7.418   1.268  1.00  0.00     0.028 A 
ATOM     78  C   UNL     1       1.949   5.348   2.111  1.00  0.00     0.041 A 
ATOM     79  C   UNL     1       1.887   6.415   1.226  1.00  0.00     0.022 A 
ATOM     80  Cl  UNL     1       0.758   4.107   2.032  1.00  0.00    -0.084 Cl
ENDBRANCH  69  70
BRANCH  69  81
ATOM     81  N   UNL     1       5.622   4.386   5.335  1.00  0.00    -0.312 N 
ATOM     82  C   UNL     1       5.029   3.105   4.964  1.00  0.00     0.325 C 
ATOM     83  C   UNL     1       6.404   4.214   6.582  1.00  0.00     0.325 C 
ATOM     84  H   UNL     1       4.828   5.005   5.494  1.00  0.00     0.349 HD
ATOM     85  C   UNL     1       5.949   1.868   5.009  1.00  0.00     0.324 C 
ATOM     86  C   UNL     1       7.243   2.914   6.729  1.00  0.00     0.324 C 
ATOM     87  N   UNL     1       6.609   1.660   6.293  1.00  0.00    -0.324 N 
ATOM     88  H   UNL     1       7.358   0.982   6.149  1.00  0.00     0.348 HD
BRANCH  87  89
ATOM     89  C   UNL     1       5.828   0.933   7.308  1.00  0.00     0.283 C 
BRANCH  89  90
ATOM     90  C   UNL     1       4.319   1.215   7.550  1.00  0.00     0.174 C 
BRANCH  90  91
ATOM     91  N   UNL     1       3.485   0.743   6.442  1.00  0.00    -0.379 N 
ATOM     92  H   UNL     1       3.885   0.053   5.866  1.00  0.00     0.160 HD
BRANCH  91  93
ATOM     93  C   UNL     1       2.201   1.146   6.103  1.00  0.00     0.053 A 
ATOM     94  C   UNL     1       1.416   1.911   6.875  1.00  0.00     0.120 A 
ATOM     95  C   UNL     1       1.644   0.718   4.799  1.00  0.00     0.041 A 
ATOM     96  C   UNL     1       0.035   2.281   6.540  1.00  0.00     0.338 A 
ATOM     97  C   UNL     1       0.309   1.008   4.503  1.00  0.00     0.140 A 
ATOM     98  C   UNL     1       2.387   0.058   3.809  1.00  0.00     0.014 A 
ATOM     99  O   UNL     1      -0.616   3.003   7.288  1.00  0.00    -0.246 OA
ATOM    100  O   UNL     1      -0.499   1.746   5.385  1.00  0.00    -0.423 OA
ATOM    101  C   UNL     1      -0.296   0.621   3.304  1.00  0.00     0.048 A 
ATOM    102  C   UNL     1       1.794  -0.332   2.602  1.00  0.00     0.001 A 
ATOM    103  C   UNL     1       0.453  -0.056   2.351  1.00  0.00     0.004 A 
ENDBRANCH  91  93
ENDBRANCH  90  91
ENDBRANCH  89  90
ENDBRANCH  87  89
ENDBRANCH  69  81
ENDBRANCH  66  69
ENDBRANCH   1  65
TORSDOF 17
