REMARK SMILES Cc1cc(C(=O)NCCCCNC(=O)c2ccc(-c3c4nc(c(-c5c(F)cccc5F)c5ccc([nH]5)c(-c5c(F)cccc5F)c5nc(c(-c6c(F)cccc6F)c6ccc3[nH]6)C=C5)C=C4)cc2)ccc1NC(=O)c1ccc(=O)n(CCOc2ccccc2)n1
REMARK SMILES IDX 5 1 6 2 7 3 4 5 1 6 2 7 3 8 71 9 70 10 69 11 72 12 73 13
REMARK SMILES IDX 74 15 75 16 76 17 90 18 77 19 80 20 78 21 79 22 81 23 82 24
REMARK SMILES IDX 83 25 84 26 85 27 89 28 86 29 88 30 87 31 8 32 9 33 10 34
REMARK SMILES IDX 11 35 12 36 13 37 14 39 15 40 16 41 68 42 17 43 67 44 18 45
REMARK SMILES IDX 19 46 20 47 61 48 21 49 66 50 60 51 62 52 22 53 65 54 59 55
REMARK SMILES IDX 58 56 23 58 49 59 32 60 48 61 33 62 36 63 47 64 63 65 34 66
REMARK SMILES IDX 35 67 46 69 64 70 37 71 24 72 25 73 30 74 26 75 27 76 29 77
REMARK SMILES IDX 31 78 28 79 50 80 51 81 56 82 52 83 53 84 55 85 57 86 54 87
REMARK SMILES IDX 38 88 39 89 44 90 40 91 41 92 43 93 45 94 42 95
REMARK H PARENT 7 4 72 14 12 38 62 57 36 68
REMARK Flexibility Score: inf
ROOT
ATOM      1  C   UNL     1      -1.544  -2.662  -0.172  1.00  0.00     0.251 C 
ATOM      2  O   UNL     1      -0.980  -3.751  -0.082  1.00  0.00    -0.269 OA
ATOM      3  N   UNL     1      -2.922  -2.630  -0.176  1.00  0.00    -0.352 N 
ATOM      4  H   UNL     1      -3.342  -3.511  -0.308  1.00  0.00     0.163 HD
ENDROOT
BRANCH   1   5
ATOM      5  C   UNL     1      -0.716  -1.431  -0.256  1.00  0.00     0.040 A 
ATOM      6  C   UNL     1       2.782  -0.312   0.741  1.00  0.00     0.046 C 
ATOM      7  C   UNL     1       1.347  -0.207   0.302  1.00  0.00    -0.027 A 
ATOM      8  C   UNL     1       0.569  -1.393   0.308  1.00  0.00     0.019 A 
ATOM      9  C   UNL     1       0.776   0.968  -0.205  1.00  0.00     0.044 A 
ATOM     10  C   UNL     1      -0.366   0.830  -0.986  1.00  0.00     0.027 A 
ATOM     11  C   UNL     1      -1.114  -0.342  -1.005  1.00  0.00     0.016 A 
BRANCH   9  12
ATOM     12  N   UNL     1       1.331   2.241   0.065  1.00  0.00    -0.320 N 
ATOM     13  C   UNL     1       0.695   3.473   0.168  1.00  0.00     0.276 C 
ATOM     14  H   UNL     1       2.306   2.256   0.200  1.00  0.00     0.170 HD
ATOM     15  O   UNL     1       1.310   4.510   0.389  1.00  0.00    -0.267 OA
BRANCH  13  16
ATOM     16  C   UNL     1      -0.814   3.547   0.019  1.00  0.00     0.149 A 
ATOM     17  C   UNL     1      -1.293   3.969  -1.314  1.00  0.00     0.042 A 
ATOM     18  N   UNL     1      -1.585   3.192   1.005  1.00  0.00    -0.164 NA
ATOM     19  C   UNL     1      -2.501   3.509  -1.645  1.00  0.00     0.076 A 
ATOM     20  N   UNL     1      -2.918   2.973   0.670  1.00  0.00    -0.226 N 
ATOM     21  C   UNL     1      -3.300   2.756  -0.648  1.00  0.00     0.266 A 
ATOM     22  O   UNL     1      -4.247   2.074  -1.022  1.00  0.00    -0.268 OA
BRANCH  20  23
ATOM     23  C   UNL     1      -3.873   2.779   1.763  1.00  0.00     0.190 C 
BRANCH  23  24
ATOM     24  C   UNL     1      -4.554   4.103   2.162  1.00  0.00     0.253 C 
BRANCH  24  25
ATOM     25  O   UNL     1      -5.778   4.305   1.426  1.00  0.00    -0.492 OA
BRANCH  25  26
ATOM     26  C   UNL     1      -5.693   5.326   0.525  1.00  0.00     0.119 A 
ATOM     27  C   UNL     1      -5.862   6.653   0.903  1.00  0.00     0.046 A 
ATOM     28  C   UNL     1      -5.534   5.003  -0.817  1.00  0.00     0.046 A 
ATOM     29  C   UNL     1      -5.759   7.659  -0.064  1.00  0.00     0.004 A 
ATOM     30  C   UNL     1      -5.362   6.001  -1.771  1.00  0.00     0.004 A 
ATOM     31  C   UNL     1      -5.469   7.334  -1.392  1.00  0.00     0.000 A 
ENDBRANCH  25  26
ENDBRANCH  24  25
ENDBRANCH  23  24
ENDBRANCH  20  23
ENDBRANCH  13  16
ENDBRANCH   9  12
ENDBRANCH   1   5
BRANCH   3  32
ATOM     32  C   UNL     1      -3.880  -1.535  -0.020  1.00  0.00     0.116 C 
BRANCH  32  33
ATOM     33  C   UNL     1      -4.608  -1.150  -1.321  1.00  0.00     0.023 C 
BRANCH  33  34
ATOM     34  C   UNL     1      -5.441  -2.255  -1.968  1.00  0.00     0.023 C 
BRANCH  34  35
ATOM     35  C   UNL     1      -6.787  -2.486  -1.296  1.00  0.00     0.116 C 
BRANCH  35  36
ATOM     36  N   UNL     1      -7.868  -1.636  -1.783  1.00  0.00    -0.352 N 
ATOM     37  C   UNL     1      -9.190  -1.544  -1.367  1.00  0.00     0.251 C 
ATOM     38  H   UNL     1      -7.623  -1.033  -2.522  1.00  0.00     0.163 HD
ATOM     39  O   UNL     1      -9.966  -0.810  -1.956  1.00  0.00    -0.269 OA
BRANCH  37  40
ATOM     40  C   UNL     1      -9.617  -2.209  -0.104  1.00  0.00     0.039 A 
ATOM     41  C   UNL     1     -10.403  -1.458   0.780  1.00  0.00     0.014 A 
ATOM     42  C   UNL     1      -9.030  -3.391   0.326  1.00  0.00     0.014 A 
ATOM     43  C   UNL     1     -10.322  -1.713   2.145  1.00  0.00     0.010 A 
ATOM     44  C   UNL     1      -8.839  -3.567   1.680  1.00  0.00     0.010 A 
ATOM     45  C   UNL     1      -9.410  -2.667   2.584  1.00  0.00    -0.014 A 
BRANCH  45  46
ATOM     46  C   UNL     1      -8.834  -2.664   3.924  1.00  0.00     0.031 A 
ATOM     47  C   UNL     1      -9.086  -3.777   4.859  1.00  0.00     0.074 A 
ATOM     48  C   UNL     1      -7.926  -1.709   4.225  1.00  0.00     0.049 A 
ATOM     49  N   UNL     1      -8.852  -3.738   6.127  1.00  0.00    -0.248 NA
ATOM     50  C   UNL     1      -9.692  -5.028   4.428  1.00  0.00     0.031 C 
ATOM     51  C   UNL     1      -6.952  -1.717   5.312  1.00  0.00     0.029 A 
ATOM     52  N   UNL     1      -7.845  -0.414   3.695  1.00  0.00    -0.354 N 
ATOM     53  C   UNL     1      -8.989  -5.017   6.621  1.00  0.00     0.074 A 
ATOM     54  C   UNL     1      -9.607  -5.754   5.545  1.00  0.00     0.031 C 
ATOM     55  C   UNL     1      -6.562  -0.456   5.554  1.00  0.00     0.029 A 
ATOM     56  C   UNL     1      -7.401   0.413   4.747  1.00  0.00     0.049 A 
ATOM     57  H   UNL     1      -8.055  -0.137   2.774  1.00  0.00     0.167 HD
ATOM     58  C   UNL     1      -8.427  -5.319   7.829  1.00  0.00     0.037 A 
ATOM     59  C   UNL     1      -8.200   1.398   5.254  1.00  0.00     0.037 A 
ATOM     60  C   UNL     1      -7.928  -4.106   8.485  1.00  0.00     0.049 A 
ATOM     61  C   UNL     1      -8.525   1.244   6.716  1.00  0.00     0.074 A 
ATOM     62  C   UNL     1      -6.662  -3.551   8.600  1.00  0.00     0.029 A 
ATOM     63  N   UNL     1      -8.825  -3.117   8.880  1.00  0.00    -0.354 N 
ATOM     64  N   UNL     1      -8.412   0.120   7.368  1.00  0.00    -0.248 NA
ATOM     65  C   UNL     1      -9.021   2.331   7.555  1.00  0.00     0.031 C 
ATOM     66  C   UNL     1      -6.809  -2.198   8.997  1.00  0.00     0.029 A 
ATOM     67  C   UNL     1      -8.160  -1.936   9.149  1.00  0.00     0.049 A 
ATOM     68  H   UNL     1      -9.798  -3.243   8.958  1.00  0.00     0.167 HD
ATOM     69  C   UNL     1      -8.838   0.296   8.656  1.00  0.00     0.074 A 
ATOM     70  C   UNL     1      -9.183   1.703   8.733  1.00  0.00     0.031 C 
ATOM     71  C   UNL     1      -8.890  -0.739   9.544  1.00  0.00     0.037 A 
BRANCH  58  72
ATOM     72  C   UNL     1      -8.043  -6.724   8.279  1.00  0.00     0.057 A 
ATOM     73  C   UNL     1      -7.035  -6.914   9.248  1.00  0.00     0.134 A 
ATOM     74  C   UNL     1      -8.542  -7.928   7.750  1.00  0.00     0.134 A 
ATOM     75  F   UNL     1      -6.527  -5.891   9.949  1.00  0.00    -0.206 F 
ATOM     76  C   UNL     1      -6.488  -8.169   9.559  1.00  0.00     0.040 A 
ATOM     77  C   UNL     1      -7.982  -9.186   8.020  1.00  0.00     0.040 A 
ATOM     78  F   UNL     1      -9.641  -7.973   6.995  1.00  0.00    -0.206 F 
ATOM     79  C   UNL     1      -6.935  -9.310   8.915  1.00  0.00     0.006 A 
ENDBRANCH  58  72
BRANCH  59  80
ATOM     80  C   UNL     1      -9.087   2.022   4.243  1.00  0.00     0.057 A 
ATOM     81  C   UNL     1      -8.487   2.816   3.254  1.00  0.00     0.134 A 
ATOM     82  C   UNL     1     -10.378   1.554   3.991  1.00  0.00     0.134 A 
ATOM     83  F   UNL     1      -7.256   3.304   3.463  1.00  0.00    -0.206 F 
ATOM     84  C   UNL     1      -9.087   3.028   2.011  1.00  0.00     0.040 A 
ATOM     85  C   UNL     1     -10.999   1.773   2.755  1.00  0.00     0.040 A 
ATOM     86  F   UNL     1     -11.006   0.772   4.881  1.00  0.00    -0.206 F 
ATOM     87  C   UNL     1     -10.335   2.472   1.746  1.00  0.00     0.006 A 
ENDBRANCH  59  80
BRANCH  71  88
ATOM     88  C   UNL     1      -9.569  -0.700  10.887  1.00  0.00     0.057 A 
ATOM     89  C   UNL     1     -10.700   0.078  11.172  1.00  0.00     0.134 A 
ATOM     90  C   UNL     1      -9.178  -1.592  11.910  1.00  0.00     0.134 A 
ATOM     91  F   UNL     1     -11.243   0.889  10.254  1.00  0.00    -0.206 F 
ATOM     92  C   UNL     1     -11.365   0.013  12.404  1.00  0.00     0.040 A 
ATOM     93  C   UNL     1      -9.865  -1.703  13.122  1.00  0.00     0.040 A 
ATOM     94  F   UNL     1      -8.126  -2.411  11.764  1.00  0.00    -0.206 F 
ATOM     95  C   UNL     1     -10.957  -0.889  13.378  1.00  0.00     0.006 A 
ENDBRANCH  71  88
ENDBRANCH  45  46
ENDBRANCH  37  40
ENDBRANCH  35  36
ENDBRANCH  34  35
ENDBRANCH  33  34
ENDBRANCH  32  33
ENDBRANCH   3  32
TORSDOF 17
