REMARK SMILES O=C(NCCCCNC(=O)c1ccc(-c2c3nc(c(-c4c(F)cccc4F)c4ccc([nH]4)c(-c4c(F)cccc4F)c4nc(c(-c5c(F)cccc5F)c5ccc2[nH]5)C=C4)C=C3)cc1)c1ccc(N[C@H]2OC(=O)c3ccccc32)cc1
REMARK SMILES IDX 5 1 4 2 3 3 1 4 2 5 65 7 66 8 81 9 67 10 80 11 68 12 69 13
REMARK SMILES IDX 70 15 71 16 79 17 72 18 74 19 78 20 73 21 75 22 77 23 76 24
REMARK SMILES IDX 6 25 7 26 8 27 9 28 10 30 11 31 12 32 64 33 13 34 63 35
REMARK SMILES IDX 14 36 15 37 16 38 57 39 17 40 62 41 56 42 58 43 18 44 61 45
REMARK SMILES IDX 55 46 54 47 19 49 45 50 28 51 44 52 29 53 32 54 43 55 59 56
REMARK SMILES IDX 30 57 31 58 42 60 60 61 33 62 20 63 21 64 26 65 22 66 23 67
REMARK SMILES IDX 25 68 27 69 24 70 46 71 47 72 52 73 48 74 49 75 51 76 53 77
REMARK SMILES IDX 50 78 34 79 35 80 40 81 36 82 37 83 39 84 41 85 38 86
REMARK H PARENT 3 6 69 14 8 29 58 48 32 59
REMARK Flexibility Score: inf
ROOT
ATOM      1  C   UNL     1       4.838   1.046  -2.189  1.00  0.00     0.023 C 
ENDROOT
BRANCH   1   2
ATOM      2  C   UNL     1       4.532   0.991  -0.696  1.00  0.00     0.116 C 
BRANCH   2   3
ATOM      3  N   UNL     1       3.108   0.997  -0.405  1.00  0.00    -0.352 N 
ATOM      4  O   UNL     1       1.143   0.150   0.330  1.00  0.00    -0.269 OA
ATOM      5  C   UNL     1       2.361   0.045   0.246  1.00  0.00     0.251 C 
ATOM      6  H   UNL     1       2.613   1.789  -0.716  1.00  0.00     0.163 HD
BRANCH   5   7
ATOM      7  C   UNL     1       3.043  -1.139   0.801  1.00  0.00     0.039 A 
ATOM      8  C   UNL     1       4.063  -1.004   1.745  1.00  0.00     0.016 A 
ATOM      9  C   UNL     1       2.701  -2.395   0.313  1.00  0.00     0.016 A 
ATOM     10  C   UNL     1       4.815  -2.123   2.120  1.00  0.00     0.026 A 
ATOM     11  C   UNL     1       3.449  -3.505   0.709  1.00  0.00     0.026 A 
ATOM     12  C   UNL     1       4.533  -3.390   1.597  1.00  0.00     0.037 A 
BRANCH  12  13
ATOM     13  N   UNL     1       5.271  -4.517   1.867  1.00  0.00    -0.347 N 
ATOM     14  H   UNL     1       5.016  -5.330   1.374  1.00  0.00     0.164 HD
BRANCH  13  15
ATOM     15  C   UNL     1       6.372  -4.653   2.781  1.00  0.00     0.305 C 
ATOM     16  O   UNL     1       6.194  -5.896   3.487  1.00  0.00    -0.434 OA
ATOM     17  C   UNL     1       7.653  -4.851   2.061  1.00  0.00     0.028 A 
ATOM     18  C   UNL     1       7.185  -6.789   3.213  1.00  0.00     0.340 C 
ATOM     19  C   UNL     1       8.117  -6.125   2.317  1.00  0.00     0.069 A 
ATOM     20  C   UNL     1       8.384  -3.999   1.247  1.00  0.00     0.010 A 
ATOM     21  O   UNL     1       7.276  -7.923   3.638  1.00  0.00    -0.246 OA
ATOM     22  C   UNL     1       9.291  -6.623   1.779  1.00  0.00     0.016 A 
ATOM     23  C   UNL     1       9.583  -4.469   0.696  1.00  0.00     0.001 A 
ATOM     24  C   UNL     1      10.032  -5.776   0.956  1.00  0.00     0.001 A 
ENDBRANCH  13  15
ENDBRANCH  12  13
ENDBRANCH   5   7
ENDBRANCH   2   3
ENDBRANCH   1   2
BRANCH   1  25
ATOM     25  C   UNL     1       4.370   2.310  -2.906  1.00  0.00     0.023 C 
BRANCH  25  26
ATOM     26  C   UNL     1       4.769   3.628  -2.250  1.00  0.00     0.116 C 
BRANCH  26  27
ATOM     27  N   UNL     1       6.207   3.779  -2.079  1.00  0.00    -0.352 N 
ATOM     28  C   UNL     1       7.031   4.816  -2.447  1.00  0.00     0.251 C 
ATOM     29  H   UNL     1       6.657   3.026  -1.632  1.00  0.00     0.163 HD
ATOM     30  O   UNL     1       8.245   4.720  -2.300  1.00  0.00    -0.269 OA
BRANCH  28  31
ATOM     31  C   UNL     1       6.458   6.030  -3.067  1.00  0.00     0.039 A 
ATOM     32  C   UNL     1       7.031   6.513  -4.246  1.00  0.00     0.014 A 
ATOM     33  C   UNL     1       5.339   6.660  -2.518  1.00  0.00     0.014 A 
ATOM     34  C   UNL     1       6.417   7.563  -4.933  1.00  0.00     0.010 A 
ATOM     35  C   UNL     1       4.689   7.659  -3.238  1.00  0.00     0.010 A 
ATOM     36  C   UNL     1       5.209   8.103  -4.463  1.00  0.00    -0.014 A 
BRANCH  36  37
ATOM     37  C   UNL     1       4.438   9.082  -5.269  1.00  0.00     0.031 A 
ATOM     38  C   UNL     1       4.199  10.473  -4.762  1.00  0.00     0.074 A 
ATOM     39  C   UNL     1       3.864   8.678  -6.419  1.00  0.00     0.049 A 
ATOM     40  N   UNL     1       3.470  11.428  -5.281  1.00  0.00    -0.248 NA
ATOM     41  C   UNL     1       4.843  10.830  -3.489  1.00  0.00     0.031 C 
ATOM     42  C   UNL     1       3.967   7.333  -6.989  1.00  0.00     0.029 A 
ATOM     43  N   UNL     1       3.059   9.352  -7.303  1.00  0.00    -0.354 N 
ATOM     44  C   UNL     1       3.556  12.493  -4.396  1.00  0.00     0.074 A 
ATOM     45  C   UNL     1       4.370  12.050  -3.283  1.00  0.00     0.031 C 
ATOM     46  C   UNL     1       3.258   7.282  -8.127  1.00  0.00     0.029 A 
ATOM     47  C   UNL     1       2.621   8.576  -8.348  1.00  0.00     0.049 A 
ATOM     48  H   UNL     1       2.818  10.301  -7.197  1.00  0.00     0.167 HD
ATOM     49  C   UNL     1       3.022  13.732  -4.509  1.00  0.00     0.037 A 
ATOM     50  C   UNL     1       1.786   8.866  -9.363  1.00  0.00     0.037 A 
ATOM     51  C   UNL     1       2.224  14.175  -5.623  1.00  0.00     0.049 A 
ATOM     52  C   UNL     1       1.196  10.242  -9.465  1.00  0.00     0.074 A 
ATOM     53  C   UNL     1       1.710  15.436  -5.869  1.00  0.00     0.029 A 
ATOM     54  N   UNL     1       1.813  13.364  -6.671  1.00  0.00    -0.354 N 
ATOM     55  N   UNL     1       1.354  11.267  -8.663  1.00  0.00    -0.248 NA
ATOM     56  C   UNL     1       0.313  10.503 -10.610  1.00  0.00     0.031 C 
ATOM     57  C   UNL     1       0.951  15.377  -7.044  1.00  0.00     0.029 A 
ATOM     58  C   UNL     1       1.025  14.090  -7.550  1.00  0.00     0.049 A 
ATOM     59  H   UNL     1       2.048  12.414  -6.776  1.00  0.00     0.167 HD
ATOM     60  C   UNL     1       0.597  12.296  -9.207  1.00  0.00     0.074 A 
ATOM     61  C   UNL     1      -0.003  11.777 -10.420  1.00  0.00     0.031 C 
ATOM     62  C   UNL     1       0.416  13.555  -8.742  1.00  0.00     0.037 A 
BRANCH  49  63
ATOM     63  C   UNL     1       3.288  14.697  -3.390  1.00  0.00     0.057 A 
ATOM     64  C   UNL     1       4.559  15.246  -3.178  1.00  0.00     0.134 A 
ATOM     65  C   UNL     1       2.261  15.088  -2.523  1.00  0.00     0.134 A 
ATOM     66  F   UNL     1       5.589  14.903  -3.966  1.00  0.00    -0.206 F 
ATOM     67  C   UNL     1       4.808  16.125  -2.122  1.00  0.00     0.040 A 
ATOM     68  C   UNL     1       2.491  15.987  -1.480  1.00  0.00     0.040 A 
ATOM     69  F   UNL     1       1.019  14.605  -2.674  1.00  0.00    -0.206 F 
ATOM     70  C   UNL     1       3.770  16.501  -1.272  1.00  0.00     0.006 A 
ENDBRANCH  49  63
BRANCH  50  71
ATOM     71  C   UNL     1       1.464   7.820 -10.364  1.00  0.00     0.057 A 
ATOM     72  C   UNL     1       2.006   7.864 -11.653  1.00  0.00     0.134 A 
ATOM     73  C   UNL     1       0.637   6.736 -10.045  1.00  0.00     0.134 A 
ATOM     74  F   UNL     1       2.790   8.887 -12.020  1.00  0.00    -0.206 F 
ATOM     75  C   UNL     1       1.734   6.868 -12.592  1.00  0.00     0.040 A 
ATOM     76  C   UNL     1       0.373   5.723 -10.967  1.00  0.00     0.040 A 
ATOM     77  F   UNL     1       0.096   6.635  -8.822  1.00  0.00    -0.206 F 
ATOM     78  C   UNL     1       0.921   5.789 -12.247  1.00  0.00     0.006 A 
ENDBRANCH  50  71
BRANCH  62  79
ATOM     79  C   UNL     1      -0.475  14.457  -9.543  1.00  0.00     0.057 A 
ATOM     80  C   UNL     1      -1.867  14.305  -9.538  1.00  0.00     0.134 A 
ATOM     81  C   UNL     1       0.059  15.509 -10.297  1.00  0.00     0.134 A 
ATOM     82  F   UNL     1      -2.439  13.306  -8.847  1.00  0.00    -0.206 F 
ATOM     83  C   UNL     1      -2.696  15.158 -10.267  1.00  0.00     0.040 A 
ATOM     84  C   UNL     1      -0.761  16.382 -11.013  1.00  0.00     0.040 A 
ATOM     85  F   UNL     1       1.385  15.712 -10.341  1.00  0.00    -0.206 F 
ATOM     86  C   UNL     1      -2.143  16.205 -11.002  1.00  0.00     0.006 A 
ENDBRANCH  62  79
ENDBRANCH  36  37
ENDBRANCH  28  31
ENDBRANCH  26  27
ENDBRANCH  25  26
ENDBRANCH   1  25
TORSDOF 13
