REMARK SMILES O=C(NCCCCNC(=O)c1cc(Br)cnc1S)c1ccc(-c2c3nc(c(-c4c(F)cccc4F)c4ccc([nH]4)c(-c4c(F)cccc4F)c4nc(c(-c5c(F)cccc5F)c5ccc2[nH]5)C=C4)C=C3)cc1
REMARK SMILES IDX 5 1 4 2 3 3 1 4 2 5 19 7 20 8 72 9 21 10 71 11 22 12 23 13
REMARK SMILES IDX 24 14 65 15 25 16 70 17 64 18 66 19 26 20 69 21 63 22 62 23
REMARK SMILES IDX 27 25 53 26 36 27 52 28 37 29 40 30 51 31 67 32 38 33 39 34
REMARK SMILES IDX 50 36 68 37 41 38 28 39 29 40 34 41 30 42 31 43 33 44 35 45
REMARK SMILES IDX 32 46 54 47 55 48 60 49 56 50 57 51 59 52 61 53 58 54 42 55
REMARK SMILES IDX 43 56 48 57 44 58 45 59 47 60 49 61 46 62 6 63 7 64 8 65
REMARK SMILES IDX 9 66 10 68 11 69 12 70 17 71 13 72 16 73 14 74 15 75 18 76
REMARK H PARENT 3 6 66 24 40 35 8 67 18 77
REMARK Flexibility Score: inf
ROOT
ATOM      1  C   UNL     1       5.067   1.387   2.095  1.00  0.00     0.023 C 
ENDROOT
BRANCH   1   2
ATOM      2  C   UNL     1       4.691   0.209   1.204  1.00  0.00     0.116 C 
BRANCH   2   3
ATOM      3  N   UNL     1       3.255   0.032   1.080  1.00  0.00    -0.352 N 
ATOM      4  O   UNL     1       1.242   0.011   0.074  1.00  0.00    -0.269 OA
ATOM      5  C   UNL     1       2.465   0.015  -0.043  1.00  0.00     0.251 C 
ATOM      6  H   UNL     1       2.775  -0.096   1.930  1.00  0.00     0.163 HD
BRANCH   5   7
ATOM      7  C   UNL     1       3.071   0.018  -1.393  1.00  0.00     0.039 A 
ATOM      8  C   UNL     1       2.481   0.794  -2.394  1.00  0.00     0.014 A 
ATOM      9  C   UNL     1       4.184  -0.774  -1.692  1.00  0.00     0.014 A 
ATOM     10  C   UNL     1       3.022   0.800  -3.683  1.00  0.00     0.010 A 
ATOM     11  C   UNL     1       4.775  -0.699  -2.950  1.00  0.00     0.010 A 
ATOM     12  C   UNL     1       4.182   0.063  -3.968  1.00  0.00    -0.014 A 
BRANCH  12  13
ATOM     13  C   UNL     1       4.736  -0.001  -5.346  1.00  0.00     0.031 A 
ATOM     14  C   UNL     1       4.747  -1.317  -6.079  1.00  0.00     0.074 A 
ATOM     15  C   UNL     1       5.242   1.100  -5.933  1.00  0.00     0.049 A 
ATOM     16  N   UNL     1       5.245  -1.610  -7.254  1.00  0.00    -0.248 NA
ATOM     17  C   UNL     1       4.137  -2.463  -5.385  1.00  0.00     0.031 C 
ATOM     18  C   UNL     1       5.296   2.434  -5.333  1.00  0.00     0.029 A 
ATOM     19  N   UNL     1       5.805   1.270  -7.173  1.00  0.00    -0.354 N 
ATOM     20  C   UNL     1       5.013  -2.969  -7.433  1.00  0.00     0.074 A 
ATOM     21  C   UNL     1       4.399  -3.457  -6.219  1.00  0.00     0.031 C 
ATOM     22  C   UNL     1       5.828   3.292  -6.220  1.00  0.00     0.029 A 
ATOM     23  C   UNL     1       6.193   2.562  -7.431  1.00  0.00     0.049 A 
ATOM     24  H   UNL     1       5.921   0.534  -7.817  1.00  0.00     0.167 HD
ATOM     25  C   UNL     1       5.255  -3.737  -8.522  1.00  0.00     0.037 A 
ATOM     26  C   UNL     1       6.779   3.093  -8.520  1.00  0.00     0.037 A 
ATOM     27  C   UNL     1       5.852  -3.252  -9.737  1.00  0.00     0.049 A 
ATOM     28  C   UNL     1       7.104   2.202  -9.690  1.00  0.00     0.074 A 
ATOM     29  C   UNL     1       6.127  -3.946 -10.902  1.00  0.00     0.029 A 
ATOM     30  N   UNL     1       6.264  -1.944  -9.944  1.00  0.00    -0.354 N 
ATOM     31  N   UNL     1       6.859   0.925  -9.854  1.00  0.00    -0.248 NA
ATOM     32  C   UNL     1       7.792   2.833 -10.826  1.00  0.00     0.031 C 
ATOM     33  C   UNL     1       6.745  -3.068 -11.798  1.00  0.00     0.029 A 
ATOM     34  C   UNL     1       6.808  -1.815 -11.211  1.00  0.00     0.049 A 
ATOM     35  H   UNL     1       6.182  -1.215  -9.287  1.00  0.00     0.167 HD
ATOM     36  C   UNL     1       7.332   0.607 -11.122  1.00  0.00     0.074 A 
ATOM     37  C   UNL     1       7.862   1.830 -11.688  1.00  0.00     0.031 C 
ATOM     38  C   UNL     1       7.328  -0.589 -11.761  1.00  0.00     0.037 A 
BRANCH  25  39
ATOM     39  C   UNL     1       4.865  -5.186  -8.437  1.00  0.00     0.057 A 
ATOM     40  C   UNL     1       5.838  -6.192  -8.401  1.00  0.00     0.134 A 
ATOM     41  C   UNL     1       3.522  -5.586  -8.395  1.00  0.00     0.134 A 
ATOM     42  F   UNL     1       7.143  -5.881  -8.443  1.00  0.00    -0.206 F 
ATOM     43  C   UNL     1       5.490  -7.542  -8.320  1.00  0.00     0.040 A 
ATOM     44  C   UNL     1       3.162  -6.930  -8.282  1.00  0.00     0.040 A 
ATOM     45  F   UNL     1       2.540  -4.672  -8.410  1.00  0.00    -0.206 F 
ATOM     46  C   UNL     1       4.149  -7.913  -8.251  1.00  0.00     0.006 A 
ENDBRANCH  25  39
BRANCH  26  47
ATOM     47  C   UNL     1       7.087   4.545  -8.578  1.00  0.00     0.057 A 
ATOM     48  C   UNL     1       8.085   5.120  -7.783  1.00  0.00     0.134 A 
ATOM     49  C   UNL     1       6.408   5.387  -9.468  1.00  0.00     0.134 A 
ATOM     50  F   UNL     1       8.771   4.370  -6.908  1.00  0.00    -0.206 F 
ATOM     51  C   UNL     1       8.397   6.478  -7.870  1.00  0.00     0.040 A 
ATOM     52  C   UNL     1       6.728   6.740  -9.585  1.00  0.00     0.040 A 
ATOM     53  F   UNL     1       5.456   4.891 -10.272  1.00  0.00    -0.206 F 
ATOM     54  C   UNL     1       7.725   7.290  -8.781  1.00  0.00     0.006 A 
ENDBRANCH  26  47
BRANCH  38  55
ATOM     55  C   UNL     1       7.879  -0.621 -13.158  1.00  0.00     0.057 A 
ATOM     56  C   UNL     1       7.029  -0.813 -14.254  1.00  0.00     0.134 A 
ATOM     57  C   UNL     1       9.248  -0.483 -13.418  1.00  0.00     0.134 A 
ATOM     58  F   UNL     1       5.708  -0.962 -14.075  1.00  0.00    -0.206 F 
ATOM     59  C   UNL     1       7.521  -0.867 -15.559  1.00  0.00     0.040 A 
ATOM     60  C   UNL     1       9.749  -0.504 -14.721  1.00  0.00     0.040 A 
ATOM     61  F   UNL     1      10.115  -0.282 -12.413  1.00  0.00    -0.206 F 
ATOM     62  C   UNL     1       8.884  -0.703 -15.796  1.00  0.00     0.006 A 
ENDBRANCH  38  55
ENDBRANCH  12  13
ENDBRANCH   5   7
ENDBRANCH   2   3
ENDBRANCH   1   2
BRANCH   1  63
ATOM     63  C   UNL     1       4.582   1.298   3.542  1.00  0.00     0.023 C 
BRANCH  63  64
ATOM     64  C   UNL     1       4.928   0.002   4.268  1.00  0.00     0.116 C 
BRANCH  64  65
ATOM     65  N   UNL     1       6.361  -0.242   4.334  1.00  0.00    -0.352 N 
ATOM     66  C   UNL     1       7.136  -0.532   5.428  1.00  0.00     0.254 C 
ATOM     67  H   UNL     1       6.840  -0.193   3.475  1.00  0.00     0.163 HD
ATOM     68  O   UNL     1       8.352  -0.646   5.321  1.00  0.00    -0.269 OA
BRANCH  66  69
ATOM     69  C   UNL     1       6.512  -0.662   6.749  1.00  0.00     0.072 A 
ATOM     70  C   UNL     1       6.840   0.307   7.705  1.00  0.00     0.034 A 
ATOM     71  C   UNL     1       5.632  -1.692   7.085  1.00  0.00     0.106 A 
ATOM     72  C   UNL     1       6.232   0.253   8.949  1.00  0.00     0.037 A 
ATOM     73  N   UNL     1       5.018  -1.731   8.296  1.00  0.00    -0.248 NA
ATOM     74  Br  UNL     1       6.626   1.538  10.269  1.00  0.00    -0.049 Br
ATOM     75  C   UNL     1       5.323  -0.763   9.194  1.00  0.00     0.128 A 
BRANCH  71  76
ATOM     76  S   UNL     1       5.215  -3.062   6.025  1.00  0.00    -0.123 SA
ATOM     77  H   UNL     1       5.874  -2.937   4.843  1.00  0.00     0.109 HD
ENDBRANCH  71  76
ENDBRANCH  66  69
ENDBRANCH  64  65
ENDBRANCH  63  64
ENDBRANCH   1  63
TORSDOF 12
