REMARK SMILES Cc1ccc(S(=O)(=O)n2cc(C(=O)C(=O)NCC(=O)N[C@@H](Cc3c[nH]c4ccccc34)C(=O)NCCCCNC(=O)c3ccc(-c4c5nc(c(-c6c(F)cccc6F)c6ccc([nH]6)c(-c6c(F)cccc6F)c6nc(c(-c7c(F)cccc7F)c7ccc4[nH]7)C=C6)C=C5)cc3)c3ccccc32)cc1
REMARK SMILES IDX 32 1 33 2 34 3 21 5 20 6 18 7 19 8 17 10 16 11 14 12 15 13
REMARK SMILES IDX 12 15 13 16 11 17 9 18 10 19 101 20 96 21 100 22 97 23 99 24
REMARK SMILES IDX 98 25 6 26 7 27 8 28 5 29 1 30 2 31 3 32 103 33 4 34 102 35
REMARK SMILES IDX 22 36 23 37 24 38 31 39 25 40 26 41 30 42 27 44 29 45 28 46
REMARK SMILES IDX 35 47 36 48 37 49 38 50 39 51 40 52 41 54 42 55 43 56 95 57
REMARK SMILES IDX 44 58 94 59 45 60 46 61 47 62 88 63 48 64 93 65 87 66 89 67
REMARK SMILES IDX 49 68 92 69 86 70 85 71 50 73 76 74 59 75 75 76 60 77 63 78
REMARK SMILES IDX 74 79 90 80 61 81 62 82 73 84 91 85 64 86 51 87 52 88 57 89
REMARK SMILES IDX 53 90 54 91 56 92 58 93 55 94 77 95 78 96 83 97 79 98 80 99
REMARK SMILES IDX 82 100 84 101 81 102 65 103 66 104 71 105 67 106 68 107
REMARK SMILES IDX 70 108 72 109 69 110
REMARK H PARENT 34 4 20 9 16 14 25 43 39 53 89 72 63 83
REMARK Flexibility Score: inf
ROOT
ATOM      1  C   UNL     1      -9.719   0.323   3.243  1.00  0.00     0.242 C 
ATOM      2  O   UNL     1      -8.778  -0.469   3.104  1.00  0.00    -0.273 OA
ATOM      3  N   UNL     1     -10.719  -0.072   4.085  1.00  0.00    -0.354 N 
ATOM      4  H   UNL     1     -10.844  -1.046   4.150  1.00  0.00     0.163 HD
ENDROOT
BRANCH   1   5
ATOM      5  C   UNL     1      -9.652   1.702   2.540  1.00  0.00     0.175 C 
BRANCH   5   6
ATOM      6  N   UNL     1     -10.947   2.228   2.098  1.00  0.00    -0.342 N 
ATOM      7  C   UNL     1     -11.457   2.218   0.828  1.00  0.00     0.240 C 
ATOM      8  O   UNL     1     -12.672   2.350   0.684  1.00  0.00    -0.273 OA
ATOM      9  H   UNL     1     -11.513   2.634   2.792  1.00  0.00     0.164 HD
BRANCH   7  10
ATOM     10  C   UNL     1     -10.513   1.986  -0.367  1.00  0.00     0.216 C 
BRANCH  10  11
ATOM     11  N   UNL     1      -9.410   2.954  -0.329  1.00  0.00    -0.340 N 
ATOM     12  C   UNL     1      -8.069   2.760  -0.615  1.00  0.00     0.292 C 
ATOM     13  O   UNL     1      -7.248   3.645  -0.404  1.00  0.00    -0.265 OA
ATOM     14  H   UNL     1      -9.658   3.869  -0.064  1.00  0.00     0.164 HD
BRANCH  12  15
ATOM     15  C   UNL     1      -7.611   1.415  -1.189  1.00  0.00     0.252 C 
ATOM     16  O   UNL     1      -8.281   0.969  -2.121  1.00  0.00    -0.283 OA
BRANCH  15  17
ATOM     17  C   UNL     1      -6.547   0.626  -0.549  1.00  0.00     0.054 A 
ATOM     18  N   UNL     1      -4.672  -0.129   0.472  1.00  0.00    -0.240 N 
ATOM     19  C   UNL     1      -5.267   0.991  -0.109  1.00  0.00     0.117 A 
ATOM     20  C   UNL     1      -5.663  -1.120   0.584  1.00  0.00     0.065 A 
ATOM     21  C   UNL     1      -6.641  -0.784  -0.346  1.00  0.00     0.012 A 
ATOM     22  C   UNL     1      -5.617  -2.398   1.177  1.00  0.00     0.028 A 
ATOM     23  C   UNL     1      -7.482  -1.806  -0.837  1.00  0.00     0.011 A 
ATOM     24  C   UNL     1      -6.394  -3.407   0.613  1.00  0.00     0.002 A 
ATOM     25  C   UNL     1      -7.288  -3.124  -0.410  1.00  0.00     0.001 A 
BRANCH  18  26
ATOM     26  S   UNL     1      -3.138  -0.841   0.044  1.00  0.00     0.268 S 
ATOM     27  O   UNL     1      -3.384  -1.347  -1.298  1.00  0.00    -0.201 OA
ATOM     28  O   UNL     1      -2.903  -1.749   1.160  1.00  0.00    -0.201 OA
BRANCH  26  29
ATOM     29  C   UNL     1      -1.579  -0.046  -0.067  1.00  0.00     0.088 A 
ATOM     30  C   UNL     1       2.645   0.861  -0.047  1.00  0.00     0.044 C 
ATOM     31  C   UNL     1       1.168   0.595  -0.104  1.00  0.00    -0.051 A 
ATOM     32  C   UNL     1       0.771  -0.714  -0.332  1.00  0.00     0.005 A 
ATOM     33  C   UNL     1       0.179   1.581   0.116  1.00  0.00     0.005 A 
ATOM     34  C   UNL     1      -0.577  -1.018  -0.325  1.00  0.00     0.022 A 
ATOM     35  C   UNL     1      -1.207   1.269   0.142  1.00  0.00     0.022 A 
ENDBRANCH  26  29
ENDBRANCH  18  26
ENDBRANCH  15  17
ENDBRANCH  12  15
ENDBRANCH  10  11
ENDBRANCH   7  10
ENDBRANCH   5   6
BRANCH   5  36
ATOM     36  C   UNL     1      -8.757   2.749   3.230  1.00  0.00     0.072 C 
BRANCH  36  37
ATOM     37  C   UNL     1      -9.155   3.087   4.627  1.00  0.00    -0.020 A 
ATOM     38  C   UNL     1      -8.924   2.294   5.734  1.00  0.00     0.087 A 
ATOM     39  C   UNL     1      -9.812   4.268   5.096  1.00  0.00     0.003 A 
ATOM     40  N   UNL     1      -9.566   2.853   6.801  1.00  0.00    -0.361 N 
ATOM     41  C   UNL     1     -10.155   4.036   6.427  1.00  0.00     0.046 A 
ATOM     42  C   UNL     1     -10.176   5.502   4.517  1.00  0.00     0.010 A 
ATOM     43  H   UNL     1      -9.601   2.466   7.706  1.00  0.00     0.166 HD
ATOM     44  C   UNL     1     -10.938   4.923   7.170  1.00  0.00     0.026 A 
ATOM     45  C   UNL     1     -10.886   6.439   5.279  1.00  0.00     0.001 A 
ATOM     46  C   UNL     1     -11.286   6.138   6.577  1.00  0.00     0.002 A 
ENDBRANCH  36  37
ENDBRANCH   5  36
ENDBRANCH   1   5
BRANCH   3  47
ATOM     47  C   UNL     1     -11.628   0.716   4.899  1.00  0.00     0.116 C 
BRANCH  47  48
ATOM     48  C   UNL     1     -13.020   0.103   5.060  1.00  0.00     0.023 C 
BRANCH  48  49
ATOM     49  C   UNL     1     -13.087  -1.163   5.919  1.00  0.00     0.023 C 
BRANCH  49  50
ATOM     50  C   UNL     1     -12.645  -0.994   7.368  1.00  0.00     0.116 C 
BRANCH  50  51
ATOM     51  N   UNL     1     -13.582  -0.300   8.231  1.00  0.00    -0.352 N 
ATOM     52  C   UNL     1     -13.532  -0.020   9.594  1.00  0.00     0.251 C 
ATOM     53  H   UNL     1     -14.390   0.029   7.776  1.00  0.00     0.163 HD
ATOM     54  O   UNL     1     -14.507   0.453  10.127  1.00  0.00    -0.269 OA
BRANCH  52  55
ATOM     55  C   UNL     1     -12.251  -0.128  10.365  1.00  0.00     0.039 A 
ATOM     56  C   UNL     1     -12.120   0.685  11.507  1.00  0.00     0.014 A 
ATOM     57  C   UNL     1     -11.130  -0.785   9.880  1.00  0.00     0.014 A 
ATOM     58  C   UNL     1     -10.855   1.058  11.954  1.00  0.00     0.010 A 
ATOM     59  C   UNL     1      -9.883  -0.328  10.228  1.00  0.00     0.010 A 
ATOM     60  C   UNL     1      -9.757   0.652  11.210  1.00  0.00    -0.014 A 
BRANCH  60  61
ATOM     61  C   UNL     1      -8.437   1.248  11.274  1.00  0.00     0.031 A 
ATOM     62  C   UNL     1      -7.331   0.501  11.900  1.00  0.00     0.074 A 
ATOM     63  C   UNL     1      -8.232   2.376  10.560  1.00  0.00     0.049 A 
ATOM     64  N   UNL     1      -6.185   1.004  12.193  1.00  0.00    -0.248 NA
ATOM     65  C   UNL     1      -7.457  -0.902  12.284  1.00  0.00     0.031 C 
ATOM     66  C   UNL     1      -6.964   2.929  10.097  1.00  0.00     0.029 A 
ATOM     67  N   UNL     1      -9.145   3.348  10.191  1.00  0.00    -0.354 N 
ATOM     68  C   UNL     1      -5.351  -0.027  12.570  1.00  0.00     0.074 A 
ATOM     69  C   UNL     1      -6.204  -1.188  12.650  1.00  0.00     0.031 C 
ATOM     70  C   UNL     1      -7.151   4.216   9.750  1.00  0.00     0.029 A 
ATOM     71  C   UNL     1      -8.499   4.582  10.158  1.00  0.00     0.049 A 
ATOM     72  H   UNL     1     -10.095   3.193   9.986  1.00  0.00     0.167 HD
ATOM     73  C   UNL     1      -4.010   0.211  12.658  1.00  0.00     0.037 A 
ATOM     74  C   UNL     1      -8.770   5.557  11.081  1.00  0.00     0.037 A 
ATOM     75  C   UNL     1      -3.732   1.623  12.402  1.00  0.00     0.049 A 
ATOM     76  C   UNL     1      -7.589   5.877  11.973  1.00  0.00     0.074 A 
ATOM     77  C   UNL     1      -3.403   2.308  11.243  1.00  0.00     0.029 A 
ATOM     78  N   UNL     1      -4.140   2.578  13.326  1.00  0.00    -0.354 N 
ATOM     79  N   UNL     1      -6.607   5.050  12.210  1.00  0.00    -0.248 NA
ATOM     80  C   UNL     1      -7.424   7.154  12.662  1.00  0.00     0.031 C 
ATOM     81  C   UNL     1      -3.708   3.678  11.448  1.00  0.00     0.029 A 
ATOM     82  C   UNL     1      -4.181   3.829  12.741  1.00  0.00     0.049 A 
ATOM     83  H   UNL     1      -4.368   2.390  14.265  1.00  0.00     0.167 HD
ATOM     84  C   UNL     1      -5.710   5.640  13.059  1.00  0.00     0.074 A 
ATOM     85  C   UNL     1      -6.258   6.961  13.304  1.00  0.00     0.031 C 
ATOM     86  C   UNL     1      -4.593   4.996  13.505  1.00  0.00     0.037 A 
BRANCH  73  87
ATOM     87  C   UNL     1      -2.941  -0.858  12.696  1.00  0.00     0.057 A 
ATOM     88  C   UNL     1      -1.653  -0.600  12.181  1.00  0.00     0.134 A 
ATOM     89  C   UNL     1      -3.115  -2.169  13.173  1.00  0.00     0.134 A 
ATOM     90  F   UNL     1      -1.291   0.623  11.773  1.00  0.00    -0.206 F 
ATOM     91  C   UNL     1      -0.666  -1.587  12.055  1.00  0.00     0.040 A 
ATOM     92  C   UNL     1      -2.155  -3.179  13.008  1.00  0.00     0.040 A 
ATOM     93  F   UNL     1      -4.195  -2.524  13.878  1.00  0.00    -0.206 F 
ATOM     94  C   UNL     1      -0.926  -2.893  12.435  1.00  0.00     0.006 A 
ENDBRANCH  73  87
BRANCH  74  95
ATOM     95  C   UNL     1     -10.190   5.585  11.532  1.00  0.00     0.057 A 
ATOM     96  C   UNL     1     -11.159   6.082  10.650  1.00  0.00     0.134 A 
ATOM     97  C   UNL     1     -10.642   4.771  12.577  1.00  0.00     0.134 A 
ATOM     98  F   UNL     1     -10.798   6.899   9.649  1.00  0.00    -0.206 F 
ATOM     99  C   UNL     1     -12.490   5.655  10.697  1.00  0.00     0.040 A 
ATOM    100  C   UNL     1     -11.977   4.350  12.644  1.00  0.00     0.040 A 
ATOM    101  F   UNL     1      -9.780   4.257  13.464  1.00  0.00    -0.206 F 
ATOM    102  C   UNL     1     -12.892   4.748  11.671  1.00  0.00     0.006 A 
ENDBRANCH  74  95
BRANCH  86 103
ATOM    103  C   UNL     1      -3.744   5.443  14.667  1.00  0.00     0.057 A 
ATOM    104  C   UNL     1      -4.248   6.146  15.771  1.00  0.00     0.134 A 
ATOM    105  C   UNL     1      -2.406   5.009  14.787  1.00  0.00     0.134 A 
ATOM    106  F   UNL     1      -5.532   6.524  15.836  1.00  0.00    -0.206 F 
ATOM    107  C   UNL     1      -3.465   6.440  16.893  1.00  0.00     0.040 A 
ATOM    108  C   UNL     1      -1.633   5.246  15.927  1.00  0.00     0.040 A 
ATOM    109  F   UNL     1      -1.803   4.307  13.816  1.00  0.00    -0.206 F 
ATOM    110  C   UNL     1      -2.158   5.977  16.981  1.00  0.00     0.006 A 
ENDBRANCH  86 103
ENDBRANCH  60  61
ENDBRANCH  52  55
ENDBRANCH  50  51
ENDBRANCH  49  50
ENDBRANCH  48  49
ENDBRANCH  47  48
ENDBRANCH   3  47
TORSDOF 20
