REMARK SMILES Cc1c(NC(=O)c2ccccc2NC(=O)[C@@H]2CCCO2)cccc1C(=O)NCCCCNC(=O)c1ccc(-c2c3nc(c(-c4c(F)cccc4F)c4ccc([nH]4)c(-c4c(F)cccc4F)c4nc(c(-c5c(F)cccc5F)c5ccc2[nH]5)C=C4)C=C3)cc1
REMARK SMILES IDX 28 1 27 2 25 3 26 4 24 6 1 7 2 8 3 9 21 10 23 11 22 12 4 13
REMARK SMILES IDX 5 14 6 16 7 17 8 18 12 19 9 20 11 21 10 22 13 23 14 24 15 26
REMARK SMILES IDX 16 27 17 28 20 29 18 30 19 31 29 32 30 33 31 34 32 35 33 36
REMARK SMILES IDX 34 38 35 39 36 40 88 41 37 42 87 43 38 44 39 45 40 46 81 47
REMARK SMILES IDX 41 48 86 49 80 50 82 51 42 52 85 53 79 54 78 55 43 57 69 58
REMARK SMILES IDX 52 59 68 60 53 61 56 62 67 63 83 64 54 65 55 66 66 68 84 69
REMARK SMILES IDX 57 70 44 71 45 72 50 73 46 74 47 75 49 76 51 77 48 78 70 79
REMARK SMILES IDX 71 80 76 81 72 82 73 83 75 84 77 85 74 86 58 87 59 88 64 89
REMARK SMILES IDX 60 90 61 91 63 92 65 93 62 94
REMARK H PARENT 27 5 4 15 13 25 32 37 82 56 56 67
REMARK Flexibility Score: inf
ROOT
ATOM      1  C   UNL     1       3.450   1.885   0.107  1.00  0.00     0.116 C 
ENDROOT
BRANCH   1   2
ATOM      2  N   UNL     1       2.197   2.553  -0.183  1.00  0.00    -0.352 N 
ATOM      3  C   UNL     1       0.867   2.221  -0.170  1.00  0.00     0.251 C 
ATOM      4  O   UNL     1       0.118   3.158  -0.478  1.00  0.00    -0.269 OA
ATOM      5  H   UNL     1       2.337   3.486  -0.463  1.00  0.00     0.163 HD
BRANCH   3   6
ATOM      6  C   UNL     1       0.225   0.914   0.232  1.00  0.00     0.044 A 
ATOM      7  C   UNL     1       1.994  -0.750  -0.578  1.00  0.00     0.047 C 
ATOM      8  C   UNL     1       0.716  -0.407   0.128  1.00  0.00    -0.015 A 
ATOM      9  C   UNL     1      -0.114  -1.505   0.501  1.00  0.00     0.045 A 
ATOM     10  C   UNL     1      -1.440  -1.317   0.878  1.00  0.00     0.026 A 
ATOM     11  C   UNL     1      -1.125   1.062   0.635  1.00  0.00     0.014 A 
ATOM     12  C   UNL     1      -1.949  -0.028   0.934  1.00  0.00     0.003 A 
BRANCH   9  13
ATOM     13  N   UNL     1       0.449  -2.789   0.424  1.00  0.00    -0.322 N 
ATOM     14  C   UNL     1      -0.005  -3.976  -0.092  1.00  0.00     0.257 C 
ATOM     15  H   UNL     1       1.349  -2.850   0.819  1.00  0.00     0.170 HD
ATOM     16  O   UNL     1       0.697  -4.978   0.065  1.00  0.00    -0.269 OA
BRANCH  14  17
ATOM     17  C   UNL     1      -1.252  -4.105  -0.893  1.00  0.00     0.063 A 
ATOM     18  C   UNL     1      -1.968  -5.289  -0.627  1.00  0.00     0.016 A 
ATOM     19  C   UNL     1      -1.687  -3.222  -1.915  1.00  0.00     0.054 A 
ATOM     20  C   UNL     1      -3.151  -5.571  -1.295  1.00  0.00     0.001 A 
ATOM     21  C   UNL     1      -2.930  -3.485  -2.498  1.00  0.00     0.027 A 
ATOM     22  C   UNL     1      -3.648  -4.650  -2.203  1.00  0.00     0.002 A 
BRANCH  19  23
ATOM     23  N   UNL     1      -0.838  -2.175  -2.337  1.00  0.00    -0.323 N 
ATOM     24  C   UNL     1      -0.857  -1.166  -3.257  1.00  0.00     0.253 C 
ATOM     25  H   UNL     1       0.002  -2.171  -1.823  1.00  0.00     0.170 HD
ATOM     26  O   UNL     1       0.137  -0.427  -3.271  1.00  0.00    -0.272 OA
BRANCH  24  27
ATOM     27  C   UNL     1      -1.993  -0.973  -4.262  1.00  0.00     0.207 C 
ATOM     28  C   UNL     1      -1.873  -1.997  -5.383  1.00  0.00     0.044 C 
ATOM     29  O   UNL     1      -1.985   0.310  -4.917  1.00  0.00    -0.368 OA
ATOM     30  C   UNL     1      -2.592  -1.316  -6.515  1.00  0.00     0.032 C 
ATOM     31  C   UNL     1      -2.161   0.119  -6.326  1.00  0.00     0.161 C 
ENDBRANCH  24  27
ENDBRANCH  19  23
ENDBRANCH  14  17
ENDBRANCH   9  13
ENDBRANCH   3   6
ENDBRANCH   1   2
BRANCH   1  32
ATOM     32  C   UNL     1       4.139   1.409  -1.188  1.00  0.00     0.023 C 
BRANCH  32  33
ATOM     33  C   UNL     1       4.961   2.461  -1.923  1.00  0.00     0.023 C 
BRANCH  33  34
ATOM     34  C   UNL     1       6.331   2.670  -1.310  1.00  0.00     0.116 C 
BRANCH  34  35
ATOM     35  N   UNL     1       7.358   1.731  -1.752  1.00  0.00    -0.352 N 
ATOM     36  C   UNL     1       8.649   1.557  -1.278  1.00  0.00     0.251 C 
ATOM     37  H   UNL     1       7.096   1.136  -2.492  1.00  0.00     0.163 HD
ATOM     38  O   UNL     1       9.401   0.753  -1.825  1.00  0.00    -0.269 OA
BRANCH  36  39
ATOM     39  C   UNL     1       9.064   2.209  -0.008  1.00  0.00     0.039 A 
ATOM     40  C   UNL     1       9.709   1.408   0.941  1.00  0.00     0.014 A 
ATOM     41  C   UNL     1       8.534   3.437   0.367  1.00  0.00     0.014 A 
ATOM     42  C   UNL     1       9.515   1.673   2.292  1.00  0.00     0.010 A 
ATOM     43  C   UNL     1       8.209   3.618   1.694  1.00  0.00     0.010 A 
ATOM     44  C   UNL     1       8.628   2.685   2.647  1.00  0.00    -0.014 A 
BRANCH  44  45
ATOM     45  C   UNL     1       7.955   2.735   3.941  1.00  0.00     0.031 A 
ATOM     46  C   UNL     1       8.206   3.852   4.871  1.00  0.00     0.074 A 
ATOM     47  C   UNL     1       7.010   1.810   4.226  1.00  0.00     0.049 A 
ATOM     48  N   UNL     1       7.956   3.821   6.136  1.00  0.00    -0.248 NA
ATOM     49  C   UNL     1       8.830   5.096   4.444  1.00  0.00     0.031 C 
ATOM     50  C   UNL     1       6.017   1.853   5.295  1.00  0.00     0.029 A 
ATOM     51  N   UNL     1       6.894   0.516   3.697  1.00  0.00    -0.354 N 
ATOM     52  C   UNL     1       8.099   5.101   6.626  1.00  0.00     0.074 A 
ATOM     53  C   UNL     1       8.737   5.827   5.556  1.00  0.00     0.031 C 
ATOM     54  C   UNL     1       5.591   0.605   5.543  1.00  0.00     0.029 A 
ATOM     55  C   UNL     1       6.405  -0.295   4.744  1.00  0.00     0.049 A 
ATOM     56  H   UNL     1       7.110   0.230   2.780  1.00  0.00     0.167 HD
ATOM     57  C   UNL     1       7.526   5.414   7.826  1.00  0.00     0.037 A 
ATOM     58  C   UNL     1       7.151  -1.322   5.248  1.00  0.00     0.037 A 
ATOM     59  C   UNL     1       7.013   4.206   8.483  1.00  0.00     0.049 A 
ATOM     60  C   UNL     1       7.505  -1.165   6.710  1.00  0.00     0.074 A 
ATOM     61  C   UNL     1       5.743   3.665   8.602  1.00  0.00     0.029 A 
ATOM     62  N   UNL     1       7.901   3.208   8.875  1.00  0.00    -0.354 N 
ATOM     63  N   UNL     1       7.399  -0.044   7.368  1.00  0.00    -0.248 NA
ATOM     64  C   UNL     1       8.039  -2.245   7.537  1.00  0.00     0.031 C 
ATOM     65  C   UNL     1       5.877   2.308   8.994  1.00  0.00     0.029 A 
ATOM     66  C   UNL     1       7.225   2.031   9.138  1.00  0.00     0.049 A 
ATOM     67  H   UNL     1       8.875   3.324   8.954  1.00  0.00     0.167 HD
ATOM     68  C   UNL     1       7.873  -0.212   8.642  1.00  0.00     0.074 A 
ATOM     69  C   UNL     1       8.235  -1.615   8.709  1.00  0.00     0.031 C 
ATOM     70  C   UNL     1       7.947   0.827   9.526  1.00  0.00     0.037 A 
BRANCH  57  71
ATOM     71  C   UNL     1       7.145   6.825   8.259  1.00  0.00     0.057 A 
ATOM     72  C   UNL     1       6.131   7.029   9.219  1.00  0.00     0.134 A 
ATOM     73  C   UNL     1       7.651   8.022   7.721  1.00  0.00     0.134 A 
ATOM     74  F   UNL     1       5.618   6.016   9.930  1.00  0.00    -0.206 F 
ATOM     75  C   UNL     1       5.583   8.289   9.509  1.00  0.00     0.040 A 
ATOM     76  C   UNL     1       7.090   9.284   7.970  1.00  0.00     0.040 A 
ATOM     77  F   UNL     1       8.758   8.058   6.976  1.00  0.00    -0.206 F 
ATOM     78  C   UNL     1       6.036   9.421   8.854  1.00  0.00     0.006 A 
ENDBRANCH  57  71
BRANCH  58  79
ATOM     79  C   UNL     1       8.002  -1.984   4.226  1.00  0.00     0.057 A 
ATOM     80  C   UNL     1       7.372  -2.685   3.182  1.00  0.00     0.134 A 
ATOM     81  C   UNL     1       9.340  -1.630   4.037  1.00  0.00     0.134 A 
ATOM     82  F   UNL     1       6.086  -3.054   3.299  1.00  0.00    -0.206 F 
ATOM     83  C   UNL     1       8.007  -2.920   1.960  1.00  0.00     0.040 A 
ATOM     84  C   UNL     1       9.990  -1.869   2.819  1.00  0.00     0.040 A 
ATOM     85  F   UNL     1      10.001  -0.936   4.975  1.00  0.00    -0.206 F 
ATOM     86  C   UNL     1       9.311  -2.479   1.765  1.00  0.00     0.006 A 
ENDBRANCH  58  79
BRANCH  70  87
ATOM     87  C   UNL     1       8.644   0.794  10.862  1.00  0.00     0.057 A 
ATOM     88  C   UNL     1       9.785   0.027  11.138  1.00  0.00     0.134 A 
ATOM     89  C   UNL     1       8.254   1.683  11.889  1.00  0.00     0.134 A 
ATOM     90  F   UNL     1      10.324  -0.783  10.216  1.00  0.00    -0.206 F 
ATOM     91  C   UNL     1      10.461   0.101  12.363  1.00  0.00     0.040 A 
ATOM     92  C   UNL     1       8.952   1.803  13.094  1.00  0.00     0.040 A 
ATOM     93  F   UNL     1       7.191   2.489  11.754  1.00  0.00    -0.206 F 
ATOM     94  C   UNL     1      10.054   1.001  13.341  1.00  0.00     0.006 A 
ENDBRANCH  70  87
ENDBRANCH  44  45
ENDBRANCH  36  39
ENDBRANCH  34  35
ENDBRANCH  33  34
ENDBRANCH  32  33
ENDBRANCH   1  32
TORSDOF 15
