REMARK SMILES COc1ccc2[nH]c(C(=O)c3cc(C)ccn3)c(CC(=O)NCCCCNC(=O)c3ccc(-c4c5nc(c(-c6c(F)cccc6F)c6ccc([nH]6)c(-c6c(F)cccc6F)c6nc(c(-c7c(F)cccc7F)c7ccc4[nH]7)C=C6)C=C5)cc3)c2c1
REMARK SMILES IDX 24 1 23 2 22 3 20 4 21 5 19 7 18 8 3 9 4 10 85 11 5 12 84 13
REMARK SMILES IDX 6 14 7 15 8 16 2 18 1 19 9 20 10 21 11 22 12 23 17 24 13 25
REMARK SMILES IDX 16 26 14 27 15 28 25 29 26 30 27 31 28 32 29 34 30 35 31 36
REMARK SMILES IDX 83 37 32 38 82 39 33 40 34 41 35 42 76 43 36 44 81 45 75 46
REMARK SMILES IDX 77 47 37 48 80 49 74 50 73 51 38 53 64 54 47 55 63 56 48 57
REMARK SMILES IDX 51 58 62 59 78 60 49 61 50 62 61 64 79 65 52 66 39 67 40 68
REMARK SMILES IDX 45 69 41 70 42 71 44 72 46 73 43 74 65 75 66 76 71 77 67 78
REMARK SMILES IDX 68 79 70 80 72 81 69 82 53 83 54 84 59 85 55 86 56 87 58 88
REMARK SMILES IDX 60 89 57 90
REMARK H PARENT 22 6 7 17 27 33 77 52 51 63
REMARK Flexibility Score: inf
ROOT
ATOM      1  C   UNL     1      -0.810  -4.138   3.706  1.00  0.00     0.023 C 
ENDROOT
BRANCH   1   2
ATOM      2  C   UNL     1      -2.030  -3.223   3.777  1.00  0.00     0.116 C 
BRANCH   2   3
ATOM      3  N   UNL     1      -2.708  -3.300   5.051  1.00  0.00    -0.356 N 
ATOM      4  C   UNL     1      -2.745  -2.390   6.070  1.00  0.00     0.224 C 
ATOM      5  O   UNL     1      -3.573  -2.593   6.963  1.00  0.00    -0.275 OA
ATOM      6  H   UNL     1      -3.217  -4.128   5.207  1.00  0.00     0.163 HD
BRANCH   4   7
ATOM      7  C   UNL     1      -1.904  -1.117   6.034  1.00  0.00     0.138 C 
BRANCH   7   8
ATOM      8  C   UNL     1      -0.420  -1.332   5.865  1.00  0.00    -0.002 A 
ATOM      9  C   UNL     1       1.048  -0.040   2.570  1.00  0.00     0.119 A 
ATOM     10  C   UNL     1       2.334  -0.533   2.777  1.00  0.00     0.048 A 
ATOM     11  C   UNL     1       0.068  -0.185   3.556  1.00  0.00     0.057 A 
ATOM     12  C   UNL     1       2.659  -1.217   3.955  1.00  0.00     0.030 A 
ATOM     13  C   UNL     1       0.358  -0.903   4.736  1.00  0.00     0.008 A 
ATOM     14  C   UNL     1       1.648  -1.394   4.908  1.00  0.00     0.046 A 
ATOM     15  N   UNL     1       1.674  -2.039   6.121  1.00  0.00    -0.352 N 
ATOM     16  C   UNL     1       0.451  -1.964   6.755  1.00  0.00     0.093 A 
ATOM     17  H   UNL     1       2.464  -2.496   6.490  1.00  0.00     0.167 HD
BRANCH   9  18
ATOM     18  O   UNL     1       0.666   0.644   1.446  1.00  0.00    -0.497 OA
ATOM     19  C   UNL     1       1.093   0.034   0.230  1.00  0.00     0.278 C 
ENDBRANCH   9  18
BRANCH  16  20
ATOM     20  C   UNL     1       0.149  -2.490   8.085  1.00  0.00     0.227 C 
ATOM     21  O   UNL     1      -0.949  -2.369   8.621  1.00  0.00    -0.285 OA
BRANCH  20  22
ATOM     22  C   UNL     1       1.220  -3.163   8.870  1.00  0.00     0.113 A 
ATOM     23  C   UNL     1       2.341  -2.444   9.272  1.00  0.00     0.036 A 
ATOM     24  N   UNL     1       0.999  -4.462   9.193  1.00  0.00    -0.253 NA
ATOM     25  C   UNL     1       3.299  -3.094  10.054  1.00  0.00    -0.047 A 
ATOM     26  C   UNL     1       1.920  -5.054   9.977  1.00  0.00     0.112 A 
ATOM     27  C   UNL     1       4.530  -2.382  10.527  1.00  0.00     0.044 C 
ATOM     28  C   UNL     1       3.071  -4.423  10.422  1.00  0.00     0.023 A 
ENDBRANCH  20  22
ENDBRANCH  16  20
ENDBRANCH   7   8
ENDBRANCH   4   7
ENDBRANCH   2   3
ENDBRANCH   1   2
BRANCH   1  29
ATOM     29  C   UNL     1      -1.135  -5.633   3.690  1.00  0.00     0.023 C 
BRANCH  29  30
ATOM     30  C   UNL     1      -2.083  -6.081   2.586  1.00  0.00     0.116 C 
BRANCH  30  31
ATOM     31  N   UNL     1      -1.593  -5.777   1.250  1.00  0.00    -0.352 N 
ATOM     32  C   UNL     1      -1.653  -6.551   0.116  1.00  0.00     0.251 C 
ATOM     33  H   UNL     1      -1.160  -4.899   1.144  1.00  0.00     0.163 HD
ATOM     34  O   UNL     1      -1.080  -6.196  -0.910  1.00  0.00    -0.269 OA
BRANCH  32  35
ATOM     35  C   UNL     1      -2.380  -7.838   0.150  1.00  0.00     0.039 A 
ATOM     36  C   UNL     1      -1.762  -8.976  -0.373  1.00  0.00     0.014 A 
ATOM     37  C   UNL     1      -3.652  -7.927   0.722  1.00  0.00     0.014 A 
ATOM     38  C   UNL     1      -2.392 -10.217  -0.261  1.00  0.00     0.010 A 
ATOM     39  C   UNL     1      -4.243  -9.174   0.901  1.00  0.00     0.010 A 
ATOM     40  C   UNL     1      -3.620 -10.332   0.411  1.00  0.00    -0.014 A 
BRANCH  40  41
ATOM     41  C   UNL     1      -4.270 -11.653   0.609  1.00  0.00     0.031 A 
ATOM     42  C   UNL     1      -5.608 -11.937  -0.017  1.00  0.00     0.074 A 
ATOM     43  C   UNL     1      -3.687 -12.573   1.402  1.00  0.00     0.049 A 
ATOM     44  N   UNL     1      -6.365 -12.998   0.096  1.00  0.00    -0.248 NA
ATOM     45  C   UNL     1      -6.182 -10.877  -0.861  1.00  0.00     0.031 C 
ATOM     46  C   UNL     1      -2.413 -12.404   2.103  1.00  0.00     0.029 A 
ATOM     47  N   UNL     1      -4.097 -13.833   1.760  1.00  0.00    -0.354 N 
ATOM     48  C   UNL     1      -7.506 -12.730  -0.650  1.00  0.00     0.074 A 
ATOM     49  C   UNL     1      -7.368 -11.385  -1.165  1.00  0.00     0.031 C 
ATOM     50  C   UNL     1      -2.135 -13.525   2.787  1.00  0.00     0.029 A 
ATOM     51  C   UNL     1      -3.227 -14.476   2.608  1.00  0.00     0.049 A 
ATOM     52  H   UNL     1      -4.936 -14.238   1.441  1.00  0.00     0.167 HD
ATOM     53  C   UNL     1      -8.562 -13.539  -0.905  1.00  0.00     0.037 A 
ATOM     54  C   UNL     1      -3.306 -15.692   3.182  1.00  0.00     0.037 A 
ATOM     55  C   UNL     1      -8.689 -14.883  -0.409  1.00  0.00     0.049 A 
ATOM     56  C   UNL     1      -4.499 -16.563   2.898  1.00  0.00     0.074 A 
ATOM     57  C   UNL     1      -9.697 -15.800  -0.653  1.00  0.00     0.029 A 
ATOM     58  N   UNL     1      -7.780 -15.503   0.436  1.00  0.00    -0.354 N 
ATOM     59  N   UNL     1      -5.538 -16.321   2.135  1.00  0.00    -0.248 NA
ATOM     60  C   UNL     1      -4.527 -17.880   3.550  1.00  0.00     0.031 C 
ATOM     61  C   UNL     1      -9.421 -16.959   0.080  1.00  0.00     0.029 A 
ATOM     62  C   UNL     1      -8.214 -16.783   0.738  1.00  0.00     0.049 A 
ATOM     63  H   UNL     1      -6.950 -15.094   0.771  1.00  0.00     0.167 HD
ATOM     64  C   UNL     1      -6.325 -17.465   2.190  1.00  0.00     0.074 A 
ATOM     65  C   UNL     1      -5.636 -18.405   3.049  1.00  0.00     0.031 C 
ATOM     66  C   UNL     1      -7.511 -17.714   1.584  1.00  0.00     0.037 A 
BRANCH  53  67
ATOM     67  C   UNL     1      -9.662 -12.991  -1.767  1.00  0.00     0.057 A 
ATOM     68  C   UNL     1      -9.480 -12.760  -3.138  1.00  0.00     0.134 A 
ATOM     69  C   UNL     1     -10.929 -12.726  -1.232  1.00  0.00     0.134 A 
ATOM     70  F   UNL     1      -8.287 -12.981  -3.712  1.00  0.00    -0.206 F 
ATOM     71  C   UNL     1     -10.509 -12.262  -3.938  1.00  0.00     0.040 A 
ATOM     72  C   UNL     1     -11.974 -12.256  -2.028  1.00  0.00     0.040 A 
ATOM     73  F   UNL     1     -11.174 -12.931   0.071  1.00  0.00    -0.206 F 
ATOM     74  C   UNL     1     -11.764 -12.016  -3.384  1.00  0.00     0.006 A 
ENDBRANCH  53  67
BRANCH  54  75
ATOM     75  C   UNL     1      -2.217 -16.172   4.071  1.00  0.00     0.057 A 
ATOM     76  C   UNL     1      -1.384 -17.229   3.686  1.00  0.00     0.134 A 
ATOM     77  C   UNL     1      -1.998 -15.606   5.333  1.00  0.00     0.134 A 
ATOM     78  F   UNL     1      -1.556 -17.825   2.497  1.00  0.00    -0.206 F 
ATOM     79  C   UNL     1      -0.390 -17.724   4.532  1.00  0.00     0.040 A 
ATOM     80  C   UNL     1      -0.990 -16.073   6.178  1.00  0.00     0.040 A 
ATOM     81  F   UNL     1      -2.757 -14.586   5.760  1.00  0.00    -0.206 F 
ATOM     82  C   UNL     1      -0.189 -17.142   5.782  1.00  0.00     0.006 A 
ENDBRANCH  54  75
BRANCH  66  83
ATOM     83  C   UNL     1      -8.119 -19.071   1.790  1.00  0.00     0.057 A 
ATOM     84  C   UNL     1      -8.681 -19.455   3.014  1.00  0.00     0.134 A 
ATOM     85  C   UNL     1      -8.176 -19.991   0.735  1.00  0.00     0.134 A 
ATOM     86  F   UNL     1      -8.647 -18.626   4.068  1.00  0.00    -0.206 F 
ATOM     87  C   UNL     1      -9.257 -20.714   3.188  1.00  0.00     0.040 A 
ATOM     88  C   UNL     1      -8.775 -21.242   0.888  1.00  0.00     0.040 A 
ATOM     89  F   UNL     1      -7.665 -19.683  -0.467  1.00  0.00    -0.206 F 
ATOM     90  C   UNL     1      -9.312 -21.609   2.120  1.00  0.00     0.006 A 
ENDBRANCH  66  83
ENDBRANCH  40  41
ENDBRANCH  32  35
ENDBRANCH  30  31
ENDBRANCH  29  30
ENDBRANCH   1  29
TORSDOF 15
