REMARK SMILES [NH3+][C@]1(C(=O)NCCCCNC(=O)c2ccc(-c3c4nc(c(-c5c(F)cccc5F)c5ccc([nH]5)c(-c5c(F)cccc5F)c5nc(c(-c6c(F)cccc6F)c6ccc3[nH]6)C=C5)C=C4)cc2)CCC[C@@H]1CCOc1ccc(CO)cc1
REMARK SMILES IDX 3 1 4 2 5 3 2 5 67 6 70 7 68 8 69 9 1 10 71 14 72 15 73 16
REMARK SMILES IDX 74 17 75 18 81 19 76 20 80 21 77 22 78 23 79 24 6 26 7 27
REMARK SMILES IDX 8 28 9 29 10 30 11 31 12 33 13 34 14 35 66 36 15 37 65 38
REMARK SMILES IDX 16 39 17 40 18 41 59 42 19 43 64 44 58 45 60 46 20 47 63 48
REMARK SMILES IDX 57 49 56 50 21 52 47 53 30 54 46 55 31 56 34 57 45 58 61 59
REMARK SMILES IDX 32 60 33 61 44 63 62 64 35 65 22 66 23 67 28 68 24 69 25 70
REMARK SMILES IDX 27 71 29 72 26 73 48 74 49 75 54 76 50 77 51 78 53 79 55 80
REMARK SMILES IDX 52 81 36 82 37 83 42 84 38 85 39 86 41 87 43 88 40 89
REMARK H PARENT 5 4 1 11 1 12 1 13 79 25 10 32 60 51 34 62
REMARK Flexibility Score: inf
ROOT
ATOM      1  C   UNL     1       1.181   0.303   0.239  1.00  0.00     0.281 C 
ATOM      2  O   UNL     1       1.061   1.154   1.129  1.00  0.00    -0.268 OA
ATOM      3  N   UNL     1       1.742   0.747  -0.932  1.00  0.00    -0.351 N 
ATOM      4  H   UNL     1       2.045   1.683  -0.902  1.00  0.00     0.163 HD
ENDROOT
BRANCH   1   5
ATOM      5  C   UNL     1       0.719  -1.172   0.486  1.00  0.00     0.176 C 
ATOM      6  C   UNL     1       1.332  -1.686   1.817  1.00  0.00     0.079 C 
ATOM      7  C   UNL     1      -0.807  -1.321   0.790  1.00  0.00     0.064 C 
ATOM      8  C   UNL     1       0.493  -2.915   2.153  1.00  0.00     0.008 C 
ATOM      9  C   UNL     1      -0.926  -2.490   1.807  1.00  0.00     0.011 C 
BRANCH   5  10
ATOM     10  N   UNL     1       1.257  -2.117  -0.469  1.00  0.00    -0.345 N 
ATOM     11  H   UNL     1       0.917  -3.053  -0.250  1.00  0.00     0.345 HD
ATOM     12  H   UNL     1       2.276  -2.105  -0.421  1.00  0.00     0.345 HD
ATOM     13  H   UNL     1       0.958  -1.857  -1.409  1.00  0.00     0.345 HD
ENDBRANCH   5  10
BRANCH   7  14
ATOM     14  C   UNL     1      -1.969  -1.360  -0.250  1.00  0.00     0.052 C 
BRANCH  14  15
ATOM     15  C   UNL     1      -1.770  -1.535  -1.761  1.00  0.00     0.230 C 
BRANCH  15  16
ATOM     16  O   UNL     1      -1.952  -2.893  -2.211  1.00  0.00    -0.494 OA
BRANCH  16  17
ATOM     17  C   UNL     1      -0.773  -3.526  -2.489  1.00  0.00     0.119 A 
ATOM     18  C   UNL     1       0.086  -3.091  -3.500  1.00  0.00     0.047 A 
ATOM     19  C   UNL     1      -0.398  -4.561  -1.639  1.00  0.00     0.047 A 
ATOM     20  C   UNL     1       1.414  -3.530  -3.502  1.00  0.00     0.010 A 
ATOM     21  C   UNL     1       0.928  -4.998  -1.638  1.00  0.00     0.010 A 
ATOM     22  C   UNL     1       1.865  -4.413  -2.507  1.00  0.00    -0.022 A 
BRANCH  22  23
ATOM     23  C   UNL     1       3.343  -4.562  -2.232  1.00  0.00     0.191 C 
BRANCH  23  24
ATOM     24  O   UNL     1       3.813  -5.880  -2.434  1.00  0.00    -0.392 OA
ATOM     25  H   UNL     1       3.361  -6.482  -1.823  1.00  0.00     0.211 HD
ENDBRANCH  23  24
ENDBRANCH  22  23
ENDBRANCH  16  17
ENDBRANCH  15  16
ENDBRANCH  14  15
ENDBRANCH   7  14
ENDBRANCH   1   5
BRANCH   3  26
ATOM     26  C   UNL     1       1.972   0.092  -2.206  1.00  0.00     0.116 C 
BRANCH  26  27
ATOM     27  C   UNL     1       2.127   1.046  -3.387  1.00  0.00     0.023 C 
BRANCH  27  28
ATOM     28  C   UNL     1       3.540   1.559  -3.648  1.00  0.00     0.023 C 
BRANCH  28  29
ATOM     29  C   UNL     1       4.618   0.500  -3.869  1.00  0.00     0.116 C 
BRANCH  29  30
ATOM     30  N   UNL     1       4.340  -0.442  -4.947  1.00  0.00    -0.352 N 
ATOM     31  C   UNL     1       5.216  -0.954  -5.881  1.00  0.00     0.251 C 
ATOM     32  H   UNL     1       3.408  -0.752  -5.016  1.00  0.00     0.163 HD
ATOM     33  O   UNL     1       4.822  -1.722  -6.753  1.00  0.00    -0.269 OA
BRANCH  31  34
ATOM     34  C   UNL     1       6.625  -0.508  -5.859  1.00  0.00     0.039 A 
ATOM     35  C   UNL     1       7.165   0.078  -7.006  1.00  0.00     0.014 A 
ATOM     36  C   UNL     1       7.359  -0.554  -4.672  1.00  0.00     0.014 A 
ATOM     37  C   UNL     1       8.398   0.728  -6.929  1.00  0.00     0.010 A 
ATOM     38  C   UNL     1       8.546   0.165  -4.578  1.00  0.00     0.010 A 
ATOM     39  C   UNL     1       9.067   0.832  -5.698  1.00  0.00    -0.014 A 
BRANCH  39  40
ATOM     40  C   UNL     1      10.292   1.660  -5.550  1.00  0.00     0.031 A 
ATOM     41  C   UNL     1      11.587   1.023  -5.133  1.00  0.00     0.074 A 
ATOM     42  C   UNL     1      10.219   2.998  -5.700  1.00  0.00     0.049 A 
ATOM     43  N   UNL     1      12.736   1.586  -4.858  1.00  0.00    -0.248 NA
ATOM     44  C   UNL     1      11.581  -0.440  -4.970  1.00  0.00     0.031 C 
ATOM     45  C   UNL     1       9.009   3.751  -6.040  1.00  0.00     0.029 A 
ATOM     46  N   UNL     1      11.184   3.967  -5.573  1.00  0.00    -0.354 N 
ATOM     47  C   UNL     1      13.579   0.553  -4.470  1.00  0.00     0.074 A 
ATOM     48  C   UNL     1      12.795  -0.663  -4.492  1.00  0.00     0.031 C 
ATOM     49  C   UNL     1       9.310   5.058  -6.121  1.00  0.00     0.029 A 
ATOM     50  C   UNL     1      10.723   5.241  -5.806  1.00  0.00     0.049 A 
ATOM     51  H   UNL     1      12.119   3.768  -5.338  1.00  0.00     0.167 HD
ATOM     52  C   UNL     1      14.893   0.607  -4.151  1.00  0.00     0.037 A 
ATOM     53  C   UNL     1      11.367   6.424  -5.768  1.00  0.00     0.037 A 
ATOM     54  C   UNL     1      15.683   1.809  -4.166  1.00  0.00     0.049 A 
ATOM     55  C   UNL     1      12.832   6.454  -5.431  1.00  0.00     0.074 A 
ATOM     56  C   UNL     1      17.038   1.954  -3.925  1.00  0.00     0.029 A 
ATOM     57  N   UNL     1      15.187   3.073  -4.444  1.00  0.00    -0.354 N 
ATOM     58  N   UNL     1      13.632   5.459  -5.134  1.00  0.00    -0.248 NA
ATOM     59  C   UNL     1      13.485   7.772  -5.429  1.00  0.00     0.031 C 
ATOM     60  C   UNL     1      17.356   3.312  -4.026  1.00  0.00     0.029 A 
ATOM     61  C   UNL     1      16.207   4.007  -4.367  1.00  0.00     0.049 A 
ATOM     62  H   UNL     1      14.249   3.277  -4.663  1.00  0.00     0.167 HD
ATOM     63  C   UNL     1      14.885   6.025  -4.938  1.00  0.00     0.074 A 
ATOM     64  C   UNL     1      14.742   7.449  -5.161  1.00  0.00     0.031 C 
ATOM     65  C   UNL     1      16.050   5.419  -4.604  1.00  0.00     0.037 A 
BRANCH  52  66
ATOM     66  C   UNL     1      15.560  -0.682  -3.770  1.00  0.00     0.057 A 
ATOM     67  C   UNL     1      15.816  -1.685  -4.715  1.00  0.00     0.134 A 
ATOM     68  C   UNL     1      15.966  -0.917  -2.451  1.00  0.00     0.134 A 
ATOM     69  F   UNL     1      15.438  -1.527  -5.993  1.00  0.00    -0.206 F 
ATOM     70  C   UNL     1      16.425  -2.888  -4.356  1.00  0.00     0.040 A 
ATOM     71  C   UNL     1      16.601  -2.106  -2.085  1.00  0.00     0.040 A 
ATOM     72  F   UNL     1      15.756   0.003  -1.498  1.00  0.00    -0.206 F 
ATOM     73  C   UNL     1      16.825  -3.098  -3.038  1.00  0.00     0.006 A 
ENDBRANCH  52  66
BRANCH  53  74
ATOM     74  C   UNL     1      10.642   7.679  -6.090  1.00  0.00     0.057 A 
ATOM     75  C   UNL     1      10.891   8.366  -7.284  1.00  0.00     0.134 A 
ATOM     76  C   UNL     1       9.699   8.229  -5.214  1.00  0.00     0.134 A 
ATOM     77  F   UNL     1      11.799   7.898  -8.154  1.00  0.00    -0.206 F 
ATOM     78  C   UNL     1      10.245   9.565  -7.588  1.00  0.00     0.040 A 
ATOM     79  C   UNL     1       9.028   9.416  -5.515  1.00  0.00     0.040 A 
ATOM     80  F   UNL     1       9.410   7.615  -4.058  1.00  0.00    -0.206 F 
ATOM     81  C   UNL     1       9.306  10.091  -6.702  1.00  0.00     0.006 A 
ENDBRANCH  53  74
BRANCH  65  82
ATOM     82  C   UNL     1      17.268   6.286  -4.493  1.00  0.00     0.057 A 
ATOM     83  C   UNL     1      17.464   7.149  -3.408  1.00  0.00     0.134 A 
ATOM     84  C   UNL     1      18.276   6.223  -5.463  1.00  0.00     0.134 A 
ATOM     85  F   UNL     1      16.529   7.263  -2.453  1.00  0.00    -0.206 F 
ATOM     86  C   UNL     1      18.613   7.933  -3.300  1.00  0.00     0.040 A 
ATOM     87  C   UNL     1      19.440   6.985  -5.355  1.00  0.00     0.040 A 
ATOM     88  F   UNL     1      18.152   5.411  -6.524  1.00  0.00    -0.206 F 
ATOM     89  C   UNL     1      19.609   7.846  -4.273  1.00  0.00     0.006 A 
ENDBRANCH  65  82
ENDBRANCH  39  40
ENDBRANCH  31  34
ENDBRANCH  29  30
ENDBRANCH  28  29
ENDBRANCH  27  28
ENDBRANCH  26  27
ENDBRANCH   3  26
TORSDOF 18
