REMARK SMILES C=Cc1cc(Cl)cc2c1O[C@H](C(F)(F)F)C(C(=O)NCCCCNC(=O)c1ccc(-c3c4nc(c(-c5c(F)cccc5F)c5ccc([nH]5)c(-c5c(F)cccc5F)c5nc(c(-c6c(F)cccc6F)c6ccc3[nH]6)C=C5)C=C4)cc1)=C2
REMARK SMILES IDX 22 1 21 2 20 3 19 4 17 5 18 6 16 8 3 9 4 10 9 11 5 12 8 13
REMARK SMILES IDX 10 14 6 15 7 16 81 17 11 18 2 19 1 20 12 21 13 22 14 23
REMARK SMILES IDX 15 24 23 25 24 26 25 27 26 29 27 30 28 31 80 32 29 33 79 34
REMARK SMILES IDX 30 35 31 36 32 37 73 38 33 39 78 40 72 41 74 42 34 43 77 44
REMARK SMILES IDX 71 45 70 46 35 48 61 49 44 50 60 51 45 52 48 53 59 54 75 55
REMARK SMILES IDX 46 56 47 57 58 59 76 60 49 61 36 62 37 63 42 64 38 65 39 66
REMARK SMILES IDX 41 67 43 68 40 69 62 70 63 71 68 72 64 73 65 74 67 75 69 76
REMARK SMILES IDX 66 77 50 78 51 79 56 80 52 81 53 82 55 83 57 84 54 85
REMARK H PARENT 19 7 24 28 74 47 48 58
REMARK Flexibility Score: inf
ROOT
ATOM      1  C   UNL     1      -1.815   0.677   9.081  1.00  0.00     0.023 C 
ENDROOT
BRANCH   1   2
ATOM      2  C   UNL     1      -1.415   0.288   7.655  1.00  0.00     0.023 C 
BRANCH   2   3
ATOM      3  C   UNL     1      -1.955  -1.065   7.200  1.00  0.00     0.116 C 
BRANCH   3   4
ATOM      4  N   UNL     1      -3.301  -0.965   6.663  1.00  0.00    -0.352 N 
ATOM      5  C   UNL     1      -3.875  -0.926   5.438  1.00  0.00     0.251 C 
ATOM      6  O   UNL     1      -5.107  -0.832   5.439  1.00  0.00    -0.270 OA
ATOM      7  H   UNL     1      -3.974  -0.911   7.380  1.00  0.00     0.163 HD
BRANCH   5   8
ATOM      8  C   UNL     1      -3.142  -0.983   4.138  1.00  0.00     0.067 C 
ATOM      9  C   UNL     1      -1.197  -0.842   0.399  1.00  0.00     0.018 A 
ATOM     10  C   UNL     1      -1.970  -0.866  -0.768  1.00  0.00     0.032 A 
ATOM     11  C   UNL     1      -1.849  -0.852   1.644  1.00  0.00     0.135 A 
ATOM     12  C   UNL     1      -3.363  -0.872  -0.685  1.00  0.00     0.042 A 
ATOM     13  C   UNL     1      -3.247  -0.847   1.726  1.00  0.00     0.019 A 
ATOM     14  O   UNL     1      -1.071  -0.801   2.771  1.00  0.00    -0.475 OA
ATOM     15  Cl  UNL     1      -4.300  -0.893  -2.129  1.00  0.00    -0.084 Cl
ATOM     16  C   UNL     1      -4.005  -0.856   0.553  1.00  0.00     0.032 A 
ATOM     17  C   UNL     1      -3.889  -0.788   3.035  1.00  0.00     0.025 C 
ATOM     18  C   UNL     1      -1.676  -1.274   4.003  1.00  0.00     0.314 C 
BRANCH   9  19
ATOM     19  C   UNL     1       0.272  -0.866   0.328  1.00  0.00     0.004 C 
ATOM     20  C   UNL     1       0.992  -0.044  -0.446  1.00  0.00     0.009 C 
ENDBRANCH   9  19
BRANCH  18  21
ATOM     21  C   UNL     1      -1.345  -2.766   4.193  1.00  0.00     0.429 C 
ATOM     22  F   UNL     1      -0.013  -2.935   4.384  1.00  0.00    -0.167 F 
ATOM     23  F   UNL     1      -1.958  -3.299   5.277  1.00  0.00    -0.167 F 
ATOM     24  F   UNL     1      -1.702  -3.520   3.129  1.00  0.00    -0.167 F 
ENDBRANCH  18  21
ENDBRANCH   5   8
ENDBRANCH   3   4
ENDBRANCH   2   3
ENDBRANCH   1   2
BRANCH   1  25
ATOM     25  C   UNL     1      -1.438  -0.329  10.166  1.00  0.00     0.116 C 
BRANCH  25  26
ATOM     26  N   UNL     1      -0.031  -0.708  10.176  1.00  0.00    -0.352 N 
ATOM     27  C   UNL     1       0.709  -1.164  11.245  1.00  0.00     0.251 C 
ATOM     28  H   UNL     1       0.446  -0.631   9.318  1.00  0.00     0.163 HD
ATOM     29  O   UNL     1       1.908  -1.392  11.135  1.00  0.00    -0.269 OA
BRANCH  27  30
ATOM     30  C   UNL     1       0.034  -1.311  12.549  1.00  0.00     0.039 A 
ATOM     31  C   UNL     1      -1.143  -2.055  12.643  1.00  0.00     0.014 A 
ATOM     32  C   UNL     1       0.513  -0.590  13.644  1.00  0.00     0.014 A 
ATOM     33  C   UNL     1      -1.938  -1.927  13.775  1.00  0.00     0.010 A 
ATOM     34  C   UNL     1      -0.252  -0.525  14.810  1.00  0.00     0.010 A 
ATOM     35  C   UNL     1      -1.514  -1.139  14.858  1.00  0.00    -0.014 A 
BRANCH  35  36
ATOM     36  C   UNL     1      -2.435  -0.927  16.003  1.00  0.00     0.031 A 
ATOM     37  C   UNL     1      -3.014   0.435  16.279  1.00  0.00     0.074 A 
ATOM     38  C   UNL     1      -2.811  -1.982  16.749  1.00  0.00     0.049 A 
ATOM     39  N   UNL     1      -3.855   0.801  17.214  1.00  0.00    -0.248 NA
ATOM     40  C   UNL     1      -2.596   1.532  15.391  1.00  0.00     0.031 C 
ATOM     41  C   UNL     1      -2.334  -3.355  16.568  1.00  0.00     0.029 A 
ATOM     42  N   UNL     1      -3.702  -2.071  17.786  1.00  0.00    -0.354 N 
ATOM     43  C   UNL     1      -4.046   2.167  17.044  1.00  0.00     0.074 A 
ATOM     44  C   UNL     1      -3.218   2.572  15.928  1.00  0.00     0.031 C 
ATOM     45  C   UNL     1      -2.978  -4.158  17.428  1.00  0.00     0.029 A 
ATOM     46  C   UNL     1      -3.868  -3.351  18.255  1.00  0.00     0.049 A 
ATOM     47  H   UNL     1      -4.177  -1.294  18.159  1.00  0.00     0.167 HD
ATOM     48  C   UNL     1      -4.845   3.006  17.745  1.00  0.00     0.037 A 
ATOM     49  C   UNL     1      -4.646  -3.821  19.246  1.00  0.00     0.037 A 
ATOM     50  C   UNL     1      -5.692   2.601  18.837  1.00  0.00     0.049 A 
ATOM     51  C   UNL     1      -5.501  -2.865  20.024  1.00  0.00     0.074 A 
ATOM     52  C   UNL     1      -6.551   3.374  19.599  1.00  0.00     0.029 A 
ATOM     53  N   UNL     1      -5.789   1.304  19.318  1.00  0.00    -0.354 N 
ATOM     54  N   UNL     1      -5.662  -1.575  19.856  1.00  0.00    -0.248 NA
ATOM     55  C   UNL     1      -6.273  -3.430  21.139  1.00  0.00     0.031 C 
ATOM     56  C   UNL     1      -7.147   2.550  20.560  1.00  0.00     0.029 A 
ATOM     57  C   UNL     1      -6.683   1.258  20.376  1.00  0.00     0.049 A 
ATOM     58  H   UNL     1      -5.296   0.530  18.961  1.00  0.00     0.167 HD
ATOM     59  C   UNL     1      -6.555  -1.175  20.840  1.00  0.00     0.074 A 
ATOM     60  C   UNL     1      -6.920  -2.363  21.584  1.00  0.00     0.031 C 
ATOM     61  C   UNL     1      -7.025   0.068  21.109  1.00  0.00     0.037 A 
BRANCH  48  62
ATOM     62  C   UNL     1      -4.831   4.457  17.361  1.00  0.00     0.057 A 
ATOM     63  C   UNL     1      -4.199   5.404  18.177  1.00  0.00     0.134 A 
ATOM     64  C   UNL     1      -5.466   4.921  16.203  1.00  0.00     0.134 A 
ATOM     65  F   UNL     1      -3.575   5.026  19.302  1.00  0.00    -0.206 F 
ATOM     66  C   UNL     1      -4.202   6.762  17.854  1.00  0.00     0.040 A 
ATOM     67  C   UNL     1      -5.459   6.274  15.859  1.00  0.00     0.040 A 
ATOM     68  F   UNL     1      -6.075   4.062  15.371  1.00  0.00    -0.206 F 
ATOM     69  C   UNL     1      -4.830   7.200  16.690  1.00  0.00     0.006 A 
ENDBRANCH  48  62
BRANCH  49  70
ATOM     70  C   UNL     1      -4.643  -5.268  19.562  1.00  0.00     0.057 A 
ATOM     71  C   UNL     1      -3.534  -5.880  20.161  1.00  0.00     0.134 A 
ATOM     72  C   UNL     1      -5.748  -6.074  19.269  1.00  0.00     0.134 A 
ATOM     73  F   UNL     1      -2.444  -5.159  20.461  1.00  0.00    -0.206 F 
ATOM     74  C   UNL     1      -3.520  -7.245  20.445  1.00  0.00     0.040 A 
ATOM     75  C   UNL     1      -5.756  -7.436  19.568  1.00  0.00     0.040 A 
ATOM     76  F   UNL     1      -6.844  -5.538  18.712  1.00  0.00    -0.206 F 
ATOM     77  C   UNL     1      -4.636  -8.026  20.153  1.00  0.00     0.006 A 
ENDBRANCH  49  70
BRANCH  61  78
ATOM     78  C   UNL     1      -7.986   0.189  22.251  1.00  0.00     0.057 A 
ATOM     79  C   UNL     1      -9.354   0.376  22.020  1.00  0.00     0.134 A 
ATOM     80  C   UNL     1      -7.553   0.123  23.582  1.00  0.00     0.134 A 
ATOM     81  F   UNL     1      -9.829   0.451  20.768  1.00  0.00    -0.206 F 
ATOM     82  C   UNL     1     -10.260   0.487  23.075  1.00  0.00     0.040 A 
ATOM     83  C   UNL     1      -8.453   0.213  24.644  1.00  0.00     0.040 A 
ATOM     84  F   UNL     1      -6.256  -0.072  23.866  1.00  0.00    -0.206 F 
ATOM     85  C   UNL     1      -9.811   0.399  24.392  1.00  0.00     0.006 A 
ENDBRANCH  61  78
ENDBRANCH  35  36
ENDBRANCH  27  30
ENDBRANCH  25  26
ENDBRANCH   1  25
TORSDOF 13
