REMARK SMILES COc1ccc2c(c1)c(CC(=O)NCCCCNC(=O)c1ccc(-c3c4nc(c(-c5c(F)cccc5F)c5ccc([nH]5)c(-c5c(F)cccc5F)c5nc(c(-c6c(F)cccc6F)c6ccc3[nH]6)C=C5)C=C4)cc1)c(C)n2Cc1ccn(C(F)F)c(=O)c1
REMARK SMILES IDX 14 1 13 2 11 3 12 4 10 6 9 7 3 8 4 9 8 10 5 11 7 12 6 13
REMARK SMILES IDX 77 14 75 15 76 16 2 17 1 18 78 19 79 20 80 21 88 22 81 23
REMARK SMILES IDX 86 24 82 25 87 26 83 27 84 28 85 29 15 30 16 31 17 32 18 33
REMARK SMILES IDX 19 34 20 36 21 37 22 38 74 39 23 40 73 41 24 42 25 43 26 44
REMARK SMILES IDX 67 45 27 46 72 47 66 48 68 49 28 50 71 51 65 52 64 53 29 55
REMARK SMILES IDX 55 56 38 57 54 58 39 59 42 60 53 61 69 62 40 63 41 64 52 66
REMARK SMILES IDX 70 67 43 68 30 69 31 70 36 71 32 72 33 73 35 74 37 75 34 76
REMARK SMILES IDX 56 77 57 78 62 79 58 80 59 81 61 82 63 83 60 84 44 85 45 86
REMARK SMILES IDX 50 87 46 88 47 89 49 90 51 91 48 92
REMARK H PARENT 13 5 18 35 68 54 42 65
REMARK Flexibility Score: inf
ROOT
ATOM      1  C   UNL     1      -0.657   5.068  -6.201  1.00  0.00     0.116 C 
ENDROOT
BRANCH   1   2
ATOM      2  N   UNL     1      -1.601   4.077  -5.723  1.00  0.00    -0.356 N 
ATOM      3  C   UNL     1      -2.152   3.938  -4.480  1.00  0.00     0.224 C 
ATOM      4  O   UNL     1      -2.958   3.020  -4.305  1.00  0.00    -0.275 OA
ATOM      5  H   UNL     1      -1.886   3.410  -6.389  1.00  0.00     0.163 HD
BRANCH   3   6
ATOM      6  C   UNL     1      -1.843   4.938  -3.374  1.00  0.00     0.138 C 
BRANCH   6   7
ATOM      7  C   UNL     1      -0.395   4.968  -2.987  1.00  0.00    -0.010 A 
ATOM      8  C   UNL     1       1.061   1.661  -1.776  1.00  0.00     0.119 A 
ATOM      9  C   UNL     1       2.377   2.097  -1.679  1.00  0.00     0.048 A 
ATOM     10  C   UNL     1       0.067   2.517  -2.248  1.00  0.00     0.057 A 
ATOM     11  C   UNL     1       2.724   3.416  -2.007  1.00  0.00     0.031 A 
ATOM     12  C   UNL     1       0.383   3.860  -2.545  1.00  0.00     0.007 A 
ATOM     13  C   UNL     1       1.705   4.296  -2.417  1.00  0.00     0.049 A 
ATOM     14  N   UNL     1       1.727   5.637  -2.781  1.00  0.00    -0.340 N 
ATOM     15  C   UNL     1       0.426   6.088  -2.938  1.00  0.00     0.020 A 
ATOM     16  C   UNL     1       0.029   7.516  -3.091  1.00  0.00     0.065 C 
BRANCH   8  17
ATOM     17  O   UNL     1       0.679   0.376  -1.491  1.00  0.00    -0.497 OA
ATOM     18  C   UNL     1       1.039  -0.024  -0.170  1.00  0.00     0.278 C 
ENDBRANCH   8  17
BRANCH  14  19
ATOM     19  C   UNL     1       2.944   6.447  -2.922  1.00  0.00     0.158 C 
BRANCH  19  20
ATOM     20  C   UNL     1       3.356   6.667  -4.364  1.00  0.00    -0.021 A 
ATOM     21  C   UNL     1       2.699   7.702  -5.142  1.00  0.00     0.024 A 
ATOM     22  C   UNL     1       4.351   5.972  -4.945  1.00  0.00     0.077 A 
ATOM     23  C   UNL     1       2.951   7.845  -6.448  1.00  0.00     0.095 A 
ATOM     24  C   UNL     1       4.715   6.185  -6.378  1.00  0.00     0.255 A 
ATOM     25  N   UNL     1       3.902   7.067  -7.075  1.00  0.00    -0.258 N 
ATOM     26  O   UNL     1       5.670   5.574  -6.834  1.00  0.00    -0.269 OA
BRANCH  25  27
ATOM     27  C   UNL     1       4.159   7.227  -8.484  1.00  0.00     0.451 C 
ATOM     28  F   UNL     1       5.306   7.921  -8.685  1.00  0.00    -0.185 F 
ATOM     29  F   UNL     1       4.292   6.024  -9.088  1.00  0.00    -0.185 F 
ENDBRANCH  25  27
ENDBRANCH  19  20
ENDBRANCH  14  19
ENDBRANCH   6   7
ENDBRANCH   3   6
ENDBRANCH   1   2
BRANCH   1  30
ATOM     30  C   UNL     1       0.680   4.448  -6.602  1.00  0.00     0.023 C 
BRANCH  30  31
ATOM     31  C   UNL     1       0.624   3.542  -7.838  1.00  0.00     0.023 C 
BRANCH  31  32
ATOM     32  C   UNL     1      -0.070   4.154  -9.060  1.00  0.00     0.116 C 
BRANCH  32  33
ATOM     33  N   UNL     1       0.531   5.386  -9.535  1.00  0.00    -0.352 N 
ATOM     34  C   UNL     1       1.499   5.681 -10.458  1.00  0.00     0.251 C 
ATOM     35  H   UNL     1       0.161   6.187  -9.098  1.00  0.00     0.163 HD
ATOM     36  O   UNL     1       1.632   6.877 -10.736  1.00  0.00    -0.269 OA
BRANCH  34  37
ATOM     37  C   UNL     1       2.450   4.696 -11.045  1.00  0.00     0.039 A 
ATOM     38  C   UNL     1       2.429   3.327 -10.797  1.00  0.00     0.014 A 
ATOM     39  C   UNL     1       3.522   5.227 -11.793  1.00  0.00     0.014 A 
ATOM     40  C   UNL     1       3.514   2.538 -11.145  1.00  0.00     0.010 A 
ATOM     41  C   UNL     1       4.607   4.436 -12.161  1.00  0.00     0.010 A 
ATOM     42  C   UNL     1       4.623   3.101 -11.782  1.00  0.00    -0.014 A 
BRANCH  42  43
ATOM     43  C   UNL     1       5.723   2.195 -12.088  1.00  0.00     0.031 A 
ATOM     44  C   UNL     1       5.334   1.017 -12.912  1.00  0.00     0.074 A 
ATOM     45  C   UNL     1       6.997   2.370 -11.689  1.00  0.00     0.049 A 
ATOM     46  N   UNL     1       5.301  -0.224 -12.552  1.00  0.00    -0.248 NA
ATOM     47  C   UNL     1       4.782   1.269 -14.251  1.00  0.00     0.031 C 
ATOM     48  C   UNL     1       7.626   3.543 -11.083  1.00  0.00     0.029 A 
ATOM     49  N   UNL     1       8.035   1.496 -11.817  1.00  0.00    -0.354 N 
ATOM     50  C   UNL     1       4.868  -0.941 -13.664  1.00  0.00     0.074 A 
ATOM     51  C   UNL     1       4.453   0.035 -14.639  1.00  0.00     0.031 C 
ATOM     52  C   UNL     1       8.971   3.387 -11.107  1.00  0.00     0.029 A 
ATOM     53  C   UNL     1       9.285   2.052 -11.593  1.00  0.00     0.049 A 
ATOM     54  H   UNL     1       7.908   0.548 -12.049  1.00  0.00     0.167 HD
ATOM     55  C   UNL     1       5.046  -2.287 -13.760  1.00  0.00     0.037 A 
ATOM     56  C   UNL     1      10.480   1.465 -11.849  1.00  0.00     0.037 A 
ATOM     57  C   UNL     1       5.322  -2.880 -12.478  1.00  0.00     0.049 A 
ATOM     58  C   UNL     1      10.261  -0.003 -11.909  1.00  0.00     0.074 A 
ATOM     59  C   UNL     1       4.628  -3.002 -11.289  1.00  0.00     0.029 A 
ATOM     60  N   UNL     1       6.625  -3.187 -12.177  1.00  0.00    -0.354 N 
ATOM     61  N   UNL     1       9.988  -0.737 -10.867  1.00  0.00    -0.248 NA
ATOM     62  C   UNL     1       9.906  -0.588 -13.194  1.00  0.00     0.031 C 
ATOM     63  C   UNL     1       5.619  -2.879 -10.271  1.00  0.00     0.029 A 
ATOM     64  C   UNL     1       6.854  -2.738 -10.902  1.00  0.00     0.049 A 
ATOM     65  H   UNL     1       7.272  -3.642 -12.763  1.00  0.00     0.167 HD
ATOM     66  C   UNL     1       9.043  -1.647 -11.317  1.00  0.00     0.074 A 
ATOM     67  C   UNL     1       9.100  -1.567 -12.775  1.00  0.00     0.031 C 
ATOM     68  C   UNL     1       8.109  -2.173 -10.472  1.00  0.00     0.037 A 
BRANCH  55  69
ATOM     69  C   UNL     1       5.327  -3.020 -15.047  1.00  0.00     0.057 A 
ATOM     70  C   UNL     1       5.867  -2.407 -16.194  1.00  0.00     0.134 A 
ATOM     71  C   UNL     1       5.373  -4.427 -15.040  1.00  0.00     0.134 A 
ATOM     72  F   UNL     1       5.945  -1.078 -16.326  1.00  0.00    -0.206 F 
ATOM     73  C   UNL     1       6.458  -3.133 -17.230  1.00  0.00     0.040 A 
ATOM     74  C   UNL     1       6.006  -5.161 -16.050  1.00  0.00     0.040 A 
ATOM     75  F   UNL     1       4.884  -5.129 -14.006  1.00  0.00    -0.206 F 
ATOM     76  C   UNL     1       6.565  -4.512 -17.143  1.00  0.00     0.006 A 
ENDBRANCH  55  69
BRANCH  56  77
ATOM     77  C   UNL     1      11.729   2.095 -12.334  1.00  0.00     0.057 A 
ATOM     78  C   UNL     1      11.701   3.266 -13.113  1.00  0.00     0.134 A 
ATOM     79  C   UNL     1      12.956   1.417 -12.288  1.00  0.00     0.134 A 
ATOM     80  F   UNL     1      10.563   3.951 -13.295  1.00  0.00    -0.206 F 
ATOM     81  C   UNL     1      12.819   3.727 -13.815  1.00  0.00     0.040 A 
ATOM     82  C   UNL     1      14.082   1.865 -12.993  1.00  0.00     0.040 A 
ATOM     83  F   UNL     1      13.074   0.266 -11.611  1.00  0.00    -0.206 F 
ATOM     84  C   UNL     1      14.012   3.018 -13.768  1.00  0.00     0.006 A 
ENDBRANCH  56  77
BRANCH  68  85
ATOM     85  C   UNL     1       8.275  -1.915  -9.002  1.00  0.00     0.057 A 
ATOM     86  C   UNL     1       8.341  -3.002  -8.125  1.00  0.00     0.134 A 
ATOM     87  C   UNL     1       8.241  -0.636  -8.427  1.00  0.00     0.134 A 
ATOM     88  F   UNL     1       8.312  -4.258  -8.599  1.00  0.00    -0.206 F 
ATOM     89  C   UNL     1       8.395  -2.828  -6.740  1.00  0.00     0.040 A 
ATOM     90  C   UNL     1       8.329  -0.446  -7.045  1.00  0.00     0.040 A 
ATOM     91  F   UNL     1       8.069   0.458  -9.180  1.00  0.00    -0.206 F 
ATOM     92  C   UNL     1       8.404  -1.546  -6.196  1.00  0.00     0.006 A 
ENDBRANCH  68  85
ENDBRANCH  42  43
ENDBRANCH  34  37
ENDBRANCH  32  33
ENDBRANCH  31  32
ENDBRANCH  30  31
ENDBRANCH   1  30
TORSDOF 16
