REMARK SMILES C/C(=N\NC(N)=O)c1nnn(-c2ccc(C(=O)NCCCCNC(=O)c3ccc(-c4c5nc(c(-c6c(F)cccc6F)c6ccc([nH]6)c(-c6c(F)cccc6F)c6nc(c(-c7c(F)cccc7F)c7ccc4[nH]7)C=C6)C=C5)cc3)cc2)c1C
REMARK SMILES IDX 20 1 19 2 18 3 16 4 17 5 15 7 12 8 13 9 81 10 14 11 80 12
REMARK SMILES IDX 11 13 8 14 9 15 82 16 10 17 83 18 2 19 1 20 3 21 4 22 5 23
REMARK SMILES IDX 6 25 7 26 21 29 22 30 23 31 24 32 25 34 26 35 27 36 79 37
REMARK SMILES IDX 28 38 78 39 29 40 30 41 31 42 72 43 32 44 77 45 71 46 73 47
REMARK SMILES IDX 33 48 76 49 70 50 69 51 34 53 60 54 43 55 59 56 44 57 47 58
REMARK SMILES IDX 58 59 74 60 45 61 46 62 57 64 75 65 48 66 35 67 36 68 41 69
REMARK SMILES IDX 37 70 38 71 40 72 42 73 39 74 61 75 62 76 67 77 63 78 64 79
REMARK SMILES IDX 66 80 68 81 65 82 49 83 50 84 55 85 51 86 52 87 54 88 56 89
REMARK SMILES IDX 53 90
REMARK H PARENT 18 6 4 24 6 27 6 28 23 33 73 52 47 63
REMARK Flexibility Score: inf
ROOT
ATOM      1  C   UNL     1       7.814   7.866   1.359  1.00  0.00     0.023 C 
ENDROOT
BRANCH   1   2
ATOM      2  C   UNL     1       8.047   6.527   2.074  1.00  0.00     0.116 C 
BRANCH   2   3
ATOM      3  N   UNL     1       7.663   6.592   3.474  1.00  0.00    -0.352 N 
ATOM      4  C   UNL     1       6.499   6.300   4.146  1.00  0.00     0.251 C 
ATOM      5  O   UNL     1       6.516   6.420   5.372  1.00  0.00    -0.269 OA
ATOM      6  H   UNL     1       8.385   6.910   4.063  1.00  0.00     0.163 HD
BRANCH   4   7
ATOM      7  C   UNL     1       5.255   5.793   3.488  1.00  0.00     0.039 A 
ATOM      8  C   UNL     1       3.008   4.557   2.362  1.00  0.00     0.067 A 
ATOM      9  C   UNL     1       3.175   4.527   3.746  1.00  0.00     0.029 A 
ATOM     10  C   UNL     1       3.877   5.287   1.554  1.00  0.00     0.029 A 
ATOM     11  C   UNL     1       4.317   5.121   4.298  1.00  0.00     0.016 A 
ATOM     12  C   UNL     1       4.967   5.937   2.130  1.00  0.00     0.016 A 
BRANCH   8  13
ATOM     13  N   UNL     1       2.012   3.775   1.754  1.00  0.00    -0.217 N 
ATOM     14  C   UNL     1       0.919   2.284   0.614  1.00  0.00     0.132 A 
ATOM     15  N   UNL     1       0.032   2.989   1.385  1.00  0.00    -0.128 NA
ATOM     16  C   UNL     1       2.199   2.755   0.839  1.00  0.00     0.071 A 
ATOM     17  N   UNL     1       0.720   3.841   2.134  1.00  0.00    -0.061 NA
ATOM     18  C   UNL     1       3.521   2.233   0.415  1.00  0.00     0.069 C 
BRANCH  14  19
ATOM     19  C   UNL     1       0.537   1.076  -0.097  1.00  0.00     0.087 C 
ATOM     20  C   UNL     1       0.832  -0.210   0.626  1.00  0.00     0.071 C 
ATOM     21  N   UNL     1      -0.044   1.259  -1.246  1.00  0.00    -0.174 NA
BRANCH  21  22
ATOM     22  N   UNL     1      -0.470   0.237  -2.048  1.00  0.00    -0.229 N 
ATOM     23  C   UNL     1       0.133  -0.979  -2.280  1.00  0.00     0.332 C 
ATOM     24  H   UNL     1      -1.319   0.390  -2.522  1.00  0.00     0.195 HD
ATOM     25  N   UNL     1      -0.612  -1.778  -3.097  1.00  0.00    -0.350 N 
ATOM     26  O   UNL     1       1.200  -1.384  -1.841  1.00  0.00    -0.247 OA
ATOM     27  H   UNL     1      -1.471  -1.454  -3.452  1.00  0.00     0.161 HD
ATOM     28  H   UNL     1      -0.291  -2.679  -3.331  1.00  0.00     0.161 HD
ENDBRANCH  21  22
ENDBRANCH  14  19
ENDBRANCH   8  13
ENDBRANCH   4   7
ENDBRANCH   2   3
ENDBRANCH   1   2
BRANCH   1  29
ATOM     29  C   UNL     1       8.879   8.944   1.606  1.00  0.00     0.023 C 
BRANCH  29  30
ATOM     30  C   UNL     1      10.220   8.684   0.933  1.00  0.00     0.116 C 
BRANCH  30  31
ATOM     31  N   UNL     1      10.137   8.628  -0.532  1.00  0.00    -0.352 N 
ATOM     32  C   UNL     1      11.087   8.163  -1.435  1.00  0.00     0.251 C 
ATOM     33  H   UNL     1       9.299   8.962  -0.927  1.00  0.00     0.163 HD
ATOM     34  O   UNL     1      11.077   8.489  -2.605  1.00  0.00    -0.269 OA
BRANCH  32  35
ATOM     35  C   UNL     1      12.095   7.216  -0.930  1.00  0.00     0.039 A 
ATOM     36  C   UNL     1      13.453   7.280  -1.263  1.00  0.00     0.014 A 
ATOM     37  C   UNL     1      11.620   6.271  -0.033  1.00  0.00     0.014 A 
ATOM     38  C   UNL     1      14.339   6.416  -0.620  1.00  0.00     0.010 A 
ATOM     39  C   UNL     1      12.506   5.622   0.767  1.00  0.00     0.010 A 
ATOM     40  C   UNL     1      13.847   5.593   0.398  1.00  0.00    -0.014 A 
BRANCH  40  41
ATOM     41  C   UNL     1      14.664   4.662   1.160  1.00  0.00     0.031 A 
ATOM     42  C   UNL     1      15.644   5.284   2.092  1.00  0.00     0.074 A 
ATOM     43  C   UNL     1      14.251   3.377   1.270  1.00  0.00     0.049 A 
ATOM     44  N   UNL     1      16.929   5.149   2.117  1.00  0.00    -0.248 NA
ATOM     45  C   UNL     1      15.136   6.277   3.056  1.00  0.00     0.031 C 
ATOM     46  C   UNL     1      13.055   2.751   0.674  1.00  0.00     0.029 A 
ATOM     47  N   UNL     1      14.727   2.385   2.064  1.00  0.00    -0.354 N 
ATOM     48  C   UNL     1      17.366   5.869   3.229  1.00  0.00     0.074 A 
ATOM     49  C   UNL     1      16.264   6.702   3.628  1.00  0.00     0.031 C 
ATOM     50  C   UNL     1      12.779   1.592   1.308  1.00  0.00     0.029 A 
ATOM     51  C   UNL     1      13.868   1.300   2.216  1.00  0.00     0.049 A 
ATOM     52  H   UNL     1      15.610   2.429   2.498  1.00  0.00     0.167 HD
ATOM     53  C   UNL     1      18.502   5.526   3.899  1.00  0.00     0.037 A 
ATOM     54  C   UNL     1      14.038   0.253   3.058  1.00  0.00     0.037 A 
ATOM     55  C   UNL     1      19.312   4.628   3.114  1.00  0.00     0.049 A 
ATOM     56  C   UNL     1      15.468   0.251   3.455  1.00  0.00     0.074 A 
ATOM     57  C   UNL     1      19.951   4.702   1.892  1.00  0.00     0.029 A 
ATOM     58  N   UNL     1      19.243   3.291   3.418  1.00  0.00    -0.354 N 
ATOM     59  N   UNL     1      16.449   0.027   2.625  1.00  0.00    -0.248 NA
ATOM     60  C   UNL     1      15.827   0.965   4.670  1.00  0.00     0.031 C 
ATOM     61  C   UNL     1      19.788   3.407   1.314  1.00  0.00     0.029 A 
ATOM     62  C   UNL     1      19.119   2.603   2.239  1.00  0.00     0.049 A 
ATOM     63  H   UNL     1      19.276   2.898   4.320  1.00  0.00     0.167 HD
ATOM     64  C   UNL     1      17.447   0.916   3.002  1.00  0.00     0.074 A 
ATOM     65  C   UNL     1      17.038   1.406   4.318  1.00  0.00     0.031 C 
ATOM     66  C   UNL     1      18.348   1.389   2.090  1.00  0.00     0.037 A 
BRANCH  53  67
ATOM     67  C   UNL     1      18.703   5.675   5.392  1.00  0.00     0.057 A 
ATOM     68  C   UNL     1      19.970   5.399   5.941  1.00  0.00     0.134 A 
ATOM     69  C   UNL     1      17.662   5.792   6.337  1.00  0.00     0.134 A 
ATOM     70  F   UNL     1      21.046   5.258   5.152  1.00  0.00    -0.206 F 
ATOM     71  C   UNL     1      20.166   5.173   7.309  1.00  0.00     0.040 A 
ATOM     72  C   UNL     1      17.858   5.622   7.711  1.00  0.00     0.040 A 
ATOM     73  F   UNL     1      16.384   5.973   5.986  1.00  0.00    -0.206 F 
ATOM     74  C   UNL     1      19.106   5.276   8.199  1.00  0.00     0.006 A 
ENDBRANCH  53  67
BRANCH  54  75
ATOM     75  C   UNL     1      13.008  -0.531   3.775  1.00  0.00     0.057 A 
ATOM     76  C   UNL     1      13.299  -1.791   4.317  1.00  0.00     0.134 A 
ATOM     77  C   UNL     1      11.795   0.051   4.184  1.00  0.00     0.134 A 
ATOM     78  F   UNL     1      14.451  -2.408   4.017  1.00  0.00    -0.206 F 
ATOM     79  C   UNL     1      12.445  -2.425   5.230  1.00  0.00     0.040 A 
ATOM     80  C   UNL     1      10.932  -0.571   5.092  1.00  0.00     0.040 A 
ATOM     81  F   UNL     1      11.451   1.284   3.782  1.00  0.00    -0.206 F 
ATOM     82  C   UNL     1      11.262  -1.809   5.630  1.00  0.00     0.006 A 
ENDBRANCH  54  75
BRANCH  66  83
ATOM     83  C   UNL     1      18.365   0.749   0.727  1.00  0.00     0.057 A 
ATOM     84  C   UNL     1      17.328   0.874  -0.211  1.00  0.00     0.134 A 
ATOM     85  C   UNL     1      19.536   0.131   0.284  1.00  0.00     0.134 A 
ATOM     86  F   UNL     1      16.206   1.536   0.083  1.00  0.00    -0.206 F 
ATOM     87  C   UNL     1      17.437   0.380  -1.515  1.00  0.00     0.040 A 
ATOM     88  C   UNL     1      19.672  -0.341  -1.025  1.00  0.00     0.040 A 
ATOM     89  F   UNL     1      20.594   0.027   1.103  1.00  0.00    -0.206 F 
ATOM     90  C   UNL     1      18.618  -0.223  -1.928  1.00  0.00     0.006 A 
ENDBRANCH  66  83
ENDBRANCH  40  41
ENDBRANCH  32  35
ENDBRANCH  30  31
ENDBRANCH  29  30
ENDBRANCH   1  29
TORSDOF 14
