REMARK SMILES O=C(NCCCCNC(=O)[C@@H]1CC(=O)N(c2ccc(Cl)cc2C(=O)c2ccccc2)C1)c1ccc(-c2c3nc(c(-c4c(F)cccc4F)c4ccc([nH]4)c(-c4c(F)cccc4F)c4nc(c(-c5c(F)cccc5F)c5ccc2[nH]5)C=C4)C=C3)cc1
REMARK SMILES IDX 6 1 5 2 4 3 3 4 1 5 2 6 32 8 33 9 85 10 34 11 84 12 35 13
REMARK SMILES IDX 36 14 37 15 78 16 38 17 83 18 77 19 79 20 39 21 82 22 76 23
REMARK SMILES IDX 75 24 40 26 66 27 49 28 65 29 50 30 53 31 64 32 80 33 51 34
REMARK SMILES IDX 52 35 63 37 81 38 54 39 41 40 42 41 47 42 43 43 44 44 46 45
REMARK SMILES IDX 48 46 45 47 67 48 68 49 73 50 69 51 70 52 72 53 74 54 71 55
REMARK SMILES IDX 55 56 56 57 61 58 57 59 58 60 60 61 62 62 59 63 7 64 8 65
REMARK SMILES IDX 9 66 10 68 11 69 12 70 31 71 13 72 15 73 14 74 16 75 17 76
REMARK SMILES IDX 22 77 18 78 21 79 19 80 20 81 23 82 24 83 25 84 26 85 30 86
REMARK SMILES IDX 27 87 29 88 28 89
REMARK H PARENT 3 7 79 25 53 36 8 67
REMARK Flexibility Score: inf
ROOT
ATOM      1  C   UNL     1       3.820   2.596  -3.172  1.00  0.00     0.023 C 
ENDROOT
BRANCH   1   2
ATOM      2  C   UNL     1       4.574   1.479  -2.444  1.00  0.00     0.023 C 
BRANCH   2   3
ATOM      3  C   UNL     1       4.341   1.379  -0.939  1.00  0.00     0.116 C 
BRANCH   3   4
ATOM      4  N   UNL     1       2.948   1.154  -0.593  1.00  0.00    -0.352 N 
ATOM      5  O   UNL     1       1.098   0.029   0.012  1.00  0.00    -0.269 OA
ATOM      6  C   UNL     1       2.325   0.056  -0.051  1.00  0.00     0.251 C 
ATOM      7  H   UNL     1       2.351   1.915  -0.778  1.00  0.00     0.163 HD
BRANCH   6   8
ATOM      8  C   UNL     1       3.107  -1.101   0.439  1.00  0.00     0.039 A 
ATOM      9  C   UNL     1       4.267  -0.922   1.193  1.00  0.00     0.014 A 
ATOM     10  C   UNL     1       2.636  -2.394   0.187  1.00  0.00     0.014 A 
ATOM     11  C   UNL     1       5.028  -2.024   1.568  1.00  0.00     0.010 A 
ATOM     12  C   UNL     1       3.356  -3.505   0.642  1.00  0.00     0.010 A 
ATOM     13  C   UNL     1       4.573  -3.329   1.314  1.00  0.00    -0.014 A 
BRANCH  13  14
ATOM     14  C   UNL     1       5.356  -4.479   1.836  1.00  0.00     0.031 A 
ATOM     15  C   UNL     1       6.029  -5.456   0.913  1.00  0.00     0.074 A 
ATOM     16  C   UNL     1       5.496  -4.604   3.171  1.00  0.00     0.049 A 
ATOM     17  N   UNL     1       6.800  -6.471   1.213  1.00  0.00    -0.248 NA
ATOM     18  C   UNL     1       5.806  -5.279  -0.530  1.00  0.00     0.031 C 
ATOM     19  C   UNL     1       4.869  -3.731   4.168  1.00  0.00     0.029 A 
ATOM     20  N   UNL     1       6.227  -5.489   3.920  1.00  0.00    -0.354 N 
ATOM     21  C   UNL     1       7.149  -7.057   0.003  1.00  0.00     0.074 A 
ATOM     22  C   UNL     1       6.482  -6.301  -1.037  1.00  0.00     0.031 C 
ATOM     23  C   UNL     1       5.285  -4.089   5.391  1.00  0.00     0.029 A 
ATOM     24  C   UNL     1       6.161  -5.248   5.271  1.00  0.00     0.049 A 
ATOM     25  H   UNL     1       6.748  -6.227   3.528  1.00  0.00     0.167 HD
ATOM     26  C   UNL     1       7.961  -8.119  -0.219  1.00  0.00     0.037 A 
ATOM     27  C   UNL     1       6.736  -5.892   6.303  1.00  0.00     0.037 A 
ATOM     28  C   UNL     1       8.630  -8.863   0.818  1.00  0.00     0.049 A 
ATOM     29  C   UNL     1       7.622  -7.069   6.025  1.00  0.00     0.074 A 
ATOM     30  C   UNL     1       9.488  -9.943   0.689  1.00  0.00     0.029 A 
ATOM     31  N   UNL     1       8.517  -8.606   2.176  1.00  0.00    -0.354 N 
ATOM     32  N   UNL     1       7.966  -7.589   4.872  1.00  0.00    -0.248 NA
ATOM     33  C   UNL     1       8.199  -7.751   7.191  1.00  0.00     0.031 C 
ATOM     34  C   UNL     1       9.865 -10.361   1.970  1.00  0.00     0.029 A 
ATOM     35  C   UNL     1       9.276  -9.515   2.895  1.00  0.00     0.049 A 
ATOM     36  H   UNL     1       7.977  -7.883   2.571  1.00  0.00     0.167 HD
ATOM     37  C   UNL     1       8.802  -8.655   5.172  1.00  0.00     0.074 A 
ATOM     38  C   UNL     1       8.940  -8.685   6.614  1.00  0.00     0.031 C 
ATOM     39  C   UNL     1       9.395  -9.536   4.330  1.00  0.00     0.037 A 
BRANCH  26  40
ATOM     40  C   UNL     1       8.175  -8.550  -1.641  1.00  0.00     0.057 A 
ATOM     41  C   UNL     1       8.987  -7.820  -2.517  1.00  0.00     0.134 A 
ATOM     42  C   UNL     1       7.623  -9.746  -2.117  1.00  0.00     0.134 A 
ATOM     43  F   UNL     1       9.538  -6.660  -2.127  1.00  0.00    -0.206 F 
ATOM     44  C   UNL     1       9.235  -8.258  -3.820  1.00  0.00     0.040 A 
ATOM     45  C   UNL     1       7.880 -10.206  -3.411  1.00  0.00     0.040 A 
ATOM     46  F   UNL     1       6.842 -10.498  -1.327  1.00  0.00    -0.206 F 
ATOM     47  C   UNL     1       8.688  -9.460  -4.266  1.00  0.00     0.006 A 
ENDBRANCH  26  40
BRANCH  27  48
ATOM     48  C   UNL     1       6.482  -5.439   7.693  1.00  0.00     0.057 A 
ATOM     49  C   UNL     1       7.493  -4.857   8.465  1.00  0.00     0.134 A 
ATOM     50  C   UNL     1       5.220  -5.583   8.284  1.00  0.00     0.134 A 
ATOM     51  F   UNL     1       8.727  -4.709   7.960  1.00  0.00    -0.206 F 
ATOM     52  C   UNL     1       7.265  -4.451   9.781  1.00  0.00     0.040 A 
ATOM     53  C   UNL     1       4.970  -5.156   9.588  1.00  0.00     0.040 A 
ATOM     54  F   UNL     1       4.207  -6.127   7.593  1.00  0.00    -0.206 F 
ATOM     55  C   UNL     1       5.998  -4.595  10.343  1.00  0.00     0.006 A 
ENDBRANCH  27  48
BRANCH  39  56
ATOM     56  C   UNL     1      10.251 -10.595   4.958  1.00  0.00     0.057 A 
ATOM     57  C   UNL     1       9.691 -11.667   5.664  1.00  0.00     0.134 A 
ATOM     58  C   UNL     1      11.646 -10.543   4.854  1.00  0.00     0.134 A 
ATOM     59  F   UNL     1       8.361 -11.764   5.812  1.00  0.00    -0.206 F 
ATOM     60  C   UNL     1      10.492 -12.635   6.271  1.00  0.00     0.040 A 
ATOM     61  C   UNL     1      12.455 -11.518   5.436  1.00  0.00     0.040 A 
ATOM     62  F   UNL     1      12.243  -9.545   4.185  1.00  0.00    -0.206 F 
ATOM     63  C   UNL     1      11.879 -12.564   6.155  1.00  0.00     0.006 A 
ENDBRANCH  39  56
ENDBRANCH  13  14
ENDBRANCH   6   8
ENDBRANCH   3   4
ENDBRANCH   2   3
ENDBRANCH   1   2
BRANCH   1  64
ATOM     64  C   UNL     1       3.898   3.982  -2.542  1.00  0.00     0.116 C 
BRANCH  64  65
ATOM     65  N   UNL     1       5.248   4.424  -2.261  1.00  0.00    -0.356 N 
ATOM     66  C   UNL     1       5.477   5.657  -1.717  1.00  0.00     0.225 C 
ATOM     67  H   UNL     1       6.008   3.831  -2.463  1.00  0.00     0.163 HD
ATOM     68  O   UNL     1       5.968   5.708  -0.595  1.00  0.00    -0.275 OA
BRANCH  66  69
ATOM     69  C   UNL     1       5.053   6.884  -2.500  1.00  0.00     0.107 C 
ATOM     70  C   UNL     1       5.878   7.060  -3.779  1.00  0.00     0.116 C 
ATOM     71  C   UNL     1       5.341   8.146  -1.703  1.00  0.00     0.139 C 
ATOM     72  C   UNL     1       6.914   8.104  -3.420  1.00  0.00     0.227 C 
ATOM     73  N   UNL     1       6.669   8.521  -2.114  1.00  0.00    -0.311 N 
ATOM     74  O   UNL     1       7.788   8.499  -4.174  1.00  0.00    -0.274 OA
BRANCH  73  75
ATOM     75  C   UNL     1       7.330   9.604  -1.509  1.00  0.00     0.055 A 
ATOM     76  C   UNL     1       6.948  10.895  -1.915  1.00  0.00     0.028 A 
ATOM     77  C   UNL     1       8.243   9.448  -0.446  1.00  0.00     0.048 A 
ATOM     78  C   UNL     1       7.435  12.025  -1.256  1.00  0.00     0.023 A 
ATOM     79  C   UNL     1       8.727  10.602   0.204  1.00  0.00     0.035 A 
ATOM     80  C   UNL     1       8.319  11.873  -0.195  1.00  0.00     0.041 A 
ATOM     81  Cl  UNL     1       8.888  13.260   0.647  1.00  0.00    -0.084 Cl
BRANCH  77  82
ATOM     82  C   UNL     1       8.686   8.159   0.161  1.00  0.00     0.195 C 
ATOM     83  O   UNL     1       8.862   8.143   1.382  1.00  0.00    -0.289 OA
BRANCH  82  84
ATOM     84  C   UNL     1       8.961   6.907  -0.588  1.00  0.00     0.023 A 
ATOM     85  C   UNL     1       8.800   5.691   0.094  1.00  0.00     0.012 A 
ATOM     86  C   UNL     1       9.408   6.888  -1.909  1.00  0.00     0.012 A 
ATOM     87  C   UNL     1       8.986   4.473  -0.563  1.00  0.00     0.001 A 
ATOM     88  C   UNL     1       9.578   5.666  -2.573  1.00  0.00     0.001 A 
ATOM     89  C   UNL     1       9.354   4.462  -1.905  1.00  0.00     0.000 A 
ENDBRANCH  82  84
ENDBRANCH  77  82
ENDBRANCH  73  75
ENDBRANCH  66  69
ENDBRANCH  64  65
ENDBRANCH   1  64
TORSDOF 14
