REMARK SMILES Cc1cccc(CS[C@@H]2CC[C@]([NH3+])(C(=O)NCCCCNC(=O)c3ccc(-c4c5nc(c(-c6c(F)cccc6F)c6ccc([nH]6)c(-c6c(F)cccc6F)c6nc(c(-c7c(F)cccc7F)c7ccc4[nH]7)C=C6)C=C5)cc3)C2)c1
REMARK SMILES IDX 18 1 17 2 16 3 14 4 15 5 12 7 9 8 10 9 78 10 11 11 8 12 7 13
REMARK SMILES IDX 6 14 1 15 2 16 3 17 79 18 4 19 5 20 13 21 19 25 20 26 21 27
REMARK SMILES IDX 22 28 23 30 24 31 25 32 77 33 26 34 76 35 27 36 28 37 29 38
REMARK SMILES IDX 70 39 30 40 75 41 69 42 71 43 31 44 74 45 68 46 67 47 32 49
REMARK SMILES IDX 58 50 41 51 57 52 42 53 45 54 56 55 72 56 43 57 44 58 55 60
REMARK SMILES IDX 73 61 46 62 33 63 34 64 39 65 35 66 36 67 38 68 40 69 37 70
REMARK SMILES IDX 59 71 60 72 65 73 61 74 62 75 64 76 66 77 63 78 47 79 48 80
REMARK SMILES IDX 53 81 49 82 50 83 52 84 54 85 51 86
REMARK H PARENT 16 6 13 22 13 23 13 24 21 29 71 48 45 59
REMARK Flexibility Score: inf
ROOT
ATOM      1  C   UNL     1       2.782   1.609  -6.756  1.00  0.00     0.023 C 
ENDROOT
BRANCH   1   2
ATOM      2  C   UNL     1       2.302   1.340  -5.330  1.00  0.00     0.116 C 
BRANCH   2   3
ATOM      3  N   UNL     1       2.438   2.470  -4.428  1.00  0.00    -0.351 N 
ATOM      4  C   UNL     1       1.489   3.134  -3.696  1.00  0.00     0.281 C 
ATOM      5  O   UNL     1       1.886   4.044  -2.961  1.00  0.00    -0.268 OA
ATOM      6  H   UNL     1       3.356   2.813  -4.327  1.00  0.00     0.163 HD
BRANCH   4   7
ATOM      7  C   UNL     1      -0.028   2.806  -3.838  1.00  0.00     0.175 C 
ATOM      8  C   UNL     1      -2.196   2.836  -2.720  1.00  0.00     0.054 C 
ATOM      9  C   UNL     1      -1.871   1.385  -3.074  1.00  0.00     0.022 C 
ATOM     10  C   UNL     1      -0.876   3.606  -2.813  1.00  0.00     0.093 C 
ATOM     11  C   UNL     1      -0.390   1.367  -3.446  1.00  0.00     0.080 C 
BRANCH   8  12
ATOM     12  S   UNL     1      -3.250   3.045  -1.239  1.00  0.00    -0.154 SA
BRANCH  12  13
ATOM     13  C   UNL     1      -2.101   2.890   0.166  1.00  0.00     0.105 C 
BRANCH  13  14
ATOM     14  C   UNL     1      -1.343   1.594   0.255  1.00  0.00    -0.038 A 
ATOM     15  C   UNL     1       2.289   0.466   0.153  1.00  0.00     0.044 C 
ATOM     16  C   UNL     1       0.795   0.423   0.251  1.00  0.00    -0.051 A 
ATOM     17  C   UNL     1       0.119  -0.797   0.354  1.00  0.00     0.003 A 
ATOM     18  C   UNL     1       0.058   1.610   0.211  1.00  0.00     0.008 A 
ATOM     19  C   UNL     1      -1.272  -0.826   0.440  1.00  0.00     0.001 A 
ATOM     20  C   UNL     1      -2.000   0.364   0.403  1.00  0.00     0.004 A 
ENDBRANCH  13  14
ENDBRANCH  12  13
ENDBRANCH   8  12
BRANCH   7  21
ATOM     21  N   UNL     1      -0.450   3.119  -5.224  1.00  0.00    -0.345 N 
ATOM     22  H   UNL     1      -1.442   2.910  -5.333  1.00  0.00     0.345 HD
ATOM     23  H   UNL     1       0.091   2.556  -5.880  1.00  0.00     0.345 HD
ATOM     24  H   UNL     1      -0.288   4.109  -5.413  1.00  0.00     0.345 HD
ENDBRANCH   7  21
ENDBRANCH   4   7
ENDBRANCH   2   3
ENDBRANCH   1   2
BRANCH   1  25
ATOM     25  C   UNL     1       4.264   1.930  -6.920  1.00  0.00     0.023 C 
BRANCH  25  26
ATOM     26  C   UNL     1       5.225   0.841  -6.463  1.00  0.00     0.116 C 
BRANCH  26  27
ATOM     27  N   UNL     1       5.362  -0.294  -7.365  1.00  0.00    -0.352 N 
ATOM     28  C   UNL     1       6.094  -1.466  -7.213  1.00  0.00     0.251 C 
ATOM     29  H   UNL     1       4.860  -0.221  -8.209  1.00  0.00     0.163 HD
ATOM     30  O   UNL     1       6.114  -2.289  -8.110  1.00  0.00    -0.269 OA
BRANCH  28  31
ATOM     31  C   UNL     1       6.726  -1.786  -5.901  1.00  0.00     0.039 A 
ATOM     32  C   UNL     1       6.630  -3.106  -5.436  1.00  0.00     0.014 A 
ATOM     33  C   UNL     1       7.198  -0.793  -5.052  1.00  0.00     0.014 A 
ATOM     34  C   UNL     1       6.716  -3.358  -4.069  1.00  0.00     0.010 A 
ATOM     35  C   UNL     1       7.171  -1.013  -3.691  1.00  0.00     0.010 A 
ATOM     36  C   UNL     1       6.844  -2.279  -3.201  1.00  0.00    -0.014 A 
BRANCH  36  37
ATOM     37  C   UNL     1       6.522  -2.335  -1.783  1.00  0.00     0.031 A 
ATOM     38  C   UNL     1       7.585  -2.226  -0.767  1.00  0.00     0.074 A 
ATOM     39  C   UNL     1       5.222  -2.334  -1.409  1.00  0.00     0.049 A 
ATOM     40  N   UNL     1       7.396  -2.429   0.491  1.00  0.00    -0.248 NA
ATOM     41  C   UNL     1       8.977  -1.942  -1.095  1.00  0.00     0.031 C 
ATOM     42  C   UNL     1       4.682  -2.067  -0.080  1.00  0.00     0.029 A 
ATOM     43  N   UNL     1       4.125  -2.826  -2.134  1.00  0.00    -0.354 N 
ATOM     44  C   UNL     1       8.521  -2.021   1.159  1.00  0.00     0.074 A 
ATOM     45  C   UNL     1       9.514  -1.864   0.128  1.00  0.00     0.031 C 
ATOM     46  C   UNL     1       3.491  -2.672   0.029  1.00  0.00     0.029 A 
ATOM     47  C   UNL     1       3.296  -3.456  -1.174  1.00  0.00     0.049 A 
ATOM     48  H   UNL     1       3.967  -2.749  -3.102  1.00  0.00     0.167 HD
ATOM     49  C   UNL     1       8.415  -1.754   2.492  1.00  0.00     0.037 A 
ATOM     50  C   UNL     1       3.110  -4.808  -1.197  1.00  0.00     0.037 A 
ATOM     51  C   UNL     1       7.178  -2.334   3.040  1.00  0.00     0.049 A 
ATOM     52  C   UNL     1       3.635  -5.524   0.031  1.00  0.00     0.074 A 
ATOM     53  C   UNL     1       5.976  -1.843   3.523  1.00  0.00     0.029 A 
ATOM     54  N   UNL     1       6.997  -3.704   2.910  1.00  0.00    -0.354 N 
ATOM     55  N   UNL     1       4.268  -4.927   1.004  1.00  0.00    -0.248 NA
ATOM     56  C   UNL     1       3.547  -6.969   0.242  1.00  0.00     0.031 C 
ATOM     57  C   UNL     1       5.058  -2.938   3.623  1.00  0.00     0.029 A 
ATOM     58  C   UNL     1       5.710  -4.091   3.224  1.00  0.00     0.049 A 
ATOM     59  H   UNL     1       7.705  -4.328   2.628  1.00  0.00     0.167 HD
ATOM     60  C   UNL     1       4.661  -5.842   1.936  1.00  0.00     0.074 A 
ATOM     61  C   UNL     1       4.197  -7.114   1.411  1.00  0.00     0.031 C 
ATOM     62  C   UNL     1       5.348  -5.492   3.062  1.00  0.00     0.037 A 
BRANCH  49  63
ATOM     63  C   UNL     1       9.352  -0.861   3.288  1.00  0.00     0.057 A 
ATOM     64  C   UNL     1       9.086  -0.582   4.645  1.00  0.00     0.134 A 
ATOM     65  C   UNL     1      10.461  -0.154   2.775  1.00  0.00     0.134 A 
ATOM     66  F   UNL     1       8.062  -1.155   5.292  1.00  0.00    -0.206 F 
ATOM     67  C   UNL     1       9.842   0.323   5.409  1.00  0.00     0.040 A 
ATOM     68  C   UNL     1      11.249   0.720   3.538  1.00  0.00     0.040 A 
ATOM     69  F   UNL     1      10.833  -0.217   1.495  1.00  0.00    -0.206 F 
ATOM     70  C   UNL     1      10.934   0.974   4.859  1.00  0.00     0.006 A 
ENDBRANCH  49  63
BRANCH  50  71
ATOM     71  C   UNL     1       3.042  -5.339  -2.583  1.00  0.00     0.057 A 
ATOM     72  C   UNL     1       1.996  -4.883  -3.410  1.00  0.00     0.134 A 
ATOM     73  C   UNL     1       4.153  -5.900  -3.215  1.00  0.00     0.134 A 
ATOM     74  F   UNL     1       0.898  -4.334  -2.865  1.00  0.00    -0.206 F 
ATOM     75  C   UNL     1       2.112  -4.854  -4.801  1.00  0.00     0.040 A 
ATOM     76  C   UNL     1       4.271  -5.894  -4.611  1.00  0.00     0.040 A 
ATOM     77  F   UNL     1       5.197  -6.337  -2.496  1.00  0.00    -0.206 F 
ATOM     78  C   UNL     1       3.272  -5.327  -5.403  1.00  0.00     0.006 A 
ENDBRANCH  50  71
BRANCH  62  79
ATOM     79  C   UNL     1       5.740  -6.484   4.112  1.00  0.00     0.057 A 
ATOM     80  C   UNL     1       4.833  -7.410   4.644  1.00  0.00     0.134 A 
ATOM     81  C   UNL     1       7.013  -6.452   4.710  1.00  0.00     0.134 A 
ATOM     82  F   UNL     1       3.575  -7.485   4.184  1.00  0.00    -0.206 F 
ATOM     83  C   UNL     1       5.184  -8.280   5.682  1.00  0.00     0.040 A 
ATOM     84  C   UNL     1       7.361  -7.284   5.777  1.00  0.00     0.040 A 
ATOM     85  F   UNL     1       7.974  -5.628   4.268  1.00  0.00    -0.206 F 
ATOM     86  C   UNL     1       6.447  -8.210   6.260  1.00  0.00     0.006 A 
ENDBRANCH  62  79
ENDBRANCH  36  37
ENDBRANCH  28  31
ENDBRANCH  26  27
ENDBRANCH  25  26
ENDBRANCH   1  25
TORSDOF 15
