REMARK SMILES C[C@H](CC(=O)NCCCCNC(=O)c1ccc(-c2c3nc(c(-c4c(F)cccc4F)c4ccc([nH]4)c(-c4c(F)cccc4F)c4nc(c(-c5c(F)cccc5F)c5ccc2[nH]5)C=C4)C=C3)cc1)NC(=O)Cn1nc2ccccn2c1=O
REMARK SMILES IDX 7 1 6 2 4 3 5 4 3 6 2 7 1 8 68 9 69 10 70 12 71 13 72 14
REMARK SMILES IDX 73 15 80 16 74 17 79 18 81 19 75 20 78 21 76 22 77 23 8 24
REMARK SMILES IDX 9 25 10 26 11 27 12 28 13 30 14 31 15 32 67 33 16 34 66 35
REMARK SMILES IDX 17 36 18 37 19 38 60 39 20 40 65 41 59 42 61 43 21 44 64 45
REMARK SMILES IDX 58 46 57 47 22 49 48 50 31 51 47 52 32 53 35 54 46 55 62 56
REMARK SMILES IDX 33 57 34 58 45 60 63 61 36 62 23 63 24 64 29 65 25 66 26 67
REMARK SMILES IDX 28 68 30 69 27 70 49 71 50 72 55 73 51 74 52 75 54 76 56 77
REMARK SMILES IDX 53 78 37 79 38 80 43 81 39 82 40 83 42 84 44 85 41 86
REMARK H PARENT 6 5 68 11 11 29 61 48 35 59
REMARK Flexibility Score: inf
ROOT
ATOM      1  C   UNL     1      -1.707   1.260   0.017  1.00  0.00     0.116 C 
ENDROOT
BRANCH   1   2
ATOM      2  N   UNL     1      -0.422   1.910  -0.127  1.00  0.00    -0.356 N 
ATOM      3  C   UNL     1       0.825   1.397   0.055  1.00  0.00     0.222 C 
ATOM      4  O   UNL     1       1.786   2.164  -0.030  1.00  0.00    -0.275 OA
ATOM      5  H   UNL     1      -0.454   2.857  -0.395  1.00  0.00     0.163 HD
BRANCH   3   6
ATOM      6  C   UNL     1       1.028  -0.084   0.320  1.00  0.00     0.124 C 
BRANCH   6   7
ATOM      7  C   UNL     1       0.861  -0.573   1.773  1.00  0.00     0.088 C 
ATOM      8  C   UNL     1       1.253   0.480   2.808  1.00  0.00     0.031 C 
BRANCH   7   9
ATOM      9  N   UNL     1      -0.491  -1.078   2.026  1.00  0.00    -0.352 N 
ATOM     10  C   UNL     1      -1.048  -2.306   1.806  1.00  0.00     0.242 C 
ATOM     11  H   UNL     1      -1.104  -0.419   2.424  1.00  0.00     0.163 HD
ATOM     12  O   UNL     1      -2.282  -2.349   1.766  1.00  0.00    -0.273 OA
BRANCH  10  13
ATOM     13  C   UNL     1      -0.200  -3.576   1.726  1.00  0.00     0.249 C 
BRANCH  13  14
ATOM     14  N   UNL     1       0.530  -3.743   0.495  1.00  0.00    -0.203 N 
ATOM     15  N   UNL     1       1.690  -3.056   0.221  1.00  0.00    -0.149 NA
ATOM     16  C   UNL     1       0.154  -4.531  -0.606  1.00  0.00     0.350 A 
ATOM     17  C   UNL     1       1.940  -3.358  -1.012  1.00  0.00     0.161 A 
ATOM     18  N   UNL     1       1.082  -4.238  -1.576  1.00  0.00    -0.250 N 
ATOM     19  O   UNL     1      -0.804  -5.288  -0.689  1.00  0.00    -0.246 OA
ATOM     20  C   UNL     1       3.015  -2.789  -1.850  1.00  0.00     0.050 A 
ATOM     21  C   UNL     1       1.157  -4.656  -2.873  1.00  0.00     0.098 A 
ATOM     22  C   UNL     1       2.873  -2.976  -3.175  1.00  0.00     0.005 A 
ATOM     23  C   UNL     1       2.027  -4.043  -3.688  1.00  0.00     0.019 A 
ENDBRANCH  13  14
ENDBRANCH  10  13
ENDBRANCH   7   9
ENDBRANCH   6   7
ENDBRANCH   3   6
ENDBRANCH   1   2
BRANCH   1  24
ATOM     24  C   UNL     1      -2.337   1.605   1.366  1.00  0.00     0.023 C 
BRANCH  24  25
ATOM     25  C   UNL     1      -2.868   3.027   1.487  1.00  0.00     0.023 C 
BRANCH  25  26
ATOM     26  C   UNL     1      -3.944   3.389   0.480  1.00  0.00     0.116 C 
BRANCH  26  27
ATOM     27  N   UNL     1      -5.096   2.500   0.525  1.00  0.00    -0.352 N 
ATOM     28  C   UNL     1      -6.431   2.827   0.505  1.00  0.00     0.251 C 
ATOM     29  H   UNL     1      -4.892   1.538   0.577  1.00  0.00     0.163 HD
ATOM     30  O   UNL     1      -7.291   1.971   0.672  1.00  0.00    -0.269 OA
BRANCH  28  31
ATOM     31  C   UNL     1      -6.812   4.241   0.325  1.00  0.00     0.039 A 
ATOM     32  C   UNL     1      -7.720   4.814   1.216  1.00  0.00     0.014 A 
ATOM     33  C   UNL     1      -6.208   5.012  -0.672  1.00  0.00     0.014 A 
ATOM     34  C   UNL     1      -7.958   6.187   1.159  1.00  0.00     0.010 A 
ATOM     35  C   UNL     1      -6.371   6.391  -0.662  1.00  0.00     0.010 A 
ATOM     36  C   UNL     1      -7.247   6.992   0.254  1.00  0.00    -0.014 A 
BRANCH  36  37
ATOM     37  C   UNL     1      -7.396   8.468   0.256  1.00  0.00     0.031 A 
ATOM     38  C   UNL     1      -7.920   9.173  -0.963  1.00  0.00     0.074 A 
ATOM     39  C   UNL     1      -6.990   9.175   1.329  1.00  0.00     0.049 A 
ATOM     40  N   UNL     1      -8.061  10.456  -1.177  1.00  0.00    -0.248 NA
ATOM     41  C   UNL     1      -8.306   8.327  -2.104  1.00  0.00     0.031 C 
ATOM     42  C   UNL     1      -6.408   8.609   2.548  1.00  0.00     0.029 A 
ATOM     43  N   UNL     1      -6.997  10.527   1.563  1.00  0.00    -0.354 N 
ATOM     44  C   UNL     1      -8.539  10.569  -2.477  1.00  0.00     0.074 A 
ATOM     45  C   UNL     1      -8.603   9.232  -3.023  1.00  0.00     0.031 C 
ATOM     46  C   UNL     1      -6.143   9.602   3.412  1.00  0.00     0.029 A 
ATOM     47  C   UNL     1      -6.495  10.876   2.794  1.00  0.00     0.049 A 
ATOM     48  H   UNL     1      -7.331  11.185   0.911  1.00  0.00     0.167 HD
ATOM     49  C   UNL     1      -8.916  11.685  -3.144  1.00  0.00     0.037 A 
ATOM     50  C   UNL     1      -6.330  12.088   3.357  1.00  0.00     0.037 A 
ATOM     51  C   UNL     1      -8.872  13.011  -2.586  1.00  0.00     0.049 A 
ATOM     52  C   UNL     1      -6.749  13.312   2.591  1.00  0.00     0.074 A 
ATOM     53  C   UNL     1      -9.293  14.199  -3.155  1.00  0.00     0.029 A 
ATOM     54  N   UNL     1      -8.370  13.323  -1.332  1.00  0.00    -0.354 N 
ATOM     55  N   UNL     1      -7.275  13.399   1.393  1.00  0.00    -0.248 NA
ATOM     56  C   UNL     1      -6.558  14.608   3.259  1.00  0.00     0.031 C 
ATOM     57  C   UNL     1      -8.998  15.237  -2.266  1.00  0.00     0.029 A 
ATOM     58  C   UNL     1      -8.444  14.690  -1.120  1.00  0.00     0.049 A 
ATOM     59  H   UNL     1      -8.013  12.670  -0.687  1.00  0.00     0.167 HD
ATOM     60  C   UNL     1      -7.499  14.752   1.173  1.00  0.00     0.074 A 
ATOM     61  C   UNL     1      -7.071  15.446   2.369  1.00  0.00     0.031 C 
ATOM     62  C   UNL     1      -8.013  15.364   0.078  1.00  0.00     0.037 A 
BRANCH  49  63
ATOM     63  C   UNL     1      -9.414  11.515  -4.550  1.00  0.00     0.057 A 
ATOM     64  C   UNL     1     -10.636  10.889  -4.833  1.00  0.00     0.134 A 
ATOM     65  C   UNL     1      -8.677  12.009  -5.634  1.00  0.00     0.134 A 
ATOM     66  F   UNL     1     -11.385  10.381  -3.843  1.00  0.00    -0.206 F 
ATOM     67  C   UNL     1     -11.093  10.736  -6.143  1.00  0.00     0.040 A 
ATOM     68  C   UNL     1      -9.138  11.889  -6.946  1.00  0.00     0.040 A 
ATOM     69  F   UNL     1      -7.501  12.624  -5.436  1.00  0.00    -0.206 F 
ATOM     70  C   UNL     1     -10.346  11.245  -7.204  1.00  0.00     0.006 A 
ENDBRANCH  49  63
BRANCH  50  71
ATOM     71  C   UNL     1      -5.759  12.204   4.723  1.00  0.00     0.057 A 
ATOM     72  C   UNL     1      -6.545  12.623   5.802  1.00  0.00     0.134 A 
ATOM     73  C   UNL     1      -4.415  11.907   4.983  1.00  0.00     0.134 A 
ATOM     74  F   UNL     1      -7.835  12.939   5.614  1.00  0.00    -0.206 F 
ATOM     75  C   UNL     1      -6.014  12.764   7.085  1.00  0.00     0.040 A 
ATOM     76  C   UNL     1      -3.877  12.016   6.266  1.00  0.00     0.040 A 
ATOM     77  F   UNL     1      -3.610  11.491   3.994  1.00  0.00    -0.206 F 
ATOM     78  C   UNL     1      -4.675  12.454   7.320  1.00  0.00     0.006 A 
ENDBRANCH  50  71
BRANCH  62  79
ATOM     79  C   UNL     1      -8.165  16.857   0.135  1.00  0.00     0.057 A 
ATOM     80  C   UNL     1      -7.060  17.716   0.093  1.00  0.00     0.134 A 
ATOM     81  C   UNL     1      -9.437  17.441   0.196  1.00  0.00     0.134 A 
ATOM     82  F   UNL     1      -5.814  17.219   0.047  1.00  0.00    -0.206 F 
ATOM     83  C   UNL     1      -7.212  19.102   0.134  1.00  0.00     0.040 A 
ATOM     84  C   UNL     1      -9.603  18.826   0.207  1.00  0.00     0.040 A 
ATOM     85  F   UNL     1     -10.538  16.676   0.229  1.00  0.00    -0.206 F 
ATOM     86  C   UNL     1      -8.488  19.661   0.183  1.00  0.00     0.006 A 
ENDBRANCH  62  79
ENDBRANCH  36  37
ENDBRANCH  28  31
ENDBRANCH  26  27
ENDBRANCH  25  26
ENDBRANCH  24  25
ENDBRANCH   1  24
TORSDOF 15
