REMARK SMILES CC[C@](C)(NS(=O)(=O)c1ccc(OC)c(F)c1)C(=O)NCCCCNC(=O)c1ccc(-c2c3nc(c(-c4c(F)cccc4F)c4ccc([nH]4)c(-c4c(F)cccc4F)c4nc(c(-c5c(F)cccc5F)c5ccc2[nH]5)C=C4)C=C3)cc1
REMARK SMILES IDX 21 1 20 2 18 3 19 4 3 6 4 7 2 8 1 9 5 10 6 12 7 13 8 14 9 15
REMARK SMILES IDX 10 16 17 17 11 18 15 19 12 20 16 21 13 22 14 23 22 24 23 25
REMARK SMILES IDX 24 26 25 27 26 28 27 30 28 31 29 32 81 33 30 34 80 35 31 36
REMARK SMILES IDX 32 37 33 38 74 39 34 40 79 41 73 42 75 43 35 44 78 45 72 46
REMARK SMILES IDX 71 47 36 49 62 50 45 51 61 52 46 53 49 54 60 55 76 56 47 57
REMARK SMILES IDX 48 58 59 60 77 61 50 62 37 63 38 64 43 65 39 66 40 67 42 68
REMARK SMILES IDX 44 69 41 70 63 71 64 72 69 73 65 74 66 75 68 76 70 77 67 78
REMARK SMILES IDX 51 79 52 80 57 81 53 82 54 83 56 84 58 85 55 86
REMARK H PARENT 20 5 5 11 25 29 75 48 49 59
REMARK Flexibility Score: inf
ROOT
ATOM      1  C   UNL     1       2.041   3.120  -4.137  1.00  0.00     0.116 C 
ENDROOT
BRANCH   1   2
ATOM      2  N   UNL     1       2.670   2.454  -3.008  1.00  0.00    -0.354 N 
ATOM      3  C   UNL     1       2.231   1.895  -1.851  1.00  0.00     0.241 C 
ATOM      4  O   UNL     1       3.017   1.056  -1.383  1.00  0.00    -0.273 OA
ATOM      5  H   UNL     1       3.648   2.395  -3.105  1.00  0.00     0.163 HD
BRANCH   3   6
ATOM      6  C   UNL     1       0.929   2.239  -1.085  1.00  0.00     0.108 C 
ATOM      7  C   UNL     1       0.831   1.236   0.124  1.00  0.00     0.040 C 
BRANCH   6   8
ATOM      8  C   UNL     1      -0.328   1.978  -1.945  1.00  0.00     0.030 C 
ATOM      9  C   UNL     1      -0.409   0.534  -2.477  1.00  0.00     0.006 C 
ENDBRANCH   6   8
BRANCH   6  10
ATOM     10  N   UNL     1       0.867   3.517  -0.334  1.00  0.00    -0.196 NA
ATOM     11  H   UNL     1       1.213   3.246   0.586  1.00  0.00     0.142 HD
BRANCH  10  12
ATOM     12  S   UNL     1       1.482   5.037  -0.509  1.00  0.00     0.241 S 
ATOM     13  O   UNL     1       0.932   5.581  -1.734  1.00  0.00    -0.207 OA
ATOM     14  O   UNL     1       1.167   5.673   0.746  1.00  0.00    -0.207 OA
BRANCH  12  15
ATOM     15  C   UNL     1       3.256   5.050  -0.604  1.00  0.00     0.085 A 
ATOM     16  C   UNL     1       3.890   6.277  -0.844  1.00  0.00     0.026 A 
ATOM     17  C   UNL     1       4.037   3.910  -0.479  1.00  0.00     0.065 A 
ATOM     18  C   UNL     1       5.275   6.329  -1.062  1.00  0.00     0.051 A 
ATOM     19  C   UNL     1       5.398   3.952  -0.801  1.00  0.00     0.166 A 
ATOM     20  C   UNL     1       6.033   5.155  -1.111  1.00  0.00     0.154 A 
ATOM     21  F   UNL     1       6.061   2.787  -0.836  1.00  0.00    -0.203 F 
BRANCH  20  22
ATOM     22  O   UNL     1       7.345   5.332  -1.453  1.00  0.00    -0.494 OA
ATOM     23  C   UNL     1       8.056   4.186  -1.914  1.00  0.00     0.278 C 
ENDBRANCH  20  22
ENDBRANCH  12  15
ENDBRANCH  10  12
ENDBRANCH   6  10
ENDBRANCH   3   6
ENDBRANCH   1   2
BRANCH   1  24
ATOM     24  C   UNL     1       2.390   4.593  -4.321  1.00  0.00     0.023 C 
BRANCH  24  25
ATOM     25  C   UNL     1       3.866   4.957  -4.278  1.00  0.00     0.023 C 
BRANCH  25  26
ATOM     26  C   UNL     1       4.630   4.580  -5.528  1.00  0.00     0.116 C 
BRANCH  26  27
ATOM     27  N   UNL     1       4.220   5.380  -6.672  1.00  0.00    -0.352 N 
ATOM     28  C   UNL     1       4.937   6.283  -7.418  1.00  0.00     0.251 C 
ATOM     29  H   UNL     1       3.285   5.255  -6.955  1.00  0.00     0.163 HD
ATOM     30  O   UNL     1       4.351   7.042  -8.185  1.00  0.00    -0.269 OA
BRANCH  28  31
ATOM     31  C   UNL     1       6.411   6.346  -7.302  1.00  0.00     0.039 A 
ATOM     32  C   UNL     1       7.056   7.579  -7.436  1.00  0.00     0.014 A 
ATOM     33  C   UNL     1       7.164   5.187  -7.102  1.00  0.00     0.014 A 
ATOM     34  C   UNL     1       8.447   7.647  -7.335  1.00  0.00     0.010 A 
ATOM     35  C   UNL     1       8.529   5.273  -6.874  1.00  0.00     0.010 A 
ATOM     36  C   UNL     1       9.192   6.495  -7.033  1.00  0.00    -0.014 A 
BRANCH  36  37
ATOM     37  C   UNL     1      10.673   6.519  -6.957  1.00  0.00     0.031 A 
ATOM     38  C   UNL     1      11.477   5.671  -7.908  1.00  0.00     0.074 A 
ATOM     39  C   UNL     1      11.287   7.252  -6.009  1.00  0.00     0.049 A 
ATOM     40  N   UNL     1      12.770   5.479  -7.954  1.00  0.00    -0.248 NA
ATOM     41  C   UNL     1      10.726   4.906  -8.921  1.00  0.00     0.031 C 
ATOM     42  C   UNL     1      10.611   8.076  -5.005  1.00  0.00     0.029 A 
ATOM     43  N   UNL     1      12.620   7.420  -5.734  1.00  0.00    -0.354 N 
ATOM     44  C   UNL     1      12.978   4.562  -8.977  1.00  0.00     0.074 A 
ATOM     45  C   UNL     1      11.680   4.180  -9.481  1.00  0.00     0.031 C 
ATOM     46  C   UNL     1      11.534   8.696  -4.253  1.00  0.00     0.029 A 
ATOM     47  C   UNL     1      12.863   8.279  -4.690  1.00  0.00     0.049 A 
ATOM     48  H   UNL     1      13.335   6.969  -6.238  1.00  0.00     0.167 HD
ATOM     49  C   UNL     1      14.149   4.107  -9.477  1.00  0.00     0.037 A 
ATOM     50  C   UNL     1      14.028   8.682  -4.147  1.00  0.00     0.037 A 
ATOM     51  C   UNL     1      15.438   4.534  -9.005  1.00  0.00     0.049 A 
ATOM     52  C   UNL     1      15.317   8.163  -4.721  1.00  0.00     0.074 A 
ATOM     53  C   UNL     1      16.687   4.184  -9.485  1.00  0.00     0.029 A 
ATOM     54  N   UNL     1      15.640   5.412  -7.951  1.00  0.00    -0.354 N 
ATOM     55  N   UNL     1      15.501   7.335  -5.722  1.00  0.00    -0.248 NA
ATOM     56  C   UNL     1      16.561   8.633  -4.095  1.00  0.00     0.031 C 
ATOM     57  C   UNL     1      17.647   4.813  -8.690  1.00  0.00     0.029 A 
ATOM     58  C   UNL     1      16.997   5.599  -7.752  1.00  0.00     0.049 A 
ATOM     59  H   UNL     1      14.926   5.839  -7.424  1.00  0.00     0.167 HD
ATOM     60  C   UNL     1      16.876   7.205  -5.862  1.00  0.00     0.074 A 
ATOM     61  C   UNL     1      17.480   8.049  -4.852  1.00  0.00     0.031 C 
ATOM     62  C   UNL     1      17.576   6.454  -6.747  1.00  0.00     0.037 A 
BRANCH  49  63
ATOM     63  C   UNL     1      14.099   3.119 -10.606  1.00  0.00     0.057 A 
ATOM     64  C   UNL     1      14.540   1.802 -10.424  1.00  0.00     0.134 A 
ATOM     65  C   UNL     1      13.682   3.487 -11.892  1.00  0.00     0.134 A 
ATOM     66  F   UNL     1      14.956   1.382  -9.219  1.00  0.00    -0.206 F 
ATOM     67  C   UNL     1      14.585   0.894 -11.483  1.00  0.00     0.040 A 
ATOM     68  C   UNL     1      13.694   2.580 -12.952  1.00  0.00     0.040 A 
ATOM     69  F   UNL     1      13.232   4.729 -12.131  1.00  0.00    -0.206 F 
ATOM     70  C   UNL     1      14.159   1.282 -12.752  1.00  0.00     0.006 A 
ENDBRANCH  49  63
BRANCH  50  71
ATOM     71  C   UNL     1      14.021   9.657  -3.027  1.00  0.00     0.057 A 
ATOM     72  C   UNL     1      13.542   9.315  -1.756  1.00  0.00     0.134 A 
ATOM     73  C   UNL     1      14.469  10.970  -3.213  1.00  0.00     0.134 A 
ATOM     74  F   UNL     1      13.091   8.075  -1.514  1.00  0.00    -0.206 F 
ATOM     75  C   UNL     1      13.492  10.246  -0.718  1.00  0.00     0.040 A 
ATOM     76  C   UNL     1      14.449  11.905  -2.177  1.00  0.00     0.040 A 
ATOM     77  F   UNL     1      14.955  11.354  -4.403  1.00  0.00    -0.206 F 
ATOM     78  C   UNL     1      13.951  11.546  -0.926  1.00  0.00     0.006 A 
ENDBRANCH  50  71
BRANCH  62  79
ATOM     79  C   UNL     1      19.073   6.521  -6.688  1.00  0.00     0.057 A 
ATOM     80  C   UNL     1      19.799   7.123  -7.724  1.00  0.00     0.134 A 
ATOM     81  C   UNL     1      19.797   5.906  -5.660  1.00  0.00     0.134 A 
ATOM     82  F   UNL     1      19.164   7.716  -8.746  1.00  0.00    -0.206 F 
ATOM     83  C   UNL     1      21.193   7.094  -7.749  1.00  0.00     0.040 A 
ATOM     84  C   UNL     1      21.192   5.896  -5.659  1.00  0.00     0.040 A 
ATOM     85  F   UNL     1      19.159   5.319  -4.636  1.00  0.00    -0.206 F 
ATOM     86  C   UNL     1      21.893   6.481  -6.713  1.00  0.00     0.006 A 
ENDBRANCH  62  79
ENDBRANCH  36  37
ENDBRANCH  28  31
ENDBRANCH  26  27
ENDBRANCH  25  26
ENDBRANCH  24  25
ENDBRANCH   1  24
TORSDOF 16
