REMARK SMILES CO[C@@H]1C[C@H](C(=O)NCCCCNC(=O)c2ccc(-c3c4nc(c(-c5c(F)cccc5F)c5ccc([nH]5)c(-c5c(F)cccc5F)c5nc(c(-c6c(F)cccc6F)c6ccc3[nH]6)C=C5)C=C4)cc2)N(C(=O)[C@H](CC(C)C)NC(N)=O)C1
REMARK SMILES IDX 9 1 8 2 6 3 7 4 5 6 3 7 4 8 82 9 70 10 2 11 1 12 71 13 72 14
REMARK SMILES IDX 73 15 78 16 79 17 80 19 81 20 74 23 75 24 76 25 77 26 10 27
REMARK SMILES IDX 11 28 12 29 13 30 14 31 15 33 16 34 17 35 69 36 18 37 68 38
REMARK SMILES IDX 19 39 20 40 21 41 62 42 22 43 67 44 61 45 63 46 23 47 66 48
REMARK SMILES IDX 60 49 59 50 24 52 50 53 33 54 49 55 34 56 37 57 48 58 64 59
REMARK SMILES IDX 35 60 36 61 47 63 65 64 38 65 25 66 26 67 31 68 27 69 28 70
REMARK SMILES IDX 30 71 32 72 29 73 51 74 52 75 57 76 53 77 54 78 56 79 58 80
REMARK SMILES IDX 55 81 39 82 40 83 45 84 41 85 42 86 44 87 46 88 43 89
REMARK H PARENT 8 5 78 18 80 21 80 22 13 32 63 51 37 62
REMARK Flexibility Score: inf
ROOT
ATOM      1  C   UNL     1       2.224   5.380   1.558  1.00  0.00     0.116 C 
ENDROOT
BRANCH   1   2
ATOM      2  N   UNL     1       2.995   4.790   0.474  1.00  0.00    -0.354 N 
ATOM      3  C   UNL     1       2.673   4.018  -0.595  1.00  0.00     0.242 C 
ATOM      4  O   UNL     1       3.614   3.754  -1.362  1.00  0.00    -0.273 OA
ATOM      5  H   UNL     1       3.956   4.994   0.528  1.00  0.00     0.163 HD
BRANCH   3   6
ATOM      6  C   UNL     1       1.288   3.391  -0.925  1.00  0.00     0.177 C 
ATOM      7  C   UNL     1       0.332   2.246   0.929  1.00  0.00     0.139 C 
ATOM      8  C   UNL     1       0.999   1.990  -0.411  1.00  0.00     0.069 C 
ATOM      9  C   UNL     1      -0.527   3.504   0.624  1.00  0.00     0.152 C 
ATOM     10  N   UNL     1       0.114   4.139  -0.543  1.00  0.00    -0.326 N 
BRANCH   7  11
ATOM     11  O   UNL     1       1.283   2.486   1.963  1.00  0.00    -0.380 OA
ATOM     12  C   UNL     1       2.349   1.535   2.030  1.00  0.00     0.195 C 
ENDBRANCH   7  11
BRANCH  10  13
ATOM     13  C   UNL     1      -0.560   5.064  -1.329  1.00  0.00     0.246 C 
ATOM     14  O   UNL     1      -1.590   5.596  -0.901  1.00  0.00    -0.272 OA
BRANCH  13  15
ATOM     15  C   UNL     1      -0.187   5.195  -2.852  1.00  0.00     0.173 C 
BRANCH  15  16
ATOM     16  N   UNL     1       1.229   5.473  -3.128  1.00  0.00    -0.327 N 
ATOM     17  C   UNL     1       1.663   6.471  -3.943  1.00  0.00     0.312 C 
ATOM     18  H   UNL     1       1.905   4.901  -2.697  1.00  0.00     0.166 HD
ATOM     19  N   UNL     1       3.018   6.483  -4.048  1.00  0.00    -0.352 N 
ATOM     20  O   UNL     1       0.964   7.268  -4.534  1.00  0.00    -0.249 OA
ATOM     21  H   UNL     1       3.556   5.822  -3.555  1.00  0.00     0.161 HD
ATOM     22  H   UNL     1       3.462   7.152  -4.617  1.00  0.00     0.161 HD
ENDBRANCH  15  16
BRANCH  15  23
ATOM     23  C   UNL     1      -0.627   3.882  -3.563  1.00  0.00     0.038 C 
BRANCH  23  24
ATOM     24  C   UNL     1      -1.816   4.038  -4.527  1.00  0.00    -0.015 C 
ATOM     25  C   UNL     1      -1.380   4.665  -5.849  1.00  0.00     0.007 C 
ATOM     26  C   UNL     1      -2.450   2.667  -4.796  1.00  0.00     0.007 C 
ENDBRANCH  23  24
ENDBRANCH  15  23
ENDBRANCH  13  15
ENDBRANCH  10  13
ENDBRANCH   3   6
ENDBRANCH   1   2
BRANCH   1  27
ATOM     27  C   UNL     1       2.665   4.867   2.931  1.00  0.00     0.023 C 
BRANCH  27  28
ATOM     28  C   UNL     1       3.900   5.531   3.513  1.00  0.00     0.023 C 
BRANCH  28  29
ATOM     29  C   UNL     1       3.686   6.977   3.905  1.00  0.00     0.116 C 
BRANCH  29  30
ATOM     30  N   UNL     1       2.655   7.142   4.926  1.00  0.00    -0.352 N 
ATOM     31  C   UNL     1       2.743   7.794   6.134  1.00  0.00     0.251 C 
ATOM     32  H   UNL     1       1.783   6.734   4.723  1.00  0.00     0.163 HD
ATOM     33  O   UNL     1       1.852   7.708   6.970  1.00  0.00    -0.269 OA
BRANCH  31  34
ATOM     34  C   UNL     1       3.958   8.581   6.409  1.00  0.00     0.039 A 
ATOM     35  C   UNL     1       4.639   8.403   7.613  1.00  0.00     0.014 A 
ATOM     36  C   UNL     1       4.471   9.410   5.409  1.00  0.00     0.014 A 
ATOM     37  C   UNL     1       5.885   9.006   7.781  1.00  0.00     0.010 A 
ATOM     38  C   UNL     1       5.763   9.888   5.524  1.00  0.00     0.010 A 
ATOM     39  C   UNL     1       6.474   9.714   6.720  1.00  0.00    -0.014 A 
BRANCH  39  40
ATOM     40  C   UNL     1       7.816  10.329   6.841  1.00  0.00     0.031 A 
ATOM     41  C   UNL     1       7.959  11.816   6.661  1.00  0.00     0.074 A 
ATOM     42  C   UNL     1       8.898   9.551   7.033  1.00  0.00     0.049 A 
ATOM     43  N   UNL     1       9.043  12.546   6.634  1.00  0.00    -0.248 NA
ATOM     44  C   UNL     1       6.719  12.581   6.432  1.00  0.00     0.031 C 
ATOM     45  C   UNL     1       8.887   8.091   7.154  1.00  0.00     0.029 A 
ATOM     46  N   UNL     1      10.223   9.882   7.153  1.00  0.00    -0.354 N 
ATOM     47  C   UNL     1       8.616  13.840   6.365  1.00  0.00     0.074 A 
ATOM     48  C   UNL     1       7.189  13.785   6.153  1.00  0.00     0.031 C 
ATOM     49  C   UNL     1      10.139   7.657   7.372  1.00  0.00     0.029 A 
ATOM     50  C   UNL     1      11.045   8.801   7.363  1.00  0.00     0.049 A 
ATOM     51  H   UNL     1      10.555  10.807   7.094  1.00  0.00     0.167 HD
ATOM     52  C   UNL     1       9.342  14.981   6.338  1.00  0.00     0.037 A 
ATOM     53  C   UNL     1      12.379   8.745   7.529  1.00  0.00     0.037 A 
ATOM     54  C   UNL     1      10.755  15.029   6.592  1.00  0.00     0.049 A 
ATOM     55  C   UNL     1      13.165  10.029   7.503  1.00  0.00     0.074 A 
ATOM     56  C   UNL     1      11.582  16.135   6.655  1.00  0.00     0.029 A 
ATOM     57  N   UNL     1      11.548  13.916   6.831  1.00  0.00    -0.354 N 
ATOM     58  N   UNL     1      12.739  11.256   7.322  1.00  0.00    -0.248 NA
ATOM     59  C   UNL     1      14.614   9.921   7.712  1.00  0.00     0.031 C 
ATOM     60  C   UNL     1      12.887  15.687   6.885  1.00  0.00     0.029 A 
ATOM     61  C   UNL     1      12.862  14.307   7.021  1.00  0.00     0.049 A 
ATOM     62  H   UNL     1      11.225  12.987   6.861  1.00  0.00     0.167 HD
ATOM     63  C   UNL     1      13.860  12.068   7.427  1.00  0.00     0.074 A 
ATOM     64  C   UNL     1      14.982  11.194   7.703  1.00  0.00     0.031 C 
ATOM     65  C   UNL     1      13.957  13.415   7.306  1.00  0.00     0.037 A 
BRANCH  52  66
ATOM     66  C   UNL     1       8.613  16.258   6.037  1.00  0.00     0.057 A 
ATOM     67  C   UNL     1       7.680  16.806   6.929  1.00  0.00     0.134 A 
ATOM     68  C   UNL     1       8.854  16.958   4.849  1.00  0.00     0.134 A 
ATOM     69  F   UNL     1       7.387  16.178   8.078  1.00  0.00    -0.206 F 
ATOM     70  C   UNL     1       6.991  17.985   6.636  1.00  0.00     0.040 A 
ATOM     71  C   UNL     1       8.196  18.154   4.559  1.00  0.00     0.040 A 
ATOM     72  F   UNL     1       9.735  16.492   3.950  1.00  0.00    -0.206 F 
ATOM     73  C   UNL     1       7.255  18.666   5.450  1.00  0.00     0.006 A 
ENDBRANCH  52  66
BRANCH  53  74
ATOM     74  C   UNL     1      13.053   7.443   7.767  1.00  0.00     0.057 A 
ATOM     75  C   UNL     1      13.631   7.145   9.007  1.00  0.00     0.134 A 
ATOM     76  C   UNL     1      13.146   6.470   6.765  1.00  0.00     0.134 A 
ATOM     77  F   UNL     1      13.588   8.041  10.004  1.00  0.00    -0.206 F 
ATOM     78  C   UNL     1      14.300   5.941   9.234  1.00  0.00     0.040 A 
ATOM     79  C   UNL     1      13.788   5.250   6.987  1.00  0.00     0.040 A 
ATOM     80  F   UNL     1      12.603   6.686   5.558  1.00  0.00    -0.206 F 
ATOM     81  C   UNL     1      14.376   4.987   8.222  1.00  0.00     0.006 A 
ENDBRANCH  53  74
BRANCH  65  82
ATOM     82  C   UNL     1      15.312  14.026   7.511  1.00  0.00     0.057 A 
ATOM     83  C   UNL     1      16.342  13.875   6.575  1.00  0.00     0.134 A 
ATOM     84  C   UNL     1      15.571  14.814   8.640  1.00  0.00     0.134 A 
ATOM     85  F   UNL     1      16.160  13.124   5.478  1.00  0.00    -0.206 F 
ATOM     86  C   UNL     1      17.591  14.466   6.768  1.00  0.00     0.040 A 
ATOM     87  C   UNL     1      16.805  15.435   8.828  1.00  0.00     0.040 A 
ATOM     88  F   UNL     1      14.622  15.008   9.569  1.00  0.00    -0.206 F 
ATOM     89  C   UNL     1      17.822  15.255   7.893  1.00  0.00     0.006 A 
ENDBRANCH  65  82
ENDBRANCH  39  40
ENDBRANCH  31  34
ENDBRANCH  29  30
ENDBRANCH  28  29
ENDBRANCH  27  28
ENDBRANCH   1  27
TORSDOF 17
