REMARK SMILES CCCC[N@H+](CC)[C@H]1CCC[C@]([NH3+])(C(=O)NCCCCNC(=O)c2ccc(-c3c4nc(c(-c5c(F)cccc5F)c5ccc([nH]5)c(-c5c(F)cccc5F)c5nc(c(-c6c(F)cccc6F)c6ccc3[nH]6)C=C5)C=C4)cc2)C1
REMARK SMILES IDX 17 1 16 2 14 3 15 4 12 6 8 7 9 8 78 9 10 10 11 11 5 12 4 14
REMARK SMILES IDX 3 15 2 16 1 17 6 18 7 19 13 20 18 24 19 25 20 26 21 27 22 28
REMARK SMILES IDX 23 30 24 31 25 32 77 33 26 34 76 35 27 36 28 37 29 38 70 39
REMARK SMILES IDX 30 40 75 41 69 42 71 43 31 44 74 45 68 46 67 47 32 49 58 50
REMARK SMILES IDX 41 51 57 52 42 53 45 54 56 55 72 56 43 57 44 58 55 60 73 61
REMARK SMILES IDX 46 62 33 63 34 64 39 65 35 66 36 67 38 68 40 69 37 70 59 71
REMARK SMILES IDX 60 72 65 73 61 74 62 75 64 76 66 77 63 78 47 79 48 80 53 81
REMARK SMILES IDX 49 82 50 83 52 84 54 85 51 86
REMARK H PARENT 16 5 5 13 13 21 13 22 13 23 21 29 71 48 45 59
REMARK Flexibility Score: inf
ROOT
ATOM      1  C   UNL     1      -4.227  -3.152  -3.488  1.00  0.00     0.116 C 
ENDROOT
BRANCH   1   2
ATOM      2  N   UNL     1      -3.637  -4.428  -3.835  1.00  0.00    -0.351 N 
ATOM      3  C   UNL     1      -3.256  -5.502  -3.089  1.00  0.00     0.281 C 
ATOM      4  O   UNL     1      -2.788  -6.450  -3.729  1.00  0.00    -0.268 OA
ATOM      5  H   UNL     1      -3.480  -4.542  -4.800  1.00  0.00     0.163 HD
BRANCH   3   6
ATOM      6  C   UNL     1      -3.487  -5.588  -1.540  1.00  0.00     0.179 C 
ATOM      7  C   UNL     1      -1.372  -4.333  -0.786  1.00  0.00     0.190 C 
ATOM      8  C   UNL     1      -0.763  -5.658  -0.279  1.00  0.00     0.065 C 
ATOM      9  C   UNL     1      -2.916  -4.412  -0.729  1.00  0.00     0.144 C 
ATOM     10  C   UNL     1      -1.340  -6.877  -0.996  1.00  0.00     0.013 C 
ATOM     11  C   UNL     1      -2.868  -6.894  -0.984  1.00  0.00     0.079 C 
BRANCH   7  12
ATOM     12  N   UNL     1      -0.863  -3.102  -0.145  1.00  0.00    -0.333 N 
ATOM     13  H   UNL     1      -1.328  -2.433  -0.758  1.00  0.00     0.348 HD
BRANCH  12  14
ATOM     14  C   UNL     1       0.575  -2.855  -0.291  1.00  0.00     0.262 C 
BRANCH  14  15
ATOM     15  C   UNL     1       0.877  -1.927  -1.476  1.00  0.00     0.061 C 
BRANCH  15  16
ATOM     16  C   UNL     1       0.345  -0.496  -1.341  1.00  0.00     0.002 C 
ATOM     17  C   UNL     1       0.950   0.272  -0.173  1.00  0.00     0.004 C 
ENDBRANCH  15  16
ENDBRANCH  14  15
ENDBRANCH  12  14
BRANCH  12  18
ATOM     18  C   UNL     1      -1.402  -2.694   1.153  1.00  0.00     0.258 C 
ATOM     19  C   UNL     1      -1.095  -3.601   2.336  1.00  0.00     0.071 C 
ENDBRANCH  12  18
ENDBRANCH   7  12
BRANCH   6  20
ATOM     20  N   UNL     1      -4.953  -5.698  -1.307  1.00  0.00    -0.345 N 
ATOM     21  H   UNL     1      -5.135  -5.756  -0.305  1.00  0.00     0.345 HD
ATOM     22  H   UNL     1      -5.308  -6.537  -1.766  1.00  0.00     0.345 HD
ATOM     23  H   UNL     1      -5.421  -4.877  -1.690  1.00  0.00     0.345 HD
ENDBRANCH   6  20
ENDBRANCH   3   6
ENDBRANCH   1   2
BRANCH   1  24
ATOM     24  C   UNL     1      -3.192  -2.027  -3.492  1.00  0.00     0.023 C 
BRANCH  24  25
ATOM     25  C   UNL     1      -2.596  -1.708  -4.865  1.00  0.00     0.023 C 
BRANCH  25  26
ATOM     26  C   UNL     1      -3.608  -1.396  -5.962  1.00  0.00     0.116 C 
BRANCH  26  27
ATOM     27  N   UNL     1      -4.508  -0.306  -5.622  1.00  0.00    -0.352 N 
ATOM     28  C   UNL     1      -5.005   0.688  -6.431  1.00  0.00     0.251 C 
ATOM     29  H   UNL     1      -4.803  -0.276  -4.683  1.00  0.00     0.163 HD
ATOM     30  O   UNL     1      -5.676   1.594  -5.959  1.00  0.00    -0.269 OA
BRANCH  28  31
ATOM     31  C   UNL     1      -4.686   0.675  -7.875  1.00  0.00     0.039 A 
ATOM     32  C   UNL     1      -4.212   1.849  -8.466  1.00  0.00     0.014 A 
ATOM     33  C   UNL     1      -4.829  -0.490  -8.633  1.00  0.00     0.014 A 
ATOM     34  C   UNL     1      -3.815   1.836  -9.805  1.00  0.00     0.010 A 
ATOM     35  C   UNL     1      -4.370  -0.519  -9.947  1.00  0.00     0.010 A 
ATOM     36  C   UNL     1      -3.856   0.642 -10.544  1.00  0.00    -0.014 A 
BRANCH  36  37
ATOM     37  C   UNL     1      -3.357   0.587 -11.941  1.00  0.00     0.031 A 
ATOM     38  C   UNL     1      -4.303   0.286 -13.069  1.00  0.00     0.074 A 
ATOM     39  C   UNL     1      -2.041   0.743 -12.185  1.00  0.00     0.049 A 
ATOM     40  N   UNL     1      -4.045   0.119 -14.341  1.00  0.00    -0.248 NA
ATOM     41  C   UNL     1      -5.723   0.125 -12.717  1.00  0.00     0.031 C 
ATOM     42  C   UNL     1      -1.014   0.992 -11.170  1.00  0.00     0.029 A 
ATOM     43  N   UNL     1      -1.339   0.702 -13.363  1.00  0.00    -0.354 N 
ATOM     44  C   UNL     1      -5.264  -0.176 -14.938  1.00  0.00     0.074 A 
ATOM     45  C   UNL     1      -6.253  -0.218 -13.882  1.00  0.00     0.031 C 
ATOM     46  C   UNL     1       0.182   1.097 -11.771  1.00  0.00     0.029 A 
ATOM     47  C   UNL     1       0.014   0.889 -13.206  1.00  0.00     0.049 A 
ATOM     48  H   UNL     1      -1.764   0.552 -14.238  1.00  0.00     0.167 HD
ATOM     49  C   UNL     1      -5.539  -0.370 -16.249  1.00  0.00     0.037 A 
ATOM     50  C   UNL     1       1.006   0.884 -14.116  1.00  0.00     0.037 A 
ATOM     51  C   UNL     1      -4.559  -0.305 -17.301  1.00  0.00     0.049 A 
ATOM     52  C   UNL     1       0.674   0.662 -15.565  1.00  0.00     0.074 A 
ATOM     53  C   UNL     1      -4.748  -0.438 -18.665  1.00  0.00     0.029 A 
ATOM     54  N   UNL     1      -3.204  -0.086 -17.104  1.00  0.00    -0.354 N 
ATOM     55  N   UNL     1      -0.494   0.447 -16.122  1.00  0.00    -0.248 NA
ATOM     56  C   UNL     1       1.796   0.689 -16.515  1.00  0.00     0.031 C 
ATOM     57  C   UNL     1      -3.502  -0.336 -19.292  1.00  0.00     0.029 A 
ATOM     58  C   UNL     1      -2.543  -0.096 -18.321  1.00  0.00     0.049 A 
ATOM     59  H   UNL     1      -2.775   0.055 -16.229  1.00  0.00     0.167 HD
ATOM     60  C   UNL     1      -0.251   0.342 -17.485  1.00  0.00     0.074 A 
ATOM     61  C   UNL     1       1.172   0.532 -17.673  1.00  0.00     0.031 C 
ATOM     62  C   UNL     1      -1.128   0.109 -18.492  1.00  0.00     0.037 A 
BRANCH  49  63
ATOM     63  C   UNL     1      -6.963  -0.662 -16.623  1.00  0.00     0.057 A 
ATOM     64  C   UNL     1      -7.957   0.324 -16.557  1.00  0.00     0.134 A 
ATOM     65  C   UNL     1      -7.338  -1.926 -17.093  1.00  0.00     0.134 A 
ATOM     66  F   UNL     1      -7.667   1.553 -16.103  1.00  0.00    -0.206 F 
ATOM     67  C   UNL     1      -9.276   0.057 -16.926  1.00  0.00     0.040 A 
ATOM     68  C   UNL     1      -8.648  -2.198 -17.490  1.00  0.00     0.040 A 
ATOM     69  F   UNL     1      -6.434  -2.914 -17.186  1.00  0.00    -0.206 F 
ATOM     70  C   UNL     1      -9.623  -1.206 -17.402  1.00  0.00     0.006 A 
ENDBRANCH  49  63
BRANCH  50  71
ATOM     71  C   UNL     1       2.411   1.112 -13.690  1.00  0.00     0.057 A 
ATOM     72  C   UNL     1       3.087   2.288 -14.032  1.00  0.00     0.134 A 
ATOM     73  C   UNL     1       3.116   0.153 -12.953  1.00  0.00     0.134 A 
ATOM     74  F   UNL     1       2.470   3.236 -14.754  1.00  0.00    -0.206 F 
ATOM     75  C   UNL     1       4.422   2.494 -13.680  1.00  0.00     0.040 A 
ATOM     76  C   UNL     1       4.443   0.357 -12.571  1.00  0.00     0.040 A 
ATOM     77  F   UNL     1       2.522  -0.992 -12.587  1.00  0.00    -0.206 F 
ATOM     78  C   UNL     1       5.103   1.526 -12.943  1.00  0.00     0.006 A 
ENDBRANCH  50  71
BRANCH  62  79
ATOM     79  C   UNL     1      -0.580   0.085 -19.888  1.00  0.00     0.057 A 
ATOM     80  C   UNL     1       0.198  -0.979 -20.360  1.00  0.00     0.134 A 
ATOM     81  C   UNL     1      -0.868   1.124 -20.783  1.00  0.00     0.134 A 
ATOM     82  F   UNL     1       0.520  -1.998 -19.549  1.00  0.00    -0.206 F 
ATOM     83  C   UNL     1       0.688  -0.999 -21.666  1.00  0.00     0.040 A 
ATOM     84  C   UNL     1      -0.406   1.103 -22.099  1.00  0.00     0.040 A 
ATOM     85  F   UNL     1      -1.616   2.169 -20.396  1.00  0.00    -0.206 F 
ATOM     86  C   UNL     1       0.381   0.041 -22.542  1.00  0.00     0.006 A 
ENDBRANCH  62  79
ENDBRANCH  36  37
ENDBRANCH  28  31
ENDBRANCH  26  27
ENDBRANCH  25  26
ENDBRANCH  24  25
ENDBRANCH   1  24
TORSDOF 17
