REMARK SMILES O=C(NCCCCNC(=O)c1ccc(C[N@H+]2CC[N@H+]3CCCC[C@@H]3C2)c(F)c1)c1ccc(-c2c3nc(c(-c4c(F)cccc4F)c4ccc([nH]4)c(-c4c(F)cccc4F)c4nc(c(-c5c(F)cccc5F)c5ccc2[nH]5)C=C4)C=C3)cc1
REMARK SMILES IDX 5 1 4 2 3 3 1 4 2 5 29 7 30 8 82 9 31 10 81 11 32 12 33 13
REMARK SMILES IDX 34 14 75 15 35 16 80 17 74 18 76 19 36 20 79 21 73 22 72 23
REMARK SMILES IDX 37 25 63 26 46 27 62 28 47 29 50 30 61 31 77 32 48 33 49 34
REMARK SMILES IDX 60 36 78 37 51 38 38 39 39 40 44 41 40 42 41 43 43 44 45 45
REMARK SMILES IDX 42 46 64 47 65 48 70 49 66 50 67 51 69 52 71 53 68 54 52 55
REMARK SMILES IDX 53 56 58 57 54 58 55 59 57 60 59 61 56 62 6 63 7 64 8 65
REMARK SMILES IDX 9 66 10 68 11 69 12 70 28 71 13 72 26 73 14 74 27 75 15 76
REMARK SMILES IDX 16 77 17 78 25 79 18 81 24 82 19 83 23 84 20 85 22 87 21 88
REMARK H PARENT 3 6 76 24 50 35 8 67 16 80 19 86
REMARK Flexibility Score: inf
ROOT
ATOM      1  C   UNL     1       5.497  -2.446  -0.376  1.00  0.00     0.023 C 
ENDROOT
BRANCH   1   2
ATOM      2  C   UNL     1       4.939  -1.026  -0.408  1.00  0.00     0.116 C 
BRANCH   2   3
ATOM      3  N   UNL     1       3.486  -0.943  -0.489  1.00  0.00    -0.352 N 
ATOM      4  O   UNL     1       1.415  -0.161  -0.035  1.00  0.00    -0.269 OA
ATOM      5  C   UNL     1       2.619  -0.065   0.132  1.00  0.00     0.251 C 
ATOM      6  H   UNL     1       3.059  -1.612  -1.072  1.00  0.00     0.163 HD
BRANCH   5   7
ATOM      7  C   UNL     1       3.165   0.952   1.060  1.00  0.00     0.039 A 
ATOM      8  C   UNL     1       4.294   1.691   0.717  1.00  0.00     0.014 A 
ATOM      9  C   UNL     1       2.590   1.090   2.328  1.00  0.00     0.014 A 
ATOM     10  C   UNL     1       4.981   2.380   1.707  1.00  0.00     0.010 A 
ATOM     11  C   UNL     1       3.228   1.872   3.295  1.00  0.00     0.010 A 
ATOM     12  C   UNL     1       4.468   2.462   3.014  1.00  0.00    -0.014 A 
BRANCH  12  13
ATOM     13  C   UNL     1       5.272   3.148   4.059  1.00  0.00     0.031 A 
ATOM     14  C   UNL     1       5.820   2.390   5.240  1.00  0.00     0.074 A 
ATOM     15  C   UNL     1       5.586   4.446   3.888  1.00  0.00     0.049 A 
ATOM     16  N   UNL     1       6.596   2.819   6.204  1.00  0.00    -0.248 NA
ATOM     17  C   UNL     1       5.449   0.971   5.362  1.00  0.00     0.031 C 
ATOM     18  C   UNL     1       5.119   5.283   2.781  1.00  0.00     0.029 A 
ATOM     19  N   UNL     1       6.403   5.275   4.612  1.00  0.00    -0.354 N 
ATOM     20  C   UNL     1       6.785   1.737   7.055  1.00  0.00     0.074 A 
ATOM     21  C   UNL     1       6.025   0.634   6.508  1.00  0.00     0.031 C 
ATOM     22  C   UNL     1       5.715   6.481   2.857  1.00  0.00     0.029 A 
ATOM     23  C   UNL     1       6.554   6.518   4.050  1.00  0.00     0.049 A 
ATOM     24  H   UNL     1       6.839   5.005   5.453  1.00  0.00     0.167 HD
ATOM     25  C   UNL     1       7.530   1.667   8.184  1.00  0.00     0.037 A 
ATOM     26  C   UNL     1       7.287   7.575   4.447  1.00  0.00     0.037 A 
ATOM     27  C   UNL     1       8.311   2.757   8.711  1.00  0.00     0.049 A 
ATOM     28  C   UNL     1       8.108   7.471   5.696  1.00  0.00     0.074 A 
ATOM     29  C   UNL     1       9.105   2.779   9.845  1.00  0.00     0.029 A 
ATOM     30  N   UNL     1       8.404   4.014   8.133  1.00  0.00    -0.354 N 
ATOM     31  N   UNL     1       8.263   6.444   6.495  1.00  0.00    -0.248 NA
ATOM     32  C   UNL     1       8.849   8.671   6.103  1.00  0.00     0.031 C 
ATOM     33  C   UNL     1       9.655   4.059   9.970  1.00  0.00     0.029 A 
ATOM     34  C   UNL     1       9.235   4.822   8.892  1.00  0.00     0.049 A 
ATOM     35  H   UNL     1       7.947   4.291   7.306  1.00  0.00     0.167 HD
ATOM     36  C   UNL     1       9.121   6.870   7.498  1.00  0.00     0.074 A 
ATOM     37  C   UNL     1       9.472   8.243   7.193  1.00  0.00     0.031 C 
ATOM     38  C   UNL     1       9.572   6.186   8.577  1.00  0.00     0.037 A 
BRANCH  25  39
ATOM     39  C   UNL     1       7.535   0.370   8.940  1.00  0.00     0.057 A 
ATOM     40  C   UNL     1       6.884   0.262  10.176  1.00  0.00     0.134 A 
ATOM     41  C   UNL     1       8.235  -0.752   8.479  1.00  0.00     0.134 A 
ATOM     42  F   UNL     1       6.201   1.302  10.678  1.00  0.00    -0.206 F 
ATOM     43  C   UNL     1       6.936  -0.912  10.930  1.00  0.00     0.040 A 
ATOM     44  C   UNL     1       8.276  -1.939   9.214  1.00  0.00     0.040 A 
ATOM     45  F   UNL     1       8.870  -0.719   7.298  1.00  0.00    -0.206 F 
ATOM     46  C   UNL     1       7.632  -2.018  10.447  1.00  0.00     0.006 A 
ENDBRANCH  25  39
BRANCH  26  47
ATOM     47  C   UNL     1       7.276   8.811   3.628  1.00  0.00     0.057 A 
ATOM     48  C   UNL     1       6.135   9.619   3.546  1.00  0.00     0.134 A 
ATOM     49  C   UNL     1       8.385   9.176   2.859  1.00  0.00     0.134 A 
ATOM     50  F   UNL     1       5.037   9.312   4.252  1.00  0.00    -0.206 F 
ATOM     51  C   UNL     1       6.088  10.732   2.708  1.00  0.00     0.040 A 
ATOM     52  C   UNL     1       8.361  10.302   2.034  1.00  0.00     0.040 A 
ATOM     53  F   UNL     1       9.510   8.447   2.907  1.00  0.00    -0.206 F 
ATOM     54  C   UNL     1       7.205  11.077   1.949  1.00  0.00     0.006 A 
ENDBRANCH  26  47
BRANCH  38  55
ATOM     55  C   UNL     1      10.503   6.907   9.504  1.00  0.00     0.057 A 
ATOM     56  C   UNL     1      11.865   6.586   9.540  1.00  0.00     0.134 A 
ATOM     57  C   UNL     1      10.040   7.881  10.396  1.00  0.00     0.134 A 
ATOM     58  F   UNL     1      12.367   5.654   8.715  1.00  0.00    -0.206 F 
ATOM     59  C   UNL     1      12.735   7.206  10.436  1.00  0.00     0.040 A 
ATOM     60  C   UNL     1      10.905   8.524  11.283  1.00  0.00     0.040 A 
ATOM     61  F   UNL     1       8.747   8.240  10.401  1.00  0.00    -0.206 F 
ATOM     62  C   UNL     1      12.256   8.181  11.309  1.00  0.00     0.006 A 
ENDBRANCH  38  55
ENDBRANCH  12  13
ENDBRANCH   5   7
ENDBRANCH   2   3
ENDBRANCH   1   2
BRANCH   1  63
ATOM     63  C   UNL     1       5.147  -3.317  -1.578  1.00  0.00     0.023 C 
BRANCH  63  64
ATOM     64  C   UNL     1       5.637  -2.801  -2.932  1.00  0.00     0.116 C 
BRANCH  64  65
ATOM     65  N   UNL     1       7.065  -3.004  -3.113  1.00  0.00    -0.352 N 
ATOM     66  C   UNL     1       7.706  -3.890  -3.945  1.00  0.00     0.251 C 
ATOM     67  H   UNL     1       7.650  -2.430  -2.567  1.00  0.00     0.163 HD
ATOM     68  O   UNL     1       8.926  -4.006  -3.930  1.00  0.00    -0.269 OA
BRANCH  66  69
ATOM     69  C   UNL     1       6.907  -4.726  -4.857  1.00  0.00     0.042 A 
ATOM     70  C   UNL     1       6.341  -4.168  -6.008  1.00  0.00     0.014 A 
ATOM     71  C   UNL     1       6.721  -6.072  -4.552  1.00  0.00     0.053 A 
ATOM     72  C   UNL     1       5.514  -4.953  -6.818  1.00  0.00     0.013 A 
ATOM     73  C   UNL     1       5.881  -6.834  -5.357  1.00  0.00     0.132 A 
ATOM     74  C   UNL     1       5.224  -6.284  -6.465  1.00  0.00     0.042 A 
ATOM     75  F   UNL     1       5.666  -8.114  -5.023  1.00  0.00    -0.206 F 
BRANCH  74  76
ATOM     76  C   UNL     1       4.212  -7.093  -7.242  1.00  0.00     0.302 C 
BRANCH  76  77
ATOM     77  N   UNL     1       2.800  -7.020  -6.839  1.00  0.00    -0.322 N 
ATOM     78  C   UNL     1       2.457  -7.649  -5.556  1.00  0.00     0.324 C 
ATOM     79  C   UNL     1       2.147  -5.712  -6.971  1.00  0.00     0.328 C 
ATOM     80  H   UNL     1       2.397  -7.610  -7.567  1.00  0.00     0.348 HD
ATOM     81  C   UNL     1       2.494  -6.732  -4.310  1.00  0.00     0.324 C 
ATOM     82  C   UNL     1       2.312  -4.788  -5.739  1.00  0.00     0.239 C 
ATOM     83  N   UNL     1       1.828  -5.422  -4.494  1.00  0.00    -0.323 N 
ATOM     84  C   UNL     1       1.616  -3.441  -5.967  1.00  0.00     0.071 C 
ATOM     85  C   UNL     1       2.102  -4.562  -3.336  1.00  0.00     0.262 C 
ATOM     86  H   UNL     1       0.819  -5.557  -4.569  1.00  0.00     0.348 HD
ATOM     87  C   UNL     1       1.935  -2.501  -4.809  1.00  0.00     0.012 C 
ATOM     88  C   UNL     1       1.536  -3.147  -3.487  1.00  0.00     0.062 C 
ENDBRANCH  76  77
ENDBRANCH  74  76
ENDBRANCH  66  69
ENDBRANCH  64  65
ENDBRANCH  63  64
ENDBRANCH   1  63
TORSDOF 13
