REMARK SMILES CC(C)(C)N(CC(=O)NCCCCNC(=O)c1ccc(-c2c3nc(c(-c4c(F)cccc4F)c4ccc([nH]4)c(-c4c(F)cccc4F)c4nc(c(-c5c(F)cccc5F)c5ccc2[nH]5)C=C4)C=C3)cc1)C(=O)C[NH2+]C1CCCC1
REMARK SMILES IDX 10 1 9 2 7 3 8 4 6 6 5 7 2 8 1 9 3 10 4 11 71 12 72 13 73 14
REMARK SMILES IDX 74 15 75 18 76 19 79 20 77 21 78 22 11 23 12 24 13 25 14 26
REMARK SMILES IDX 15 27 16 29 17 30 18 31 70 32 19 33 69 34 20 35 21 36 22 37
REMARK SMILES IDX 63 38 23 39 68 40 62 41 64 42 24 43 67 44 61 45 60 46 25 48
REMARK SMILES IDX 51 49 34 50 50 51 35 52 38 53 49 54 65 55 36 56 37 57 48 59
REMARK SMILES IDX 66 60 39 61 26 62 27 63 32 64 28 65 29 66 31 67 33 68 30 69
REMARK SMILES IDX 52 70 53 71 58 72 54 73 55 74 57 75 59 76 56 77 40 78 41 79
REMARK SMILES IDX 46 80 42 81 43 82 45 83 47 84 44 85
REMARK H PARENT 9 5 74 16 74 17 14 28 64 47 38 58
REMARK Flexibility Score: inf
ROOT
ATOM      1  C   UNL     1       3.786  -0.838  -1.537  1.00  0.00     0.116 C 
ENDROOT
BRANCH   1   2
ATOM      2  N   UNL     1       3.980   0.233  -2.485  1.00  0.00    -0.355 N 
ATOM      3  C   UNL     1       3.139   1.267  -2.780  1.00  0.00     0.239 C 
ATOM      4  O   UNL     1       3.609   2.208  -3.425  1.00  0.00    -0.273 OA
ATOM      5  H   UNL     1       4.829   0.214  -2.984  1.00  0.00     0.163 HD
BRANCH   3   6
ATOM      6  C   UNL     1       1.711   1.323  -2.196  1.00  0.00     0.220 C 
BRANCH   6   7
ATOM      7  N   UNL     1       0.847   0.127  -2.364  1.00  0.00    -0.324 N 
BRANCH   7   8
ATOM      8  C   UNL     1       0.042  -0.412  -1.195  1.00  0.00     0.035 C 
ATOM      9  C   UNL     1       0.380   0.239   0.172  1.00  0.00     0.034 C 
ATOM     10  C   UNL     1       0.261  -1.932  -1.004  1.00  0.00     0.034 C 
ATOM     11  C   UNL     1      -1.467  -0.143  -1.414  1.00  0.00     0.034 C 
ENDBRANCH   7   8
BRANCH   7  12
ATOM     12  C   UNL     1       0.489  -0.299  -3.663  1.00  0.00     0.278 C 
ATOM     13  O   UNL     1      -0.239  -1.278  -3.861  1.00  0.00    -0.268 OA
BRANCH  12  14
ATOM     14  C   UNL     1       1.002   0.465  -4.900  1.00  0.00     0.362 C 
BRANCH  14  15
ATOM     15  N   UNL     1       0.445   1.826  -4.926  1.00  0.00    -0.336 N 
ATOM     16  H   UNL     1       0.736   2.316  -4.080  1.00  0.00     0.346 HD
ATOM     17  H   UNL     1      -0.571   1.749  -4.978  1.00  0.00     0.346 HD
BRANCH  15  18
ATOM     18  C   UNL     1       0.900   2.581  -6.088  1.00  0.00     0.182 C 
ATOM     19  C   UNL     1       0.098   2.310  -7.360  1.00  0.00     0.065 C 
ATOM     20  C   UNL     1       0.680   4.081  -5.890  1.00  0.00     0.065 C 
ATOM     21  C   UNL     1       0.428   3.502  -8.252  1.00  0.00     0.006 C 
ATOM     22  C   UNL     1       0.716   4.665  -7.301  1.00  0.00     0.006 C 
ENDBRANCH  15  18
ENDBRANCH  14  15
ENDBRANCH  12  14
ENDBRANCH   7  12
ENDBRANCH   6   7
ENDBRANCH   3   6
ENDBRANCH   1   2
BRANCH   1  23
ATOM     23  C   UNL     1       3.576  -2.188  -2.212  1.00  0.00     0.023 C 
BRANCH  23  24
ATOM     24  C   UNL     1       4.842  -2.820  -2.788  1.00  0.00     0.023 C 
BRANCH  24  25
ATOM     25  C   UNL     1       5.988  -2.999  -1.797  1.00  0.00     0.116 C 
BRANCH  25  26
ATOM     26  N   UNL     1       5.620  -3.720  -0.587  1.00  0.00    -0.352 N 
ATOM     27  C   UNL     1       6.375  -4.610   0.144  1.00  0.00     0.251 C 
ATOM     28  H   UNL     1       4.712  -3.549  -0.246  1.00  0.00     0.163 HD
ATOM     29  O   UNL     1       5.896  -5.191   1.112  1.00  0.00    -0.269 OA
BRANCH  27  30
ATOM     30  C   UNL     1       7.758  -4.893  -0.285  1.00  0.00     0.039 A 
ATOM     31  C   UNL     1       8.146  -6.221  -0.474  1.00  0.00     0.014 A 
ATOM     32  C   UNL     1       8.639  -3.847  -0.569  1.00  0.00     0.014 A 
ATOM     33  C   UNL     1       9.393  -6.498  -1.036  1.00  0.00     0.010 A 
ATOM     34  C   UNL     1       9.847  -4.122  -1.197  1.00  0.00     0.010 A 
ATOM     35  C   UNL     1      10.231  -5.449  -1.446  1.00  0.00    -0.014 A 
BRANCH  35  36
ATOM     36  C   UNL     1      11.507  -5.710  -2.155  1.00  0.00     0.031 A 
ATOM     37  C   UNL     1      12.811  -5.298  -1.534  1.00  0.00     0.074 A 
ATOM     38  C   UNL     1      11.483  -6.225  -3.399  1.00  0.00     0.049 A 
ATOM     39  N   UNL     1      14.017  -5.343  -2.038  1.00  0.00    -0.248 NA
ATOM     40  C   UNL     1      12.743  -4.722  -0.182  1.00  0.00     0.031 C 
ATOM     41  C   UNL     1      10.277  -6.601  -4.139  1.00  0.00     0.029 A 
ATOM     42  N   UNL     1      12.507  -6.503  -4.270  1.00  0.00    -0.354 N 
ATOM     43  C   UNL     1      14.846  -4.777  -1.079  1.00  0.00     0.074 A 
ATOM     44  C   UNL     1      14.000  -4.353   0.016  1.00  0.00     0.031 C 
ATOM     45  C   UNL     1      10.630  -7.077  -5.344  1.00  0.00     0.029 A 
ATOM     46  C   UNL     1      12.082  -7.011  -5.473  1.00  0.00     0.049 A 
ATOM     47  H   UNL     1      13.455  -6.353  -4.052  1.00  0.00     0.167 HD
ATOM     48  C   UNL     1      16.193  -4.640  -1.099  1.00  0.00     0.037 A 
ATOM     49  C   UNL     1      12.785  -7.377  -6.561  1.00  0.00     0.037 A 
ATOM     50  C   UNL     1      17.035  -5.102  -2.170  1.00  0.00     0.049 A 
ATOM     51  C   UNL     1      14.282  -7.258  -6.545  1.00  0.00     0.074 A 
ATOM     52  C   UNL     1      18.417  -5.094  -2.245  1.00  0.00     0.029 A 
ATOM     53  N   UNL     1      16.572  -5.657  -3.353  1.00  0.00    -0.354 N 
ATOM     54  N   UNL     1      15.062  -6.793  -5.599  1.00  0.00    -0.248 NA
ATOM     55  C   UNL     1      14.998  -7.720  -7.742  1.00  0.00     0.031 C 
ATOM     56  C   UNL     1      18.789  -5.615  -3.489  1.00  0.00     0.029 A 
ATOM     57  C   UNL     1      17.640  -5.980  -4.173  1.00  0.00     0.049 A 
ATOM     58  H   UNL     1      15.624  -5.800  -3.578  1.00  0.00     0.167 HD
ATOM     59  C   UNL     1      16.359  -6.923  -6.077  1.00  0.00     0.074 A 
ATOM     60  C   UNL     1      16.262  -7.523  -7.392  1.00  0.00     0.031 C 
ATOM     61  C   UNL     1      17.525  -6.577  -5.479  1.00  0.00     0.037 A 
BRANCH  48  62
ATOM     62  C   UNL     1      16.831  -3.966   0.079  1.00  0.00     0.057 A 
ATOM     63  C   UNL     1      16.901  -4.584   1.335  1.00  0.00     0.134 A 
ATOM     64  C   UNL     1      17.386  -2.687  -0.045  1.00  0.00     0.134 A 
ATOM     65  F   UNL     1      16.373  -5.803   1.523  1.00  0.00    -0.206 F 
ATOM     66  C   UNL     1      17.470  -3.939   2.434  1.00  0.00     0.040 A 
ATOM     67  C   UNL     1      17.981  -2.043   1.041  1.00  0.00     0.040 A 
ATOM     68  F   UNL     1      17.357  -2.041  -1.220  1.00  0.00    -0.206 F 
ATOM     69  C   UNL     1      18.016  -2.666   2.287  1.00  0.00     0.006 A 
ENDBRANCH  48  62
BRANCH  49  70
ATOM     70  C   UNL     1      12.077  -7.924  -7.744  1.00  0.00     0.057 A 
ATOM     71  C   UNL     1      12.124  -9.291  -8.040  1.00  0.00     0.134 A 
ATOM     72  C   UNL     1      11.324  -7.103  -8.591  1.00  0.00     0.134 A 
ATOM     73  F   UNL     1      12.844 -10.122  -7.273  1.00  0.00    -0.206 F 
ATOM     74  C   UNL     1      11.455  -9.823  -9.143  1.00  0.00     0.040 A 
ATOM     75  C   UNL     1      10.633  -7.625  -9.686  1.00  0.00     0.040 A 
ATOM     76  F   UNL     1      11.234  -5.787  -8.354  1.00  0.00    -0.206 F 
ATOM     77  C   UNL     1      10.701  -8.988  -9.966  1.00  0.00     0.006 A 
ENDBRANCH  49  70
BRANCH  61  78
ATOM     78  C   UNL     1      18.789  -6.857  -6.234  1.00  0.00     0.057 A 
ATOM     79  C   UNL     1      19.186  -6.070  -7.322  1.00  0.00     0.134 A 
ATOM     80  C   UNL     1      19.639  -7.898  -5.841  1.00  0.00     0.134 A 
ATOM     81  F   UNL     1      18.407  -5.066  -7.755  1.00  0.00    -0.206 F 
ATOM     82  C   UNL     1      20.378  -6.319  -8.003  1.00  0.00     0.040 A 
ATOM     83  C   UNL     1      20.844  -8.143  -6.500  1.00  0.00     0.040 A 
ATOM     84  F   UNL     1      19.318  -8.683  -4.802  1.00  0.00    -0.206 F 
ATOM     85  C   UNL     1      21.214  -7.354  -7.588  1.00  0.00     0.006 A 
ENDBRANCH  61  78
ENDBRANCH  35  36
ENDBRANCH  27  30
ENDBRANCH  25  26
ENDBRANCH  24  25
ENDBRANCH  23  24
ENDBRANCH   1  23
TORSDOF 17
