REMARK SMILES C[C@@]([NH3+])(C(=O)Nc1cc(C(=O)NCCCCNC(=O)c2ccc(-c3c4nc(c(-c5c(F)cccc5F)c5ccc([nH]5)c(-c5c(F)cccc5F)c5nc(c(-c6c(F)cccc6F)c6ccc3[nH]6)C=C5)C=C4)cc2)ccc1F)C(F)(F)F
REMARK SMILES IDX 14 1 13 2 12 3 10 4 11 5 9 7 7 8 8 9 76 10 75 11 77 12 74 13
REMARK SMILES IDX 6 14 4 15 5 16 2 18 1 19 3 20 78 24 79 25 80 26 81 27 15 28
REMARK SMILES IDX 16 29 17 30 18 31 19 33 20 34 21 35 73 36 22 37 72 38 23 39
REMARK SMILES IDX 24 40 25 41 66 42 26 43 71 44 65 45 67 46 27 47 70 48 64 49
REMARK SMILES IDX 63 50 28 52 54 53 37 54 53 55 38 56 41 57 52 58 68 59 39 60
REMARK SMILES IDX 40 61 51 63 69 64 42 65 29 66 30 67 35 68 31 69 32 70 34 71
REMARK SMILES IDX 36 72 33 73 55 74 56 75 61 76 57 77 58 78 60 79 62 80 59 81
REMARK SMILES IDX 43 82 44 83 49 84 45 85 46 86 48 87 50 88 47 89
REMARK H PARENT 12 6 6 17 3 21 3 22 3 23 17 32 67 51 41 62
REMARK Flexibility Score: inf
ROOT
ATOM      1  C   UNL     1       1.079  -5.211   5.569  1.00  0.00     0.023 C 
ENDROOT
BRANCH   1   2
ATOM      2  C   UNL     1       1.394  -5.543   4.108  1.00  0.00     0.116 C 
BRANCH   2   3
ATOM      3  N   UNL     1       0.188  -5.867   3.376  1.00  0.00    -0.352 N 
ATOM      4  C   UNL     1      -0.641  -5.117   2.582  1.00  0.00     0.251 C 
ATOM      5  O   UNL     1      -1.567  -5.710   2.024  1.00  0.00    -0.269 OA
ATOM      6  H   UNL     1      -0.091  -6.806   3.466  1.00  0.00     0.163 HD
BRANCH   4   7
ATOM      7  C   UNL     1      -0.479  -3.653   2.339  1.00  0.00     0.042 A 
ATOM      8  C   UNL     1      -0.970  -1.789   0.850  1.00  0.00     0.078 A 
ATOM      9  C   UNL     1      -1.102  -3.137   1.186  1.00  0.00     0.043 A 
ATOM     10  C   UNL     1      -0.339  -0.924   1.740  1.00  0.00     0.146 A 
ATOM     11  C   UNL     1       0.267  -1.403   2.889  1.00  0.00     0.042 A 
ATOM     12  F   UNL     1      -0.354   0.400   1.529  1.00  0.00    -0.205 F 
ATOM     13  C   UNL     1       0.201  -2.766   3.184  1.00  0.00     0.017 A 
BRANCH   8  14
ATOM     14  N   UNL     1      -1.541  -1.326  -0.339  1.00  0.00    -0.318 N 
ATOM     15  C   UNL     1      -0.951  -0.613  -1.357  1.00  0.00     0.295 C 
ATOM     16  O   UNL     1      -1.720  -0.078  -2.163  1.00  0.00    -0.267 OA
ATOM     17  H   UNL     1      -2.494  -1.539  -0.465  1.00  0.00     0.170 HD
BRANCH  15  18
ATOM     18  C   UNL     1       0.594  -0.631  -1.579  1.00  0.00     0.267 C 
ATOM     19  C   UNL     1       1.400   0.235  -0.607  1.00  0.00     0.100 C 
BRANCH  18  20
ATOM     20  N   UNL     1       1.091  -2.059  -1.450  1.00  0.00    -0.337 N 
ATOM     21  H   UNL     1       0.915  -2.396  -0.504  1.00  0.00     0.345 HD
ATOM     22  H   UNL     1       2.092  -2.089  -1.641  1.00  0.00     0.345 HD
ATOM     23  H   UNL     1       0.599  -2.651  -2.119  1.00  0.00     0.345 HD
ENDBRANCH  18  20
BRANCH  18  24
ATOM     24  C   UNL     1       0.829  -0.045  -3.001  1.00  0.00     0.453 C 
ATOM     25  F   UNL     1       0.488   1.255  -3.107  1.00  0.00    -0.164 F 
ATOM     26  F   UNL     1       2.157  -0.126  -3.306  1.00  0.00    -0.164 F 
ATOM     27  F   UNL     1       0.190  -0.752  -3.961  1.00  0.00    -0.164 F 
ENDBRANCH  18  24
ENDBRANCH  15  18
ENDBRANCH   8  14
ENDBRANCH   4   7
ENDBRANCH   2   3
ENDBRANCH   1   2
BRANCH   1  28
ATOM     28  C   UNL     1       0.868  -6.430   6.470  1.00  0.00     0.023 C 
BRANCH  28  29
ATOM     29  C   UNL     1       2.041  -7.399   6.532  1.00  0.00     0.116 C 
BRANCH  29  30
ATOM     30  N   UNL     1       3.303  -6.763   6.879  1.00  0.00    -0.352 N 
ATOM     31  C   UNL     1       4.367  -7.297   7.563  1.00  0.00     0.251 C 
ATOM     32  H   UNL     1       3.407  -5.830   6.585  1.00  0.00     0.163 HD
ATOM     33  O   UNL     1       5.327  -6.595   7.865  1.00  0.00    -0.269 OA
BRANCH  31  34
ATOM     34  C   UNL     1       4.325  -8.716   7.968  1.00  0.00     0.039 A 
ATOM     35  C   UNL     1       4.631  -9.047   9.289  1.00  0.00     0.014 A 
ATOM     36  C   UNL     1       3.954  -9.707   7.056  1.00  0.00     0.014 A 
ATOM     37  C   UNL     1       4.508 -10.371   9.710  1.00  0.00     0.010 A 
ATOM     38  C   UNL     1       3.756 -11.010   7.496  1.00  0.00     0.010 A 
ATOM     39  C   UNL     1       4.040 -11.357   8.825  1.00  0.00    -0.014 A 
BRANCH  39  40
ATOM     40  C   UNL     1       3.861 -12.761   9.271  1.00  0.00     0.031 A 
ATOM     41  C   UNL     1       4.693 -13.854   8.661  1.00  0.00     0.074 A 
ATOM     42  C   UNL     1       2.924 -13.055  10.193  1.00  0.00     0.049 A 
ATOM     43  N   UNL     1       4.661 -15.142   8.892  1.00  0.00    -0.248 NA
ATOM     44  C   UNL     1       5.674 -13.454   7.638  1.00  0.00     0.031 C 
ATOM     45  C   UNL     1       2.024 -12.087  10.824  1.00  0.00     0.029 A 
ATOM     46  N   UNL     1       2.575 -14.253  10.763  1.00  0.00    -0.354 N 
ATOM     47  C   UNL     1       5.607 -15.701   8.043  1.00  0.00     0.074 A 
ATOM     48  C   UNL     1       6.152 -14.625   7.246  1.00  0.00     0.031 C 
ATOM     49  C   UNL     1       1.254 -12.724  11.721  1.00  0.00     0.029 A 
ATOM     50  C   UNL     1       1.579 -14.147  11.704  1.00  0.00     0.049 A 
ATOM     51  H   UNL     1       2.998 -15.109  10.521  1.00  0.00     0.167 HD
ATOM     52  C   UNL     1       6.009 -16.990   7.959  1.00  0.00     0.037 A 
ATOM     53  C   UNL     1       0.998 -15.090  12.470  1.00  0.00     0.037 A 
ATOM     54  C   UNL     1       5.487 -18.052   8.776  1.00  0.00     0.049 A 
ATOM     55  C   UNL     1       1.460 -16.516  12.354  1.00  0.00     0.074 A 
ATOM     56  C   UNL     1       5.862 -19.384   8.797  1.00  0.00     0.029 A 
ATOM     57  N   UNL     1       4.484 -17.902   9.721  1.00  0.00    -0.354 N 
ATOM     58  N   UNL     1       2.392 -17.022  11.584  1.00  0.00    -0.248 NA
ATOM     59  C   UNL     1       0.796 -17.503  13.219  1.00  0.00     0.031 C 
ATOM     60  C   UNL     1       5.058 -20.049   9.726  1.00  0.00     0.029 A 
ATOM     61  C   UNL     1       4.218 -19.121  10.321  1.00  0.00     0.049 A 
ATOM     62  H   UNL     1       4.029 -17.055   9.934  1.00  0.00     0.167 HD
ATOM     63  C   UNL     1       2.448 -18.375  11.890  1.00  0.00     0.074 A 
ATOM     64  C   UNL     1       1.463 -18.611  12.925  1.00  0.00     0.031 C 
ATOM     65  C   UNL     1       3.244 -19.336  11.361  1.00  0.00     0.037 A 
BRANCH  52  66
ATOM     66  C   UNL     1       7.084 -17.324   6.967  1.00  0.00     0.057 A 
ATOM     67  C   UNL     1       6.806 -18.115   5.846  1.00  0.00     0.134 A 
ATOM     68  C   UNL     1       8.412 -16.919   7.160  1.00  0.00     0.134 A 
ATOM     69  F   UNL     1       5.557 -18.540   5.604  1.00  0.00    -0.206 F 
ATOM     70  C   UNL     1       7.813 -18.503   4.960  1.00  0.00     0.040 A 
ATOM     71  C   UNL     1       9.422 -17.279   6.267  1.00  0.00     0.040 A 
ATOM     72  F   UNL     1       8.742 -16.149   8.208  1.00  0.00    -0.206 F 
ATOM     73  C   UNL     1       9.125 -18.082   5.168  1.00  0.00     0.006 A 
ENDBRANCH  52  66
BRANCH  53  74
ATOM     74  C   UNL     1      -0.052 -14.706  13.447  1.00  0.00     0.057 A 
ATOM     75  C   UNL     1      -1.320 -14.279  13.035  1.00  0.00     0.134 A 
ATOM     76  C   UNL     1       0.198 -14.744  14.824  1.00  0.00     0.134 A 
ATOM     77  F   UNL     1      -1.620 -14.212  11.729  1.00  0.00    -0.206 F 
ATOM     78  C   UNL     1      -2.297 -13.894  13.954  1.00  0.00     0.040 A 
ATOM     79  C   UNL     1      -0.777 -14.385  15.756  1.00  0.00     0.040 A 
ATOM     80  F   UNL     1       1.388 -15.159  15.282  1.00  0.00    -0.206 F 
ATOM     81  C   UNL     1      -2.028 -13.952  15.321  1.00  0.00     0.006 A 
ENDBRANCH  53  74
BRANCH  65  82
ATOM     82  C   UNL     1       3.117 -20.727  11.909  1.00  0.00     0.057 A 
ATOM     83  C   UNL     1       4.152 -21.287  12.670  1.00  0.00     0.134 A 
ATOM     84  C   UNL     1       2.015 -21.538  11.616  1.00  0.00     0.134 A 
ATOM     85  F   UNL     1       5.241 -20.567  12.976  1.00  0.00    -0.206 F 
ATOM     86  C   UNL     1       4.101 -22.611  13.107  1.00  0.00     0.040 A 
ATOM     87  C   UNL     1       1.940 -22.856  12.070  1.00  0.00     0.040 A 
ATOM     88  F   UNL     1       0.988 -21.058  10.899  1.00  0.00    -0.206 F 
ATOM     89  C   UNL     1       2.991 -23.399  12.809  1.00  0.00     0.006 A 
ENDBRANCH  65  82
ENDBRANCH  39  40
ENDBRANCH  31  34
ENDBRANCH  29  30
ENDBRANCH  28  29
ENDBRANCH   1  28
TORSDOF 15
