REMARK SMILES COc1ccc(C[N@@H+](CC(=O)NCCCCNC(=O)c2ccc(-c3c4nc(c(-c5c(F)cccc5F)c5ccc([nH]5)c(-c5c(F)cccc5F)c5nc(c(-c6c(F)cccc6F)c6ccc3[nH]6)C=C5)C=C4)cc2)C(C)(C)C)cc1C#N
REMARK SMILES IDX 13 1 12 2 10 3 11 4 9 6 8 7 7 9 6 10 3 11 4 12 79 13 5 14
REMARK SMILES IDX 78 15 2 16 1 17 80 18 81 19 74 20 75 21 76 22 77 23 14 24
REMARK SMILES IDX 15 25 16 26 17 27 18 28 19 30 20 31 21 32 73 33 22 34 72 35
REMARK SMILES IDX 23 36 24 37 25 38 66 39 26 40 71 41 65 42 67 43 27 44 70 45
REMARK SMILES IDX 64 46 63 47 28 49 54 50 37 51 53 52 38 53 41 54 52 55 68 56
REMARK SMILES IDX 39 57 40 58 51 60 69 61 42 62 29 63 30 64 35 65 31 66 32 67
REMARK SMILES IDX 34 68 36 69 33 70 55 71 56 72 61 73 57 74 58 75 60 76 62 77
REMARK SMILES IDX 59 78 43 79 44 80 49 81 45 82 46 83 48 84 50 85 47 86
REMARK H PARENT 12 5 8 8 17 29 67 48 41 59
REMARK Flexibility Score: inf
ROOT
ATOM      1  C   UNL     1       3.096   7.691   2.253  1.00  0.00     0.116 C 
ENDROOT
BRANCH   1   2
ATOM      2  N   UNL     1       3.494   8.603   1.201  1.00  0.00    -0.351 N 
ATOM      3  C   UNL     1       2.843   9.050   0.087  1.00  0.00     0.275 C 
ATOM      4  O   UNL     1       3.443   9.903  -0.580  1.00  0.00    -0.269 OA
ATOM      5  H   UNL     1       4.401   8.969   1.309  1.00  0.00     0.163 HD
BRANCH   3   6
ATOM      6  C   UNL     1       1.421   8.610  -0.315  1.00  0.00     0.364 C 
BRANCH   6   7
ATOM      7  N   UNL     1       1.251   7.269  -0.973  1.00  0.00    -0.319 N 
ATOM      8  H   UNL     1       0.406   7.215  -1.542  1.00  0.00     0.349 HD
BRANCH   7   9
ATOM      9  C   UNL     1       0.989   6.266   0.057  1.00  0.00     0.299 C 
BRANCH   9  10
ATOM     10  C   UNL     1       0.810   4.798  -0.211  1.00  0.00     0.008 A 
ATOM     11  C   UNL     1       0.514   2.020  -0.604  1.00  0.00     0.136 A 
ATOM     12  C   UNL     1      -0.583   2.888  -0.713  1.00  0.00     0.048 A 
ATOM     13  C   UNL     1       1.772   2.539  -0.293  1.00  0.00     0.094 A 
ATOM     14  C   UNL     1      -0.441   4.263  -0.510  1.00  0.00     0.013 A 
ATOM     15  C   UNL     1       1.901   3.917  -0.082  1.00  0.00     0.033 A 
BRANCH  11  16
ATOM     16  O   UNL     1       0.253   0.719  -0.941  1.00  0.00    -0.495 OA
ATOM     17  C   UNL     1       0.659  -0.246   0.025  1.00  0.00     0.278 C 
ENDBRANCH  11  16
BRANCH  13  18
ATOM     18  C   UNL     1       2.970   1.753  -0.226  1.00  0.00     0.103 C 
ATOM     19  N   UNL     1       3.962   1.161  -0.139  1.00  0.00    -0.192 NA
ENDBRANCH  13  18
ENDBRANCH   9  10
ENDBRANCH   7   9
BRANCH   7  20
ATOM     20  C   UNL     1       2.041   7.009  -2.206  1.00  0.00     0.090 C 
ATOM     21  C   UNL     1       3.570   6.966  -2.011  1.00  0.00     0.078 C 
ATOM     22  C   UNL     1       1.657   5.690  -2.921  1.00  0.00     0.078 C 
ATOM     23  C   UNL     1       1.718   8.114  -3.248  1.00  0.00     0.078 C 
ENDBRANCH   7  20
ENDBRANCH   6   7
ENDBRANCH   3   6
ENDBRANCH   1   2
BRANCH   1  24
ATOM     24  C   UNL     1       3.664   6.287   2.013  1.00  0.00     0.023 C 
BRANCH  24  25
ATOM     25  C   UNL     1       5.061   5.998   2.508  1.00  0.00     0.023 C 
BRANCH  25  26
ATOM     26  C   UNL     1       5.220   6.159   3.998  1.00  0.00     0.116 C 
BRANCH  26  27
ATOM     27  N   UNL     1       4.328   5.310   4.781  1.00  0.00    -0.352 N 
ATOM     28  C   UNL     1       4.644   4.542   5.879  1.00  0.00     0.251 C 
ATOM     29  H   UNL     1       3.388   5.282   4.488  1.00  0.00     0.163 HD
ATOM     30  O   UNL     1       3.825   3.780   6.377  1.00  0.00    -0.269 OA
BRANCH  28  31
ATOM     31  C   UNL     1       6.017   4.633   6.410  1.00  0.00     0.039 A 
ATOM     32  C   UNL     1       6.749   3.466   6.619  1.00  0.00     0.014 A 
ATOM     33  C   UNL     1       6.614   5.888   6.545  1.00  0.00     0.014 A 
ATOM     34  C   UNL     1       8.114   3.564   6.886  1.00  0.00     0.010 A 
ATOM     35  C   UNL     1       7.991   5.973   6.651  1.00  0.00     0.010 A 
ATOM     36  C   UNL     1       8.753   4.815   6.853  1.00  0.00    -0.014 A 
BRANCH  36  37
ATOM     37  C   UNL     1      10.214   4.949   7.062  1.00  0.00     0.031 A 
ATOM     38  C   UNL     1      10.725   5.791   8.198  1.00  0.00     0.074 A 
ATOM     39  C   UNL     1      11.074   4.371   6.202  1.00  0.00     0.049 A 
ATOM     40  N   UNL     1      11.959   6.066   8.536  1.00  0.00    -0.248 NA
ATOM     41  C   UNL     1       9.714   6.445   9.046  1.00  0.00     0.031 C 
ATOM     42  C   UNL     1      10.699   3.575   5.031  1.00  0.00     0.029 A 
ATOM     43  N   UNL     1      12.445   4.360   6.185  1.00  0.00    -0.354 N 
ATOM     44  C   UNL     1      11.866   6.934   9.616  1.00  0.00     0.074 A 
ATOM     45  C   UNL     1      10.464   7.209   9.822  1.00  0.00     0.031 C 
ATOM     46  C   UNL     1      11.812   3.107   4.445  1.00  0.00     0.029 A 
ATOM     47  C   UNL     1      12.976   3.611   5.165  1.00  0.00     0.049 A 
ATOM     48  H   UNL     1      12.995   4.845   6.842  1.00  0.00     0.167 HD
ATOM     49  C   UNL     1      12.858   7.430  10.392  1.00  0.00     0.037 A 
ATOM     50  C   UNL     1      14.260   3.357   4.850  1.00  0.00     0.037 A 
ATOM     51  C   UNL     1      14.251   7.141  10.185  1.00  0.00     0.049 A 
ATOM     52  C   UNL     1      15.350   3.948   5.702  1.00  0.00     0.074 A 
ATOM     53  C   UNL     1      15.335   7.539  10.944  1.00  0.00     0.029 A 
ATOM     54  N   UNL     1      14.752   6.392   9.128  1.00  0.00    -0.354 N 
ATOM     55  N   UNL     1      15.250   4.697   6.774  1.00  0.00    -0.248 NA
ATOM     56  C   UNL     1      16.732   3.654   5.301  1.00  0.00     0.031 C 
ATOM     57  C   UNL     1      16.497   7.099  10.303  1.00  0.00     0.029 A 
ATOM     58  C   UNL     1      16.134   6.355   9.191  1.00  0.00     0.049 A 
ATOM     59  H   UNL     1      14.205   5.953   8.437  1.00  0.00     0.167 HD
ATOM     60  C   UNL     1      16.552   4.936   7.195  1.00  0.00     0.074 A 
ATOM     61  C   UNL     1      17.422   4.240   6.268  1.00  0.00     0.031 C 
ATOM     62  C   UNL     1      16.987   5.660   8.257  1.00  0.00     0.037 A 
BRANCH  49  63
ATOM     63  C   UNL     1      12.458   8.353  11.510  1.00  0.00     0.057 A 
ATOM     64  C   UNL     1      11.682   7.922  12.597  1.00  0.00     0.134 A 
ATOM     65  C   UNL     1      12.836   9.701  11.488  1.00  0.00     0.134 A 
ATOM     66  F   UNL     1      11.271   6.647  12.678  1.00  0.00    -0.206 F 
ATOM     67  C   UNL     1      11.254   8.807  13.588  1.00  0.00     0.040 A 
ATOM     68  C   UNL     1      12.448  10.587  12.495  1.00  0.00     0.040 A 
ATOM     69  F   UNL     1      13.583  10.184  10.484  1.00  0.00    -0.206 F 
ATOM     70  C   UNL     1      11.641  10.144  13.540  1.00  0.00     0.006 A 
ENDBRANCH  49  63
BRANCH  50  71
ATOM     71  C   UNL     1      14.580   2.465   3.707  1.00  0.00     0.057 A 
ATOM     72  C   UNL     1      15.139   1.199   3.918  1.00  0.00     0.134 A 
ATOM     73  C   UNL     1      14.325   2.843   2.383  1.00  0.00     0.134 A 
ATOM     74  F   UNL     1      15.421   0.785   5.162  1.00  0.00    -0.206 F 
ATOM     75  C   UNL     1      15.444   0.346   2.856  1.00  0.00     0.040 A 
ATOM     76  C   UNL     1      14.598   1.990   1.313  1.00  0.00     0.040 A 
ATOM     77  F   UNL     1      13.782   4.040   2.113  1.00  0.00    -0.206 F 
ATOM     78  C   UNL     1      15.166   0.739   1.548  1.00  0.00     0.006 A 
ENDBRANCH  50  71
BRANCH  62  79
ATOM     79  C   UNL     1      18.470   5.706   8.498  1.00  0.00     0.057 A 
ATOM     80  C   UNL     1      19.345   6.386   7.643  1.00  0.00     0.134 A 
ATOM     81  C   UNL     1      19.022   5.094   9.632  1.00  0.00     0.134 A 
ATOM     82  F   UNL     1      18.885   6.986   6.534  1.00  0.00    -0.206 F 
ATOM     83  C   UNL     1      20.719   6.430   7.889  1.00  0.00     0.040 A 
ATOM     84  C   UNL     1      20.388   5.162   9.908  1.00  0.00     0.040 A 
ATOM     85  F   UNL     1      18.240   4.436  10.501  1.00  0.00    -0.206 F 
ATOM     86  C   UNL     1      21.242   5.824   9.030  1.00  0.00     0.006 A 
ENDBRANCH  62  79
ENDBRANCH  36  37
ENDBRANCH  28  31
ENDBRANCH  26  27
ENDBRANCH  25  26
ENDBRANCH  24  25
ENDBRANCH   1  24
TORSDOF 17
