REMARK SMILES CCc1ccc(/C=C2\C(=O)N(c3ccc(Cl)c(C(=O)NCCCCNC(=O)c4ccc(-c5c6nc(c(-c7c(F)cccc7F)c7ccc([nH]7)c(-c7c(F)cccc7F)c7nc(c(-c8c(F)cccc8F)c8ccc5[nH]8)C=C7)C=C6)cc4)c3)N=C2C)cc1
REMARK SMILES IDX 22 1 21 2 20 3 18 4 19 5 17 7 12 8 13 9 82 10 14 11 15 12
REMARK SMILES IDX 16 13 11 14 7 15 8 16 9 17 84 18 10 19 83 20 85 21 6 22 3 23
REMARK SMILES IDX 4 24 87 25 5 26 86 27 2 28 1 29 23 30 24 31 25 32 26 33
REMARK SMILES IDX 27 35 28 36 29 37 81 38 30 39 80 40 31 41 32 42 33 43 74 44
REMARK SMILES IDX 34 45 79 46 73 47 75 48 35 49 78 50 72 51 71 52 36 54 62 55
REMARK SMILES IDX 45 56 61 57 46 58 49 59 60 60 76 61 47 62 48 63 59 65 77 66
REMARK SMILES IDX 50 67 37 68 38 69 43 70 39 71 40 72 42 73 44 74 41 75 63 76
REMARK SMILES IDX 64 77 69 78 65 79 66 80 68 81 70 82 67 83 51 84 52 85 57 86
REMARK SMILES IDX 53 87 54 88 56 89 58 90 55 91
REMARK H PARENT 20 6 25 34 75 53 49 64
REMARK Flexibility Score: inf
ROOT
ATOM      1  C   UNL     1      -4.604  -5.348   6.540  1.00  0.00     0.023 C 
ENDROOT
BRANCH   1   2
ATOM      2  C   UNL     1      -4.298  -3.883   6.255  1.00  0.00     0.116 C 
BRANCH   2   3
ATOM      3  N   UNL     1      -5.345  -2.941   6.640  1.00  0.00    -0.352 N 
ATOM      4  C   UNL     1      -5.311  -1.719   7.297  1.00  0.00     0.252 C 
ATOM      5  O   UNL     1      -6.360  -1.085   7.366  1.00  0.00    -0.269 OA
ATOM      6  H   UNL     1      -6.251  -3.229   6.385  1.00  0.00     0.163 HD
BRANCH   4   7
ATOM      7  C   UNL     1      -4.064  -1.201   7.936  1.00  0.00     0.060 A 
ATOM      8  C   UNL     1      -1.644  -1.423   8.033  1.00  0.00     0.070 A 
ATOM      9  C   UNL     1      -1.645  -0.851   9.304  1.00  0.00     0.030 A 
ATOM     10  C   UNL     1      -2.840  -1.440   7.309  1.00  0.00     0.044 A 
ATOM     11  C   UNL     1      -2.833  -0.350   9.841  1.00  0.00     0.023 A 
ATOM     12  C   UNL     1      -4.053  -0.566   9.184  1.00  0.00     0.053 A 
ATOM     13  Cl  UNL     1      -5.475  -0.047  10.015  1.00  0.00    -0.083 Cl
BRANCH   8  14
ATOM     14  N   UNL     1      -0.506  -2.092   7.530  1.00  0.00    -0.196 N 
ATOM     15  C   UNL     1       1.716  -3.710   5.281  1.00  0.00     0.024 C 
ATOM     16  C   UNL     1       0.928  -3.301   6.285  1.00  0.00     0.065 C 
ATOM     17  C   UNL     1      -0.288  -2.458   6.195  1.00  0.00     0.280 C 
ATOM     18  C   UNL     1       1.149  -3.469   7.729  1.00  0.00     0.071 C 
ATOM     19  O   UNL     1      -0.936  -2.217   5.197  1.00  0.00    -0.267 OA
ATOM     20  N   UNL     1       0.352  -2.712   8.441  1.00  0.00    -0.169 NA
ATOM     21  C   UNL     1       2.169  -4.391   8.309  1.00  0.00     0.069 C 
BRANCH  15  22
ATOM     22  C   UNL     1       1.538  -3.182   3.924  1.00  0.00    -0.025 A 
ATOM     23  C   UNL     1       0.956  -2.014   1.421  1.00  0.00    -0.048 A 
ATOM     24  C   UNL     1       0.836  -3.401   1.622  1.00  0.00     0.004 A 
ATOM     25  C   UNL     1       1.409  -1.227   2.483  1.00  0.00     0.004 A 
ATOM     26  C   UNL     1       1.125  -3.984   2.863  1.00  0.00     0.008 A 
ATOM     27  C   UNL     1       1.716  -1.807   3.713  1.00  0.00     0.008 A 
BRANCH  23  28
ATOM     28  C   UNL     1       0.523  -1.425   0.097  1.00  0.00     0.032 C 
ATOM     29  C   UNL     1       0.927   0.023  -0.165  1.00  0.00     0.009 C 
ENDBRANCH  23  28
ENDBRANCH  15  22
ENDBRANCH   8  14
ENDBRANCH   4   7
ENDBRANCH   2   3
ENDBRANCH   1   2
BRANCH   1  30
ATOM     30  C   UNL     1      -5.779  -5.959   5.790  1.00  0.00     0.023 C 
BRANCH  30  31
ATOM     31  C   UNL     1      -5.760  -5.796   4.275  1.00  0.00     0.116 C 
BRANCH  31  32
ATOM     32  N   UNL     1      -4.580  -6.363   3.634  1.00  0.00    -0.352 N 
ATOM     33  C   UNL     1      -4.495  -7.266   2.598  1.00  0.00     0.251 C 
ATOM     34  H   UNL     1      -3.718  -6.054   3.994  1.00  0.00     0.163 HD
ATOM     35  O   UNL     1      -3.405  -7.712   2.252  1.00  0.00    -0.269 OA
BRANCH  33  36
ATOM     36  C   UNL     1      -5.729  -7.731   1.927  1.00  0.00     0.039 A 
ATOM     37  C   UNL     1      -5.915  -9.099   1.718  1.00  0.00     0.014 A 
ATOM     38  C   UNL     1      -6.717  -6.822   1.543  1.00  0.00     0.014 A 
ATOM     39  C   UNL     1      -7.132  -9.562   1.210  1.00  0.00     0.010 A 
ATOM     40  C   UNL     1      -7.959  -7.290   1.125  1.00  0.00     0.010 A 
ATOM     41  C   UNL     1      -8.183  -8.665   0.958  1.00  0.00    -0.014 A 
BRANCH  41  42
ATOM     42  C   UNL     1      -9.524  -9.142   0.527  1.00  0.00     0.031 A 
ATOM     43  C   UNL     1     -10.087  -8.711  -0.801  1.00  0.00     0.074 A 
ATOM     44  C   UNL     1     -10.265  -9.902   1.358  1.00  0.00     0.049 A 
ATOM     45  N   UNL     1     -11.264  -8.957  -1.319  1.00  0.00    -0.248 NA
ATOM     46  C   UNL     1      -9.225  -7.871  -1.649  1.00  0.00     0.031 C 
ATOM     47  C   UNL     1      -9.855 -10.350   2.692  1.00  0.00     0.029 A 
ATOM     48  N   UNL     1     -11.527 -10.426   1.210  1.00  0.00    -0.354 N 
ATOM     49  C   UNL     1     -11.289  -8.287  -2.537  1.00  0.00     0.074 A 
ATOM     50  C   UNL     1     -10.031  -7.585  -2.660  1.00  0.00     0.031 C 
ATOM     51  C   UNL     1     -10.832 -11.101   3.225  1.00  0.00     0.029 A 
ATOM     52  C   UNL     1     -11.957 -11.151   2.296  1.00  0.00     0.049 A 
ATOM     53  H   UNL     1     -12.072 -10.293   0.401  1.00  0.00     0.167 HD
ATOM     54  C   UNL     1     -12.263  -8.278  -3.477  1.00  0.00     0.037 A 
ATOM     55  C   UNL     1     -13.129 -11.775   2.523  1.00  0.00     0.037 A 
ATOM     56  C   UNL     1     -13.500  -9.003  -3.366  1.00  0.00     0.049 A 
ATOM     57  C   UNL     1     -14.200 -11.729   1.465  1.00  0.00     0.074 A 
ATOM     58  C   UNL     1     -14.517  -9.114  -4.299  1.00  0.00     0.029 A 
ATOM     59  N   UNL     1     -13.892  -9.735  -2.256  1.00  0.00    -0.354 N 
ATOM     60  N   UNL     1     -14.174 -11.163   0.283  1.00  0.00    -0.248 NA
ATOM     61  C   UNL     1     -15.464 -12.414   1.772  1.00  0.00     0.031 C 
ATOM     62  C   UNL     1     -15.551  -9.863  -3.730  1.00  0.00     0.029 A 
ATOM     63  C   UNL     1     -15.150 -10.274  -2.469  1.00  0.00     0.049 A 
ATOM     64  H   UNL     1     -13.356  -9.854  -1.439  1.00  0.00     0.167 HD
ATOM     65  C   UNL     1     -15.396 -11.459  -0.308  1.00  0.00     0.074 A 
ATOM     66  C   UNL     1     -16.135 -12.265   0.640  1.00  0.00     0.031 C 
ATOM     67  C   UNL     1     -15.865 -11.095  -1.526  1.00  0.00     0.037 A 
BRANCH  54  68
ATOM     68  C   UNL     1     -12.036  -7.459  -4.715  1.00  0.00     0.057 A 
ATOM     69  C   UNL     1     -11.097  -7.829  -5.687  1.00  0.00     0.134 A 
ATOM     70  C   UNL     1     -12.817  -6.324  -4.971  1.00  0.00     0.134 A 
ATOM     71  F   UNL     1     -10.309  -8.899  -5.500  1.00  0.00    -0.206 F 
ATOM     72  C   UNL     1     -10.932  -7.091  -6.861  1.00  0.00     0.040 A 
ATOM     73  C   UNL     1     -12.681  -5.596  -6.153  1.00  0.00     0.040 A 
ATOM     74  F   UNL     1     -13.739  -5.918  -4.085  1.00  0.00    -0.206 F 
ATOM     75  C   UNL     1     -11.734  -5.977  -7.101  1.00  0.00     0.006 A 
ENDBRANCH  54  68
BRANCH  55  76
ATOM     76  C   UNL     1     -13.366 -12.508   3.795  1.00  0.00     0.057 A 
ATOM     77  C   UNL     1     -13.533 -13.899   3.808  1.00  0.00     0.134 A 
ATOM     78  C   UNL     1     -13.485 -11.837   5.018  1.00  0.00     0.134 A 
ATOM     79  F   UNL     1     -13.450 -14.598   2.666  1.00  0.00    -0.206 F 
ATOM     80  C   UNL     1     -13.847 -14.590   4.980  1.00  0.00     0.040 A 
ATOM     81  C   UNL     1     -13.766 -12.519   6.204  1.00  0.00     0.040 A 
ATOM     82  F   UNL     1     -13.329 -10.507   5.080  1.00  0.00    -0.206 F 
ATOM     83  C   UNL     1     -13.963 -13.899   6.184  1.00  0.00     0.006 A 
ENDBRANCH  55  76
BRANCH  67  84
ATOM     84  C   UNL     1     -17.216 -11.611  -1.931  1.00  0.00     0.057 A 
ATOM     85  C   UNL     1     -18.398 -11.152  -1.340  1.00  0.00     0.134 A 
ATOM     86  C   UNL     1     -17.333 -12.553  -2.963  1.00  0.00     0.134 A 
ATOM     87  F   UNL     1     -18.356 -10.260  -0.338  1.00  0.00    -0.206 F 
ATOM     88  C   UNL     1     -19.648 -11.629  -1.741  1.00  0.00     0.040 A 
ATOM     89  C   UNL     1     -18.577 -13.012  -3.395  1.00  0.00     0.040 A 
ATOM     90  F   UNL     1     -16.241 -13.027  -3.582  1.00  0.00    -0.206 F 
ATOM     91  C   UNL     1     -19.739 -12.555  -2.778  1.00  0.00     0.006 A 
ENDBRANCH  67  84
ENDBRANCH  41  42
ENDBRANCH  33  36
ENDBRANCH  31  32
ENDBRANCH  30  31
ENDBRANCH   1  30
TORSDOF 14
