REMARK SMILES O=C(NCCCCNC(=O)[C@H](F)[C@H](O)C1CCOCC1)c1ccc(-c2c3nc(c(-c4c(F)cccc4F)c4ccc([nH]4)c(-c4c(F)cccc4F)c4nc(c(-c5c(F)cccc5F)c5ccc2[nH]5)C=C4)C=C3)cc1
REMARK SMILES IDX 5 1 4 2 3 3 1 4 2 5 21 7 22 8 74 9 23 10 73 11 24 12 25 13
REMARK SMILES IDX 26 14 67 15 27 16 72 17 66 18 68 19 28 20 71 21 65 22 64 23
REMARK SMILES IDX 29 25 55 26 38 27 54 28 39 29 42 30 53 31 69 32 40 33 41 34
REMARK SMILES IDX 52 36 70 37 43 38 30 39 31 40 36 41 32 42 33 43 35 44 37 45
REMARK SMILES IDX 34 46 56 47 57 48 62 49 58 50 59 51 61 52 63 53 60 54 44 55
REMARK SMILES IDX 45 56 50 57 46 58 47 59 49 60 51 61 48 62 6 63 7 64 8 65
REMARK SMILES IDX 9 66 10 68 11 69 12 70 13 71 15 72 16 73 20 74 17 75 19 76
REMARK SMILES IDX 18 77 14 78
REMARK H PARENT 3 6 68 24 42 35 8 67 14 79
REMARK Flexibility Score: inf
ROOT
ATOM      1  C   UNL     1       6.579   1.856   5.085  1.00  0.00     0.023 C 
ENDROOT
BRANCH   1   2
ATOM      2  C   UNL     1       7.330   2.264   3.837  1.00  0.00     0.116 C 
BRANCH   2   3
ATOM      3  N   UNL     1       6.426   2.534   2.725  1.00  0.00    -0.352 N 
ATOM      4  O   UNL     1       5.266   3.826   1.281  1.00  0.00    -0.269 OA
ATOM      5  C   UNL     1       6.224   3.704   2.038  1.00  0.00     0.251 C 
ATOM      6  H   UNL     1       5.884   1.769   2.426  1.00  0.00     0.163 HD
BRANCH   5   7
ATOM      7  C   UNL     1       7.176   4.813   2.224  1.00  0.00     0.039 A 
ATOM      8  C   UNL     1       8.543   4.538   2.295  1.00  0.00     0.014 A 
ATOM      9  C   UNL     1       6.707   6.123   2.338  1.00  0.00     0.014 A 
ATOM     10  C   UNL     1       9.426   5.543   2.644  1.00  0.00     0.010 A 
ATOM     11  C   UNL     1       7.616   7.158   2.562  1.00  0.00     0.010 A 
ATOM     12  C   UNL     1       8.979   6.870   2.733  1.00  0.00    -0.014 A 
BRANCH  12  13
ATOM     13  C   UNL     1       9.990   7.938   2.887  1.00  0.00     0.031 A 
ATOM     14  C   UNL     1      10.025   8.813   4.102  1.00  0.00     0.074 A 
ATOM     15  C   UNL     1      10.910   8.068   1.911  1.00  0.00     0.049 A 
ATOM     16  N   UNL     1      10.851   9.787   4.384  1.00  0.00    -0.248 NA
ATOM     17  C   UNL     1       9.002   8.574   5.131  1.00  0.00     0.031 C 
ATOM     18  C   UNL     1      10.957   7.261   0.686  1.00  0.00     0.029 A 
ATOM     19  N   UNL     1      11.995   8.894   1.801  1.00  0.00    -0.354 N 
ATOM     20  C   UNL     1      10.435  10.295   5.607  1.00  0.00     0.074 A 
ATOM     21  C   UNL     1       9.272   9.532   6.008  1.00  0.00     0.031 C 
ATOM     22  C   UNL     1      12.050   7.583  -0.015  1.00  0.00     0.029 A 
ATOM     23  C   UNL     1      12.731   8.678   0.662  1.00  0.00     0.049 A 
ATOM     24  H   UNL     1      12.226   9.576   2.473  1.00  0.00     0.167 HD
ATOM     25  C   UNL     1      10.982  11.307   6.323  1.00  0.00     0.037 A 
ATOM     26  C   UNL     1      13.822   9.310   0.198  1.00  0.00     0.037 A 
ATOM     27  C   UNL     1      12.148  12.046   5.909  1.00  0.00     0.049 A 
ATOM     28  C   UNL     1      14.384  10.442   0.999  1.00  0.00     0.074 A 
ATOM     29  C   UNL     1      12.794  13.078   6.567  1.00  0.00     0.029 A 
ATOM     30  N   UNL     1      12.843  11.829   4.727  1.00  0.00    -0.354 N 
ATOM     31  N   UNL     1      13.984  10.910   2.156  1.00  0.00    -0.248 NA
ATOM     32  C   UNL     1      15.539  11.143   0.427  1.00  0.00     0.031 C 
ATOM     33  C   UNL     1      13.854  13.513   5.764  1.00  0.00     0.029 A 
ATOM     34  C   UNL     1      13.898  12.721   4.627  1.00  0.00     0.049 A 
ATOM     35  H   UNL     1      12.619  11.143   4.058  1.00  0.00     0.167 HD
ATOM     36  C   UNL     1      14.842  11.956   2.458  1.00  0.00     0.074 A 
ATOM     37  C   UNL     1      15.800  12.035   1.372  1.00  0.00     0.031 C 
ATOM     38  C   UNL     1      14.836  12.780   3.534  1.00  0.00     0.037 A 
BRANCH  25  39
ATOM     39  C   UNL     1      10.312  11.691   7.610  1.00  0.00     0.057 A 
ATOM     40  C   UNL     1      10.380  10.884   8.753  1.00  0.00     0.134 A 
ATOM     41  C   UNL     1       9.625  12.908   7.720  1.00  0.00     0.134 A 
ATOM     42  F   UNL     1      11.010   9.701   8.713  1.00  0.00    -0.206 F 
ATOM     43  C   UNL     1       9.774  11.265   9.953  1.00  0.00     0.040 A 
ATOM     44  C   UNL     1       9.035  13.310   8.920  1.00  0.00     0.040 A 
ATOM     45  F   UNL     1       9.524  13.730   6.665  1.00  0.00    -0.206 F 
ATOM     46  C   UNL     1       9.106  12.485  10.040  1.00  0.00     0.006 A 
ENDBRANCH  25  39
BRANCH  26  47
ATOM     47  C   UNL     1      14.425   8.890  -1.091  1.00  0.00     0.057 A 
ATOM     48  C   UNL     1      15.677   8.269  -1.135  1.00  0.00     0.134 A 
ATOM     49  C   UNL     1      13.750   9.072  -2.305  1.00  0.00     0.134 A 
ATOM     50  F   UNL     1      16.376   8.077  -0.007  1.00  0.00    -0.206 F 
ATOM     51  C   UNL     1      16.242   7.853  -2.342  1.00  0.00     0.040 A 
ATOM     52  C   UNL     1      14.289   8.635  -3.514  1.00  0.00     0.040 A 
ATOM     53  F   UNL     1      12.539   9.649  -2.327  1.00  0.00    -0.206 F 
ATOM     54  C   UNL     1      15.543   8.029  -3.535  1.00  0.00     0.006 A 
ENDBRANCH  26  47
BRANCH  38  55
ATOM     55  C   UNL     1      15.916  13.816   3.590  1.00  0.00     0.057 A 
ATOM     56  C   UNL     1      15.902  14.941   2.755  1.00  0.00     0.134 A 
ATOM     57  C   UNL     1      16.974  13.693   4.498  1.00  0.00     0.134 A 
ATOM     58  F   UNL     1      14.924  15.105   1.851  1.00  0.00    -0.206 F 
ATOM     59  C   UNL     1      16.917  15.896   2.807  1.00  0.00     0.040 A 
ATOM     60  C   UNL     1      17.981  14.655   4.577  1.00  0.00     0.040 A 
ATOM     61  F   UNL     1      17.041  12.640   5.327  1.00  0.00    -0.206 F 
ATOM     62  C   UNL     1      17.958  15.757   3.724  1.00  0.00     0.006 A 
ENDBRANCH  38  55
ENDBRANCH  12  13
ENDBRANCH   5   7
ENDBRANCH   2   3
ENDBRANCH   1   2
BRANCH   1  63
ATOM     63  C   UNL     1       5.739   0.603   4.898  1.00  0.00     0.023 C 
BRANCH  63  64
ATOM     64  C   UNL     1       6.511  -0.703   4.645  1.00  0.00     0.116 C 
BRANCH  64  65
ATOM     65  N   UNL     1       7.663  -0.961   5.500  1.00  0.00    -0.353 N 
ATOM     66  C   UNL     1       7.795  -1.831   6.557  1.00  0.00     0.257 C 
ATOM     67  H   UNL     1       8.467  -0.434   5.290  1.00  0.00     0.163 HD
ATOM     68  O   UNL     1       8.942  -2.148   6.886  1.00  0.00    -0.272 OA
BRANCH  66  69
ATOM     69  C   UNL     1       6.574  -2.305   7.357  1.00  0.00     0.283 C 
ATOM     70  F   UNL     1       5.790  -3.135   6.606  1.00  0.00    -0.234 F 
BRANCH  69  71
ATOM     71  C   UNL     1       5.740  -1.103   7.806  1.00  0.00     0.161 C 
BRANCH  71  72
ATOM     72  C   UNL     1       4.664  -1.276   8.885  1.00  0.00     0.026 C 
ATOM     73  C   UNL     1       3.734  -2.469   8.664  1.00  0.00     0.035 C 
ATOM     74  C   UNL     1       3.817   0.023   8.915  1.00  0.00     0.035 C 
ATOM     75  C   UNL     1       2.593  -2.438   9.677  1.00  0.00     0.160 C 
ATOM     76  C   UNL     1       2.659  -0.082   9.886  1.00  0.00     0.160 C 
ATOM     77  O   UNL     1       1.858  -1.220   9.578  1.00  0.00    -0.381 OA
ENDBRANCH  71  72
BRANCH  71  78
ATOM     78  O   UNL     1       6.551   0.003   8.223  1.00  0.00    -0.389 OA
ATOM     79  H   UNL     1       7.000  -0.221   9.053  1.00  0.00     0.211 HD
ENDBRANCH  71  78
ENDBRANCH  69  71
ENDBRANCH  66  69
ENDBRANCH  64  65
ENDBRANCH  63  64
ENDBRANCH   1  63
TORSDOF 14
