REMARK SMILES Cc1ccc(NC(=O)N[C@@H]2C=C[C@@H](C(=O)NCCCCNC(=O)c3ccc(-c4c5nc(c(-c6c(F)cccc6F)c6ccc([nH]6)c(-c6c(F)cccc6F)c6nc(c(-c7c(F)cccc7F)c7ccc4[nH]7)C=C6)C=C5)cc3)C2)c(F)c1
REMARK SMILES IDX 18 1 17 2 16 3 14 4 15 5 13 7 10 8 11 9 78 10 12 11 9 12
REMARK SMILES IDX 6 13 7 14 8 16 5 18 1 19 2 20 3 21 81 22 4 23 79 24 80 25
REMARK SMILES IDX 19 26 20 27 21 28 22 29 23 31 24 32 25 33 77 34 26 35 76 36
REMARK SMILES IDX 27 37 28 38 29 39 70 40 30 41 75 42 69 43 71 44 31 45 74 46
REMARK SMILES IDX 68 47 67 48 32 50 58 51 41 52 57 53 42 54 45 55 56 56 72 57
REMARK SMILES IDX 43 58 44 59 55 61 73 62 46 63 33 64 34 65 39 66 35 67 36 68
REMARK SMILES IDX 38 69 40 70 37 71 59 72 60 73 65 74 61 75 62 76 64 77 66 78
REMARK SMILES IDX 63 79 47 80 48 81 53 82 49 83 50 84 52 85 54 86 51 87
REMARK H PARENT 16 6 6 15 9 17 21 30 71 49 45 60
REMARK Flexibility Score: inf
ROOT
ATOM      1  C   UNL     1      -4.035  -0.487   3.994  1.00  0.00     0.023 C 
ENDROOT
BRANCH   1   2
ATOM      2  C   UNL     1      -3.080   0.553   3.410  1.00  0.00     0.116 C 
BRANCH   2   3
ATOM      3  N   UNL     1      -1.752   0.466   3.977  1.00  0.00    -0.356 N 
ATOM      4  C   UNL     1      -0.500   0.452   3.467  1.00  0.00     0.227 C 
ATOM      5  O   UNL     1       0.403   0.467   4.318  1.00  0.00    -0.274 OA
ATOM      6  H   UNL     1      -1.762   0.401   4.960  1.00  0.00     0.163 HD
BRANCH   4   7
ATOM      7  C   UNL     1      -0.107   0.496   1.983  1.00  0.00     0.103 C 
ATOM      8  C   UNL     1      -1.607   1.372   0.264  1.00  0.00     0.107 C 
ATOM      9  C   UNL     1      -0.539   2.355   0.611  1.00  0.00    -0.006 C 
ATOM     10  C   UNL     1      -1.035   0.065   0.845  1.00  0.00     0.047 C 
ATOM     11  C   UNL     1       0.252   1.898   1.587  1.00  0.00    -0.016 C 
BRANCH   8  12
ATOM     12  N   UNL     1      -1.873   1.335  -1.157  1.00  0.00    -0.332 N 
ATOM     13  N   UNL     1      -2.771   3.482  -1.670  1.00  0.00    -0.305 N 
ATOM     14  C   UNL     1      -2.384   2.234  -2.029  1.00  0.00     0.319 C 
ATOM     15  H   UNL     1      -2.752   4.142  -2.400  1.00  0.00     0.171 HD
ATOM     16  O   UNL     1      -2.346   1.948  -3.229  1.00  0.00    -0.248 OA
ATOM     17  H   UNL     1      -1.634   0.477  -1.576  1.00  0.00     0.165 HD
BRANCH  13  18
ATOM     18  C   UNL     1      -3.195   3.990  -0.436  1.00  0.00     0.078 A 
ATOM     19  C   UNL     1      -3.429   4.997   3.712  1.00  0.00     0.044 C 
ATOM     20  C   UNL     1      -3.516   4.773   2.231  1.00  0.00    -0.048 A 
ATOM     21  C   UNL     1      -2.748   5.547   1.351  1.00  0.00     0.006 A 
ATOM     22  C   UNL     1      -4.250   3.697   1.724  1.00  0.00     0.045 A 
ATOM     23  C   UNL     1      -2.624   5.184   0.006  1.00  0.00     0.029 A 
ATOM     24  C   UNL     1      -4.087   3.313   0.397  1.00  0.00     0.147 A 
ATOM     25  F   UNL     1      -4.726   2.215  -0.035  1.00  0.00    -0.205 F 
ENDBRANCH  13  18
ENDBRANCH   8  12
ENDBRANCH   4   7
ENDBRANCH   2   3
ENDBRANCH   1   2
BRANCH   1  26
ATOM     26  C   UNL     1      -4.336  -0.337   5.487  1.00  0.00     0.023 C 
BRANCH  26  27
ATOM     27  C   UNL     1      -4.941   1.002   5.901  1.00  0.00     0.116 C 
BRANCH  27  28
ATOM     28  N   UNL     1      -6.248   1.242   5.307  1.00  0.00    -0.352 N 
ATOM     29  C   UNL     1      -7.471   1.415   5.910  1.00  0.00     0.251 C 
ATOM     30  H   UNL     1      -6.257   1.288   4.324  1.00  0.00     0.163 HD
ATOM     31  O   UNL     1      -8.490   1.460   5.224  1.00  0.00    -0.269 OA
BRANCH  29  32
ATOM     32  C   UNL     1      -7.575   1.512   7.382  1.00  0.00     0.039 A 
ATOM     33  C   UNL     1      -8.550   0.759   8.041  1.00  0.00     0.014 A 
ATOM     34  C   UNL     1      -6.716   2.337   8.113  1.00  0.00     0.014 A 
ATOM     35  C   UNL     1      -8.607   0.764   9.437  1.00  0.00     0.010 A 
ATOM     36  C   UNL     1      -6.726   2.286   9.505  1.00  0.00     0.010 A 
ATOM     37  C   UNL     1      -7.665   1.492  10.182  1.00  0.00    -0.014 A 
BRANCH  37  38
ATOM     38  C   UNL     1      -7.628   1.416  11.666  1.00  0.00     0.031 A 
ATOM     39  C   UNL     1      -7.884   2.641  12.499  1.00  0.00     0.074 A 
ATOM     40  C   UNL     1      -7.282   0.259  12.264  1.00  0.00     0.049 A 
ATOM     41  N   UNL     1      -7.808   2.789  13.797  1.00  0.00    -0.248 NA
ATOM     42  C   UNL     1      -8.246   3.869  11.774  1.00  0.00     0.031 C 
ATOM     43  C   UNL     1      -6.956  -0.989  11.572  1.00  0.00     0.029 A 
ATOM     44  N   UNL     1      -7.133  -0.052  13.594  1.00  0.00    -0.354 N 
ATOM     45  C   UNL     1      -8.092   4.126  14.043  1.00  0.00     0.074 A 
ATOM     46  C   UNL     1      -8.299   4.757  12.757  1.00  0.00     0.031 C 
ATOM     47  C   UNL     1      -6.663  -1.933  12.480  1.00  0.00     0.029 A 
ATOM     48  C   UNL     1      -6.744  -1.351  13.816  1.00  0.00     0.049 A 
ATOM     49  H   UNL     1      -7.290   0.595  14.319  1.00  0.00     0.167 HD
ATOM     50  C   UNL     1      -8.193   4.766  15.233  1.00  0.00     0.037 A 
ATOM     51  C   UNL     1      -6.474  -1.999  14.965  1.00  0.00     0.037 A 
ATOM     52  C   UNL     1      -8.019   4.133  16.514  1.00  0.00     0.049 A 
ATOM     53  C   UNL     1      -6.605  -1.269  16.272  1.00  0.00     0.074 A 
ATOM     54  C   UNL     1      -8.170   4.684  17.775  1.00  0.00     0.029 A 
ATOM     55  N   UNL     1      -7.657   2.807  16.698  1.00  0.00    -0.354 N 
ATOM     56  N   UNL     1      -6.942  -0.022  16.492  1.00  0.00    -0.248 NA
ATOM     57  C   UNL     1      -6.324  -2.040  17.492  1.00  0.00     0.031 C 
ATOM     58  C   UNL     1      -7.862   3.701  18.722  1.00  0.00     0.029 A 
ATOM     59  C   UNL     1      -7.561   2.527  18.051  1.00  0.00     0.049 A 
ATOM     60  H   UNL     1      -7.492   2.161  15.973  1.00  0.00     0.167 HD
ATOM     61  C   UNL     1      -6.938   0.135  17.872  1.00  0.00     0.074 A 
ATOM     62  C   UNL     1      -6.579  -1.148  18.439  1.00  0.00     0.031 C 
ATOM     63  C   UNL     1      -7.209   1.244  18.602  1.00  0.00     0.037 A 
BRANCH  50  64
ATOM     64  C   UNL     1      -8.512   6.232  15.205  1.00  0.00     0.057 A 
ATOM     65  C   UNL     1      -9.782   6.703  14.848  1.00  0.00     0.134 A 
ATOM     66  C   UNL     1      -7.551   7.181  15.575  1.00  0.00     0.134 A 
ATOM     67  F   UNL     1     -10.744   5.847  14.472  1.00  0.00    -0.206 F 
ATOM     68  C   UNL     1     -10.078   8.067  14.837  1.00  0.00     0.040 A 
ATOM     69  C   UNL     1      -7.843   8.546  15.593  1.00  0.00     0.040 A 
ATOM     70  F   UNL     1      -6.317   6.797  15.934  1.00  0.00    -0.206 F 
ATOM     71  C   UNL     1      -9.108   8.992  15.217  1.00  0.00     0.006 A 
ENDBRANCH  50  64
BRANCH  51  72
ATOM     72  C   UNL     1      -6.074  -3.427  14.934  1.00  0.00     0.057 A 
ATOM     73  C   UNL     1      -6.943  -4.429  15.381  1.00  0.00     0.134 A 
ATOM     74  C   UNL     1      -4.816  -3.825  14.464  1.00  0.00     0.134 A 
ATOM     75  F   UNL     1      -8.153  -4.107  15.860  1.00  0.00    -0.206 F 
ATOM     76  C   UNL     1      -6.570  -5.774  15.379  1.00  0.00     0.040 A 
ATOM     77  C   UNL     1      -4.439  -5.168  14.434  1.00  0.00     0.040 A 
ATOM     78  F   UNL     1      -3.942  -2.913  14.015  1.00  0.00    -0.206 F 
ATOM     79  C   UNL     1      -5.316  -6.147  14.899  1.00  0.00     0.006 A 
ENDBRANCH  51  72
BRANCH  63  80
ATOM     80  C   UNL     1      -7.159   1.111  20.096  1.00  0.00     0.057 A 
ATOM     81  C   UNL     1      -5.946   1.002  20.787  1.00  0.00     0.134 A 
ATOM     82  C   UNL     1      -8.337   1.133  20.853  1.00  0.00     0.134 A 
ATOM     83  F   UNL     1      -4.783   0.962  20.119  1.00  0.00    -0.206 F 
ATOM     84  C   UNL     1      -5.908   0.898  22.179  1.00  0.00     0.040 A 
ATOM     85  C   UNL     1      -8.310   1.054  22.245  1.00  0.00     0.040 A 
ATOM     86  F   UNL     1      -9.531   1.243  20.251  1.00  0.00    -0.206 F 
ATOM     87  C   UNL     1      -7.093   0.931  22.912  1.00  0.00     0.006 A 
ENDBRANCH  63  80
ENDBRANCH  37  38
ENDBRANCH  29  32
ENDBRANCH  27  28
ENDBRANCH  26  27
ENDBRANCH   1  26
TORSDOF 13
