REMARK SMILES Cc1ccc(C(N)=O)c(NCc2ccc(C(=O)NCCCCNC(=O)c3ccc(-c4c5nc(c(-c6c(F)cccc6F)c6ccc([nH]6)c(-c6c(F)cccc6F)c6nc(c(-c7c(F)cccc7F)c7ccc4[nH]7)C=C6)C=C5)cc3)o2)n1
REMARK SMILES IDX 19 1 18 2 16 3 17 4 15 6 12 7 13 8 80 9 14 10 11 11 10 12
REMARK SMILES IDX 9 14 1 15 2 16 3 17 81 18 4 19 5 20 6 21 7 22 8 23 20 26
REMARK SMILES IDX 21 27 22 28 23 29 24 30 25 32 26 33 27 34 79 35 28 36 78 37
REMARK SMILES IDX 29 38 30 39 31 40 72 41 32 42 77 43 71 44 73 45 33 46 76 47
REMARK SMILES IDX 70 48 69 49 34 51 60 52 43 53 59 54 44 55 47 56 58 57 74 58
REMARK SMILES IDX 45 59 46 60 57 62 75 63 48 64 35 65 36 66 41 67 37 68 38 69
REMARK SMILES IDX 40 70 42 71 39 72 61 73 62 74 67 75 63 76 64 77 66 78 68 79
REMARK SMILES IDX 65 80 49 81 50 82 55 83 51 84 52 85 54 86 56 87 53 88
REMARK H PARENT 18 5 10 13 7 24 7 25 23 31 73 50 47 61
REMARK Flexibility Score: inf
ROOT
ATOM      1  C   UNL     1      -1.212   7.005  -5.448  1.00  0.00     0.116 C 
ENDROOT
BRANCH   1   2
ATOM      2  N   UNL     1      -1.098   7.771  -4.226  1.00  0.00    -0.349 N 
ATOM      3  C   UNL     1      -1.072   7.367  -2.910  1.00  0.00     0.286 C 
ATOM      4  O   UNL     1      -0.878   8.262  -2.083  1.00  0.00    -0.266 OA
ATOM      5  H   UNL     1      -1.026   8.744  -4.357  1.00  0.00     0.163 HD
BRANCH   3   6
ATOM      6  C   UNL     1      -1.247   5.973  -2.539  1.00  0.00     0.191 A 
ATOM      7  C   UNL     1      -1.081   4.290  -1.103  1.00  0.00     0.124 A 
ATOM      8  C   UNL     1      -1.609   3.762  -2.259  1.00  0.00     0.048 A 
ATOM      9  O   UNL     1      -0.857   5.623  -1.266  1.00  0.00    -0.454 OA
ATOM     10  C   UNL     1      -1.758   4.844  -3.158  1.00  0.00     0.056 A 
BRANCH   7  11
ATOM     11  C   UNL     1      -0.756   3.713   0.235  1.00  0.00     0.190 C 
BRANCH  11  12
ATOM     12  N   UNL     1      -1.531   2.520   0.545  1.00  0.00    -0.362 N 
ATOM     13  H   UNL     1      -2.435   2.611   0.923  1.00  0.00     0.162 HD
BRANCH  12  14
ATOM     14  C   UNL     1      -1.009   1.257   0.312  1.00  0.00     0.139 A 
ATOM     15  C   UNL     1       2.397  -0.109  -0.045  1.00  0.00     0.067 C 
ATOM     16  C   UNL     1       0.901  -0.070   0.037  1.00  0.00     0.040 A 
ATOM     17  C   UNL     1       0.149  -1.230  -0.057  1.00  0.00     0.024 A 
ATOM     18  N   UNL     1       0.336   1.152   0.200  1.00  0.00    -0.236 NA
ATOM     19  C   UNL     1      -1.234  -1.126   0.022  1.00  0.00     0.019 A 
ATOM     20  C   UNL     1      -1.833   0.128   0.198  1.00  0.00     0.081 A 
BRANCH  20  21
ATOM     21  C   UNL     1      -3.320   0.168   0.208  1.00  0.00     0.252 C 
ATOM     22  N   UNL     1      -3.933   1.339  -0.135  1.00  0.00    -0.365 N 
ATOM     23  O   UNL     1      -3.986  -0.827   0.471  1.00  0.00    -0.269 OA
ATOM     24  H   UNL     1      -3.392   2.135  -0.344  1.00  0.00     0.159 HD
ATOM     25  H   UNL     1      -4.915   1.388  -0.173  1.00  0.00     0.159 HD
ENDBRANCH  20  21
ENDBRANCH  12  14
ENDBRANCH  11  12
ENDBRANCH   7  11
ENDBRANCH   3   6
ENDBRANCH   1   2
BRANCH   1  26
ATOM     26  C   UNL     1      -2.653   6.986  -5.958  1.00  0.00     0.023 C 
BRANCH  26  27
ATOM     27  C   UNL     1      -3.069   8.259  -6.704  1.00  0.00     0.023 C 
BRANCH  27  28
ATOM     28  C   UNL     1      -2.267   8.559  -7.968  1.00  0.00     0.116 C 
BRANCH  28  29
ATOM     29  N   UNL     1      -2.305   7.486  -8.950  1.00  0.00    -0.352 N 
ATOM     30  C   UNL     1      -2.220   7.581 -10.319  1.00  0.00     0.251 C 
ATOM     31  H   UNL     1      -2.405   6.576  -8.587  1.00  0.00     0.163 HD
ATOM     32  O   UNL     1      -2.365   6.592 -11.025  1.00  0.00    -0.269 OA
BRANCH  30  33
ATOM     33  C   UNL     1      -1.995   8.906 -10.931  1.00  0.00     0.039 A 
ATOM     34  C   UNL     1      -2.865   9.343 -11.933  1.00  0.00     0.014 A 
ATOM     35  C   UNL     1      -0.959   9.728 -10.482  1.00  0.00     0.014 A 
ATOM     36  C   UNL     1      -2.740  10.640 -12.436  1.00  0.00     0.010 A 
ATOM     37  C   UNL     1      -0.875  11.038 -10.939  1.00  0.00     0.010 A 
ATOM     38  C   UNL     1      -1.769  11.508 -11.914  1.00  0.00    -0.014 A 
BRANCH  38  39
ATOM     39  C   UNL     1      -1.662  12.917 -12.366  1.00  0.00     0.031 A 
ATOM     40  C   UNL     1      -0.423  13.381 -13.077  1.00  0.00     0.074 A 
ATOM     41  C   UNL     1      -2.634  13.796 -12.055  1.00  0.00     0.049 A 
ATOM     42  N   UNL     1      -0.073  14.592 -13.426  1.00  0.00    -0.248 NA
ATOM     43  C   UNL     1       0.569  12.347 -13.412  1.00  0.00     0.031 C 
ATOM     44  C   UNL     1      -3.869  13.476 -11.335  1.00  0.00     0.029 A 
ATOM     45  N   UNL     1      -2.725  15.145 -12.287  1.00  0.00    -0.354 N 
ATOM     46  C   UNL     1       1.186  14.470 -13.999  1.00  0.00     0.074 A 
ATOM     47  C   UNL     1       1.558  13.074 -13.912  1.00  0.00     0.031 C 
ATOM     48  C   UNL     1      -4.598  14.595 -11.194  1.00  0.00     0.029 A 
ATOM     49  C   UNL     1      -3.866  15.716 -11.776  1.00  0.00     0.049 A 
ATOM     50  H   UNL     1      -2.039  15.656 -12.773  1.00  0.00     0.167 HD
ATOM     51  C   UNL     1       1.955  15.431 -14.562  1.00  0.00     0.037 A 
ATOM     52  C   UNL     1      -4.269  17.001 -11.767  1.00  0.00     0.037 A 
ATOM     53  C   UNL     1       1.569  16.813 -14.675  1.00  0.00     0.049 A 
ATOM     54  C   UNL     1      -3.398  18.049 -12.401  1.00  0.00     0.074 A 
ATOM     55  C   UNL     1       2.256  17.854 -15.274  1.00  0.00     0.029 A 
ATOM     56  N   UNL     1       0.388  17.344 -14.179  1.00  0.00    -0.354 N 
ATOM     57  N   UNL     1      -2.231  17.913 -12.982  1.00  0.00    -0.248 NA
ATOM     58  C   UNL     1      -3.901  19.431 -12.382  1.00  0.00     0.031 C 
ATOM     59  C   UNL     1       1.504  19.022 -15.113  1.00  0.00     0.029 A 
ATOM     60  C   UNL     1       0.331  18.700 -14.451  1.00  0.00     0.049 A 
ATOM     61  H   UNL     1      -0.307  16.832 -13.705  1.00  0.00     0.167 HD
ATOM     62  C   UNL     1      -1.877  19.180 -13.428  1.00  0.00     0.074 A 
ATOM     63  C   UNL     1      -2.954  20.072 -13.053  1.00  0.00     0.031 C 
ATOM     64  C   UNL     1      -0.761  19.568 -14.091  1.00  0.00     0.037 A 
BRANCH  51  65
ATOM     65  C   UNL     1       3.292  15.017 -15.103  1.00  0.00     0.057 A 
ATOM     66  C   UNL     1       3.409  14.240 -16.263  1.00  0.00     0.134 A 
ATOM     67  C   UNL     1       4.475  15.424 -14.475  1.00  0.00     0.134 A 
ATOM     68  F   UNL     1       2.313  13.806 -16.904  1.00  0.00    -0.206 F 
ATOM     69  C   UNL     1       4.655  13.860 -16.764  1.00  0.00     0.040 A 
ATOM     70  C   UNL     1       5.728  15.073 -14.981  1.00  0.00     0.040 A 
ATOM     71  F   UNL     1       4.434  16.174 -13.363  1.00  0.00    -0.206 F 
ATOM     72  C   UNL     1       5.819  14.283 -16.125  1.00  0.00     0.006 A 
ENDBRANCH  51  65
BRANCH  52  73
ATOM     73  C   UNL     1      -5.570  17.368 -11.154  1.00  0.00     0.057 A 
ATOM     74  C   UNL     1      -6.652  17.763 -11.948  1.00  0.00     0.134 A 
ATOM     75  C   UNL     1      -5.762  17.341  -9.768  1.00  0.00     0.134 A 
ATOM     76  F   UNL     1      -6.522  17.826 -13.282  1.00  0.00    -0.206 F 
ATOM     77  C   UNL     1      -7.873  18.138 -11.387  1.00  0.00     0.040 A 
ATOM     78  C   UNL     1      -6.985  17.691  -9.194  1.00  0.00     0.040 A 
ATOM     79  F   UNL     1      -4.766  16.964  -8.953  1.00  0.00    -0.206 F 
ATOM     80  C   UNL     1      -8.043  18.099 -10.004  1.00  0.00     0.006 A 
ENDBRANCH  52  73
BRANCH  64  81
ATOM     81  C   UNL     1      -0.670  21.006 -14.503  1.00  0.00     0.057 A 
ATOM     82  C   UNL     1      -0.400  22.026 -13.583  1.00  0.00     0.134 A 
ATOM     83  C   UNL     1      -0.802  21.366 -15.851  1.00  0.00     0.134 A 
ATOM     84  F   UNL     1      -0.276  21.747 -12.276  1.00  0.00    -0.206 F 
ATOM     85  C   UNL     1      -0.279  23.356 -13.987  1.00  0.00     0.040 A 
ATOM     86  C   UNL     1      -0.660  22.689 -16.270  1.00  0.00     0.040 A 
ATOM     87  F   UNL     1      -1.054  20.434 -16.783  1.00  0.00    -0.206 F 
ATOM     88  C   UNL     1      -0.401  23.689 -15.335  1.00  0.00     0.006 A 
ENDBRANCH  64  81
ENDBRANCH  38  39
ENDBRANCH  30  33
ENDBRANCH  28  29
ENDBRANCH  27  28
ENDBRANCH  26  27
ENDBRANCH   1  26
TORSDOF 15
