REMARK SMILES NC(=O)C[C@@H](C(=O)NCCCCNC(=O)c1ccc(-c2c3nc(c(-c4c(F)cccc4F)c4ccc([nH]4)c(-c4c(F)cccc4F)c4nc(c(-c5c(F)cccc5F)c5ccc2[nH]5)C=C4)C=C3)cc1)N1C(=O)/C(=C/c2ccccc2)SC1=S
REMARK SMILES IDX 10 1 9 2 8 3 6 4 7 5 5 7 4 8 2 9 1 10 3 13 70 14 71 15 82 16
REMARK SMILES IDX 72 17 73 18 81 19 83 20 74 21 75 22 76 23 80 24 77 25 79 26
REMARK SMILES IDX 78 27 11 28 12 29 13 30 14 31 15 33 16 34 17 35 69 36 18 37
REMARK SMILES IDX 68 38 19 39 20 40 21 41 62 42 22 43 67 44 61 45 63 46 23 47
REMARK SMILES IDX 66 48 60 49 59 50 24 52 50 53 33 54 49 55 34 56 37 57 48 58
REMARK SMILES IDX 64 59 35 60 36 61 47 63 65 64 38 65 25 66 26 67 31 68 27 69
REMARK SMILES IDX 28 70 30 71 32 72 29 73 51 74 52 75 57 76 53 77 54 78 56 79
REMARK SMILES IDX 58 80 55 81 39 82 40 83 45 84 41 85 42 86 44 87 46 88 43 89
REMARK H PARENT 8 6 1 11 1 12 13 32 63 51 37 62
REMARK Flexibility Score: inf
ROOT
ATOM      1  C   UNL     1       0.708  -0.218   1.017  1.00  0.00     0.023 C 
ENDROOT
BRANCH   1   2
ATOM      2  C   UNL     1       1.061   1.235   0.699  1.00  0.00     0.116 C 
BRANCH   2   3
ATOM      3  N   UNL     1       2.386   1.309   0.127  1.00  0.00    -0.354 N 
ATOM      4  C   UNL     1       2.831   1.716  -1.086  1.00  0.00     0.243 C 
ATOM      5  O   UNL     1       4.064   1.789  -1.172  1.00  0.00    -0.273 OA
ATOM      6  H   UNL     1       3.100   1.006   0.733  1.00  0.00     0.163 HD
BRANCH   4   7
ATOM      7  C   UNL     1       1.905   2.166  -2.250  1.00  0.00     0.190 C 
BRANCH   7   8
ATOM      8  C   UNL     1       0.942   1.221  -2.975  1.00  0.00     0.135 C 
BRANCH   8   9
ATOM      9  C   UNL     1      -0.085   0.484  -2.174  1.00  0.00     0.220 C 
ATOM     10  N   UNL     1       0.137  -0.856  -2.061  1.00  0.00    -0.370 N 
ATOM     11  H   UNL     1      -0.491  -1.417  -1.550  1.00  0.00     0.159 HD
ATOM     12  H   UNL     1       0.924  -1.263  -2.490  1.00  0.00     0.159 HD
ATOM     13  O   UNL     1      -1.074   1.013  -1.685  1.00  0.00    -0.275 OA
ENDBRANCH   8   9
ENDBRANCH   7   8
BRANCH   7  14
ATOM     14  N   UNL     1       2.800   2.784  -3.282  1.00  0.00    -0.280 N 
ATOM     15  C   UNL     1       2.719   4.151  -3.495  1.00  0.00     0.266 C 
ATOM     16  C   UNL     1       3.706   2.094  -4.083  1.00  0.00     0.149 C 
ATOM     17  O   UNL     1       2.033   4.940  -2.862  1.00  0.00    -0.268 OA
ATOM     18  C   UNL     1       3.529   4.535  -4.682  1.00  0.00     0.081 C 
ATOM     19  S   UNL     1       4.452   3.197  -5.227  1.00  0.00    -0.054 SA
ATOM     20  S   UNL     1       4.103   0.467  -4.120  1.00  0.00    -0.052 S 
ATOM     21  C   UNL     1       3.440   5.740  -5.259  1.00  0.00     0.029 C 
BRANCH  21  22
ATOM     22  C   UNL     1       4.080   6.087  -6.533  1.00  0.00    -0.024 A 
ATOM     23  C   UNL     1       5.175   6.954  -6.567  1.00  0.00     0.008 A 
ATOM     24  C   UNL     1       3.606   5.528  -7.729  1.00  0.00     0.008 A 
ATOM     25  C   UNL     1       5.797   7.247  -7.783  1.00  0.00     0.001 A 
ATOM     26  C   UNL     1       4.232   5.818  -8.941  1.00  0.00     0.001 A 
ATOM     27  C   UNL     1       5.328   6.677  -8.968  1.00  0.00     0.000 A 
ENDBRANCH  21  22
ENDBRANCH   7  14
ENDBRANCH   4   7
ENDBRANCH   2   3
ENDBRANCH   1   2
BRANCH   1  28
ATOM     28  C   UNL     1       1.411  -0.789   2.243  1.00  0.00     0.023 C 
BRANCH  28  29
ATOM     29  C   UNL     1       1.087  -0.073   3.542  1.00  0.00     0.116 C 
BRANCH  29  30
ATOM     30  N   UNL     1      -0.336  -0.080   3.851  1.00  0.00    -0.352 N 
ATOM     31  C   UNL     1      -0.980  -0.547   4.971  1.00  0.00     0.251 C 
ATOM     32  H   UNL     1      -0.920   0.305   3.158  1.00  0.00     0.163 HD
ATOM     33  O   UNL     1      -2.203  -0.633   4.997  1.00  0.00    -0.269 OA
BRANCH  31  34
ATOM     34  C   UNL     1      -0.179  -0.977   6.135  1.00  0.00     0.039 A 
ATOM     35  C   UNL     1      -0.502  -2.170   6.784  1.00  0.00     0.014 A 
ATOM     36  C   UNL     1       0.923  -0.226   6.544  1.00  0.00     0.014 A 
ATOM     37  C   UNL     1       0.332  -2.645   7.796  1.00  0.00     0.010 A 
ATOM     38  C   UNL     1       1.818  -0.763   7.457  1.00  0.00     0.010 A 
ATOM     39  C   UNL     1       1.524  -1.969   8.108  1.00  0.00    -0.014 A 
BRANCH  39  40
ATOM     40  C   UNL     1       2.466  -2.489   9.129  1.00  0.00     0.031 A 
ATOM     41  C   UNL     1       2.797  -1.657  10.338  1.00  0.00     0.074 A 
ATOM     42  C   UNL     1       3.073  -3.676   8.934  1.00  0.00     0.049 A 
ATOM     43  N   UNL     1       3.623  -1.914  11.320  1.00  0.00    -0.248 NA
ATOM     44  C   UNL     1       2.145  -0.340  10.437  1.00  0.00     0.031 C 
ATOM     45  C   UNL     1       2.888  -4.545   7.770  1.00  0.00     0.029 A 
ATOM     46  N   UNL     1       3.970  -4.359   9.716  1.00  0.00    -0.354 N 
ATOM     47  C   UNL     1       3.607  -0.786  12.131  1.00  0.00     0.074 A 
ATOM     48  C   UNL     1       2.750   0.185  11.490  1.00  0.00     0.031 C 
ATOM     49  C   UNL     1       3.603  -5.668   7.940  1.00  0.00     0.029 A 
ATOM     50  C   UNL     1       4.329  -5.582   9.202  1.00  0.00     0.049 A 
ATOM     51  H   UNL     1       4.323  -4.006  10.565  1.00  0.00     0.167 HD
ATOM     52  C   UNL     1       4.224  -0.586  13.319  1.00  0.00     0.037 A 
ATOM     53  C   UNL     1       5.145  -6.528   9.701  1.00  0.00     0.037 A 
ATOM     54  C   UNL     1       5.044  -1.573  13.969  1.00  0.00     0.049 A 
ATOM     55  C   UNL     1       5.811  -6.290  11.028  1.00  0.00     0.074 A 
ATOM     56  C   UNL     1       5.647  -1.510  15.212  1.00  0.00     0.029 A 
ATOM     57  N   UNL     1       5.379  -2.803  13.421  1.00  0.00    -0.354 N 
ATOM     58  N   UNL     1       5.716  -5.256  11.829  1.00  0.00    -0.248 NA
ATOM     59  C   UNL     1       6.695  -7.354  11.521  1.00  0.00     0.031 C 
ATOM     60  C   UNL     1       6.394  -2.680  15.392  1.00  0.00     0.029 A 
ATOM     61  C   UNL     1       6.207  -3.496  14.287  1.00  0.00     0.049 A 
ATOM     62  H   UNL     1       5.073  -3.133  12.546  1.00  0.00     0.167 HD
ATOM     63  C   UNL     1       6.501  -5.557  12.935  1.00  0.00     0.074 A 
ATOM     64  C   UNL     1       7.051  -6.878  12.706  1.00  0.00     0.031 C 
ATOM     65  C   UNL     1       6.745  -4.811  14.041  1.00  0.00     0.037 A 
BRANCH  52  66
ATOM     66  C   UNL     1       4.032   0.750  13.981  1.00  0.00     0.057 A 
ATOM     67  C   UNL     1       2.788   1.164  14.479  1.00  0.00     0.134 A 
ATOM     68  C   UNL     1       5.106   1.638  14.118  1.00  0.00     0.134 A 
ATOM     69  F   UNL     1       1.712   0.370  14.369  1.00  0.00    -0.206 F 
ATOM     70  C   UNL     1       2.611   2.426  15.049  1.00  0.00     0.040 A 
ATOM     71  C   UNL     1       4.949   2.889  14.717  1.00  0.00     0.040 A 
ATOM     72  F   UNL     1       6.326   1.307  13.669  1.00  0.00    -0.206 F 
ATOM     73  C   UNL     1       3.695   3.291  15.174  1.00  0.00     0.006 A 
ENDBRANCH  52  66
BRANCH  53  74
ATOM     74  C   UNL     1       5.333  -7.810   8.975  1.00  0.00     0.057 A 
ATOM     75  C   UNL     1       4.810  -9.005   9.485  1.00  0.00     0.134 A 
ATOM     76  C   UNL     1       6.033  -7.879   7.765  1.00  0.00     0.134 A 
ATOM     77  F   UNL     1       4.143  -9.007  10.649  1.00  0.00    -0.206 F 
ATOM     78  C   UNL     1       4.992 -10.224   8.829  1.00  0.00     0.040 A 
ATOM     79  C   UNL     1       6.201  -9.087   7.085  1.00  0.00     0.040 A 
ATOM     80  F   UNL     1       6.551  -6.769   7.218  1.00  0.00    -0.206 F 
ATOM     81  C   UNL     1       5.685 -10.265   7.622  1.00  0.00     0.006 A 
ENDBRANCH  53  74
BRANCH  65  82
ATOM     82  C   UNL     1       7.616  -5.424  15.098  1.00  0.00     0.057 A 
ATOM     83  C   UNL     1       8.990  -5.617  14.908  1.00  0.00     0.134 A 
ATOM     84  C   UNL     1       7.075  -5.804  16.334  1.00  0.00     0.134 A 
ATOM     85  F   UNL     1       9.569  -5.287  13.743  1.00  0.00    -0.206 F 
ATOM     86  C   UNL     1       9.788  -6.198  15.895  1.00  0.00     0.040 A 
ATOM     87  C   UNL     1       7.868  -6.355  17.340  1.00  0.00     0.040 A 
ATOM     88  F   UNL     1       5.768  -5.635  16.586  1.00  0.00    -0.206 F 
ATOM     89  C   UNL     1       9.227  -6.563  17.118  1.00  0.00     0.006 A 
ENDBRANCH  65  82
ENDBRANCH  39  40
ENDBRANCH  31  34
ENDBRANCH  29  30
ENDBRANCH  28  29
ENDBRANCH   1  28
TORSDOF 15
