REMARK SMILES Cc1c(CC(=O)NCCCCNC(=O)c2ccc(-c3c4nc(c(-c5c(F)cccc5F)c5ccc([nH]5)c(-c5c(F)cccc5F)c5nc(c(-c6c(F)cccc6F)c6ccc3[nH]6)C=C5)C=C4)cc2)cc(-c2ccc(S(C)(=O)=O)cc2)n1-c1ccccc1
REMARK SMILES IDX 9 1 8 2 7 3 5 4 6 5 4 7 3 8 1 9 2 10 81 11 69 12 70 13 82 14
REMARK SMILES IDX 83 15 87 16 84 17 86 18 85 19 71 20 72 21 80 22 73 23 79 24
REMARK SMILES IDX 74 25 75 26 76 27 77 28 78 29 10 30 11 31 12 32 13 33 14 35
REMARK SMILES IDX 15 36 16 37 68 38 17 39 67 40 18 41 19 42 20 43 61 44 21 45
REMARK SMILES IDX 66 46 60 47 62 48 22 49 65 50 59 51 58 52 23 54 49 55 32 56
REMARK SMILES IDX 48 57 33 58 36 59 47 60 63 61 34 62 35 63 46 65 64 66 37 67
REMARK SMILES IDX 24 68 25 69 30 70 26 71 27 72 29 73 31 74 28 75 50 76 51 77
REMARK SMILES IDX 56 78 52 79 53 80 55 81 57 82 54 83 38 84 39 85 44 86 40 87
REMARK SMILES IDX 41 88 43 89 45 90 42 91
REMARK H PARENT 7 6 12 34 62 53 36 64
REMARK Flexibility Score: inf
ROOT
ATOM      1  C   UNL     1       4.195  -2.641  -2.779  1.00  0.00     0.023 C 
ENDROOT
BRANCH   1   2
ATOM      2  C   UNL     1       3.887  -3.464  -1.528  1.00  0.00     0.116 C 
BRANCH   2   3
ATOM      3  N   UNL     1       3.961  -2.676  -0.310  1.00  0.00    -0.356 N 
ATOM      4  C   UNL     1       3.015  -2.429   0.638  1.00  0.00     0.224 C 
ATOM      5  O   UNL     1       3.350  -1.766   1.623  1.00  0.00    -0.275 OA
ATOM      6  H   UNL     1       4.835  -2.255  -0.143  1.00  0.00     0.163 HD
BRANCH   4   7
ATOM      7  C   UNL     1       1.612  -2.985   0.496  1.00  0.00     0.137 C 
BRANCH   7   8
ATOM      8  C   UNL     1       0.852  -2.381  -0.645  1.00  0.00    -0.017 A 
ATOM      9  C   UNL     1       0.996   0.128  -0.036  1.00  0.00     0.065 C 
ATOM     10  C   UNL     1       0.615  -1.034  -0.897  1.00  0.00     0.024 A 
ATOM     11  N   UNL     1      -0.129  -0.934  -2.070  1.00  0.00    -0.314 N 
ATOM     12  C   UNL     1       0.211  -3.111  -1.676  1.00  0.00     0.033 A 
ATOM     13  C   UNL     1      -0.338  -2.219  -2.575  1.00  0.00     0.053 A 
BRANCH  11  14
ATOM     14  C   UNL     1      -0.630   0.263  -2.649  1.00  0.00     0.046 A 
ATOM     15  C   UNL     1      -1.984   0.338  -3.000  1.00  0.00     0.026 A 
ATOM     16  C   UNL     1       0.227   1.340  -2.895  1.00  0.00     0.026 A 
ATOM     17  C   UNL     1      -2.481   1.498  -3.591  1.00  0.00     0.002 A 
ATOM     18  C   UNL     1      -0.276   2.490  -3.504  1.00  0.00     0.002 A 
ATOM     19  C   UNL     1      -1.627   2.570  -3.848  1.00  0.00     0.000 A 
ENDBRANCH  11  14
BRANCH  13  20
ATOM     20  C   UNL     1      -0.939  -2.535  -3.876  1.00  0.00    -0.001 A 
ATOM     21  C   UNL     1      -0.427  -1.977  -5.058  1.00  0.00     0.011 A 
ATOM     22  C   UNL     1      -2.010  -3.435  -3.954  1.00  0.00     0.011 A 
ATOM     23  C   UNL     1      -0.992  -2.288  -6.296  1.00  0.00     0.021 A 
ATOM     24  C   UNL     1      -2.584  -3.749  -5.189  1.00  0.00     0.021 A 
ATOM     25  C   UNL     1      -2.078  -3.165  -6.351  1.00  0.00     0.067 A 
BRANCH  25  26
ATOM     26  S   UNL     1      -2.772  -3.574  -7.935  1.00  0.00     0.175 S 
ATOM     27  C   UNL     1      -3.472  -2.049  -8.511  1.00  0.00     0.163 C 
ATOM     28  O   UNL     1      -1.682  -3.937  -8.798  1.00  0.00    -0.224 OA
ATOM     29  O   UNL     1      -3.885  -4.495  -7.698  1.00  0.00    -0.224 OA
ENDBRANCH  25  26
ENDBRANCH  13  20
ENDBRANCH   7   8
ENDBRANCH   4   7
ENDBRANCH   2   3
ENDBRANCH   1   2
BRANCH   1  30
ATOM     30  C   UNL     1       5.515  -1.842  -2.779  1.00  0.00     0.023 C 
BRANCH  30  31
ATOM     31  C   UNL     1       6.742  -2.421  -2.048  1.00  0.00     0.116 C 
BRANCH  31  32
ATOM     32  N   UNL     1       7.620  -3.244  -2.845  1.00  0.00    -0.352 N 
ATOM     33  C   UNL     1       8.898  -3.663  -2.508  1.00  0.00     0.251 C 
ATOM     34  H   UNL     1       7.275  -3.539  -3.719  1.00  0.00     0.163 HD
ATOM     35  O   UNL     1       9.517  -4.361  -3.310  1.00  0.00    -0.269 OA
BRANCH  33  36
ATOM     36  C   UNL     1       9.576  -3.208  -1.236  1.00  0.00     0.039 A 
ATOM     37  C   UNL     1      10.380  -2.084  -1.293  1.00  0.00     0.014 A 
ATOM     38  C   UNL     1       9.632  -3.954  -0.043  1.00  0.00     0.014 A 
ATOM     39  C   UNL     1      11.175  -1.702  -0.172  1.00  0.00     0.010 A 
ATOM     40  C   UNL     1      10.520  -3.607   1.067  1.00  0.00     0.010 A 
ATOM     41  C   UNL     1      11.353  -2.471   1.039  1.00  0.00    -0.014 A 
BRANCH  41  42
ATOM     42  C   UNL     1      12.753  -2.237   1.833  1.00  0.00     0.031 A 
ATOM     43  C   UNL     1      13.730  -2.131   0.708  1.00  0.00     0.074 A 
ATOM     44  C   UNL     1      13.360  -2.190   3.094  1.00  0.00     0.049 A 
ATOM     45  N   UNL     1      13.814  -3.091  -0.172  1.00  0.00    -0.248 NA
ATOM     46  C   UNL     1      14.291  -0.850   0.273  1.00  0.00     0.031 C 
ATOM     47  C   UNL     1      12.748  -2.404   4.416  1.00  0.00     0.029 A 
ATOM     48  N   UNL     1      14.715  -1.926   3.505  1.00  0.00    -0.354 N 
ATOM     49  C   UNL     1      14.679  -2.648  -1.138  1.00  0.00     0.074 A 
ATOM     50  C   UNL     1      14.739  -1.206  -0.937  1.00  0.00     0.031 C 
ATOM     51  C   UNL     1      13.628  -2.159   5.435  1.00  0.00     0.029 A 
ATOM     52  C   UNL     1      14.959  -1.819   4.928  1.00  0.00     0.049 A 
ATOM     53  H   UNL     1      15.441  -1.824   2.849  1.00  0.00     0.167 HD
ATOM     54  C   UNL     1      15.691  -3.504  -1.460  1.00  0.00     0.037 A 
ATOM     55  C   UNL     1      16.127  -1.573   5.657  1.00  0.00     0.037 A 
ATOM     56  C   UNL     1      16.931  -3.123  -0.841  1.00  0.00     0.049 A 
ATOM     57  C   UNL     1      17.267  -1.905   4.795  1.00  0.00     0.074 A 
ATOM     58  C   UNL     1      17.547  -1.903  -0.644  1.00  0.00     0.029 A 
ATOM     59  N   UNL     1      17.434  -3.977   0.119  1.00  0.00    -0.354 N 
ATOM     60  N   UNL     1      17.648  -3.133   4.626  1.00  0.00    -0.248 NA
ATOM     61  C   UNL     1      18.130  -0.894   4.191  1.00  0.00     0.031 C 
ATOM     62  C   UNL     1      17.879  -1.912   0.728  1.00  0.00     0.029 A 
ATOM     63  C   UNL     1      17.851  -3.223   1.190  1.00  0.00     0.049 A 
ATOM     64  H   UNL     1      17.486  -4.957   0.050  1.00  0.00     0.167 HD
ATOM     65  C   UNL     1      18.388  -3.058   3.495  1.00  0.00     0.074 A 
ATOM     66  C   UNL     1      18.900  -1.702   3.457  1.00  0.00     0.031 C 
ATOM     67  C   UNL     1      17.968  -3.848   2.478  1.00  0.00     0.037 A 
BRANCH  54  68
ATOM     68  C   UNL     1      15.249  -4.928  -1.630  1.00  0.00     0.057 A 
ATOM     69  C   UNL     1      15.225  -5.487  -2.907  1.00  0.00     0.134 A 
ATOM     70  C   UNL     1      14.733  -5.711  -0.578  1.00  0.00     0.134 A 
ATOM     71  F   UNL     1      15.759  -4.827  -3.946  1.00  0.00    -0.206 F 
ATOM     72  C   UNL     1      14.647  -6.738  -3.141  1.00  0.00     0.040 A 
ATOM     73  C   UNL     1      14.100  -6.929  -0.807  1.00  0.00     0.040 A 
ATOM     74  F   UNL     1      14.838  -5.308   0.699  1.00  0.00    -0.206 F 
ATOM     75  C   UNL     1      14.047  -7.443  -2.097  1.00  0.00     0.006 A 
ENDBRANCH  54  68
BRANCH  55  76
ATOM     76  C   UNL     1      16.710  -1.257   7.064  1.00  0.00     0.057 A 
ATOM     77  C   UNL     1      17.943  -1.850   7.507  1.00  0.00     0.134 A 
ATOM     78  C   UNL     1      16.401  -0.075   7.748  1.00  0.00     0.134 A 
ATOM     79  F   UNL     1      18.379  -3.014   7.004  1.00  0.00    -0.206 F 
ATOM     80  C   UNL     1      18.834  -1.258   8.426  1.00  0.00     0.040 A 
ATOM     81  C   UNL     1      17.269   0.504   8.717  1.00  0.00     0.040 A 
ATOM     82  F   UNL     1      15.297   0.614   7.432  1.00  0.00    -0.206 F 
ATOM     83  C   UNL     1      18.505  -0.061   9.028  1.00  0.00     0.006 A 
ENDBRANCH  55  76
BRANCH  67  84
ATOM     84  C   UNL     1      17.467  -5.230   2.867  1.00  0.00     0.057 A 
ATOM     85  C   UNL     1      16.459  -5.525   3.815  1.00  0.00     0.134 A 
ATOM     86  C   UNL     1      18.142  -6.338   2.349  1.00  0.00     0.134 A 
ATOM     87  F   UNL     1      15.655  -4.580   4.317  1.00  0.00    -0.206 F 
ATOM     88  C   UNL     1      16.229  -6.821   4.295  1.00  0.00     0.040 A 
ATOM     89  C   UNL     1      17.886  -7.646   2.781  1.00  0.00     0.040 A 
ATOM     90  F   UNL     1      19.076  -6.168   1.401  1.00  0.00    -0.206 F 
ATOM     91  C   UNL     1      16.951  -7.888   3.782  1.00  0.00     0.006 A 
ENDBRANCH  67  84
ENDBRANCH  41  42
ENDBRANCH  33  36
ENDBRANCH  31  32
ENDBRANCH  30  31
ENDBRANCH   1  30
TORSDOF 15
