REMARK SMILES O=C(NCCCCNC(=O)[C@H]1[C@H]2CC[C@H](CC2)[C@@H]1C(=O)Nc1ccc(Cc2ccncc2)cc1)c1ccc(-c2c3nc(c(-c4c(F)cccc4F)c4ccc([nH]4)c(-c4c(F)cccc4F)c4nc(c(-c5c(F)cccc5F)c5ccc2[nH]5)C=C4)C=C3)cc1
REMARK SMILES IDX 6 1 5 2 4 3 3 4 1 5 2 6 35 8 36 9 88 10 37 11 87 12 38 13
REMARK SMILES IDX 39 14 40 15 81 16 41 17 86 18 80 19 82 20 42 21 85 22 79 23
REMARK SMILES IDX 78 24 43 26 69 27 52 28 68 29 53 30 56 31 67 32 83 33 54 34
REMARK SMILES IDX 55 35 66 37 84 38 57 39 44 40 45 41 50 42 46 43 47 44 49 45
REMARK SMILES IDX 51 46 48 47 70 48 71 49 76 50 72 51 73 52 75 53 77 54 74 55
REMARK SMILES IDX 58 56 59 57 64 58 60 59 61 60 63 61 65 62 62 63 7 64 8 65
REMARK SMILES IDX 9 66 10 68 11 69 12 70 18 71 13 72 17 73 15 74 14 75 16 76
REMARK SMILES IDX 19 77 20 78 21 79 22 81 23 82 34 83 24 84 33 85 25 86 26 87
REMARK SMILES IDX 27 88 28 89 32 90 29 91 31 92 30 93
REMARK H PARENT 3 7 82 25 56 36 8 67 21 80
REMARK Flexibility Score: inf
ROOT
ATOM      1  C   UNL     1       3.627  -2.272   3.072  1.00  0.00     0.023 C 
ENDROOT
BRANCH   1   2
ATOM      2  C   UNL     1       3.035  -1.077   2.322  1.00  0.00     0.023 C 
BRANCH   2   3
ATOM      3  C   UNL     1       2.639  -1.506   0.915  1.00  0.00     0.116 C 
BRANCH   3   4
ATOM      4  N   UNL     1       1.384  -1.071   0.432  1.00  0.00    -0.352 N 
ATOM      5  O   UNL     1      -0.075   0.302  -0.549  1.00  0.00    -0.269 OA
ATOM      6  C   UNL     1       1.094   0.040  -0.291  1.00  0.00     0.251 C 
ATOM      7  H   UNL     1       0.618  -1.651   0.650  1.00  0.00     0.163 HD
BRANCH   6   8
ATOM      8  C   UNL     1       2.169   0.963  -0.663  1.00  0.00     0.039 A 
ATOM      9  C   UNL     1       3.842   0.494  -1.061  1.00  0.00     0.014 A 
ATOM     10  C   UNL     1       1.765   2.630  -0.635  1.00  0.00     0.014 A 
ATOM     11  C   UNL     1       5.181   1.954  -1.434  1.00  0.00     0.010 A 
ATOM     12  C   UNL     1       2.889   3.897  -0.978  1.00  0.00     0.010 A 
ATOM     13  C   UNL     1       4.565   3.634  -1.377  1.00  0.00    -0.014 A 
BRANCH  13  14
ATOM     14  C   UNL     1       5.274   4.830  -1.825  1.00  0.00     0.031 A 
ATOM     15  C   UNL     1       5.747   5.810  -0.815  1.00  0.00     0.074 A 
ATOM     16  C   UNL     1       5.244   5.118  -3.136  1.00  0.00     0.049 A 
ATOM     17  N   UNL     1       6.314   6.970  -0.997  1.00  0.00    -0.248 NA
ATOM     18  C   UNL     1       5.526   5.454   0.596  1.00  0.00     0.031 C 
ATOM     19  C   UNL     1       4.628   4.280  -4.162  1.00  0.00     0.029 A 
ATOM     20  N   UNL     1       5.696   6.206  -3.830  1.00  0.00    -0.354 N 
ATOM     21  C   UNL     1       6.551   7.468   0.273  1.00  0.00     0.074 A 
ATOM     22  C   UNL     1       6.006   6.519   1.218  1.00  0.00     0.031 C 
ATOM     23  C   UNL     1       4.787   4.850  -5.363  1.00  0.00     0.029 A 
ATOM     24  C   UNL     1       5.448   6.133  -5.180  1.00  0.00     0.049 A 
ATOM     25  H   UNL     1       6.155   6.967  -3.405  1.00  0.00     0.167 HD
ATOM     26  C   UNL     1       7.187   8.614   0.604  1.00  0.00     0.037 A 
ATOM     27  C   UNL     1       5.703   7.025  -6.152  1.00  0.00     0.037 A 
ATOM     28  C   UNL     1       7.631   9.570  -0.375  1.00  0.00     0.049 A 
ATOM     29  C   UNL     1       6.364   8.313  -5.758  1.00  0.00     0.074 A 
ATOM     30  C   UNL     1       8.307  10.758  -0.178  1.00  0.00     0.029 A 
ATOM     31  N   UNL     1       7.396   9.461  -1.742  1.00  0.00    -0.354 N 
ATOM     32  N   UNL     1       6.707   8.731  -4.562  1.00  0.00    -0.248 NA
ATOM     33  C   UNL     1       6.681   9.251  -6.839  1.00  0.00     0.031 C 
ATOM     34  C   UNL     1       8.407  11.406  -1.413  1.00  0.00     0.029 A 
ATOM     35  C   UNL     1       7.885  10.577  -2.397  1.00  0.00     0.049 A 
ATOM     36  H   UNL     1       6.948   8.701  -2.179  1.00  0.00     0.167 HD
ATOM     37  C   UNL     1       7.316   9.962  -4.747  1.00  0.00     0.074 A 
ATOM     38  C   UNL     1       7.297  10.219  -6.175  1.00  0.00     0.031 C 
ATOM     39  C   UNL     1       7.852  10.799  -3.824  1.00  0.00     0.037 A 
BRANCH  26  40
ATOM     40  C   UNL     1       7.387   8.886   2.065  1.00  0.00     0.057 A 
ATOM     41  C   UNL     1       8.187   8.059   2.870  1.00  0.00     0.134 A 
ATOM     42  C   UNL     1       6.756   9.970   2.687  1.00  0.00     0.134 A 
ATOM     43  F   UNL     1       8.811   6.994   2.344  1.00  0.00    -0.206 F 
ATOM     44  C   UNL     1       8.310   8.272   4.244  1.00  0.00     0.040 A 
ATOM     45  C   UNL     1       6.903  10.214   4.053  1.00  0.00     0.040 A 
ATOM     46  F   UNL     1       5.978  10.804   1.982  1.00  0.00    -0.206 F 
ATOM     47  C   UNL     1       7.669   9.356   4.838  1.00  0.00     0.006 A 
ENDBRANCH  26  40
BRANCH  27  48
ATOM     48  C   UNL     1       5.361   6.712  -7.561  1.00  0.00     0.057 A 
ATOM     49  C   UNL     1       6.361   6.492  -8.515  1.00  0.00     0.134 A 
ATOM     50  C   UNL     1       4.031   6.595  -7.987  1.00  0.00     0.134 A 
ATOM     51  F   UNL     1       7.654   6.589  -8.171  1.00  0.00    -0.206 F 
ATOM     52  C   UNL     1       6.055   6.195  -9.844  1.00  0.00     0.040 A 
ATOM     53  C   UNL     1       3.710   6.267  -9.306  1.00  0.00     0.040 A 
ATOM     54  F   UNL     1       3.023   6.771  -7.120  1.00  0.00    -0.206 F 
ATOM     55  C   UNL     1       4.725   6.076 -10.241  1.00  0.00     0.006 A 
ENDBRANCH  27  48
BRANCH  39  56
ATOM     56  C   UNL     1       8.522  12.039  -4.336  1.00  0.00     0.057 A 
ATOM     57  C   UNL     1       7.808  13.099  -4.907  1.00  0.00     0.134 A 
ATOM     58  C   UNL     1       9.908  12.193  -4.193  1.00  0.00     0.134 A 
ATOM     59  F   UNL     1       6.480  13.010  -5.082  1.00  0.00    -0.206 F 
ATOM     60  C   UNL     1       8.451  14.258  -5.339  1.00  0.00     0.040 A 
ATOM     61  C   UNL     1      10.556  13.364  -4.582  1.00  0.00     0.040 A 
ATOM     62  F   UNL     1      10.650  11.219  -3.644  1.00  0.00    -0.206 F 
ATOM     63  C   UNL     1       9.828  14.397  -5.165  1.00  0.00     0.006 A 
ENDBRANCH  39  56
ENDBRANCH  13  14
ENDBRANCH   6   8
ENDBRANCH   3   4
ENDBRANCH   2   3
ENDBRANCH   1   2
BRANCH   1  64
ATOM     64  C   UNL     1       4.703  -3.078   2.007  1.00  0.00     0.116 C 
BRANCH  64  65
ATOM     65  N   UNL     1       6.559  -3.997   2.207  1.00  0.00    -0.356 N 
ATOM     66  C   UNL     1       7.328  -5.207   2.424  1.00  0.00     0.224 C 
ATOM     67  H   UNL     1       7.222  -3.276   2.109  1.00  0.00     0.163 HD
ATOM     68  O   UNL     1       8.557  -5.067   2.376  1.00  0.00    -0.275 OA
BRANCH  66  69
ATOM     69  C   UNL     1       6.727  -6.614   2.787  1.00  0.00     0.094 C 
ATOM     70  C   UNL     1       7.143  -7.844   1.964  1.00  0.00     0.002 C 
ATOM     71  C   UNL     1       6.746  -6.852   4.296  1.00  0.00     0.094 C 
ATOM     72  C   UNL     1       8.494  -8.379   2.406  1.00  0.00     0.005 C 
ATOM     73  C   UNL     1       6.077  -8.939   2.273  1.00  0.00     0.005 C 
ATOM     74  C   UNL     1       7.087  -8.350   4.523  1.00  0.00     0.002 C 
ATOM     75  C   UNL     1       8.484  -8.625   3.920  1.00  0.00     0.005 C 
ATOM     76  C   UNL     1       6.058  -9.237   3.783  1.00  0.00     0.005 C 
BRANCH  71  77
ATOM     77  C   UNL     1       5.385  -6.474   4.916  1.00  0.00     0.228 C 
ATOM     78  O   UNL     1       5.022  -6.925   6.005  1.00  0.00    -0.274 OA
ATOM     79  N   UNL     1       4.562  -5.567   4.277  1.00  0.00    -0.326 N 
ATOM     80  H   UNL     1       3.613  -5.541   4.536  1.00  0.00     0.169 HD
BRANCH  79  81
ATOM     81  C   UNL     1       4.998  -4.678   3.278  1.00  0.00     0.041 A 
ATOM     82  C   UNL     1       5.769  -3.139   3.855  1.00  0.00     0.026 A 
ATOM     83  C   UNL     1       5.014  -5.076   1.463  1.00  0.00     0.026 A 
ATOM     84  C   UNL     1       6.407  -1.941   2.651  1.00  0.00     0.006 A 
ATOM     85  C   UNL     1       5.766  -3.887   0.303  1.00  0.00     0.006 A 
ATOM     86  C   UNL     1       6.445  -2.304   0.879  1.00  0.00    -0.043 A 
BRANCH  86  87
ATOM     87  C   UNL     1       6.954  -1.233  -0.134  1.00  0.00     0.071 C 
BRANCH  87  88
ATOM     88  C   UNL     1       5.994  -0.118  -0.664  1.00  0.00    -0.041 A 
ATOM     89  C   UNL     1       5.275   0.954   0.525  1.00  0.00     0.024 A 
ATOM     90  C   UNL     1       5.548  -0.076  -2.398  1.00  0.00     0.024 A 
ATOM     91  C   UNL     1       3.977   2.035   0.021  1.00  0.00     0.111 A 
ATOM     92  C   UNL     1       4.269   0.971  -3.012  1.00  0.00     0.111 A 
ATOM     93  N   UNL     1       3.421   2.044  -1.860  1.00  0.00    -0.265 NA
ENDBRANCH  87  88
ENDBRANCH  86  87
ENDBRANCH  79  81
ENDBRANCH  71  77
ENDBRANCH  66  69
ENDBRANCH  64  65
ENDBRANCH   1  64
TORSDOF 15
