REMARK SMILES C[NH2+]C[C@H](C)C(=O)Nc1snc(C)c1C(=O)NCCCCNC(=O)c1ccc(-c2c3nc(c(-c4c(F)cccc4F)c4ccc([nH]4)c(-c4c(F)cccc4F)c4nc(c(-c5c(F)cccc5F)c5ccc2[nH]5)C=C4)C=C3)cc1
REMARK SMILES IDX 18 1 17 2 15 3 16 4 14 6 9 7 10 8 11 9 12 10 13 11 8 12 6 13
REMARK SMILES IDX 7 14 4 16 5 17 3 18 2 19 1 20 19 23 20 24 21 25 22 26 23 27
REMARK SMILES IDX 24 29 25 30 26 31 78 32 27 33 77 34 28 35 29 36 30 37 71 38
REMARK SMILES IDX 31 39 76 40 70 41 72 42 32 43 75 44 69 45 68 46 33 48 59 49
REMARK SMILES IDX 42 50 58 51 43 52 46 53 57 54 73 55 44 56 45 57 56 59 74 60
REMARK SMILES IDX 47 61 34 62 35 63 40 64 36 65 37 66 39 67 41 68 38 69 60 70
REMARK SMILES IDX 61 71 66 72 62 73 63 74 65 75 67 76 64 77 48 78 49 79 54 80
REMARK SMILES IDX 50 81 51 82 53 83 55 84 52 85
REMARK H PARENT 17 5 8 15 2 21 2 22 22 28 72 47 46 58
REMARK Flexibility Score: inf
ROOT
ATOM      1  C   UNL     1      -3.867  -1.330  -1.219  1.00  0.00     0.116 C 
ENDROOT
BRANCH   1   2
ATOM      2  N   UNL     1      -2.715  -1.987  -1.800  1.00  0.00    -0.352 N 
ATOM      3  C   UNL     1      -1.836  -1.588  -2.792  1.00  0.00     0.256 C 
ATOM      4  O   UNL     1      -0.900  -2.362  -3.002  1.00  0.00    -0.269 OA
ATOM      5  H   UNL     1      -2.523  -2.876  -1.423  1.00  0.00     0.163 HD
BRANCH   3   6
ATOM      6  C   UNL     1      -2.002  -0.372  -3.607  1.00  0.00     0.097 A 
ATOM      7  C   UNL     1      -2.680   0.806  -3.340  1.00  0.00     0.129 A 
ATOM      8  S   UNL     1      -2.967   1.646  -4.797  1.00  0.00    -0.017 S 
ATOM      9  N   UNL     1      -1.856   0.810  -5.674  1.00  0.00    -0.195 NA
ATOM     10  C   UNL     1      -1.385  -0.194  -4.928  1.00  0.00     0.066 A 
ATOM     11  C   UNL     1      -0.302  -1.013  -5.552  1.00  0.00     0.069 C 
BRANCH   7  12
ATOM     12  N   UNL     1      -3.236   1.424  -2.257  1.00  0.00    -0.315 N 
ATOM     13  C   UNL     1      -2.709   1.620  -1.020  1.00  0.00     0.233 C 
ATOM     14  O   UNL     1      -3.515   1.835  -0.105  1.00  0.00    -0.274 OA
ATOM     15  H   UNL     1      -4.146   1.776  -2.391  1.00  0.00     0.170 HD
BRANCH  13  16
ATOM     16  C   UNL     1      -1.212   1.774  -0.751  1.00  0.00     0.130 C 
ATOM     17  C   UNL     1      -0.329   0.552  -0.946  1.00  0.00     0.024 C 
BRANCH  16  18
ATOM     18  C   UNL     1      -0.646   3.001  -1.488  1.00  0.00     0.273 C 
BRANCH  18  19
ATOM     19  N   UNL     1      -1.429   4.238  -1.397  1.00  0.00    -0.348 N 
ATOM     20  C   UNL     1      -1.640   4.697  -0.029  1.00  0.00     0.330 C 
ATOM     21  H   UNL     1      -0.937   4.970  -1.910  1.00  0.00     0.346 HD
ATOM     22  H   UNL     1      -2.349   4.039  -1.790  1.00  0.00     0.346 HD
ENDBRANCH  18  19
ENDBRANCH  16  18
ENDBRANCH  13  16
ENDBRANCH   7  12
ENDBRANCH   3   6
ENDBRANCH   1   2
BRANCH   1  23
ATOM     23  C   UNL     1      -4.825  -2.204  -0.404  1.00  0.00     0.023 C 
BRANCH  23  24
ATOM     24  C   UNL     1      -4.321  -2.713   0.956  1.00  0.00     0.023 C 
BRANCH  24  25
ATOM     25  C   UNL     1      -3.899  -1.640   1.957  1.00  0.00     0.116 C 
BRANCH  25  26
ATOM     26  N   UNL     1      -4.983  -0.801   2.464  1.00  0.00    -0.352 N 
ATOM     27  C   UNL     1      -4.942   0.091   3.532  1.00  0.00     0.251 C 
ATOM     28  H   UNL     1      -5.845  -0.876   1.994  1.00  0.00     0.163 HD
ATOM     29  O   UNL     1      -5.961   0.527   4.031  1.00  0.00    -0.269 OA
BRANCH  27  30
ATOM     30  C   UNL     1      -3.620   0.493   4.066  1.00  0.00     0.039 A 
ATOM     31  C   UNL     1      -3.383   0.608   5.439  1.00  0.00     0.014 A 
ATOM     32  C   UNL     1      -2.595   0.728   3.157  1.00  0.00     0.014 A 
ATOM     33  C   UNL     1      -2.084   0.871   5.883  1.00  0.00     0.010 A 
ATOM     34  C   UNL     1      -1.298   0.822   3.593  1.00  0.00     0.010 A 
ATOM     35  C   UNL     1      -1.037   0.956   4.952  1.00  0.00    -0.014 A 
BRANCH  35  36
ATOM     36  C   UNL     1       0.352   1.105   5.381  1.00  0.00     0.031 A 
ATOM     37  C   UNL     1       0.849   0.075   6.340  1.00  0.00     0.074 A 
ATOM     38  C   UNL     1       1.220   1.947   4.775  1.00  0.00     0.049 A 
ATOM     39  N   UNL     1       1.291   0.250   7.542  1.00  0.00    -0.248 NA
ATOM     40  C   UNL     1       0.770  -1.338   5.936  1.00  0.00     0.031 C 
ATOM     41  C   UNL     1       1.003   2.790   3.591  1.00  0.00     0.029 A 
ATOM     42  N   UNL     1       2.543   2.134   5.030  1.00  0.00    -0.354 N 
ATOM     43  C   UNL     1       1.720  -1.001   7.985  1.00  0.00     0.074 A 
ATOM     44  C   UNL     1       1.236  -1.956   7.023  1.00  0.00     0.031 C 
ATOM     45  C   UNL     1       2.193   3.194   3.098  1.00  0.00     0.029 A 
ATOM     46  C   UNL     1       3.235   2.799   4.026  1.00  0.00     0.049 A 
ATOM     47  H   UNL     1       2.975   1.823   5.859  1.00  0.00     0.167 HD
ATOM     48  C   UNL     1       2.630  -1.127   8.993  1.00  0.00     0.037 A 
ATOM     49  C   UNL     1       4.574   2.991   3.952  1.00  0.00     0.037 A 
ATOM     50  C   UNL     1       2.742   0.092   9.754  1.00  0.00     0.049 A 
ATOM     51  C   UNL     1       5.127   2.785   5.312  1.00  0.00     0.074 A 
ATOM     52  C   UNL     1       1.861   0.878  10.472  1.00  0.00     0.029 A 
ATOM     53  N   UNL     1       3.849   0.880   9.554  1.00  0.00    -0.354 N 
ATOM     54  N   UNL     1       4.916   3.589   6.315  1.00  0.00    -0.248 NA
ATOM     55  C   UNL     1       5.569   1.446   5.666  1.00  0.00     0.031 C 
ATOM     56  C   UNL     1       2.264   2.221  10.201  1.00  0.00     0.029 A 
ATOM     57  C   UNL     1       3.397   2.163   9.390  1.00  0.00     0.049 A 
ATOM     58  H   UNL     1       4.787   0.580   9.532  1.00  0.00     0.167 HD
ATOM     59  C   UNL     1       4.770   2.752   7.410  1.00  0.00     0.074 A 
ATOM     60  C   UNL     1       5.285   1.457   6.970  1.00  0.00     0.031 C 
ATOM     61  C   UNL     1       3.986   3.107   8.470  1.00  0.00     0.037 A 
BRANCH  48  62
ATOM     62  C   UNL     1       3.679  -2.215   9.072  1.00  0.00     0.057 A 
ATOM     63  C   UNL     1       4.484  -2.313  10.223  1.00  0.00     0.134 A 
ATOM     64  C   UNL     1       4.129  -2.966   7.967  1.00  0.00     0.134 A 
ATOM     65  F   UNL     1       4.173  -1.641  11.342  1.00  0.00    -0.206 F 
ATOM     66  C   UNL     1       5.688  -3.031  10.243  1.00  0.00     0.040 A 
ATOM     67  C   UNL     1       5.301  -3.728   7.993  1.00  0.00     0.040 A 
ATOM     68  F   UNL     1       3.523  -2.924   6.775  1.00  0.00    -0.206 F 
ATOM     69  C   UNL     1       6.104  -3.735   9.121  1.00  0.00     0.006 A 
ENDBRANCH  48  62
BRANCH  49  70
ATOM     70  C   UNL     1       5.445   3.093   2.762  1.00  0.00     0.057 A 
ATOM     71  C   UNL     1       6.745   3.607   2.865  1.00  0.00     0.134 A 
ATOM     72  C   UNL     1       5.135   2.426   1.564  1.00  0.00     0.134 A 
ATOM     73  F   UNL     1       7.142   4.236   3.981  1.00  0.00    -0.206 F 
ATOM     74  C   UNL     1       7.698   3.431   1.855  1.00  0.00     0.040 A 
ATOM     75  C   UNL     1       6.076   2.249   0.544  1.00  0.00     0.040 A 
ATOM     76  F   UNL     1       3.941   1.844   1.382  1.00  0.00    -0.206 F 
ATOM     77  C   UNL     1       7.369   2.736   0.696  1.00  0.00     0.006 A 
ENDBRANCH  49  70
BRANCH  61  78
ATOM     78  C   UNL     1       3.497   4.529   8.540  1.00  0.00     0.057 A 
ATOM     79  C   UNL     1       2.669   5.128   7.577  1.00  0.00     0.134 A 
ATOM     80  C   UNL     1       3.770   5.280   9.688  1.00  0.00     0.134 A 
ATOM     81  F   UNL     1       2.262   4.456   6.494  1.00  0.00    -0.206 F 
ATOM     82  C   UNL     1       2.185   6.431   7.726  1.00  0.00     0.040 A 
ATOM     83  C   UNL     1       3.264   6.569   9.865  1.00  0.00     0.040 A 
ATOM     84  F   UNL     1       4.506   4.754  10.681  1.00  0.00    -0.206 F 
ATOM     85  C   UNL     1       2.479   7.155   8.876  1.00  0.00     0.006 A 
ENDBRANCH  61  78
ENDBRANCH  35  36
ENDBRANCH  27  30
ENDBRANCH  25  26
ENDBRANCH  24  25
ENDBRANCH  23  24
ENDBRANCH   1  23
TORSDOF 15
