REMARK SMILES Cc1ccc(Cl)c(Nc2ccccc2C(=O)N[C@@H](C)C(=O)NCCCCNC(=O)c2ccc(-c3c4nc(c(-c5c(F)cccc5F)c5ccc([nH]5)c(-c5c(F)cccc5F)c5nc(c(-c6c(F)cccc6F)c6ccc3[nH]6)C=C5)C=C4)cc2)c1Cl
REMARK SMILES IDX 23 1 22 2 20 3 21 4 18 6 19 7 17 8 15 9 16 10 14 12 9 13
REMARK SMILES IDX 10 14 11 15 13 16 12 17 8 18 7 20 1 21 2 22 3 23 84 24 4 25
REMARK SMILES IDX 85 26 5 27 6 28 24 29 25 30 26 31 27 32 28 33 29 35 30 36
REMARK SMILES IDX 31 37 83 38 32 39 82 40 33 41 34 42 35 43 76 44 36 45 81 46
REMARK SMILES IDX 75 47 77 48 37 49 80 50 74 51 73 52 38 54 64 55 47 56 63 57
REMARK SMILES IDX 48 58 51 59 62 60 78 61 49 62 50 63 61 65 79 66 52 67 39 68
REMARK SMILES IDX 40 69 45 70 41 71 42 72 44 73 46 74 43 75 65 76 66 77 71 78
REMARK SMILES IDX 67 79 68 80 70 81 72 82 69 83 53 84 54 85 59 86 55 87 56 88
REMARK SMILES IDX 58 89 60 90 57 91
REMARK H PARENT 22 5 17 11 8 19 27 34 77 53 51 64
REMARK Flexibility Score: inf
ROOT
ATOM      1  C   UNL     1      -1.553   1.596   3.362  1.00  0.00     0.116 C 
ENDROOT
BRANCH   1   2
ATOM      2  N   UNL     1      -1.585   1.124   1.992  1.00  0.00    -0.354 N 
ATOM      3  C   UNL     1      -0.672   0.169   1.651  1.00  0.00     0.242 C 
ATOM      4  O   UNL     1       0.438   0.567   1.299  1.00  0.00    -0.273 OA
ATOM      5  H   UNL     1      -2.233   1.474   1.340  1.00  0.00     0.163 HD
BRANCH   3   6
ATOM      6  C   UNL     1      -1.041  -1.329   1.774  1.00  0.00     0.168 C 
ATOM      7  C   UNL     1      -2.352  -1.640   2.479  1.00  0.00     0.041 C 
BRANCH   6   8
ATOM      8  N   UNL     1       0.109  -1.916   2.439  1.00  0.00    -0.340 N 
ATOM      9  C   UNL     1       1.304  -2.279   1.854  1.00  0.00     0.254 C 
ATOM     10  O   UNL     1       2.321  -2.019   2.505  1.00  0.00    -0.269 OA
ATOM     11  H   UNL     1       0.026  -2.072   3.407  1.00  0.00     0.164 HD
BRANCH   9  12
ATOM     12  C   UNL     1       1.414  -3.210   0.684  1.00  0.00     0.063 A 
ATOM     13  C   UNL     1       0.779  -3.200  -0.577  1.00  0.00     0.051 A 
ATOM     14  C   UNL     1       0.996  -4.305  -1.439  1.00  0.00     0.027 A 
ATOM     15  C   UNL     1       1.868  -5.345  -1.120  1.00  0.00     0.002 A 
ATOM     16  C   UNL     1       2.313  -4.270   0.972  1.00  0.00     0.016 A 
ATOM     17  C   UNL     1       2.549  -5.315   0.081  1.00  0.00     0.001 A 
BRANCH  13  18
ATOM     18  N   UNL     1       0.021  -2.168  -1.166  1.00  0.00    -0.352 N 
ATOM     19  H   UNL     1      -0.864  -2.470  -1.471  1.00  0.00     0.167 HD
BRANCH  18  20
ATOM     20  C   UNL     1       0.251  -0.789  -1.419  1.00  0.00     0.077 A 
ATOM     21  C   UNL     1       2.829   2.007  -0.929  1.00  0.00     0.046 C 
ATOM     22  C   UNL     1       1.562   1.287  -1.310  1.00  0.00    -0.030 A 
ATOM     23  C   UNL     1       0.407   2.043  -1.563  1.00  0.00     0.006 A 
ATOM     24  C   UNL     1       1.492  -0.129  -1.300  1.00  0.00     0.069 A 
ATOM     25  C   UNL     1      -0.809   1.410  -1.782  1.00  0.00     0.023 A 
ATOM     26  Cl  UNL     1       2.983  -1.016  -1.214  1.00  0.00    -0.082 Cl
ATOM     27  C   UNL     1      -0.885   0.019  -1.693  1.00  0.00     0.066 A 
ATOM     28  Cl  UNL     1      -2.460  -0.697  -1.867  1.00  0.00    -0.082 Cl
ENDBRANCH  18  20
ENDBRANCH  13  18
ENDBRANCH   9  12
ENDBRANCH   6   8
ENDBRANCH   3   6
ENDBRANCH   1   2
BRANCH   1  29
ATOM     29  C   UNL     1      -0.307   2.436   3.681  1.00  0.00     0.023 C 
BRANCH  29  30
ATOM     30  C   UNL     1      -0.140   3.708   2.846  1.00  0.00     0.023 C 
BRANCH  30  31
ATOM     31  C   UNL     1      -1.388   4.577   2.754  1.00  0.00     0.116 C 
BRANCH  31  32
ATOM     32  N   UNL     1      -2.009   4.797   4.051  1.00  0.00    -0.352 N 
ATOM     33  C   UNL     1      -2.449   5.957   4.633  1.00  0.00     0.251 C 
ATOM     34  H   UNL     1      -2.133   3.986   4.596  1.00  0.00     0.163 HD
ATOM     35  O   UNL     1      -2.826   5.962   5.794  1.00  0.00    -0.269 OA
BRANCH  33  36
ATOM     36  C   UNL     1      -2.433   7.201   3.848  1.00  0.00     0.039 A 
ATOM     37  C   UNL     1      -1.880   8.345   4.425  1.00  0.00     0.014 A 
ATOM     38  C   UNL     1      -2.946   7.228   2.549  1.00  0.00     0.014 A 
ATOM     39  C   UNL     1      -1.790   9.514   3.673  1.00  0.00     0.010 A 
ATOM     40  C   UNL     1      -2.787   8.370   1.776  1.00  0.00     0.010 A 
ATOM     41  C   UNL     1      -2.214   9.523   2.334  1.00  0.00    -0.014 A 
BRANCH  41  42
ATOM     42  C   UNL     1      -2.083  10.737   1.498  1.00  0.00     0.031 A 
ATOM     43  C   UNL     1      -3.316  11.416   0.977  1.00  0.00     0.074 A 
ATOM     44  C   UNL     1      -0.858  11.176   1.154  1.00  0.00     0.049 A 
ATOM     45  N   UNL     1      -3.417  12.422   0.148  1.00  0.00    -0.248 NA
ATOM     46  C   UNL     1      -4.609  10.870   1.422  1.00  0.00     0.031 C 
ATOM     47  C   UNL     1       0.408  10.572   1.574  1.00  0.00     0.029 A 
ATOM     48  N   UNL     1      -0.478  12.227   0.360  1.00  0.00    -0.354 N 
ATOM     49  C   UNL     1      -4.779  12.619  -0.039  1.00  0.00     0.074 A 
ATOM     50  C   UNL     1      -5.465  11.594   0.716  1.00  0.00     0.031 C 
ATOM     51  C   UNL     1       1.425  11.273   1.047  1.00  0.00     0.029 A 
ATOM     52  C   UNL     1       0.883  12.346   0.220  1.00  0.00     0.049 A 
ATOM     53  H   UNL     1      -1.120  12.839  -0.069  1.00  0.00     0.167 HD
ATOM     54  C   UNL     1      -5.400  13.582  -0.759  1.00  0.00     0.037 A 
ATOM     55  C   UNL     1       1.609  13.215  -0.507  1.00  0.00     0.037 A 
ATOM     56  C   UNL     1      -4.707  14.610  -1.488  1.00  0.00     0.049 A 
ATOM     57  C   UNL     1       0.894  14.266  -1.312  1.00  0.00     0.074 A 
ATOM     58  C   UNL     1      -5.239  15.664  -2.209  1.00  0.00     0.029 A 
ATOM     59  N   UNL     1      -3.326  14.711  -1.591  1.00  0.00    -0.354 N 
ATOM     60  N   UNL     1      -0.394  14.477  -1.437  1.00  0.00    -0.248 NA
ATOM     61  C   UNL     1       1.733  15.201  -2.072  1.00  0.00     0.031 C 
ATOM     62  C   UNL     1      -4.183  16.374  -2.788  1.00  0.00     0.029 A 
ATOM     63  C   UNL     1      -2.990  15.797  -2.380  1.00  0.00     0.049 A 
ATOM     64  H   UNL     1      -2.682  14.100  -1.165  1.00  0.00     0.167 HD
ATOM     65  C   UNL     1      -0.519  15.590  -2.258  1.00  0.00     0.074 A 
ATOM     66  C   UNL     1       0.825  16.012  -2.595  1.00  0.00     0.031 C 
ATOM     67  C   UNL     1      -1.645  16.210  -2.691  1.00  0.00     0.037 A 
BRANCH  54  68
ATOM     68  C   UNL     1      -6.900  13.565  -0.791  1.00  0.00     0.057 A 
ATOM     69  C   UNL     1      -7.670  13.867   0.341  1.00  0.00     0.134 A 
ATOM     70  C   UNL     1      -7.586  13.269  -1.976  1.00  0.00     0.134 A 
ATOM     71  F   UNL     1      -7.077  14.144   1.512  1.00  0.00    -0.206 F 
ATOM     72  C   UNL     1      -9.065  13.848   0.302  1.00  0.00     0.040 A 
ATOM     73  C   UNL     1      -8.981  13.278  -2.035  1.00  0.00     0.040 A 
ATOM     74  F   UNL     1      -6.912  12.975  -3.098  1.00  0.00    -0.206 F 
ATOM     75  C   UNL     1      -9.724  13.561  -0.891  1.00  0.00     0.006 A 
ENDBRANCH  54  68
BRANCH  55  76
ATOM     76  C   UNL     1       3.091  13.141  -0.494  1.00  0.00     0.057 A 
ATOM     77  C   UNL     1       3.859  14.141   0.115  1.00  0.00     0.134 A 
ATOM     78  C   UNL     1       3.777  12.076  -1.091  1.00  0.00     0.134 A 
ATOM     79  F   UNL     1       3.260  15.194   0.690  1.00  0.00    -0.206 F 
ATOM     80  C   UNL     1       5.254  14.098   0.111  1.00  0.00     0.040 A 
ATOM     81  C   UNL     1       5.171  12.006  -1.079  1.00  0.00     0.040 A 
ATOM     82  F   UNL     1       3.101  11.080  -1.681  1.00  0.00    -0.206 F 
ATOM     83  C   UNL     1       5.914  13.024  -0.484  1.00  0.00     0.006 A 
ENDBRANCH  55  76
BRANCH  67  84
ATOM     84  C   UNL     1      -1.473  17.440  -3.532  1.00  0.00     0.057 A 
ATOM     85  C   UNL     1      -1.026  17.379  -4.858  1.00  0.00     0.134 A 
ATOM     86  C   UNL     1      -1.812  18.700  -3.020  1.00  0.00     0.134 A 
ATOM     87  F   UNL     1      -0.675  16.205  -5.403  1.00  0.00    -0.206 F 
ATOM     88  C   UNL     1      -0.903  18.530  -5.638  1.00  0.00     0.040 A 
ATOM     89  C   UNL     1      -1.721  19.853  -3.799  1.00  0.00     0.040 A 
ATOM     90  F   UNL     1      -2.256  18.826  -1.760  1.00  0.00    -0.206 F 
ATOM     91  C   UNL     1      -1.259  19.770  -5.111  1.00  0.00     0.006 A 
ENDBRANCH  67  84
ENDBRANCH  41  42
ENDBRANCH  33  36
ENDBRANCH  31  32
ENDBRANCH  30  31
ENDBRANCH  29  30
ENDBRANCH   1  29
TORSDOF 15
