REMARK SMILES CCOc1cc(C[NH+]2CCC3(CC2)[C@H](C(=O)NCCCCNC(=O)c2ccc(-c4c5nc(c(-c6c(F)cccc6F)c6ccc([nH]6)c(-c6c(F)cccc6F)c6nc(c(-c7c(F)cccc7F)c7ccc4[nH]7)C=C6)C=C5)cc2)CC(=O)N3C)ccc1OC
REMARK SMILES IDX 18 1 17 2 15 3 16 4 14 6 8 7 9 8 13 9 10 11 12 12 11 13
REMARK SMILES IDX 82 14 79 15 80 16 83 17 81 18 7 19 6 20 4 21 5 22 86 23
REMARK SMILES IDX 85 24 84 25 3 26 2 27 1 28 87 29 88 30 19 31 20 32 21 33
REMARK SMILES IDX 22 34 23 35 24 37 25 38 26 39 78 40 27 41 77 42 28 43 29 44
REMARK SMILES IDX 30 45 71 46 31 47 76 48 70 49 72 50 32 51 75 52 69 53 68 54
REMARK SMILES IDX 33 56 59 57 42 58 58 59 43 60 46 61 57 62 73 63 44 64 45 65
REMARK SMILES IDX 56 67 74 68 47 69 34 70 35 71 40 72 36 73 37 74 39 75 41 76
REMARK SMILES IDX 38 77 60 78 61 79 66 80 62 81 63 82 65 83 67 84 64 85 48 86
REMARK SMILES IDX 49 87 54 88 50 89 51 90 53 91 55 92 52 93
REMARK H PARENT 17 5 8 10 22 36 72 55 46 66
REMARK Flexibility Score: inf
ROOT
ATOM      1  C   UNL     1       1.368  -6.132   0.085  1.00  0.00     0.116 C 
ENDROOT
BRANCH   1   2
ATOM      2  N   UNL     1       2.256  -5.063   0.470  1.00  0.00    -0.356 N 
ATOM      3  C   UNL     1       2.395  -3.791   0.033  1.00  0.00     0.226 C 
ATOM      4  O   UNL     1       3.223  -3.114   0.651  1.00  0.00    -0.275 OA
ATOM      5  H   UNL     1       2.881  -5.306   1.190  1.00  0.00     0.163 HD
BRANCH   3   6
ATOM      6  C   UNL     1       1.618  -3.172  -1.141  1.00  0.00     0.114 C 
ATOM      7  N   UNL     1       3.729  -3.375  -4.818  1.00  0.00    -0.331 N 
ATOM      8  C   UNL     1       3.838  -4.569  -4.000  1.00  0.00     0.265 C 
ATOM      9  C   UNL     1       2.343  -2.974  -4.979  1.00  0.00     0.265 C 
ATOM     10  H   UNL     1       4.040  -3.647  -5.750  1.00  0.00     0.348 HD
ATOM     11  C   UNL     1       3.213  -4.398  -2.632  1.00  0.00     0.091 C 
ATOM     12  C   UNL     1       1.551  -2.753  -3.685  1.00  0.00     0.091 C 
ATOM     13  C   UNL     1       1.792  -3.794  -2.560  1.00  0.00     0.065 C 
ATOM     14  N   UNL     1       0.623  -4.682  -2.602  1.00  0.00    -0.339 N 
ATOM     15  C   UNL     1       0.124  -3.119  -0.887  1.00  0.00     0.116 C 
ATOM     16  C   UNL     1      -0.421  -4.178  -1.805  1.00  0.00     0.223 C 
ATOM     17  C   UNL     1       0.291  -5.550  -3.710  1.00  0.00     0.147 C 
ATOM     18  O   UNL     1      -1.590  -4.530  -1.835  1.00  0.00    -0.275 OA
BRANCH   7  19
ATOM     19  C   UNL     1       4.738  -2.318  -4.627  1.00  0.00     0.299 C 
BRANCH  19  20
ATOM     20  C   UNL     1       4.681  -1.482  -3.358  1.00  0.00     0.010 A 
ATOM     21  C   UNL     1       3.439  -0.019  -1.844  1.00  0.00     0.161 A 
ATOM     22  C   UNL     1       3.666  -0.527  -3.130  1.00  0.00     0.060 A 
ATOM     23  C   UNL     1       4.359  -0.312  -0.825  1.00  0.00     0.160 A 
ATOM     24  C   UNL     1       5.490  -1.080  -1.106  1.00  0.00     0.051 A 
ATOM     25  C   UNL     1       5.634  -1.691  -2.351  1.00  0.00     0.013 A 
BRANCH  21  26
ATOM     26  O   UNL     1       2.362   0.702  -1.449  1.00  0.00    -0.490 OA
BRANCH  26  27
ATOM     27  C   UNL     1       1.222   1.003  -2.233  1.00  0.00     0.226 C 
ATOM     28  C   UNL     1       0.131   1.340  -1.218  1.00  0.00     0.049 C 
ENDBRANCH  26  27
ENDBRANCH  21  26
BRANCH  23  29
ATOM     29  O   UNL     1       4.278   0.115   0.480  1.00  0.00    -0.493 OA
ATOM     30  C   UNL     1       2.974   0.136   1.060  1.00  0.00     0.278 C 
ENDBRANCH  23  29
ENDBRANCH  19  20
ENDBRANCH   7  19
ENDBRANCH   3   6
ENDBRANCH   1   2
BRANCH   1  31
ATOM     31  C   UNL     1       2.084  -7.281  -0.621  1.00  0.00     0.023 C 
BRANCH  31  32
ATOM     32  C   UNL     1       2.967  -8.094   0.313  1.00  0.00     0.023 C 
BRANCH  32  33
ATOM     33  C   UNL     1       2.208  -8.585   1.530  1.00  0.00     0.116 C 
BRANCH  33  34
ATOM     34  N   UNL     1       0.904  -9.143   1.165  1.00  0.00    -0.352 N 
ATOM     35  C   UNL     1       0.349 -10.325   1.559  1.00  0.00     0.251 C 
ATOM     36  H   UNL     1       0.358  -8.594   0.557  1.00  0.00     0.163 HD
ATOM     37  O   UNL     1      -0.637 -10.792   1.002  1.00  0.00    -0.269 OA
BRANCH  35  38
ATOM     38  C   UNL     1       0.996 -11.016   2.674  1.00  0.00     0.039 A 
ATOM     39  C   UNL     1       1.366 -12.348   2.526  1.00  0.00     0.014 A 
ATOM     40  C   UNL     1       1.344 -10.271   3.806  1.00  0.00     0.014 A 
ATOM     41  C   UNL     1       2.134 -12.933   3.522  1.00  0.00     0.010 A 
ATOM     42  C   UNL     1       2.213 -10.818   4.727  1.00  0.00     0.010 A 
ATOM     43  C   UNL     1       2.585 -12.162   4.609  1.00  0.00    -0.014 A 
BRANCH  43  44
ATOM     44  C   UNL     1       3.422 -12.767   5.661  1.00  0.00     0.031 A 
ATOM     45  C   UNL     1       2.902 -12.838   7.067  1.00  0.00     0.074 A 
ATOM     46  C   UNL     1       4.648 -13.219   5.343  1.00  0.00     0.049 A 
ATOM     47  N   UNL     1       3.464 -13.359   8.126  1.00  0.00    -0.248 NA
ATOM     48  C   UNL     1       1.595 -12.211   7.331  1.00  0.00     0.031 C 
ATOM     49  C   UNL     1       5.273 -13.122   4.021  1.00  0.00     0.029 A 
ATOM     50  N   UNL     1       5.583 -13.863   6.106  1.00  0.00    -0.354 N 
ATOM     51  C   UNL     1       2.584 -13.116   9.171  1.00  0.00     0.074 A 
ATOM     52  C   UNL     1       1.496 -12.328   8.644  1.00  0.00     0.031 C 
ATOM     53  C   UNL     1       6.464 -13.738   4.053  1.00  0.00     0.029 A 
ATOM     54  C   UNL     1       6.699 -14.241   5.402  1.00  0.00     0.049 A 
ATOM     55  H   UNL     1       5.466 -14.039   7.068  1.00  0.00     0.167 HD
ATOM     56  C   UNL     1       2.658 -13.549  10.450  1.00  0.00     0.037 A 
ATOM     57  C   UNL     1       7.780 -14.930   5.805  1.00  0.00     0.037 A 
ATOM     58  C   UNL     1       3.739 -14.352  10.953  1.00  0.00     0.049 A 
ATOM     59  C   UNL     1       7.832 -15.412   7.228  1.00  0.00     0.074 A 
ATOM     60  C   UNL     1       3.898 -14.895  12.214  1.00  0.00     0.029 A 
ATOM     61  N   UNL     1       4.852 -14.723  10.211  1.00  0.00    -0.354 N 
ATOM     62  N   UNL     1       6.954 -15.252   8.190  1.00  0.00    -0.248 NA
ATOM     63  C   UNL     1       9.018 -16.183   7.616  1.00  0.00     0.031 C 
ATOM     64  C   UNL     1       5.132 -15.553  12.250  1.00  0.00     0.029 A 
ATOM     65  C   UNL     1       5.715 -15.470  10.994  1.00  0.00     0.049 A 
ATOM     66  H   UNL     1       5.005 -14.490   9.267  1.00  0.00     0.167 HD
ATOM     67  C   UNL     1       7.470 -15.921   9.291  1.00  0.00     0.074 A 
ATOM     68  C   UNL     1       8.724 -16.511   8.865  1.00  0.00     0.031 C 
ATOM     69  C   UNL     1       6.961 -16.036  10.543  1.00  0.00     0.037 A 
BRANCH  56  70
ATOM     70  C   UNL     1       1.540 -13.163  11.374  1.00  0.00     0.057 A 
ATOM     71  C   UNL     1       0.238 -13.662  11.213  1.00  0.00     0.134 A 
ATOM     72  C   UNL     1       1.763 -12.282  12.438  1.00  0.00     0.134 A 
ATOM     73  F   UNL     1      -0.051 -14.494  10.200  1.00  0.00    -0.206 F 
ATOM     74  C   UNL     1      -0.804 -13.276  12.056  1.00  0.00     0.040 A 
ATOM     75  C   UNL     1       0.735 -11.913  13.308  1.00  0.00     0.040 A 
ATOM     76  F   UNL     1       2.982 -11.763  12.649  1.00  0.00    -0.206 F 
ATOM     77  C   UNL     1      -0.554 -12.404  13.114  1.00  0.00     0.006 A 
ENDBRANCH  56  70
BRANCH  57  78
ATOM     78  C   UNL     1       8.867 -15.242   4.844  1.00  0.00     0.057 A 
ATOM     79  C   UNL     1       9.101 -16.554   4.416  1.00  0.00     0.134 A 
ATOM     80  C   UNL     1       9.697 -14.239   4.329  1.00  0.00     0.134 A 
ATOM     81  F   UNL     1       8.346 -17.560   4.881  1.00  0.00    -0.206 F 
ATOM     82  C   UNL     1      10.136 -16.862   3.533  1.00  0.00     0.040 A 
ATOM     83  C   UNL     1      10.718 -14.529   3.423  1.00  0.00     0.040 A 
ATOM     84  F   UNL     1       9.515 -12.959   4.687  1.00  0.00    -0.206 F 
ATOM     85  C   UNL     1      10.946 -15.846   3.030  1.00  0.00     0.006 A 
ENDBRANCH  57  78
BRANCH  69  86
ATOM     86  C   UNL     1       7.757 -16.849  11.522  1.00  0.00     0.057 A 
ATOM     87  C   UNL     1       8.990 -16.409  12.021  1.00  0.00     0.134 A 
ATOM     88  C   UNL     1       7.280 -18.086  11.975  1.00  0.00     0.134 A 
ATOM     89  F   UNL     1       9.508 -15.238  11.619  1.00  0.00    -0.206 F 
ATOM     90  C   UNL     1       9.740 -17.189  12.901  1.00  0.00     0.040 A 
ATOM     91  C   UNL     1       8.004 -18.859  12.882  1.00  0.00     0.040 A 
ATOM     92  F   UNL     1       6.100 -18.560  11.547  1.00  0.00    -0.206 F 
ATOM     93  C   UNL     1       9.244 -18.416  13.337  1.00  0.00     0.006 A 
ENDBRANCH  69  86
ENDBRANCH  43  44
ENDBRANCH  35  38
ENDBRANCH  33  34
ENDBRANCH  32  33
ENDBRANCH  31  32
ENDBRANCH   1  31
TORSDOF 16
