REMARK SMILES O=C(NCCCCNC(=O)c1cc([C@@H]2C=NN=C2c2ccc(F)cc2)c2c(ccc3ccccc32)n1)c1ccc(-c2c3nc(c(-c4c(F)cccc4F)c4ccc([nH]4)c(-c4c(F)cccc4F)c4nc(c(-c5c(F)cccc5F)c5ccc2[nH]5)C=C4)C=C3)cc1
REMARK SMILES IDX 5 1 4 2 3 3 1 4 2 5 37 7 38 8 90 9 39 10 89 11 40 12 41 13
REMARK SMILES IDX 42 14 83 15 43 16 88 17 82 18 84 19 44 20 87 21 81 22 80 23
REMARK SMILES IDX 45 25 71 26 54 27 70 28 55 29 58 30 69 31 85 32 56 33 57 34
REMARK SMILES IDX 68 36 86 37 59 38 46 39 47 40 52 41 48 42 49 43 51 44 53 45
REMARK SMILES IDX 50 46 72 47 73 48 78 49 74 50 75 51 77 52 79 53 76 54 60 55
REMARK SMILES IDX 61 56 66 57 62 58 63 59 65 60 67 61 64 62 6 63 7 64 8 65
REMARK SMILES IDX 9 66 10 68 11 69 12 70 36 71 13 72 27 73 26 74 28 75 35 76
REMARK SMILES IDX 29 77 30 78 34 79 31 80 33 81 32 82 14 83 15 84 18 85 16 86
REMARK SMILES IDX 17 87 19 88 20 89 25 90 21 91 24 92 22 93 23 94
REMARK H PARENT 3 6 84 24 58 35 8 67
REMARK Flexibility Score: inf
ROOT
ATOM      1  C   UNL     1       5.123  -0.337   2.114  1.00  0.00     0.023 C 
ENDROOT
BRANCH   1   2
ATOM      2  C   UNL     1       4.895  -0.754   0.661  1.00  0.00     0.116 C 
BRANCH   2   3
ATOM      3  N   UNL     1       3.516  -1.028   0.310  1.00  0.00    -0.352 N 
ATOM      4  O   UNL     1       1.400  -0.854  -0.305  1.00  0.00    -0.269 OA
ATOM      5  C   UNL     1       2.413  -0.256   0.065  1.00  0.00     0.251 C 
ATOM      6  H   UNL     1       3.330  -1.992   0.229  1.00  0.00     0.163 HD
BRANCH   5   7
ATOM      7  C   UNL     1       2.342   1.217   0.263  1.00  0.00     0.039 A 
ATOM      8  C   UNL     1       3.439   2.071   0.379  1.00  0.00     0.014 A 
ATOM      9  C   UNL     1       1.051   1.774   0.323  1.00  0.00     0.014 A 
ATOM     10  C   UNL     1       3.258   3.428   0.633  1.00  0.00     0.010 A 
ATOM     11  C   UNL     1       0.864   3.136   0.545  1.00  0.00     0.010 A 
ATOM     12  C   UNL     1       1.971   3.960   0.730  1.00  0.00    -0.014 A 
BRANCH  12  13
ATOM     13  C   UNL     1       1.841   5.405   0.918  1.00  0.00     0.031 A 
ATOM     14  C   UNL     1       2.300   6.273  -0.210  1.00  0.00     0.074 A 
ATOM     15  C   UNL     1       1.187   5.963   1.955  1.00  0.00     0.049 A 
ATOM     16  N   UNL     1       3.136   7.264  -0.188  1.00  0.00    -0.248 NA
ATOM     17  C   UNL     1       1.760   5.977  -1.547  1.00  0.00     0.031 C 
ATOM     18  C   UNL     1       0.377   5.295   2.975  1.00  0.00     0.029 A 
ATOM     19  N   UNL     1       1.022   7.287   2.239  1.00  0.00    -0.354 N 
ATOM     20  C   UNL     1       3.130   7.808  -1.473  1.00  0.00     0.074 A 
ATOM     21  C   UNL     1       2.324   6.933  -2.287  1.00  0.00     0.031 C 
ATOM     22  C   UNL     1      -0.361   6.221   3.626  1.00  0.00     0.029 A 
ATOM     23  C   UNL     1       0.019   7.544   3.157  1.00  0.00     0.049 A 
ATOM     24  H   UNL     1       1.568   7.996   1.828  1.00  0.00     0.167 HD
ATOM     25  C   UNL     1       3.671   9.021  -1.774  1.00  0.00     0.037 A 
ATOM     26  C   UNL     1      -0.515   8.753   3.451  1.00  0.00     0.037 A 
ATOM     27  C   UNL     1       4.574   9.489  -0.765  1.00  0.00     0.049 A 
ATOM     28  C   UNL     1       0.431   9.801   3.001  1.00  0.00     0.074 A 
ATOM     29  C   UNL     1       5.775   9.049  -0.247  1.00  0.00     0.029 A 
ATOM     30  N   UNL     1       4.146  10.477   0.084  1.00  0.00    -0.354 N 
ATOM     31  N   UNL     1       1.586  10.050   3.550  1.00  0.00    -0.248 NA
ATOM     32  C   UNL     1       0.229  10.386   1.683  1.00  0.00     0.031 C 
ATOM     33  C   UNL     1       5.760   9.450   1.120  1.00  0.00     0.029 A 
ATOM     34  C   UNL     1       4.552  10.113   1.341  1.00  0.00     0.049 A 
ATOM     35  H   UNL     1       3.646  11.289  -0.162  1.00  0.00     0.167 HD
ATOM     36  C   UNL     1       2.393  10.469   2.505  1.00  0.00     0.074 A 
ATOM     37  C   UNL     1       1.476  10.777   1.415  1.00  0.00     0.031 C 
ATOM     38  C   UNL     1       3.743  10.267   2.527  1.00  0.00     0.037 A 
BRANCH  25  39
ATOM     39  C   UNL     1       3.189   9.912  -2.885  1.00  0.00     0.057 A 
ATOM     40  C   UNL     1       1.852   9.933  -3.326  1.00  0.00     0.134 A 
ATOM     41  C   UNL     1       3.996  10.963  -3.355  1.00  0.00     0.134 A 
ATOM     42  F   UNL     1       0.946   9.059  -2.864  1.00  0.00    -0.206 F 
ATOM     43  C   UNL     1       1.356  10.912  -4.192  1.00  0.00     0.040 A 
ATOM     44  C   UNL     1       3.499  11.976  -4.185  1.00  0.00     0.040 A 
ATOM     45  F   UNL     1       5.276  11.073  -2.970  1.00  0.00    -0.206 F 
ATOM     46  C   UNL     1       2.175  11.952  -4.608  1.00  0.00     0.006 A 
ENDBRANCH  25  39
BRANCH  26  47
ATOM     47  C   UNL     1      -1.906   9.072   3.841  1.00  0.00     0.057 A 
ATOM     48  C   UNL     1      -2.991   8.289   3.410  1.00  0.00     0.134 A 
ATOM     49  C   UNL     1      -2.229  10.305   4.425  1.00  0.00     0.134 A 
ATOM     50  F   UNL     1      -2.799   7.129   2.765  1.00  0.00    -0.206 F 
ATOM     51  C   UNL     1      -4.318   8.709   3.541  1.00  0.00     0.040 A 
ATOM     52  C   UNL     1      -3.553  10.744   4.550  1.00  0.00     0.040 A 
ATOM     53  F   UNL     1      -1.262  11.141   4.829  1.00  0.00    -0.206 F 
ATOM     54  C   UNL     1      -4.602   9.949   4.099  1.00  0.00     0.006 A 
ENDBRANCH  26  47
BRANCH  38  55
ATOM     55  C   UNL     1       4.376   9.863   3.827  1.00  0.00     0.057 A 
ATOM     56  C   UNL     1       5.417  10.642   4.344  1.00  0.00     0.134 A 
ATOM     57  C   UNL     1       4.101   8.653   4.481  1.00  0.00     0.134 A 
ATOM     58  F   UNL     1       5.777  11.783   3.734  1.00  0.00    -0.206 F 
ATOM     59  C   UNL     1       6.150  10.242   5.464  1.00  0.00     0.040 A 
ATOM     60  C   UNL     1       4.805   8.258   5.622  1.00  0.00     0.040 A 
ATOM     61  F   UNL     1       3.195   7.793   3.997  1.00  0.00    -0.206 F 
ATOM     62  C   UNL     1       5.838   9.050   6.112  1.00  0.00     0.006 A 
ENDBRANCH  38  55
ENDBRANCH  12  13
ENDBRANCH   5   7
ENDBRANCH   2   3
ENDBRANCH   1   2
BRANCH   1  63
ATOM     63  C   UNL     1       4.582  -1.305   3.166  1.00  0.00     0.023 C 
BRANCH  63  64
ATOM     64  C   UNL     1       4.979  -2.763   2.979  1.00  0.00     0.116 C 
BRANCH  64  65
ATOM     65  N   UNL     1       6.416  -2.974   3.055  1.00  0.00    -0.351 N 
ATOM     66  C   UNL     1       7.131  -3.795   3.902  1.00  0.00     0.269 C 
ATOM     67  H   UNL     1       6.954  -2.458   2.412  1.00  0.00     0.163 HD
ATOM     68  O   UNL     1       8.360  -3.777   3.869  1.00  0.00    -0.268 OA
BRANCH  66  69
ATOM     69  C   UNL     1       6.405  -4.716   4.818  1.00  0.00     0.129 A 
ATOM     70  C   UNL     1       5.441  -5.561   4.323  1.00  0.00     0.039 A 
ATOM     71  N   UNL     1       6.712  -4.664   6.116  1.00  0.00    -0.243 NA
ATOM     72  C   UNL     1       4.653  -6.341   5.202  1.00  0.00    -0.021 A 
ATOM     73  C   UNL     1       6.037  -5.444   6.963  1.00  0.00     0.072 A 
ATOM     74  C   UNL     1       4.955  -6.321   6.625  1.00  0.00     0.012 A 
ATOM     75  C   UNL     1       6.500  -5.334   8.253  1.00  0.00     0.029 A 
ATOM     76  C   UNL     1       4.359  -7.070   7.755  1.00  0.00    -0.009 A 
ATOM     77  C   UNL     1       5.946  -6.049   9.299  1.00  0.00     0.011 A 
ATOM     78  C   UNL     1       4.881  -6.905   9.072  1.00  0.00    -0.018 A 
ATOM     79  C   UNL     1       3.287  -7.990   7.689  1.00  0.00     0.009 A 
ATOM     80  C   UNL     1       4.359  -7.592  10.182  1.00  0.00     0.009 A 
ATOM     81  C   UNL     1       2.756  -8.669   8.795  1.00  0.00     0.001 A 
ATOM     82  C   UNL     1       3.295  -8.470  10.048  1.00  0.00     0.001 A 
BRANCH  72  83
ATOM     83  C   UNL     1       3.601  -7.119   4.441  1.00  0.00     0.115 C 
ATOM     84  C   UNL     1       2.174  -6.922   4.795  1.00  0.00     0.123 C 
ATOM     85  C   UNL     1       3.614  -8.611   4.375  1.00  0.00     0.083 C 
ATOM     86  N   UNL     1       1.498  -8.025   4.758  1.00  0.00    -0.162 NA
ATOM     87  N   UNL     1       2.412  -9.104   4.481  1.00  0.00    -0.154 NA
BRANCH  85  88
ATOM     88  C   UNL     1       4.805  -9.411   4.032  1.00  0.00    -0.001 A 
ATOM     89  C   UNL     1       4.654 -10.448   3.103  1.00  0.00     0.013 A 
ATOM     90  C   UNL     1       6.065  -9.152   4.584  1.00  0.00     0.013 A 
ATOM     91  C   UNL     1       5.765 -11.194   2.703  1.00  0.00     0.040 A 
ATOM     92  C   UNL     1       7.174  -9.899   4.181  1.00  0.00     0.040 A 
ATOM     93  C   UNL     1       7.015 -10.908   3.240  1.00  0.00     0.123 A 
ATOM     94  F   UNL     1       8.082 -11.618   2.851  1.00  0.00    -0.207 F 
ENDBRANCH  85  88
ENDBRANCH  72  83
ENDBRANCH  66  69
ENDBRANCH  64  65
ENDBRANCH  63  64
ENDBRANCH   1  63
TORSDOF 13
