REMARK SMILES C[N@H+]1[C@H](C(=O)NCCCCNC(=O)c2ccc(-c3c4nc(c(-c5c(F)cccc5F)c5ccc([nH]5)c(-c5c(F)cccc5F)c5nc(c(-c6c(F)cccc6F)c6ccc3[nH]6)C=C5)C=C4)cc2)C[C@H](C(=O)NCC2(CO)CCCC2)[C@@H]1c1ccccc1F
REMARK SMILES IDX 7 1 6 2 4 3 5 4 3 6 1 7 2 8 81 9 68 11 69 12 82 13 83 14
REMARK SMILES IDX 87 15 84 16 86 17 88 18 85 19 70 20 71 21 72 22 73 24 74 25
REMARK SMILES IDX 77 26 80 27 78 28 79 29 75 30 76 31 8 33 9 34 10 35 11 36
REMARK SMILES IDX 12 37 13 39 14 40 15 41 67 42 16 43 66 44 17 45 18 46 19 47
REMARK SMILES IDX 60 48 20 49 65 50 59 51 61 52 21 53 64 54 58 55 57 56 22 58
REMARK SMILES IDX 48 59 31 60 47 61 32 62 35 63 46 64 62 65 33 66 34 67 45 69
REMARK SMILES IDX 63 70 36 71 23 72 24 73 29 74 25 75 26 76 28 77 30 78 27 79
REMARK SMILES IDX 49 80 50 81 55 82 51 83 52 84 54 85 56 86 53 87 37 88 38 89
REMARK SMILES IDX 43 90 39 91 40 92 42 93 44 94 41 95
REMARK H PARENT 6 5 2 10 72 23 76 32 11 38 61 57 35 68
REMARK Flexibility Score: inf
ROOT
ATOM      1  C   UNL     1       0.019   1.417  -2.823  1.00  0.00     0.116 C 
ENDROOT
BRANCH   1   2
ATOM      2  N   UNL     1      -0.425   2.452  -1.913  1.00  0.00    -0.351 N 
ATOM      3  C   UNL     1      -0.550   2.393  -0.553  1.00  0.00     0.278 C 
ATOM      4  O   UNL     1      -0.933   3.413   0.031  1.00  0.00    -0.268 OA
ATOM      5  H   UNL     1      -0.669   3.310  -2.328  1.00  0.00     0.163 HD
BRANCH   3   6
ATOM      6  C   UNL     1      -0.164   1.136   0.252  1.00  0.00     0.275 C 
ATOM      7  C   UNL     1      -2.213  -0.143   0.395  1.00  0.00     0.333 C 
ATOM      8  N   UNL     1      -0.881  -0.072  -0.202  1.00  0.00    -0.320 N 
ATOM      9  C   UNL     1      -0.006  -1.216   0.119  1.00  0.00     0.231 C 
ATOM     10  H   UNL     1      -1.062  -0.065  -1.206  1.00  0.00     0.349 HD
ATOM     11  C   UNL     1       1.322   0.806   0.163  1.00  0.00     0.095 C 
ATOM     12  C   UNL     1       1.427  -0.693  -0.169  1.00  0.00     0.148 C 
BRANCH   9  13
ATOM     13  C   UNL     1      -0.320  -2.563  -0.499  1.00  0.00     0.046 A 
ATOM     14  C   UNL     1       0.357  -3.696  -0.002  1.00  0.00     0.013 A 
ATOM     15  C   UNL     1      -1.171  -2.750  -1.597  1.00  0.00     0.132 A 
ATOM     16  C   UNL     1       0.206  -4.951  -0.599  1.00  0.00     0.001 A 
ATOM     17  C   UNL     1      -1.334  -4.004  -2.187  1.00  0.00     0.040 A 
ATOM     18  F   UNL     1      -1.841  -1.725  -2.143  1.00  0.00    -0.206 F 
ATOM     19  C   UNL     1      -0.638  -5.104  -1.696  1.00  0.00     0.003 A 
ENDBRANCH   9  13
BRANCH  12  20
ATOM     20  C   UNL     1       2.009  -0.931  -1.577  1.00  0.00     0.229 C 
ATOM     21  O   UNL     1       1.455  -1.576  -2.465  1.00  0.00    -0.275 OA
ATOM     22  N   UNL     1       3.233  -0.416  -1.889  1.00  0.00    -0.355 N 
ATOM     23  H   UNL     1       3.512  -0.545  -2.824  1.00  0.00     0.163 HD
BRANCH  22  24
ATOM     24  C   UNL     1       4.187   0.290  -1.062  1.00  0.00     0.125 C 
BRANCH  24  25
ATOM     25  C   UNL     1       5.592  -0.332  -1.123  1.00  0.00     0.011 C 
ATOM     26  C   UNL     1       6.407   0.105   0.106  1.00  0.00     0.011 C 
ATOM     27  C   UNL     1       5.556  -1.860  -0.940  1.00  0.00     0.011 C 
ATOM     28  C   UNL     1       7.476  -0.966   0.279  1.00  0.00     0.001 C 
ATOM     29  C   UNL     1       6.922  -2.231  -0.373  1.00  0.00     0.001 C 
BRANCH  25  30
ATOM     30  C   UNL     1       6.309   0.078  -2.428  1.00  0.00     0.164 C 
BRANCH  30  31
ATOM     31  O   UNL     1       5.567  -0.324  -3.574  1.00  0.00    -0.396 OA
ATOM     32  H   UNL     1       5.474  -1.289  -3.578  1.00  0.00     0.210 HD
ENDBRANCH  30  31
ENDBRANCH  25  30
ENDBRANCH  24  25
ENDBRANCH  22  24
ENDBRANCH  12  20
ENDBRANCH   3   6
ENDBRANCH   1   2
BRANCH   1  33
ATOM     33  C   UNL     1      -0.999   1.065  -3.896  1.00  0.00     0.023 C 
BRANCH  33  34
ATOM     34  C   UNL     1      -1.250   2.167  -4.917  1.00  0.00     0.023 C 
BRANCH  34  35
ATOM     35  C   UNL     1      -0.003   2.712  -5.605  1.00  0.00     0.116 C 
BRANCH  35  36
ATOM     36  N   UNL     1       0.742   1.703  -6.346  1.00  0.00    -0.352 N 
ATOM     37  C   UNL     1       1.136   1.706  -7.664  1.00  0.00     0.251 C 
ATOM     38  H   UNL     1       1.001   0.905  -5.830  1.00  0.00     0.163 HD
ATOM     39  O   UNL     1       1.673   0.722  -8.164  1.00  0.00    -0.269 OA
BRANCH  37  40
ATOM     40  C   UNL     1       0.862   2.893  -8.500  1.00  0.00     0.039 A 
ATOM     41  C   UNL     1       0.198   2.718  -9.717  1.00  0.00     0.014 A 
ATOM     42  C   UNL     1       1.196   4.174  -8.054  1.00  0.00     0.014 A 
ATOM     43  C   UNL     1      -0.229   3.836 -10.435  1.00  0.00     0.010 A 
ATOM     44  C   UNL     1       0.708   5.286  -8.734  1.00  0.00     0.010 A 
ATOM     45  C   UNL     1      -0.032   5.127  -9.916  1.00  0.00    -0.014 A 
BRANCH  45  46
ATOM     46  C   UNL     1      -0.653   6.316 -10.552  1.00  0.00     0.031 A 
ATOM     47  C   UNL     1       0.200   7.410 -11.124  1.00  0.00     0.074 A 
ATOM     48  C   UNL     1      -1.994   6.449 -10.527  1.00  0.00     0.049 A 
ATOM     49  N   UNL     1      -0.163   8.563 -11.625  1.00  0.00    -0.248 NA
ATOM     50  C   UNL     1       1.654   7.189 -11.111  1.00  0.00     0.031 C 
ATOM     51  C   UNL     1      -2.932   5.479  -9.956  1.00  0.00     0.029 A 
ATOM     52  N   UNL     1      -2.802   7.464 -10.977  1.00  0.00    -0.354 N 
ATOM     53  C   UNL     1       1.014   9.210 -11.976  1.00  0.00     0.074 A 
ATOM     54  C   UNL     1       2.105   8.340 -11.591  1.00  0.00     0.031 C 
ATOM     55  C   UNL     1      -4.184   5.939 -10.101  1.00  0.00     0.029 A 
ATOM     56  C   UNL     1      -4.138   7.252 -10.735  1.00  0.00     0.049 A 
ATOM     57  H   UNL     1      -2.457   8.267 -11.430  1.00  0.00     0.167 HD
ATOM     58  C   UNL     1       1.169  10.412 -12.580  1.00  0.00     0.037 A 
ATOM     59  C   UNL     1      -5.206   8.035 -10.977  1.00  0.00     0.037 A 
ATOM     60  C   UNL     1       0.081  11.269 -12.976  1.00  0.00     0.049 A 
ATOM     61  C   UNL     1      -5.004   9.377 -11.622  1.00  0.00     0.074 A 
ATOM     62  C   UNL     1       0.137  12.470 -13.661  1.00  0.00     0.029 A 
ATOM     63  N   UNL     1      -1.257  11.020 -12.714  1.00  0.00    -0.354 N 
ATOM     64  N   UNL     1      -3.890   9.944 -12.016  1.00  0.00    -0.248 NA
ATOM     65  C   UNL     1      -6.206  10.190 -11.851  1.00  0.00     0.031 C 
ATOM     66  C   UNL     1      -1.164  12.972 -13.771  1.00  0.00     0.029 A 
ATOM     67  C   UNL     1      -2.035  12.062 -13.193  1.00  0.00     0.049 A 
ATOM     68  H   UNL     1      -1.604  10.221 -12.255  1.00  0.00     0.167 HD
ATOM     69  C   UNL     1      -4.257  11.170 -12.553  1.00  0.00     0.074 A 
ATOM     70  C   UNL     1      -5.699  11.257 -12.453  1.00  0.00     0.031 C 
ATOM     71  C   UNL     1      -3.469  12.140 -13.078  1.00  0.00     0.037 A 
BRANCH  58  72
ATOM     72  C   UNL     1       2.570  10.875 -12.852  1.00  0.00     0.057 A 
ATOM     73  C   UNL     1       3.363  10.281 -13.842  1.00  0.00     0.134 A 
ATOM     74  C   UNL     1       3.116  11.955 -12.147  1.00  0.00     0.134 A 
ATOM     75  F   UNL     1       2.903   9.236 -14.546  1.00  0.00    -0.206 F 
ATOM     76  C   UNL     1       4.658  10.731 -14.107  1.00  0.00     0.040 A 
ATOM     77  C   UNL     1       4.400  12.430 -12.420  1.00  0.00     0.040 A 
ATOM     78  F   UNL     1       2.407  12.573 -11.190  1.00  0.00    -0.206 F 
ATOM     79  C   UNL     1       5.177  11.814 -13.399  1.00  0.00     0.006 A 
ENDBRANCH  58  72
BRANCH  59  80
ATOM     80  C   UNL     1      -6.566   7.572 -10.606  1.00  0.00     0.057 A 
ATOM     81  C   UNL     1      -7.501   7.220 -11.586  1.00  0.00     0.134 A 
ATOM     82  C   UNL     1      -6.967   7.474  -9.268  1.00  0.00     0.134 A 
ATOM     83  F   UNL     1      -7.183   7.313 -12.886  1.00  0.00    -0.206 F 
ATOM     84  C   UNL     1      -8.790   6.802 -11.251  1.00  0.00     0.040 A 
ATOM     85  C   UNL     1      -8.244   7.035  -8.917  1.00  0.00     0.040 A 
ATOM     86  F   UNL     1      -6.116   7.793  -8.281  1.00  0.00    -0.206 F 
ATOM     87  C   UNL     1      -9.162   6.704  -9.912  1.00  0.00     0.006 A 
ENDBRANCH  59  80
BRANCH  71  88
ATOM     88  C   UNL     1      -4.152  13.373 -13.591  1.00  0.00     0.057 A 
ATOM     89  C   UNL     1      -4.697  14.326 -12.722  1.00  0.00     0.134 A 
ATOM     90  C   UNL     1      -4.236  13.626 -14.966  1.00  0.00     0.134 A 
ATOM     91  F   UNL     1      -4.662  14.134 -11.395  1.00  0.00    -0.206 F 
ATOM     92  C   UNL     1      -5.319  15.479 -13.203  1.00  0.00     0.040 A 
ATOM     93  C   UNL     1      -4.833  14.787 -15.458  1.00  0.00     0.040 A 
ATOM     94  F   UNL     1      -3.727  12.756 -15.852  1.00  0.00    -0.206 F 
ATOM     95  C   UNL     1      -5.381  15.715 -14.575  1.00  0.00     0.006 A 
ENDBRANCH  71  88
ENDBRANCH  45  46
ENDBRANCH  37  40
ENDBRANCH  35  36
ENDBRANCH  34  35
ENDBRANCH  33  34
ENDBRANCH   1  33
TORSDOF 17
