REMARK SMILES Cc1cc(N2CCC[C@H](C(=O)NCCCCNC(=O)c3ccc(-c4c5nc(c(-c6c(F)cccc6F)c6ccc([nH]6)c(-c6c(F)cccc6F)c6nc(c(-c7c(F)cccc7F)c7ccc4[nH]7)C=C6)C=C5)cc3)C2)nc(C(C)C)n1
REMARK SMILES IDX 14 1 13 2 12 3 10 4 11 5 9 7 5 8 6 9 74 10 7 11 8 12 4 13
REMARK SMILES IDX 1 14 2 15 3 16 80 17 76 18 75 19 77 20 78 21 79 22 15 23
REMARK SMILES IDX 16 24 17 25 18 26 19 28 20 29 21 30 73 31 22 32 72 33 23 34
REMARK SMILES IDX 24 35 25 36 66 37 26 38 71 39 65 40 67 41 27 42 70 43 64 44
REMARK SMILES IDX 63 45 28 47 54 48 37 49 53 50 38 51 41 52 52 53 68 54 39 55
REMARK SMILES IDX 40 56 51 58 69 59 42 60 29 61 30 62 35 63 31 64 32 65 34 66
REMARK SMILES IDX 36 67 33 68 55 69 56 70 61 71 57 72 58 73 60 74 62 75 59 76
REMARK SMILES IDX 43 77 44 78 49 79 45 80 46 81 48 82 50 83 47 84
REMARK H PARENT 12 6 17 27 67 46 41 57
REMARK Flexibility Score: inf
ROOT
ATOM      1  C   UNL     1       5.702  -1.147   0.438  1.00  0.00     0.023 C 
ENDROOT
BRANCH   1   2
ATOM      2  C   UNL     1       4.472  -1.014  -0.456  1.00  0.00     0.116 C 
BRANCH   2   3
ATOM      3  N   UNL     1       4.673  -1.567  -1.776  1.00  0.00    -0.356 N 
ATOM      4  C   UNL     1       4.048  -2.590  -2.410  1.00  0.00     0.224 C 
ATOM      5  O   UNL     1       4.298  -2.718  -3.616  1.00  0.00    -0.275 OA
ATOM      6  H   UNL     1       5.380  -1.128  -2.302  1.00  0.00     0.163 HD
BRANCH   4   7
ATOM      7  C   UNL     1       3.078  -3.568  -1.743  1.00  0.00     0.098 C 
ATOM      8  N   UNL     1       1.580  -2.504  -0.111  1.00  0.00    -0.356 N 
ATOM      9  C   UNL     1       1.845  -3.430   0.971  1.00  0.00     0.118 C 
ATOM     10  C   UNL     1       1.700  -2.972  -1.481  1.00  0.00     0.131 C 
ATOM     11  C   UNL     1       3.260  -4.000   0.825  1.00  0.00     0.022 C 
ATOM     12  C   UNL     1       3.642  -4.419  -0.598  1.00  0.00     0.017 C 
BRANCH   8  13
ATOM     13  C   UNL     1       0.782  -1.398   0.081  1.00  0.00     0.132 A 
ATOM     14  C   UNL     1      -2.799  -0.307   0.129  1.00  0.00     0.067 C 
ATOM     15  C   UNL     1      -1.302  -0.311   0.161  1.00  0.00     0.043 A 
ATOM     16  C   UNL     1      -0.591  -1.495   0.132  1.00  0.00     0.070 A 
ATOM     17  N   UNL     1      -0.699   0.894   0.159  1.00  0.00    -0.238 NA
ATOM     18  C   UNL     1       0.644   0.898   0.122  1.00  0.00     0.133 A 
ATOM     19  N   UNL     1       1.404  -0.208   0.081  1.00  0.00    -0.216 NA
BRANCH  18  20
ATOM     20  C   UNL     1       1.363   2.226   0.040  1.00  0.00     0.051 C 
ATOM     21  C   UNL     1       1.042   2.934  -1.276  1.00  0.00     0.016 C 
ATOM     22  C   UNL     1       1.037   3.112   1.240  1.00  0.00     0.016 C 
ENDBRANCH  18  20
ENDBRANCH   8  13
ENDBRANCH   4   7
ENDBRANCH   2   3
ENDBRANCH   1   2
BRANCH   1  23
ATOM     23  C   UNL     1       6.542   0.123   0.544  1.00  0.00     0.023 C 
BRANCH  23  24
ATOM     24  C   UNL     1       5.807   1.344   1.090  1.00  0.00     0.116 C 
BRANCH  24  25
ATOM     25  N   UNL     1       5.248   1.174   2.424  1.00  0.00    -0.352 N 
ATOM     26  C   UNL     1       5.065   2.152   3.381  1.00  0.00     0.251 C 
ATOM     27  H   UNL     1       4.971   0.262   2.670  1.00  0.00     0.163 HD
ATOM     28  O   UNL     1       4.640   1.894   4.494  1.00  0.00    -0.269 OA
BRANCH  26  29
ATOM     29  C   UNL     1       5.443   3.535   3.023  1.00  0.00     0.039 A 
ATOM     30  C   UNL     1       6.443   4.180   3.754  1.00  0.00     0.014 A 
ATOM     31  C   UNL     1       4.895   4.124   1.882  1.00  0.00     0.014 A 
ATOM     32  C   UNL     1       6.961   5.388   3.282  1.00  0.00     0.010 A 
ATOM     33  C   UNL     1       5.457   5.290   1.381  1.00  0.00     0.010 A 
ATOM     34  C   UNL     1       6.504   5.925   2.068  1.00  0.00    -0.014 A 
BRANCH  34  35
ATOM     35  C   UNL     1       7.096   7.149   1.476  1.00  0.00     0.031 A 
ATOM     36  C   UNL     1       6.241   8.371   1.304  1.00  0.00     0.074 A 
ATOM     37  C   UNL     1       8.352   7.125   0.991  1.00  0.00     0.049 A 
ATOM     38  N   UNL     1       6.499   9.478   0.657  1.00  0.00    -0.248 NA
ATOM     39  C   UNL     1       4.899   8.322   1.908  1.00  0.00     0.031 C 
ATOM     40  C   UNL     1       9.267   5.983   1.054  1.00  0.00     0.029 A 
ATOM     41  N   UNL     1       9.068   8.086   0.322  1.00  0.00    -0.354 N 
ATOM     42  C   UNL     1       5.342  10.241   0.747  1.00  0.00     0.074 A 
ATOM     43  C   UNL     1       4.369   9.456   1.475  1.00  0.00     0.031 C 
ATOM     44  C   UNL     1      10.425   6.314   0.459  1.00  0.00     0.029 A 
ATOM     45  C   UNL     1      10.322   7.674  -0.060  1.00  0.00     0.049 A 
ATOM     46  H   UNL     1       8.716   8.986   0.134  1.00  0.00     0.167 HD
ATOM     47  C   UNL     1       5.117  11.491   0.278  1.00  0.00     0.037 A 
ATOM     48  C   UNL     1      11.274   8.319  -0.761  1.00  0.00     0.037 A 
ATOM     49  C   UNL     1       6.101  12.285  -0.406  1.00  0.00     0.049 A 
ATOM     50  C   UNL     1      11.013   9.720  -1.242  1.00  0.00     0.074 A 
ATOM     51  C   UNL     1       5.991  13.584  -0.869  1.00  0.00     0.029 A 
ATOM     52  N   UNL     1       7.382  11.854  -0.716  1.00  0.00    -0.354 N 
ATOM     53  N   UNL     1       9.932  10.449  -1.110  1.00  0.00    -0.248 NA
ATOM     54  C   UNL     1      12.103  10.388  -1.967  1.00  0.00     0.031 C 
ATOM     55  C   UNL     1       7.200  13.933  -1.479  1.00  0.00     0.029 A 
ATOM     56  C   UNL     1       8.073  12.862  -1.365  1.00  0.00     0.049 A 
ATOM     57  H   UNL     1       7.746  10.964  -0.505  1.00  0.00     0.167 HD
ATOM     58  C   UNL     1      10.223  11.672  -1.699  1.00  0.00     0.074 A 
ATOM     59  C   UNL     1      11.582  11.587  -2.193  1.00  0.00     0.031 C 
ATOM     60  C   UNL     1       9.436  12.768  -1.818  1.00  0.00     0.037 A 
BRANCH  47  61
ATOM     61  C   UNL     1       3.755  12.073   0.501  1.00  0.00     0.057 A 
ATOM     62  C   UNL     1       3.323  12.472   1.773  1.00  0.00     0.134 A 
ATOM     63  C   UNL     1       2.869  12.251  -0.568  1.00  0.00     0.134 A 
ATOM     64  F   UNL     1       4.120  12.314   2.841  1.00  0.00    -0.206 F 
ATOM     65  C   UNL     1       2.049  13.002   1.978  1.00  0.00     0.040 A 
ATOM     66  C   UNL     1       1.601  12.803  -0.380  1.00  0.00     0.040 A 
ATOM     67  F   UNL     1       3.221  11.893  -1.812  1.00  0.00    -0.206 F 
ATOM     68  C   UNL     1       1.185  13.174   0.897  1.00  0.00     0.006 A 
ENDBRANCH  47  61
BRANCH  48  69
ATOM     69  C   UNL     1      12.578   7.661  -1.024  1.00  0.00     0.057 A 
ATOM     70  C   UNL     1      13.736   8.072  -0.354  1.00  0.00     0.134 A 
ATOM     71  C   UNL     1      12.702   6.618  -1.949  1.00  0.00     0.134 A 
ATOM     72  F   UNL     1      13.682   9.079   0.529  1.00  0.00    -0.206 F 
ATOM     73  C   UNL     1      14.976   7.482  -0.607  1.00  0.00     0.040 A 
ATOM     74  C   UNL     1      13.932   6.005  -2.196  1.00  0.00     0.040 A 
ATOM     75  F   UNL     1      11.628   6.175  -2.618  1.00  0.00    -0.206 F 
ATOM     76  C   UNL     1      15.075   6.442  -1.528  1.00  0.00     0.006 A 
ENDBRANCH  48  69
BRANCH  60  77
ATOM     77  C   UNL     1      10.037  13.985  -2.451  1.00  0.00     0.057 A 
ATOM     78  C   UNL     1      10.210  14.090  -3.835  1.00  0.00     0.134 A 
ATOM     79  C   UNL     1      10.379  15.093  -1.665  1.00  0.00     0.134 A 
ATOM     80  F   UNL     1       9.910  13.058  -4.638  1.00  0.00    -0.206 F 
ATOM     81  C   UNL     1      10.710  15.256  -4.418  1.00  0.00     0.040 A 
ATOM     82  C   UNL     1      10.861  16.270  -2.238  1.00  0.00     0.040 A 
ATOM     83  F   UNL     1      10.230  15.055  -0.333  1.00  0.00    -0.206 F 
ATOM     84  C   UNL     1      11.028  16.353  -3.619  1.00  0.00     0.006 A 
ENDBRANCH  60  77
ENDBRANCH  34  35
ENDBRANCH  26  29
ENDBRANCH  24  25
ENDBRANCH  23  24
ENDBRANCH   1  23
TORSDOF 13
