REMARK SMILES CC(C)n1c2c(c3ccccc31)[C@@H](c1ccccc1)N(CC(=O)NCCCCNC(=O)c1ccc(-c3c4nc(c(-c5c(F)cccc5F)c5ccc([nH]5)c(-c5c(F)cccc5F)c5nc(c(-c6c(F)cccc6F)c6ccc3[nH]6)C=C5)C=C4)cc1)C2=O
REMARK SMILES IDX 26 1 25 2 24 3 22 4 23 5 21 7 20 8 4 9 5 10 12 11 6 12 86 13
REMARK SMILES IDX 7 14 11 15 13 16 87 17 8 18 10 19 9 20 2 21 1 22 3 23 14 24
REMARK SMILES IDX 15 25 19 26 16 27 18 28 17 29 27 30 28 31 29 32 30 33 31 35
REMARK SMILES IDX 32 36 33 37 85 38 34 39 84 40 35 41 36 42 37 43 78 44 38 45
REMARK SMILES IDX 83 46 77 47 79 48 39 49 82 50 76 51 75 52 40 54 66 55 49 56
REMARK SMILES IDX 65 57 50 58 53 59 64 60 80 61 51 62 52 63 63 65 81 66 54 67
REMARK SMILES IDX 41 68 42 69 47 70 43 71 44 72 46 73 48 74 45 75 67 76 68 77
REMARK SMILES IDX 73 78 69 79 70 80 72 81 74 82 71 83 55 84 56 85 61 86 57 87
REMARK SMILES IDX 58 88 60 89 62 90 59 91
REMARK H PARENT 24 6 29 34 79 53 53 64
REMARK Flexibility Score: inf
ROOT
ATOM      1  C   UNL     1      -2.277  -2.873   2.351  1.00  0.00     0.023 C 
ENDROOT
BRANCH   1   2
ATOM      2  C   UNL     1      -2.506  -4.369   2.130  1.00  0.00     0.116 C 
BRANCH   2   3
ATOM      3  N   UNL     1      -3.916  -4.685   2.036  1.00  0.00    -0.355 N 
ATOM      4  C   UNL     1      -4.613  -5.094   0.935  1.00  0.00     0.239 C 
ATOM      5  O   UNL     1      -5.827  -5.279   1.042  1.00  0.00    -0.273 OA
ATOM      6  H   UNL     1      -4.435  -4.595   2.868  1.00  0.00     0.163 HD
BRANCH   4   7
ATOM      7  C   UNL     1      -3.894  -5.280  -0.407  1.00  0.00     0.220 C 
BRANCH   7   8
ATOM      8  N   UNL     1      -3.474  -4.002  -0.957  1.00  0.00    -0.317 N 
ATOM      9  N   UNL     1      -1.325  -1.111  -1.089  1.00  0.00    -0.334 N 
ATOM     10  C   UNL     1      -2.161  -2.197  -1.141  1.00  0.00     0.114 A 
ATOM     11  C   UNL     1      -2.147   0.038  -1.119  1.00  0.00     0.049 A 
ATOM     12  C   UNL     1      -3.466  -1.770  -1.171  1.00  0.00     0.018 A 
ATOM     13  C   UNL     1      -2.135  -3.629  -1.071  1.00  0.00     0.272 C 
ATOM     14  C   UNL     1      -3.492  -0.378  -1.083  1.00  0.00     0.006 A 
ATOM     15  C   UNL     1      -1.851   1.414  -1.166  1.00  0.00     0.027 A 
ATOM     16  C   UNL     1      -4.428  -2.901  -1.209  1.00  0.00     0.150 C 
ATOM     17  O   UNL     1      -1.182  -4.392  -0.996  1.00  0.00    -0.267 OA
ATOM     18  C   UNL     1      -4.531   0.570  -1.014  1.00  0.00     0.011 A 
ATOM     19  C   UNL     1      -2.898   2.341  -1.086  1.00  0.00     0.002 A 
ATOM     20  C   UNL     1      -4.220   1.928  -0.999  1.00  0.00     0.001 A 
BRANCH   9  21
ATOM     21  C   UNL     1       0.148  -1.090  -1.055  1.00  0.00     0.082 C 
ATOM     22  C   UNL     1       0.743  -0.161   0.019  1.00  0.00     0.031 C 
ATOM     23  C   UNL     1       0.836  -2.447  -0.864  1.00  0.00     0.031 C 
ENDBRANCH   9  21
BRANCH  16  24
ATOM     24  C   UNL     1      -5.048  -3.021  -2.595  1.00  0.00    -0.021 A 
ATOM     25  C   UNL     1      -6.026  -4.015  -2.799  1.00  0.00     0.006 A 
ATOM     26  C   UNL     1      -4.678  -2.248  -3.713  1.00  0.00     0.006 A 
ATOM     27  C   UNL     1      -6.565  -4.260  -4.065  1.00  0.00     0.000 A 
ATOM     28  C   UNL     1      -5.237  -2.475  -4.974  1.00  0.00     0.000 A 
ATOM     29  C   UNL     1      -6.168  -3.491  -5.153  1.00  0.00     0.000 A 
ENDBRANCH  16  24
ENDBRANCH   7   8
ENDBRANCH   4   7
ENDBRANCH   2   3
ENDBRANCH   1   2
BRANCH   1  30
ATOM     30  C   UNL     1      -2.588  -2.386   3.772  1.00  0.00     0.023 C 
BRANCH  30  31
ATOM     31  C   UNL     1      -1.978  -3.260   4.867  1.00  0.00     0.116 C 
BRANCH  31  32
ATOM     32  N   UNL     1      -0.546  -3.433   4.721  1.00  0.00    -0.352 N 
ATOM     33  C   UNL     1       0.555  -2.805   5.222  1.00  0.00     0.251 C 
ATOM     34  H   UNL     1      -0.316  -4.177   4.120  1.00  0.00     0.163 HD
ATOM     35  O   UNL     1       1.645  -3.311   4.945  1.00  0.00    -0.269 OA
BRANCH  33  36
ATOM     36  C   UNL     1       0.531  -1.529   5.976  1.00  0.00     0.039 A 
ATOM     37  C   UNL     1      -0.619  -0.837   6.361  1.00  0.00     0.014 A 
ATOM     38  C   UNL     1       1.788  -0.940   6.202  1.00  0.00     0.014 A 
ATOM     39  C   UNL     1      -0.533   0.476   6.785  1.00  0.00     0.010 A 
ATOM     40  C   UNL     1       1.883   0.358   6.665  1.00  0.00     0.010 A 
ATOM     41  C   UNL     1       0.714   1.085   6.859  1.00  0.00    -0.014 A 
BRANCH  41  42
ATOM     42  C   UNL     1       0.762   2.497   7.196  1.00  0.00     0.031 A 
ATOM     43  C   UNL     1       0.215   2.826   8.544  1.00  0.00     0.074 A 
ATOM     44  C   UNL     1       1.367   3.372   6.366  1.00  0.00     0.049 A 
ATOM     45  N   UNL     1      -0.725   3.658   8.854  1.00  0.00    -0.248 NA
ATOM     46  C   UNL     1       0.682   2.009   9.679  1.00  0.00     0.031 C 
ATOM     47  C   UNL     1       2.107   3.086   5.130  1.00  0.00     0.029 A 
ATOM     48  N   UNL     1       1.549   4.710   6.520  1.00  0.00    -0.354 N 
ATOM     49  C   UNL     1      -0.827   3.617  10.245  1.00  0.00     0.074 A 
ATOM     50  C   UNL     1      -0.060   2.482  10.679  1.00  0.00     0.031 C 
ATOM     51  C   UNL     1       2.861   4.157   4.799  1.00  0.00     0.029 A 
ATOM     52  C   UNL     1       2.547   5.241   5.708  1.00  0.00     0.049 A 
ATOM     53  H   UNL     1       1.023   5.254   7.149  1.00  0.00     0.167 HD
ATOM     54  C   UNL     1      -1.331   4.667  10.951  1.00  0.00     0.037 A 
ATOM     55  C   UNL     1       3.127   6.457   5.864  1.00  0.00     0.037 A 
ATOM     56  C   UNL     1      -2.169   5.496  10.126  1.00  0.00     0.049 A 
ATOM     57  C   UNL     1       2.216   7.273   6.707  1.00  0.00     0.074 A 
ATOM     58  C   UNL     1      -3.358   5.313   9.448  1.00  0.00     0.029 A 
ATOM     59  N   UNL     1      -1.627   6.649   9.615  1.00  0.00    -0.354 N 
ATOM     60  N   UNL     1       1.037   7.668   6.310  1.00  0.00    -0.248 NA
ATOM     61  C   UNL     1       2.401   7.205   8.150  1.00  0.00     0.031 C 
ATOM     62  C   UNL     1      -3.214   6.066   8.245  1.00  0.00     0.029 A 
ATOM     63  C   UNL     1      -1.978   6.709   8.292  1.00  0.00     0.049 A 
ATOM     64  H   UNL     1      -1.087   7.309  10.107  1.00  0.00     0.167 HD
ATOM     65  C   UNL     1       0.213   7.495   7.413  1.00  0.00     0.074 A 
ATOM     66  C   UNL     1       1.122   7.256   8.534  1.00  0.00     0.031 C 
ATOM     67  C   UNL     1      -1.126   7.269   7.271  1.00  0.00     0.037 A 
BRANCH  54  68
ATOM     68  C   UNL     1      -0.719   5.176  12.239  1.00  0.00     0.057 A 
ATOM     69  C   UNL     1       0.593   4.882  12.665  1.00  0.00     0.134 A 
ATOM     70  C   UNL     1      -1.326   6.265  12.892  1.00  0.00     0.134 A 
ATOM     71  F   UNL     1       1.323   3.893  12.139  1.00  0.00    -0.206 F 
ATOM     72  C   UNL     1       1.278   5.661  13.600  1.00  0.00     0.040 A 
ATOM     73  C   UNL     1      -0.633   7.078  13.797  1.00  0.00     0.040 A 
ATOM     74  F   UNL     1      -2.582   6.633  12.597  1.00  0.00    -0.206 F 
ATOM     75  C   UNL     1       0.682   6.790  14.136  1.00  0.00     0.006 A 
ENDBRANCH  54  68
BRANCH  55  76
ATOM     76  C   UNL     1       4.556   6.792   5.663  1.00  0.00     0.057 A 
ATOM     77  C   UNL     1       5.567   5.836   5.877  1.00  0.00     0.134 A 
ATOM     78  C   UNL     1       4.986   8.114   5.502  1.00  0.00     0.134 A 
ATOM     79  F   UNL     1       5.266   4.555   6.136  1.00  0.00    -0.206 F 
ATOM     80  C   UNL     1       6.923   6.171   5.920  1.00  0.00     0.040 A 
ATOM     81  C   UNL     1       6.343   8.466   5.549  1.00  0.00     0.040 A 
ATOM     82  F   UNL     1       4.095   9.104   5.349  1.00  0.00    -0.206 F 
ATOM     83  C   UNL     1       7.316   7.494   5.765  1.00  0.00     0.006 A 
ENDBRANCH  55  76
BRANCH  67  84
ATOM     84  C   UNL     1      -1.708   7.383   5.888  1.00  0.00     0.057 A 
ATOM     85  C   UNL     1      -2.734   8.302   5.656  1.00  0.00     0.134 A 
ATOM     86  C   UNL     1      -1.386   6.514   4.834  1.00  0.00     0.134 A 
ATOM     87  F   UNL     1      -3.143   9.119   6.639  1.00  0.00    -0.206 F 
ATOM     88  C   UNL     1      -3.398   8.369   4.429  1.00  0.00     0.040 A 
ATOM     89  C   UNL     1      -2.021   6.590   3.590  1.00  0.00     0.040 A 
ATOM     90  F   UNL     1      -0.496   5.529   4.998  1.00  0.00    -0.206 F 
ATOM     91  C   UNL     1      -3.034   7.521   3.386  1.00  0.00     0.006 A 
ENDBRANCH  67  84
ENDBRANCH  41  42
ENDBRANCH  33  36
ENDBRANCH  31  32
ENDBRANCH  30  31
ENDBRANCH   1  30
TORSDOF 14
