REMARK SMILES CCOc1ccc(-c2ccc(=O)n(CC(=O)NCCCCNC(=O)c3ccc(-c4c5nc(c(-c6c(F)cccc6F)c6ccc([nH]6)c(-c6c(F)cccc6F)c6nc(c(-c7c(F)cccc7F)c7ccc4[nH]7)C=C6)C=C5)cc3)n2)cc1
REMARK SMILES IDX 18 1 17 2 15 3 16 4 14 6 13 7 8 8 9 9 79 10 10 11 11 12
REMARK SMILES IDX 12 13 7 14 4 15 5 16 81 17 6 18 80 19 3 20 2 21 1 22 19 23
REMARK SMILES IDX 20 24 21 25 22 26 23 27 24 29 25 30 26 31 78 32 27 33 77 34
REMARK SMILES IDX 28 35 29 36 30 37 71 38 31 39 76 40 70 41 72 42 32 43 75 44
REMARK SMILES IDX 69 45 68 46 33 48 59 49 42 50 58 51 43 52 46 53 57 54 73 55
REMARK SMILES IDX 44 56 45 57 56 59 74 60 47 61 34 62 35 63 40 64 36 65 37 66
REMARK SMILES IDX 39 67 41 68 38 69 60 70 61 71 66 72 62 73 63 74 65 75 67 76
REMARK SMILES IDX 64 77 48 78 49 79 54 80 50 81 51 82 53 83 55 84 52 85
REMARK H PARENT 17 5 22 28 72 47 46 58
REMARK Flexibility Score: inf
ROOT
ATOM      1  C   UNL     1       7.574  -6.507   1.258  1.00  0.00     0.116 C 
ENDROOT
BRANCH   1   2
ATOM      2  N   UNL     1       8.998  -6.481   1.518  1.00  0.00    -0.354 N 
ATOM      3  C   UNL     1       9.799  -5.410   1.808  1.00  0.00     0.241 C 
ATOM      4  O   UNL     1      10.926  -5.661   2.246  1.00  0.00    -0.273 OA
ATOM      5  H   UNL     1       9.453  -7.353   1.480  1.00  0.00     0.163 HD
BRANCH   3   6
ATOM      6  C   UNL     1       9.262  -3.974   1.775  1.00  0.00     0.248 C 
BRANCH   6   7
ATOM      7  N   UNL     1       8.627  -3.618   0.512  1.00  0.00    -0.220 N 
ATOM      8  C   UNL     1       6.686  -3.113  -0.589  1.00  0.00     0.091 A 
ATOM      9  C   UNL     1       7.376  -3.000  -1.888  1.00  0.00     0.036 A 
ATOM     10  N   UNL     1       7.268  -3.387   0.536  1.00  0.00    -0.169 NA
ATOM     11  C   UNL     1       8.703  -3.136  -1.868  1.00  0.00     0.075 A 
ATOM     12  C   UNL     1       9.421  -3.436  -0.611  1.00  0.00     0.267 A 
ATOM     13  O   UNL     1      10.643  -3.539  -0.635  1.00  0.00    -0.268 OA
BRANCH   8  14
ATOM     14  C   UNL     1       5.229  -2.863  -0.598  1.00  0.00     0.002 A 
ATOM     15  C   UNL     1       2.498  -2.353  -0.525  1.00  0.00     0.119 A 
ATOM     16  C   UNL     1       2.994  -3.333  -1.384  1.00  0.00     0.047 A 
ATOM     17  C   UNL     1       3.353  -1.664   0.333  1.00  0.00     0.047 A 
ATOM     18  C   UNL     1       4.368  -3.588  -1.430  1.00  0.00     0.014 A 
ATOM     19  C   UNL     1       4.722  -1.913   0.294  1.00  0.00     0.014 A 
BRANCH  15  20
ATOM     20  O   UNL     1       1.146  -2.167  -0.451  1.00  0.00    -0.494 OA
BRANCH  20  21
ATOM     21  C   UNL     1       0.720  -0.952  -1.083  1.00  0.00     0.226 C 
ATOM     22  C   UNL     1       0.658   0.202  -0.095  1.00  0.00     0.049 C 
ENDBRANCH  20  21
ENDBRANCH  15  20
ENDBRANCH   8  14
ENDBRANCH   6   7
ENDBRANCH   3   6
ENDBRANCH   1   2
BRANCH   1  23
ATOM     23  C   UNL     1       7.254  -6.677  -0.226  1.00  0.00     0.023 C 
BRANCH  23  24
ATOM     24  C   UNL     1       7.621  -8.041  -0.813  1.00  0.00     0.023 C 
BRANCH  24  25
ATOM     25  C   UNL     1       6.983  -9.243  -0.128  1.00  0.00     0.116 C 
BRANCH  25  26
ATOM     26  N   UNL     1       5.529  -9.201  -0.129  1.00  0.00    -0.352 N 
ATOM     27  C   UNL     1       4.634 -10.221  -0.345  1.00  0.00     0.251 C 
ATOM     28  H   UNL     1       5.130  -8.319   0.050  1.00  0.00     0.163 HD
ATOM     29  O   UNL     1       3.433  -9.981  -0.429  1.00  0.00    -0.269 OA
BRANCH  27  30
ATOM     30  C   UNL     1       5.124 -11.606  -0.517  1.00  0.00     0.039 A 
ATOM     31  C   UNL     1       4.618 -12.372  -1.571  1.00  0.00     0.014 A 
ATOM     32  C   UNL     1       6.090 -12.141   0.338  1.00  0.00     0.014 A 
ATOM     33  C   UNL     1       5.138 -13.644  -1.814  1.00  0.00     0.010 A 
ATOM     34  C   UNL     1       6.658 -13.379   0.052  1.00  0.00     0.010 A 
ATOM     35  C   UNL     1       6.193 -14.140  -1.031  1.00  0.00    -0.014 A 
BRANCH  35  36
ATOM     36  C   UNL     1       6.841 -15.437  -1.348  1.00  0.00     0.031 A 
ATOM     37  C   UNL     1       6.776 -16.581  -0.376  1.00  0.00     0.074 A 
ATOM     38  C   UNL     1       7.561 -15.557  -2.480  1.00  0.00     0.049 A 
ATOM     39  N   UNL     1       7.331 -17.764  -0.454  1.00  0.00    -0.248 NA
ATOM     40  C   UNL     1       6.009 -16.355   0.858  1.00  0.00     0.031 C 
ATOM     41  C   UNL     1       7.755 -14.501  -3.474  1.00  0.00     0.029 A 
ATOM     42  N   UNL     1       8.277 -16.618  -2.977  1.00  0.00    -0.354 N 
ATOM     43  C   UNL     1       6.997 -18.416   0.726  1.00  0.00     0.074 A 
ATOM     44  C   UNL     1       6.233 -17.479   1.523  1.00  0.00     0.031 C 
ATOM     45  C   UNL     1       8.523 -14.971  -4.470  1.00  0.00     0.029 A 
ATOM     46  C   UNL     1       8.903 -16.347  -4.168  1.00  0.00     0.049 A 
ATOM     47  H   UNL     1       8.336 -17.489  -2.522  1.00  0.00     0.167 HD
ATOM     48  C   UNL     1       7.282 -19.685   1.102  1.00  0.00     0.037 A 
ATOM     49  C   UNL     1       9.702 -17.118  -4.931  1.00  0.00     0.037 A 
ATOM     50  C   UNL     1       8.025 -20.621   0.299  1.00  0.00     0.049 A 
ATOM     51  C   UNL     1      10.000 -18.525  -4.498  1.00  0.00     0.074 A 
ATOM     52  C   UNL     1       8.296 -21.954   0.555  1.00  0.00     0.029 A 
ATOM     53  N   UNL     1       8.627 -20.317  -0.914  1.00  0.00    -0.354 N 
ATOM     54  N   UNL     1       9.604 -19.159  -3.422  1.00  0.00    -0.248 NA
ATOM     55  C   UNL     1      10.851 -19.326  -5.389  1.00  0.00     0.031 C 
ATOM     56  C   UNL     1       9.102 -22.443  -0.478  1.00  0.00     0.029 A 
ATOM     57  C   UNL     1       9.293 -21.429  -1.403  1.00  0.00     0.049 A 
ATOM     58  H   UNL     1       8.586 -19.441  -1.361  1.00  0.00     0.167 HD
ATOM     59  C   UNL     1      10.140 -20.436  -3.512  1.00  0.00     0.074 A 
ATOM     60  C   UNL     1      10.877 -20.492  -4.759  1.00  0.00     0.031 C 
ATOM     61  C   UNL     1      10.031 -21.469  -2.641  1.00  0.00     0.037 A 
BRANCH  48  62
ATOM     62  C   UNL     1       6.788 -20.130   2.449  1.00  0.00     0.057 A 
ATOM     63  C   UNL     1       5.425 -20.320   2.714  1.00  0.00     0.134 A 
ATOM     64  C   UNL     1       7.688 -20.379   3.493  1.00  0.00     0.134 A 
ATOM     65  F   UNL     1       4.509 -20.088   1.761  1.00  0.00    -0.206 F 
ATOM     66  C   UNL     1       4.972 -20.707   3.976  1.00  0.00     0.040 A 
ATOM     67  C   UNL     1       7.249 -20.794   4.752  1.00  0.00     0.040 A 
ATOM     68  F   UNL     1       9.008 -20.224   3.308  1.00  0.00    -0.206 F 
ATOM     69  C   UNL     1       5.887 -20.950   4.999  1.00  0.00     0.006 A 
ENDBRANCH  48  62
BRANCH  49  70
ATOM     70  C   UNL     1      10.254 -16.573  -6.196  1.00  0.00     0.057 A 
ATOM     71  C   UNL     1       9.772 -17.004  -7.437  1.00  0.00     0.134 A 
ATOM     72  C   UNL     1      11.252 -15.592  -6.195  1.00  0.00     0.134 A 
ATOM     73  F   UNL     1       8.828 -17.955  -7.500  1.00  0.00    -0.206 F 
ATOM     74  C   UNL     1      10.268 -16.485  -8.633  1.00  0.00     0.040 A 
ATOM     75  C   UNL     1      11.741 -15.047  -7.383  1.00  0.00     0.040 A 
ATOM     76  F   UNL     1      11.748 -15.131  -5.037  1.00  0.00    -0.206 F 
ATOM     77  C   UNL     1      11.251 -15.497  -8.607  1.00  0.00     0.006 A 
ENDBRANCH  49  70
BRANCH  61  78
ATOM     78  C   UNL     1      10.713 -22.753  -3.013  1.00  0.00     0.057 A 
ATOM     79  C   UNL     1      12.107 -22.890  -2.966  1.00  0.00     0.134 A 
ATOM     80  C   UNL     1       9.966 -23.877  -3.387  1.00  0.00     0.134 A 
ATOM     81  F   UNL     1      12.881 -21.847  -2.628  1.00  0.00    -0.206 F 
ATOM     82  C   UNL     1      12.733 -24.092  -3.298  1.00  0.00     0.040 A 
ATOM     83  C   UNL     1      10.579 -25.092  -3.697  1.00  0.00     0.040 A 
ATOM     84  F   UNL     1       8.627 -23.816  -3.446  1.00  0.00    -0.206 F 
ATOM     85  C   UNL     1      11.967 -25.200  -3.658  1.00  0.00     0.006 A 
ENDBRANCH  61  78
ENDBRANCH  35  36
ENDBRANCH  27  30
ENDBRANCH  25  26
ENDBRANCH  24  25
ENDBRANCH  23  24
ENDBRANCH   1  23
TORSDOF 15
