REMARK SMILES [NH3+][C@H]1C=C[C@@H](C(=O)NC2(CC(=O)NCCCCNC(=O)c3ccc(-c4c5nc(c(-c6c(F)cccc6F)c6ccc([nH]6)c(-c6c(F)cccc6F)c6nc(c(-c7c(F)cccc7F)c7ccc4[nH]7)C=C6)C=C5)cc3)CCC2)C1
REMARK SMILES IDX 14 1 13 2 11 3 12 4 10 6 9 7 75 8 77 9 76 10 8 11 6 12 7 13
REMARK SMILES IDX 5 15 2 16 3 17 78 18 4 19 1 20 15 24 16 25 17 26 18 27 19 28
REMARK SMILES IDX 20 30 21 31 22 32 74 33 23 34 73 35 24 36 25 37 26 38 67 39
REMARK SMILES IDX 27 40 72 41 66 42 68 43 28 44 71 45 65 46 64 47 29 49 55 50
REMARK SMILES IDX 38 51 54 52 39 53 42 54 53 55 69 56 40 57 41 58 52 60 70 61
REMARK SMILES IDX 43 62 30 63 31 64 36 65 32 66 33 67 35 68 37 69 34 70 56 71
REMARK SMILES IDX 57 72 62 73 58 74 59 75 61 76 63 77 60 78 44 79 45 80 50 81
REMARK SMILES IDX 46 82 47 83 49 84 51 85 48 86
REMARK H PARENT 13 5 8 14 1 21 1 22 1 23 18 29 68 48 42 59
REMARK Flexibility Score: inf
ROOT
ATOM      1  C   UNL     1       2.873  -3.119   1.161  1.00  0.00     0.116 C 
ENDROOT
BRANCH   1   2
ATOM      2  N   UNL     1       3.572  -4.051   0.301  1.00  0.00    -0.356 N 
ATOM      3  C   UNL     1       4.328  -3.770  -0.799  1.00  0.00     0.222 C 
ATOM      4  O   UNL     1       4.587  -4.684  -1.585  1.00  0.00    -0.275 OA
ATOM      5  H   UNL     1       3.493  -5.003   0.540  1.00  0.00     0.163 HD
BRANCH   3   6
ATOM      6  C   UNL     1       4.868  -2.376  -1.034  1.00  0.00     0.128 C 
BRANCH   6   7
ATOM      7  C   UNL     1       4.063  -1.421  -1.957  1.00  0.00     0.049 C 
ATOM      8  C   UNL     1       4.999  -0.322  -2.580  1.00  0.00     0.029 C 
ATOM      9  C   UNL     1       3.387  -0.244  -1.209  1.00  0.00     0.029 C 
ATOM     10  C   UNL     1       4.694   0.555  -1.356  1.00  0.00     0.005 C 
BRANCH   7  11
ATOM     11  N   UNL     1       3.375  -2.182  -3.024  1.00  0.00    -0.350 N 
ATOM     12  C   UNL     1       2.269  -2.107  -3.808  1.00  0.00     0.227 C 
ATOM     13  O   UNL     1       2.210  -2.985  -4.686  1.00  0.00    -0.274 OA
ATOM     14  H   UNL     1       3.878  -3.003  -3.229  1.00  0.00     0.164 HD
BRANCH  12  15
ATOM     15  C   UNL     1       1.107  -1.111  -3.735  1.00  0.00     0.107 C 
ATOM     16  C   UNL     1      -0.284   0.321  -2.335  1.00  0.00     0.205 C 
ATOM     17  C   UNL     1       0.610   1.116  -3.232  1.00  0.00     0.033 C 
ATOM     18  C   UNL     1       0.316  -1.087  -2.432  1.00  0.00     0.087 C 
ATOM     19  C   UNL     1       1.393   0.334  -3.990  1.00  0.00    -0.012 C 
BRANCH  16  20
ATOM     20  N   UNL     1      -0.274   0.830  -0.975  1.00  0.00    -0.352 N 
ATOM     21  H   UNL     1      -0.681   1.765  -0.959  1.00  0.00     0.345 HD
ATOM     22  H   UNL     1       0.686   0.872  -0.634  1.00  0.00     0.345 HD
ATOM     23  H   UNL     1      -0.821   0.211  -0.376  1.00  0.00     0.345 HD
ENDBRANCH  16  20
ENDBRANCH  12  15
ENDBRANCH   7  11
ENDBRANCH   6   7
ENDBRANCH   3   6
ENDBRANCH   1   2
BRANCH   1  24
ATOM     24  C   UNL     1       1.571  -2.695   0.490  1.00  0.00     0.023 C 
BRANCH  24  25
ATOM     25  C   UNL     1       0.357  -3.562   0.789  1.00  0.00     0.023 C 
BRANCH  25  26
ATOM     26  C   UNL     1      -0.172  -3.422   2.206  1.00  0.00     0.116 C 
BRANCH  26  27
ATOM     27  N   UNL     1      -0.655  -2.085   2.530  1.00  0.00    -0.352 N 
ATOM     28  C   UNL     1      -1.730  -1.732   3.317  1.00  0.00     0.251 C 
ATOM     29  H   UNL     1      -0.148  -1.339   2.137  1.00  0.00     0.163 HD
ATOM     30  O   UNL     1      -2.051  -0.553   3.433  1.00  0.00    -0.269 OA
BRANCH  28  31
ATOM     31  C   UNL     1      -2.521  -2.792   3.978  1.00  0.00     0.039 A 
ATOM     32  C   UNL     1      -3.916  -2.749   3.909  1.00  0.00     0.014 A 
ATOM     33  C   UNL     1      -1.881  -3.864   4.600  1.00  0.00     0.014 A 
ATOM     34  C   UNL     1      -4.662  -3.831   4.386  1.00  0.00     0.010 A 
ATOM     35  C   UNL     1      -2.614  -4.983   4.965  1.00  0.00     0.010 A 
ATOM     36  C   UNL     1      -4.014  -4.978   4.872  1.00  0.00    -0.014 A 
BRANCH  36  37
ATOM     37  C   UNL     1      -4.762  -6.178   5.325  1.00  0.00     0.031 A 
ATOM     38  C   UNL     1      -4.587  -6.670   6.738  1.00  0.00     0.074 A 
ATOM     39  C   UNL     1      -5.507  -6.884   4.453  1.00  0.00     0.049 A 
ATOM     40  N   UNL     1      -5.013  -7.776   7.291  1.00  0.00    -0.248 NA
ATOM     41  C   UNL     1      -3.775  -5.827   7.633  1.00  0.00     0.031 C 
ATOM     42  C   UNL     1      -5.703  -6.558   3.038  1.00  0.00     0.029 A 
ATOM     43  N   UNL     1      -6.229  -8.037   4.629  1.00  0.00    -0.354 N 
ATOM     44  C   UNL     1      -4.482  -7.782   8.574  1.00  0.00     0.074 A 
ATOM     45  C   UNL     1      -3.656  -6.603   8.699  1.00  0.00     0.031 C 
ATOM     46  C   UNL     1      -6.519  -7.470   2.485  1.00  0.00     0.029 A 
ATOM     47  C   UNL     1      -6.873  -8.464   3.493  1.00  0.00     0.049 A 
ATOM     48  H   UNL     1      -6.281  -8.514   5.488  1.00  0.00     0.167 HD
ATOM     49  C   UNL     1      -4.688  -8.673   9.573  1.00  0.00     0.037 A 
ATOM     50  C   UNL     1      -7.663  -9.536   3.291  1.00  0.00     0.037 A 
ATOM     51  C   UNL     1      -5.569  -9.804   9.472  1.00  0.00     0.049 A 
ATOM     52  C   UNL     1      -7.942 -10.468   4.437  1.00  0.00     0.074 A 
ATOM     53  C   UNL     1      -5.908 -10.725  10.447  1.00  0.00     0.029 A 
ATOM     54  N   UNL     1      -6.269 -10.154   8.327  1.00  0.00    -0.354 N 
ATOM     55  N   UNL     1      -7.476 -10.434   5.662  1.00  0.00    -0.248 NA
ATOM     56  C   UNL     1      -8.865 -11.581   4.176  1.00  0.00     0.031 C 
ATOM     57  C   UNL     1      -6.803 -11.644   9.885  1.00  0.00     0.029 A 
ATOM     58  C   UNL     1      -7.043 -11.274   8.572  1.00  0.00     0.049 A 
ATOM     59  H   UNL     1      -6.221  -9.676   7.467  1.00  0.00     0.167 HD
ATOM     60  C   UNL     1      -8.075 -11.496   6.326  1.00  0.00     0.074 A 
ATOM     61  C   UNL     1      -8.943 -12.152   5.370  1.00  0.00     0.031 C 
ATOM     62  C   UNL     1      -7.920 -11.893   7.613  1.00  0.00     0.037 A 
BRANCH  49  63
ATOM     63  C   UNL     1      -3.959  -8.438  10.864  1.00  0.00     0.057 A 
ATOM     64  C   UNL     1      -4.279  -7.367  11.709  1.00  0.00     0.134 A 
ATOM     65  C   UNL     1      -2.925  -9.293  11.268  1.00  0.00     0.134 A 
ATOM     66  F   UNL     1      -5.247  -6.501  11.371  1.00  0.00    -0.206 F 
ATOM     67  C   UNL     1      -3.573  -7.131  12.889  1.00  0.00     0.040 A 
ATOM     68  C   UNL     1      -2.232  -9.085  12.461  1.00  0.00     0.040 A 
ATOM     69  F   UNL     1      -2.571 -10.341  10.509  1.00  0.00    -0.206 F 
ATOM     70  C   UNL     1      -2.549  -7.995  13.271  1.00  0.00     0.006 A 
ENDBRANCH  49  63
BRANCH  50  71
ATOM     71  C   UNL     1      -8.293  -9.756   1.966  1.00  0.00     0.057 A 
ATOM     72  C   UNL     1      -9.664  -9.539   1.780  1.00  0.00     0.134 A 
ATOM     73  C   UNL     1      -7.553 -10.190   0.861  1.00  0.00     0.134 A 
ATOM     74  F   UNL     1     -10.428  -9.138   2.808  1.00  0.00    -0.206 F 
ATOM     75  C   UNL     1     -10.281  -9.765   0.550  1.00  0.00     0.040 A 
ATOM     76  C   UNL     1      -8.154 -10.399  -0.383  1.00  0.00     0.040 A 
ATOM     77  F   UNL     1      -6.234 -10.406   0.971  1.00  0.00    -0.206 F 
ATOM     78  C   UNL     1      -9.524 -10.193  -0.538  1.00  0.00     0.006 A 
ENDBRANCH  50  71
BRANCH  62  79
ATOM     79  C   UNL     1      -8.747 -13.054   8.075  1.00  0.00     0.057 A 
ATOM     80  C   UNL     1      -8.453 -14.370   7.697  1.00  0.00     0.134 A 
ATOM     81  C   UNL     1      -9.826 -12.853   8.945  1.00  0.00     0.134 A 
ATOM     82  F   UNL     1      -7.439 -14.625   6.857  1.00  0.00    -0.206 F 
ATOM     83  C   UNL     1      -9.217 -15.444   8.154  1.00  0.00     0.040 A 
ATOM     84  C   UNL     1     -10.583 -13.921   9.426  1.00  0.00     0.040 A 
ATOM     85  F   UNL     1     -10.153 -11.616   9.350  1.00  0.00    -0.206 F 
ATOM     86  C   UNL     1     -10.282 -15.221   9.026  1.00  0.00     0.006 A 
ENDBRANCH  62  79
ENDBRANCH  36  37
ENDBRANCH  28  31
ENDBRANCH  26  27
ENDBRANCH  25  26
ENDBRANCH  24  25
ENDBRANCH   1  24
TORSDOF 15
