REMARK SMILES COC(=O)c1ccc([C@H]2Nc3c(C(=O)NCCCCNC(=O)c4ccc(-c5c6nc(c(-c7c(F)cccc7F)c7ccc([nH]7)c(-c7c(F)cccc7F)c7nc(c(-c8c(F)cccc8F)c8ccc5[nH]8)C=C7)C=C6)cc4)cccc3[C@@H]3[C@@H]4CC[C@@H](C4)[C@@H]32)cc1
REMARK SMILES IDX 17 1 16 2 15 3 13 4 14 5 12 7 9 8 10 9 87 10 11 11 81 13
REMARK SMILES IDX 85 14 80 15 82 16 84 17 86 18 77 19 79 20 83 21 78 22 8 23
REMARK SMILES IDX 5 24 6 25 89 26 7 27 88 28 3 29 4 30 2 31 1 32 18 33 19 34
REMARK SMILES IDX 20 35 21 36 22 38 23 39 24 40 76 41 25 42 75 43 26 44 27 45
REMARK SMILES IDX 28 46 69 47 29 48 74 49 68 50 70 51 30 52 73 53 67 54 66 55
REMARK SMILES IDX 31 57 57 58 40 59 56 60 41 61 44 62 55 63 71 64 42 65 43 66
REMARK SMILES IDX 54 68 72 69 45 70 32 71 33 72 38 73 34 74 35 75 37 76 39 77
REMARK SMILES IDX 36 78 58 79 59 80 64 81 60 82 61 83 63 84 65 85 62 86 46 87
REMARK SMILES IDX 47 88 52 89 48 90 49 91 51 92 53 93 50 94
REMARK H PARENT 15 6 10 12 20 37 70 56 44 67
REMARK Flexibility Score: inf
ROOT
ATOM      1  C   UNL     1      -4.488   5.229  10.697  1.00  0.00     0.023 C 
ENDROOT
BRANCH   1   2
ATOM      2  C   UNL     1      -4.042   4.476   9.446  1.00  0.00     0.116 C 
BRANCH   2   3
ATOM      3  N   UNL     1      -4.877   4.607   8.269  1.00  0.00    -0.352 N 
ATOM      4  C   UNL     1      -4.537   4.490   6.927  1.00  0.00     0.253 C 
ATOM      5  O   UNL     1      -5.448   4.562   6.100  1.00  0.00    -0.269 OA
ATOM      6  H   UNL     1      -5.824   4.809   8.446  1.00  0.00     0.163 HD
BRANCH   4   7
ATOM      7  C   UNL     1      -3.123   4.384   6.437  1.00  0.00     0.063 A 
ATOM      8  C   UNL     1      -1.808   1.294   7.536  1.00  0.00     0.113 C 
ATOM      9  N   UNL     1      -2.453   2.565   7.911  1.00  0.00    -0.377 N 
ATOM     10  C   UNL     1      -0.419   1.484   8.166  1.00  0.00     0.027 C 
ATOM     11  C   UNL     1      -2.138   3.575   7.010  1.00  0.00     0.051 A 
ATOM     12  H   UNL     1      -3.033   2.684   8.698  1.00  0.00     0.161 HD
ATOM     13  C   UNL     1       0.183   2.844   7.534  1.00  0.00     0.030 C 
ATOM     14  C   UNL     1       0.738   0.493   7.931  1.00  0.00    -0.005 C 
ATOM     15  C   UNL     1      -0.776   3.622   6.629  1.00  0.00    -0.020 A 
ATOM     16  C   UNL     1       1.552   2.378   7.005  1.00  0.00    -0.003 C 
ATOM     17  C   UNL     1       0.901   0.118   6.456  1.00  0.00     0.004 C 
ATOM     18  C   UNL     1       1.964   1.409   8.122  1.00  0.00     0.008 C 
ATOM     19  C   UNL     1      -2.783   5.022   5.243  1.00  0.00     0.016 A 
ATOM     20  C   UNL     1      -0.449   4.331   5.481  1.00  0.00     0.006 A 
ATOM     21  C   UNL     1       1.407   1.417   5.814  1.00  0.00     0.004 C 
ATOM     22  C   UNL     1      -1.466   4.971   4.755  1.00  0.00     0.001 A 
BRANCH   8  23
ATOM     23  C   UNL     1      -2.990   0.347   7.735  1.00  0.00    -0.025 A 
ATOM     24  C   UNL     1      -5.780   0.514   7.951  1.00  0.00     0.060 A 
ATOM     25  C   UNL     1      -5.200   0.402   6.689  1.00  0.00     0.016 A 
ATOM     26  C   UNL     1      -4.993   0.293   9.095  1.00  0.00     0.016 A 
ATOM     27  C   UNL     1      -3.818   0.269   6.581  1.00  0.00     0.007 A 
ATOM     28  C   UNL     1      -3.593   0.191   8.992  1.00  0.00     0.007 A 
BRANCH  24  29
ATOM     29  C   UNL     1      -7.173   1.052   7.998  1.00  0.00     0.337 C 
ATOM     30  O   UNL     1      -7.943   1.023   7.063  1.00  0.00    -0.246 OA
BRANCH  29  31
ATOM     31  O   UNL     1      -7.365   1.718   9.171  1.00  0.00    -0.465 OA
ATOM     32  C   UNL     1      -8.507   2.582   9.191  1.00  0.00     0.282 C 
ENDBRANCH  29  31
ENDBRANCH  24  29
ENDBRANCH   8  23
ENDBRANCH   4   7
ENDBRANCH   2   3
ENDBRANCH   1   2
BRANCH   1  33
ATOM     33  C   UNL     1      -5.806   4.784  11.332  1.00  0.00     0.023 C 
BRANCH  33  34
ATOM     34  C   UNL     1      -5.939   3.297  11.653  1.00  0.00     0.116 C 
BRANCH  34  35
ATOM     35  N   UNL     1      -5.054   2.815  12.702  1.00  0.00    -0.352 N 
ATOM     36  C   UNL     1      -5.311   2.424  13.996  1.00  0.00     0.251 C 
ATOM     37  H   UNL     1      -4.107   2.760  12.441  1.00  0.00     0.163 HD
ATOM     38  O   UNL     1      -4.376   2.082  14.717  1.00  0.00    -0.269 OA
BRANCH  36  39
ATOM     39  C   UNL     1      -6.682   2.459  14.556  1.00  0.00     0.039 A 
ATOM     40  C   UNL     1      -6.864   3.019  15.826  1.00  0.00     0.014 A 
ATOM     41  C   UNL     1      -7.782   1.942  13.870  1.00  0.00     0.014 A 
ATOM     42  C   UNL     1      -8.150   3.155  16.355  1.00  0.00     0.010 A 
ATOM     43  C   UNL     1      -9.072   2.151  14.361  1.00  0.00     0.010 A 
ATOM     44  C   UNL     1      -9.272   2.773  15.603  1.00  0.00    -0.014 A 
BRANCH  44  45
ATOM     45  C   UNL     1     -10.653   3.043  16.088  1.00  0.00     0.031 A 
ATOM     46  C   UNL     1     -11.604   1.912  16.369  1.00  0.00     0.074 A 
ATOM     47  C   UNL     1     -11.076   4.317  16.217  1.00  0.00     0.049 A 
ATOM     48  N   UNL     1     -12.862   1.959  16.731  1.00  0.00    -0.248 NA
ATOM     49  C   UNL     1     -11.079   0.548  16.200  1.00  0.00     0.031 C 
ATOM     50  C   UNL     1     -10.273   5.509  15.936  1.00  0.00     0.029 A 
ATOM     51  N   UNL     1     -12.290   4.824  16.612  1.00  0.00    -0.354 N 
ATOM     52  C   UNL     1     -13.282   0.638  16.817  1.00  0.00     0.074 A 
ATOM     53  C   UNL     1     -12.159  -0.186  16.423  1.00  0.00     0.031 C 
ATOM     54  C   UNL     1     -11.005   6.605  16.193  1.00  0.00     0.029 A 
ATOM     55  C   UNL     1     -12.340   6.197  16.619  1.00  0.00     0.049 A 
ATOM     56  H   UNL     1     -13.053   4.256  16.865  1.00  0.00     0.167 HD
ATOM     57  C   UNL     1     -14.484   0.153  17.209  1.00  0.00     0.037 A 
ATOM     58  C   UNL     1     -13.347   7.036  16.929  1.00  0.00     0.037 A 
ATOM     59  C   UNL     1     -15.595   0.969  17.626  1.00  0.00     0.049 A 
ATOM     60  C   UNL     1     -14.674   6.472  17.355  1.00  0.00     0.074 A 
ATOM     61  C   UNL     1     -16.835   0.564  18.091  1.00  0.00     0.029 A 
ATOM     62  N   UNL     1     -15.600   2.355  17.631  1.00  0.00    -0.354 N 
ATOM     63  N   UNL     1     -15.036   5.220  17.484  1.00  0.00    -0.248 NA
ATOM     64  C   UNL     1     -15.731   7.441  17.680  1.00  0.00     0.031 C 
ATOM     65  C   UNL     1     -17.603   1.706  18.342  1.00  0.00     0.029 A 
ATOM     66  C   UNL     1     -16.827   2.822  18.075  1.00  0.00     0.049 A 
ATOM     67  H   UNL     1     -14.844   2.923  17.358  1.00  0.00     0.167 HD
ATOM     68  C   UNL     1     -16.351   5.249  17.933  1.00  0.00     0.074 A 
ATOM     69  C   UNL     1     -16.718   6.643  18.064  1.00  0.00     0.031 C 
ATOM     70  C   UNL     1     -17.177   4.212  18.211  1.00  0.00     0.037 A 
BRANCH  57  71
ATOM     71  C   UNL     1     -14.659  -1.338  17.214  1.00  0.00     0.057 A 
ATOM     72  C   UNL     1     -14.021  -2.151  18.160  1.00  0.00     0.134 A 
ATOM     73  C   UNL     1     -15.501  -1.965  16.287  1.00  0.00     0.134 A 
ATOM     74  F   UNL     1     -13.193  -1.614  19.069  1.00  0.00    -0.206 F 
ATOM     75  C   UNL     1     -14.194  -3.536  18.169  1.00  0.00     0.040 A 
ATOM     76  C   UNL     1     -15.703  -3.346  16.302  1.00  0.00     0.040 A 
ATOM     77  F   UNL     1     -16.149  -1.245  15.359  1.00  0.00    -0.206 F 
ATOM     78  C   UNL     1     -15.043  -4.136  17.241  1.00  0.00     0.006 A 
ENDBRANCH  57  71
BRANCH  58  79
ATOM     79  C   UNL     1     -13.135   8.504  16.877  1.00  0.00     0.057 A 
ATOM     80  C   UNL     1     -13.076   9.264  18.052  1.00  0.00     0.134 A 
ATOM     81  C   UNL     1     -12.999   9.184  15.662  1.00  0.00     0.134 A 
ATOM     82  F   UNL     1     -13.221   8.671  19.246  1.00  0.00    -0.206 F 
ATOM     83  C   UNL     1     -12.908  10.648  18.020  1.00  0.00     0.040 A 
ATOM     84  C   UNL     1     -12.806  10.566  15.615  1.00  0.00     0.040 A 
ATOM     85  F   UNL     1     -13.040   8.512  14.502  1.00  0.00    -0.206 F 
ATOM     86  C   UNL     1     -12.767  11.303  16.797  1.00  0.00     0.006 A 
ENDBRANCH  58  79
BRANCH  70  87
ATOM     87  C   UNL     1     -18.549   4.545  18.720  1.00  0.00     0.057 A 
ATOM     88  C   UNL     1     -19.544   5.063  17.883  1.00  0.00     0.134 A 
ATOM     89  C   UNL     1     -18.887   4.308  20.059  1.00  0.00     0.134 A 
ATOM     90  F   UNL     1     -19.279   5.325  16.594  1.00  0.00    -0.206 F 
ATOM     91  C   UNL     1     -20.822   5.354  18.363  1.00  0.00     0.040 A 
ATOM     92  C   UNL     1     -20.168   4.572  20.545  1.00  0.00     0.040 A 
ATOM     93  F   UNL     1     -17.982   3.806  20.912  1.00  0.00    -0.206 F 
ATOM     94  C   UNL     1     -21.138   5.101  19.697  1.00  0.00     0.006 A 
ENDBRANCH  70  87
ENDBRANCH  44  45
ENDBRANCH  36  39
ENDBRANCH  34  35
ENDBRANCH  33  34
ENDBRANCH   1  33
TORSDOF 14
