REMARK SMILES C[C@H](NC(=O)OCc1ccccc1)C(=O)NCC(=O)N1CCC[C@H]1C(=O)NCCCCNC(=O)c1ccc(-c2c3nc(c(-c4c(F)cccc4F)c4ccc([nH]4)c(-c4c(F)cccc4F)c4nc(c(-c5c(F)cccc5F)c5ccc2[nH]5)C=C4)C=C3)cc1
REMARK SMILES IDX 20 1 21 2 22 3 23 4 24 5 18 6 19 7 17 8 16 9 14 10 15 11
REMARK SMILES IDX 2 13 1 14 3 15 4 16 5 18 6 19 7 20 8 21 9 22 13 23 10 24
REMARK SMILES IDX 12 25 11 26 25 27 26 28 27 29 28 31 29 32 30 33 31 34 32 35
REMARK SMILES IDX 33 36 34 38 35 39 36 40 88 41 37 42 87 43 38 44 39 45 40 46
REMARK SMILES IDX 81 47 41 48 86 49 80 50 82 51 42 52 85 53 79 54 78 55 43 57
REMARK SMILES IDX 69 58 52 59 68 60 53 61 56 62 67 63 83 64 54 65 55 66 66 68
REMARK SMILES IDX 84 69 57 70 44 71 45 72 50 73 46 74 47 75 49 76 51 77 48 78
REMARK SMILES IDX 70 79 71 80 76 81 72 82 73 83 75 84 77 85 74 86 58 87 59 88
REMARK SMILES IDX 64 89 60 90 61 91 63 92 65 93 62 94
REMARK H PARENT 16 12 3 17 27 30 32 37 82 56 56 67
REMARK Flexibility Score: inf
ROOT
ATOM      1  N   UNL     1      -1.074  -1.788  -1.400  1.00  0.00    -0.329 N 
ATOM      2  C   UNL     1      -1.442  -1.658  -0.004  1.00  0.00     0.120 C 
ATOM      3  C   UNL     1      -0.251  -2.274   0.692  1.00  0.00     0.024 C 
ATOM      4  C   UNL     1       0.099  -3.445  -0.215  1.00  0.00     0.037 C 
ATOM      5  C   UNL     1      -0.477  -3.124  -1.606  1.00  0.00     0.174 C 
ENDROOT
BRANCH   1   6
ATOM      6  C   UNL     1      -1.126  -0.897  -2.447  1.00  0.00     0.242 C 
ATOM      7  O   UNL     1      -0.823  -1.256  -3.592  1.00  0.00    -0.273 OA
BRANCH   6   8
ATOM      8  C   UNL     1      -1.337   0.613  -2.228  1.00  0.00     0.216 C 
BRANCH   8   9
ATOM      9  N   UNL     1      -1.823   1.156  -0.977  1.00  0.00    -0.345 N 
ATOM     10  C   UNL     1      -1.159   1.754   0.052  1.00  0.00     0.242 C 
ATOM     11  O   UNL     1      -1.840   2.157   1.000  1.00  0.00    -0.273 OA
ATOM     12  H   UNL     1      -2.796   1.080  -0.848  1.00  0.00     0.164 HD
BRANCH  10  13
ATOM     13  C   UNL     1       0.359   2.022   0.013  1.00  0.00     0.171 C 
ATOM     14  C   UNL     1       0.663   3.187  -0.925  1.00  0.00     0.042 C 
BRANCH  13  15
ATOM     15  N   UNL     1       1.159   0.848  -0.311  1.00  0.00    -0.310 N 
ATOM     16  C   UNL     1       2.497   0.717  -0.069  1.00  0.00     0.408 C 
ATOM     17  H   UNL     1       0.699   0.090  -0.738  1.00  0.00     0.167 HD
ATOM     18  O   UNL     1       3.113  -0.274  -0.421  1.00  0.00    -0.225 OA
BRANCH  16  19
ATOM     19  O   UNL     1       3.013   1.798   0.561  1.00  0.00    -0.445 OA
BRANCH  19  20
ATOM     20  C   UNL     1       4.440   1.839   0.669  1.00  0.00     0.270 C 
BRANCH  20  21
ATOM     21  C   UNL     1       4.987   1.092   1.860  1.00  0.00    -0.011 A 
ATOM     22  C   UNL     1       4.214   0.831   3.000  1.00  0.00     0.007 A 
ATOM     23  C   UNL     1       6.331   0.690   1.849  1.00  0.00     0.007 A 
ATOM     24  C   UNL     1       4.764   0.147   4.086  1.00  0.00     0.000 A 
ATOM     25  C   UNL     1       6.881   0.012   2.937  1.00  0.00     0.000 A 
ATOM     26  C   UNL     1       6.095  -0.265   4.053  1.00  0.00     0.000 A 
ENDBRANCH  20  21
ENDBRANCH  19  20
ENDBRANCH  16  19
ENDBRANCH  13  15
ENDBRANCH  10  13
ENDBRANCH   8   9
ENDBRANCH   6   8
ENDBRANCH   1   6
BRANCH   5  27
ATOM     27  C   UNL     1      -1.522  -4.090  -2.260  1.00  0.00     0.242 C 
ATOM     28  O   UNL     1      -2.398  -3.680  -3.032  1.00  0.00    -0.273 OA
ATOM     29  N   UNL     1      -1.476  -5.446  -2.126  1.00  0.00    -0.354 N 
ATOM     30  H   UNL     1      -1.881  -5.951  -2.868  1.00  0.00     0.163 HD
BRANCH  29  31
ATOM     31  C   UNL     1      -0.926  -6.256  -1.066  1.00  0.00     0.116 C 
BRANCH  31  32
ATOM     32  C   UNL     1      -1.846  -6.195   0.164  1.00  0.00     0.023 C 
BRANCH  32  33
ATOM     33  C   UNL     1      -3.082  -7.085   0.070  1.00  0.00     0.023 C 
BRANCH  33  34
ATOM     34  C   UNL     1      -2.767  -8.562  -0.076  1.00  0.00     0.116 C 
BRANCH  34  35
ATOM     35  N   UNL     1      -1.914  -9.073   0.989  1.00  0.00    -0.352 N 
ATOM     36  C   UNL     1      -1.919 -10.331   1.538  1.00  0.00     0.251 C 
ATOM     37  H   UNL     1      -1.256  -8.441   1.358  1.00  0.00     0.163 HD
ATOM     38  O   UNL     1      -1.234 -10.596   2.517  1.00  0.00    -0.269 OA
BRANCH  36  39
ATOM     39  C   UNL     1      -2.809 -11.344   0.942  1.00  0.00     0.039 A 
ATOM     40  C   UNL     1      -3.703 -12.025   1.767  1.00  0.00     0.014 A 
ATOM     41  C   UNL     1      -2.815 -11.540  -0.441  1.00  0.00     0.014 A 
ATOM     42  C   UNL     1      -4.656 -12.863   1.190  1.00  0.00     0.010 A 
ATOM     43  C   UNL     1      -3.823 -12.299  -1.018  1.00  0.00     0.010 A 
ATOM     44  C   UNL     1      -4.748 -12.973  -0.208  1.00  0.00    -0.014 A 
BRANCH  44  45
ATOM     45  C   UNL     1      -5.801 -13.800  -0.844  1.00  0.00     0.031 A 
ATOM     46  C   UNL     1      -5.414 -14.986  -1.683  1.00  0.00     0.074 A 
ATOM     47  C   UNL     1      -7.096 -13.453  -0.711  1.00  0.00     0.049 A 
ATOM     48  N   UNL     1      -6.177 -15.797  -2.369  1.00  0.00    -0.248 NA
ATOM     49  C   UNL     1      -3.975 -15.282  -1.789  1.00  0.00     0.031 C 
ATOM     50  C   UNL     1      -7.592 -12.298   0.042  1.00  0.00     0.029 A 
ATOM     51  N   UNL     1      -8.233 -14.035  -1.211  1.00  0.00    -0.354 N 
ATOM     52  C   UNL     1      -5.314 -16.694  -2.984  1.00  0.00     0.074 A 
ATOM     53  C   UNL     1      -3.968 -16.284  -2.654  1.00  0.00     0.031 C 
ATOM     54  C   UNL     1      -8.933 -12.277  -0.020  1.00  0.00     0.029 A 
ATOM     55  C   UNL     1      -9.389 -13.385  -0.851  1.00  0.00     0.049 A 
ATOM     56  H   UNL     1      -8.222 -14.843  -1.774  1.00  0.00     0.167 HD
ATOM     57  C   UNL     1      -5.616 -17.782  -3.732  1.00  0.00     0.037 A 
ATOM     58  C   UNL     1     -10.671 -13.651  -1.166  1.00  0.00     0.037 A 
ATOM     59  C   UNL     1      -6.958 -18.190  -4.051  1.00  0.00     0.049 A 
ATOM     60  C   UNL     1     -10.976 -14.840  -2.038  1.00  0.00     0.074 A 
ATOM     61  C   UNL     1      -7.374 -19.295  -4.772  1.00  0.00     0.029 A 
ATOM     62  N   UNL     1      -8.103 -17.505  -3.671  1.00  0.00    -0.354 N 
ATOM     63  N   UNL     1     -10.154 -15.719  -2.558  1.00  0.00    -0.248 NA
ATOM     64  C   UNL     1     -12.390 -15.077  -2.361  1.00  0.00     0.031 C 
ATOM     65  C   UNL     1      -8.767 -19.249  -4.875  1.00  0.00     0.029 A 
ATOM     66  C   UNL     1      -9.224 -18.151  -4.163  1.00  0.00     0.049 A 
ATOM     67  H   UNL     1      -8.116 -16.681  -3.131  1.00  0.00     0.167 HD
ATOM     68  C   UNL     1     -10.952 -16.632  -3.237  1.00  0.00     0.074 A 
ATOM     69  C   UNL     1     -12.323 -16.207  -3.049  1.00  0.00     0.031 C 
ATOM     70  C   UNL     1     -10.584 -17.723  -3.952  1.00  0.00     0.037 A 
BRANCH  57  71
ATOM     71  C   UNL     1      -4.472 -18.607  -4.246  1.00  0.00     0.057 A 
ATOM     72  C   UNL     1      -3.660 -19.361  -3.387  1.00  0.00     0.134 A 
ATOM     73  C   UNL     1      -4.195 -18.674  -5.617  1.00  0.00     0.134 A 
ATOM     74  F   UNL     1      -3.862 -19.331  -2.061  1.00  0.00    -0.206 F 
ATOM     75  C   UNL     1      -2.599 -20.128  -3.869  1.00  0.00     0.040 A 
ATOM     76  C   UNL     1      -3.156 -19.463  -6.114  1.00  0.00     0.040 A 
ATOM     77  F   UNL     1      -4.934 -17.982  -6.497  1.00  0.00    -0.206 F 
ATOM     78  C   UNL     1      -2.349 -20.186  -5.238  1.00  0.00     0.006 A 
ENDBRANCH  57  71
BRANCH  58  79
ATOM     79  C   UNL     1     -11.767 -12.792  -0.649  1.00  0.00     0.057 A 
ATOM     80  C   UNL     1     -12.706 -13.290   0.264  1.00  0.00     0.134 A 
ATOM     81  C   UNL     1     -11.928 -11.469  -1.077  1.00  0.00     0.134 A 
ATOM     82  F   UNL     1     -12.617 -14.555   0.700  1.00  0.00    -0.206 F 
ATOM     83  C   UNL     1     -13.781 -12.516   0.705  1.00  0.00     0.040 A 
ATOM     84  C   UNL     1     -12.980 -10.674  -0.620  1.00  0.00     0.040 A 
ATOM     85  F   UNL     1     -11.059 -10.927  -1.943  1.00  0.00    -0.206 F 
ATOM     86  C   UNL     1     -13.918 -11.202   0.265  1.00  0.00     0.006 A 
ENDBRANCH  58  79
BRANCH  70  87
ATOM     87  C   UNL     1     -11.681 -18.564  -4.540  1.00  0.00     0.057 A 
ATOM     88  C   UNL     1     -12.466 -18.121  -5.612  1.00  0.00     0.134 A 
ATOM     89  C   UNL     1     -11.925 -19.854  -4.050  1.00  0.00     0.134 A 
ATOM     90  F   UNL     1     -12.292 -16.892  -6.120  1.00  0.00    -0.206 F 
ATOM     91  C   UNL     1     -13.472 -18.920  -6.157  1.00  0.00     0.040 A 
ATOM     92  C   UNL     1     -12.905 -20.674  -4.608  1.00  0.00     0.040 A 
ATOM     93  F   UNL     1     -11.202 -20.345  -3.032  1.00  0.00    -0.206 F 
ATOM     94  C   UNL     1     -13.688 -20.204  -5.660  1.00  0.00     0.006 A 
ENDBRANCH  70  87
ENDBRANCH  44  45
ENDBRANCH  36  39
ENDBRANCH  34  35
ENDBRANCH  33  34
ENDBRANCH  32  33
ENDBRANCH  31  32
ENDBRANCH  29  31
ENDBRANCH   5  27
TORSDOF 19
