REMARK SMILES CC(C)[C@H]1CC[C@@H](C)C/C1=C(\F)C(=O)NCCCCNC(=O)c1ccc(-c2c3nc(c(-c4c(F)cccc4F)c4ccc([nH]4)c(-c4c(F)cccc4F)c4nc(c(-c5c(F)cccc5F)c5ccc2[nH]5)C=C4)C=C3)cc1
REMARK SMILES IDX 18 1 17 2 16 3 15 4 13 5 14 6 11 8 4 9 5 10 10 11 6 12 9 13
REMARK SMILES IDX 7 14 12 15 8 16 2 17 1 18 3 19 19 20 20 21 21 22 22 24 23 25
REMARK SMILES IDX 24 26 76 27 25 28 75 29 26 30 27 31 28 32 69 33 29 34 74 35
REMARK SMILES IDX 68 36 70 37 30 38 73 39 67 40 66 41 31 43 57 44 40 45 56 46
REMARK SMILES IDX 41 47 44 48 55 49 71 50 42 51 43 52 54 54 72 55 45 56 32 57
REMARK SMILES IDX 33 58 38 59 34 60 35 61 37 62 39 63 36 64 58 65 59 66 64 67
REMARK SMILES IDX 60 68 61 69 63 70 65 71 62 72 46 73 47 74 52 75 48 76 49 77
REMARK SMILES IDX 51 78 53 79 50 80
REMARK H PARENT 15 7 20 23 70 42 44 53
REMARK Flexibility Score: inf
ROOT
ATOM      1  C   UNL     1      -6.174  -0.604   5.584  1.00  0.00     0.023 C 
ENDROOT
BRANCH   1   2
ATOM      2  C   UNL     1      -5.594   0.803   5.403  1.00  0.00     0.023 C 
BRANCH   2   3
ATOM      3  C   UNL     1      -4.076   0.899   5.549  1.00  0.00     0.116 C 
BRANCH   3   4
ATOM      4  N   UNL     1      -3.411  -0.034   4.661  1.00  0.00    -0.350 N 
ATOM      5  C   UNL     1      -2.697   0.092   3.510  1.00  0.00     0.279 C 
ATOM      6  O   UNL     1      -2.448  -0.976   2.961  1.00  0.00    -0.267 OA
ATOM      7  H   UNL     1      -3.494  -0.969   4.957  1.00  0.00     0.163 HD
BRANCH   5   8
ATOM      8  C   UNL     1      -2.223   1.432   3.024  1.00  0.00     0.187 C 
ATOM      9  C   UNL     1      -1.032   1.110   0.654  1.00  0.00     0.021 C 
ATOM     10  C   UNL     1      -1.457   1.887  -0.625  1.00  0.00     0.009 C 
ATOM     11  C   UNL     1      -1.556   1.839   1.915  1.00  0.00    -0.025 C 
ATOM     12  C   UNL     1      -1.091   3.369  -0.596  1.00  0.00     0.004 C 
ATOM     13  C   UNL     1      -1.137   3.319   1.894  1.00  0.00     0.038 C 
ATOM     14  C   UNL     1      -1.628   4.069   0.651  1.00  0.00    -0.010 C 
ATOM     15  F   UNL     1      -2.461   2.402   3.938  1.00  0.00    -0.201 F 
ATOM     16  C   UNL     1      -3.156   4.227   0.626  1.00  0.00     0.008 C 
BRANCH   9  17
ATOM     17  C   UNL     1      -1.300  -0.408   0.465  1.00  0.00    -0.010 C 
ATOM     18  C   UNL     1      -2.749  -0.721   0.068  1.00  0.00     0.008 C 
ATOM     19  C   UNL     1      -0.349  -1.068  -0.543  1.00  0.00     0.008 C 
ENDBRANCH   9  17
ENDBRANCH   5   8
ENDBRANCH   3   4
ENDBRANCH   2   3
ENDBRANCH   1   2
BRANCH   1  20
ATOM     20  C   UNL     1      -5.709  -1.354   6.828  1.00  0.00     0.116 C 
BRANCH  20  21
ATOM     21  N   UNL     1      -5.988  -0.633   8.058  1.00  0.00    -0.352 N 
ATOM     22  C   UNL     1      -6.604  -1.069   9.205  1.00  0.00     0.251 C 
ATOM     23  H   UNL     1      -5.692   0.306   8.071  1.00  0.00     0.163 HD
ATOM     24  O   UNL     1      -6.877  -0.275  10.096  1.00  0.00    -0.269 OA
BRANCH  22  25
ATOM     25  C   UNL     1      -6.969  -2.495   9.349  1.00  0.00     0.039 A 
ATOM     26  C   UNL     1      -8.245  -2.813   9.819  1.00  0.00     0.014 A 
ATOM     27  C   UNL     1      -6.067  -3.511   9.020  1.00  0.00     0.014 A 
ATOM     28  C   UNL     1      -8.639  -4.149   9.899  1.00  0.00     0.010 A 
ATOM     29  C   UNL     1      -6.488  -4.838   9.027  1.00  0.00     0.010 A 
ATOM     30  C   UNL     1      -7.778  -5.171   9.467  1.00  0.00    -0.014 A 
BRANCH  30  31
ATOM     31  C   UNL     1      -8.218  -6.590   9.463  1.00  0.00     0.031 A 
ATOM     32  C   UNL     1      -7.528  -7.604  10.332  1.00  0.00     0.074 A 
ATOM     33  C   UNL     1      -9.207  -6.976   8.633  1.00  0.00     0.049 A 
ATOM     34  N   UNL     1      -7.741  -8.892  10.430  1.00  0.00    -0.248 NA
ATOM     35  C   UNL     1      -6.438  -7.109  11.188  1.00  0.00     0.031 C 
ATOM     36  C   UNL     1      -9.926  -6.098   7.708  1.00  0.00     0.029 A 
ATOM     37  N   UNL     1      -9.774  -8.209   8.428  1.00  0.00    -0.354 N 
ATOM     38  C   UNL     1      -6.810  -9.361  11.347  1.00  0.00     0.074 A 
ATOM     39  C   UNL     1      -5.992  -8.231  11.733  1.00  0.00     0.031 C 
ATOM     40  C   UNL     1     -10.856  -6.814   7.056  1.00  0.00     0.029 A 
ATOM     41  C   UNL     1     -10.771  -8.207   7.483  1.00  0.00     0.049 A 
ATOM     42  H   UNL     1      -9.494  -9.018   8.914  1.00  0.00     0.167 HD
ATOM     43  C   UNL     1      -6.664 -10.614  11.841  1.00  0.00     0.037 A 
ATOM     44  C   UNL     1     -11.526  -9.215   7.006  1.00  0.00     0.037 A 
ATOM     45  C   UNL     1      -7.487 -11.733  11.463  1.00  0.00     0.049 A 
ATOM     46  C   UNL     1     -11.325 -10.602   7.550  1.00  0.00     0.074 A 
ATOM     47  C   UNL     1      -7.454 -13.029  11.946  1.00  0.00     0.029 A 
ATOM     48  N   UNL     1      -8.484 -11.691  10.500  1.00  0.00    -0.354 N 
ATOM     49  N   UNL     1     -10.490 -11.018   8.471  1.00  0.00    -0.248 NA
ATOM     50  C   UNL     1     -12.176 -11.662   6.989  1.00  0.00     0.031 C 
ATOM     51  C   UNL     1      -8.392 -13.785  11.237  1.00  0.00     0.029 A 
ATOM     52  C   UNL     1      -9.053 -12.947  10.353  1.00  0.00     0.049 A 
ATOM     53  H   UNL     1      -8.749 -10.889   9.995  1.00  0.00     0.167 HD
ATOM     54  C   UNL     1     -10.733 -12.377   8.621  1.00  0.00     0.074 A 
ATOM     55  C   UNL     1     -11.806 -12.712   7.707  1.00  0.00     0.031 C 
ATOM     56  C   UNL     1     -10.122 -13.267   9.441  1.00  0.00     0.037 A 
BRANCH  43  57
ATOM     57  C   UNL     1      -5.568 -10.838  12.844  1.00  0.00     0.057 A 
ATOM     58  C   UNL     1      -5.620 -10.291  14.134  1.00  0.00     0.134 A 
ATOM     59  C   UNL     1      -4.460 -11.635  12.528  1.00  0.00     0.134 A 
ATOM     60  F   UNL     1      -6.647  -9.510  14.500  1.00  0.00    -0.206 F 
ATOM     61  C   UNL     1      -4.596 -10.501  15.059  1.00  0.00     0.040 A 
ATOM     62  C   UNL     1      -3.446 -11.879  13.456  1.00  0.00     0.040 A 
ATOM     63  F   UNL     1      -4.349 -12.198  11.315  1.00  0.00    -0.206 F 
ATOM     64  C   UNL     1      -3.508 -11.303  14.723  1.00  0.00     0.006 A 
ENDBRANCH  43  57
BRANCH  44  65
ATOM     65  C   UNL     1     -12.554  -8.948   5.967  1.00  0.00     0.057 A 
ATOM     66  C   UNL     1     -13.919  -9.051   6.259  1.00  0.00     0.134 A 
ATOM     67  C   UNL     1     -12.199  -8.592   4.660  1.00  0.00     0.134 A 
ATOM     68  F   UNL     1     -14.322  -9.406   7.488  1.00  0.00    -0.206 F 
ATOM     69  C   UNL     1     -14.894  -8.831   5.284  1.00  0.00     0.040 A 
ATOM     70  C   UNL     1     -13.164  -8.342   3.683  1.00  0.00     0.040 A 
ATOM     71  F   UNL     1     -10.908  -8.469   4.318  1.00  0.00    -0.206 F 
ATOM     72  C   UNL     1     -14.517  -8.470   3.993  1.00  0.00     0.006 A 
ENDBRANCH  44  65
BRANCH  56  73
ATOM     73  C   UNL     1     -10.621 -14.684   9.413  1.00  0.00     0.057 A 
ATOM     74  C   UNL     1     -10.393 -15.530   8.320  1.00  0.00     0.134 A 
ATOM     75  C   UNL     1     -11.308 -15.219  10.511  1.00  0.00     0.134 A 
ATOM     76  F   UNL     1      -9.754 -15.077   7.231  1.00  0.00    -0.206 F 
ATOM     77  C   UNL     1     -10.851 -16.849   8.310  1.00  0.00     0.040 A 
ATOM     78  C   UNL     1     -11.743 -16.544  10.526  1.00  0.00     0.040 A 
ATOM     79  F   UNL     1     -11.552 -14.467  11.595  1.00  0.00    -0.206 F 
ATOM     80  C   UNL     1     -11.521 -17.361   9.419  1.00  0.00     0.006 A 
ENDBRANCH  56  73
ENDBRANCH  30  31
ENDBRANCH  22  25
ENDBRANCH  20  21
ENDBRANCH   1  20
TORSDOF 12
