REMARK SMILES O=C(NCCCCNC(=O)[C@H](Cc1ccc([N+](=O)[O-])cc1)N1C(=O)c2ccccc2C1=O)c1ccc(-c2c3nc(c(-c4c(F)cccc4F)c4ccc([nH]4)c(-c4c(F)cccc4F)c4nc(c(-c5c(F)cccc5F)c5ccc2[nH]5)C=C4)C=C3)cc1
REMARK SMILES IDX 6 1 5 2 4 3 3 4 1 5 2 6 33 8 34 9 86 10 35 11 85 12 36 13
REMARK SMILES IDX 37 14 38 15 79 16 39 17 84 18 78 19 80 20 40 21 83 22 77 23
REMARK SMILES IDX 76 24 41 26 67 27 50 28 66 29 51 30 54 31 65 32 81 33 52 34
REMARK SMILES IDX 53 35 64 37 82 38 55 39 42 40 43 41 48 42 44 43 45 44 47 45
REMARK SMILES IDX 49 46 46 47 68 48 69 49 74 50 70 51 71 52 73 53 75 54 72 55
REMARK SMILES IDX 56 56 57 57 62 58 58 59 59 60 61 61 63 62 60 63 7 64 8 65
REMARK SMILES IDX 9 66 10 68 11 69 22 70 23 71 31 72 24 73 25 74 30 75 32 76
REMARK SMILES IDX 26 77 29 78 27 79 28 80 12 81 13 82 14 83 21 84 15 85 20 86
REMARK SMILES IDX 16 87 17 88 18 89 19 90
REMARK H PARENT 3 7 80 25 54 36 8 67
REMARK Flexibility Score: inf
ROOT
ATOM      1  C   UNL     1       4.452  -3.202  -1.872  1.00  0.00     0.023 C 
ENDROOT
BRANCH   1   2
ATOM      2  C   UNL     1       3.728  -4.405  -1.282  1.00  0.00     0.023 C 
BRANCH   2   3
ATOM      3  C   UNL     1       4.574  -5.645  -1.014  1.00  0.00     0.116 C 
BRANCH   3   4
ATOM      4  N   UNL     1       5.669  -5.456  -0.069  1.00  0.00    -0.352 N 
ATOM      5  O   UNL     1       6.965  -5.901   1.733  1.00  0.00    -0.269 OA
ATOM      6  C   UNL     1       6.018  -6.226   1.024  1.00  0.00     0.251 C 
ATOM      7  H   UNL     1       6.238  -4.670  -0.233  1.00  0.00     0.163 HD
BRANCH   6   8
ATOM      8  C   UNL     1       5.165  -7.376   1.398  1.00  0.00     0.039 A 
ATOM      9  C   UNL     1       4.732  -8.285   0.434  1.00  0.00     0.014 A 
ATOM     10  C   UNL     1       4.657  -7.429   2.698  1.00  0.00     0.014 A 
ATOM     11  C   UNL     1       3.598  -9.047   0.690  1.00  0.00     0.010 A 
ATOM     12  C   UNL     1       3.593  -8.286   2.986  1.00  0.00     0.010 A 
ATOM     13  C   UNL     1       2.996  -9.032   1.960  1.00  0.00    -0.014 A 
BRANCH  13  14
ATOM     14  C   UNL     1       1.733  -9.781   2.191  1.00  0.00     0.031 A 
ATOM     15  C   UNL     1       0.464  -9.063   2.582  1.00  0.00     0.074 A 
ATOM     16  C   UNL     1       1.726 -11.115   2.015  1.00  0.00     0.049 A 
ATOM     17  N   UNL     1      -0.722  -9.559   2.839  1.00  0.00    -0.248 NA
ATOM     18  C   UNL     1       0.535  -7.599   2.711  1.00  0.00     0.031 C 
ATOM     19  C   UNL     1       2.889 -11.917   1.628  1.00  0.00     0.029 A 
ATOM     20  N   UNL     1       0.712 -12.030   2.125  1.00  0.00    -0.354 N 
ATOM     21  C   UNL     1      -1.524  -8.477   3.192  1.00  0.00     0.074 A 
ATOM     22  C   UNL     1      -0.684  -7.300   3.138  1.00  0.00     0.031 C 
ATOM     23  C   UNL     1       2.514 -13.195   1.488  1.00  0.00     0.029 A 
ATOM     24  C   UNL     1       1.106 -13.315   1.847  1.00  0.00     0.049 A 
ATOM     25  H   UNL     1      -0.208 -11.789   2.378  1.00  0.00     0.167 HD
ATOM     26  C   UNL     1      -2.838  -8.469   3.526  1.00  0.00     0.037 A 
ATOM     27  C   UNL     1       0.417 -14.469   1.898  1.00  0.00     0.037 A 
ATOM     28  C   UNL     1      -3.669  -9.648   3.559  1.00  0.00     0.049 A 
ATOM     29  C   UNL     1      -1.026 -14.435   2.306  1.00  0.00     0.074 A 
ATOM     30  C   UNL     1      -5.021  -9.745   3.843  1.00  0.00     0.029 A 
ATOM     31  N   UNL     1      -3.223 -10.937   3.304  1.00  0.00    -0.354 N 
ATOM     32  N   UNL     1      -1.776 -13.403   2.610  1.00  0.00    -0.248 NA
ATOM     33  C   UNL     1      -1.717 -15.727   2.381  1.00  0.00     0.031 C 
ATOM     34  C   UNL     1      -5.378 -11.097   3.818  1.00  0.00     0.029 A 
ATOM     35  C   UNL     1      -4.265 -11.838   3.455  1.00  0.00     0.049 A 
ATOM     36  H   UNL     1      -2.301 -11.176   3.054  1.00  0.00     0.167 HD
ATOM     37  C   UNL     1      -3.035 -13.918   2.885  1.00  0.00     0.074 A 
ATOM     38  C   UNL     1      -2.948 -15.352   2.695  1.00  0.00     0.031 C 
ATOM     39  C   UNL     1      -4.162 -13.264   3.260  1.00  0.00     0.037 A 
BRANCH  26  40
ATOM     40  C   UNL     1      -3.456  -7.152   3.917  1.00  0.00     0.057 A 
ATOM     41  C   UNL     1      -3.671  -6.120   2.994  1.00  0.00     0.134 A 
ATOM     42  C   UNL     1      -3.876  -6.928   5.236  1.00  0.00     0.134 A 
ATOM     43  F   UNL     1      -3.289  -6.260   1.716  1.00  0.00    -0.206 F 
ATOM     44  C   UNL     1      -4.251  -4.906   3.373  1.00  0.00     0.040 A 
ATOM     45  C   UNL     1      -4.484  -5.731   5.620  1.00  0.00     0.040 A 
ATOM     46  F   UNL     1      -3.715  -7.874   6.173  1.00  0.00    -0.206 F 
ATOM     47  C   UNL     1      -4.665  -4.711   4.689  1.00  0.00     0.006 A 
ENDBRANCH  26  40
BRANCH  27  48
ATOM     48  C   UNL     1       1.091 -15.745   1.551  1.00  0.00     0.057 A 
ATOM     49  C   UNL     1       0.742 -16.452   0.395  1.00  0.00     0.134 A 
ATOM     50  C   UNL     1       2.110 -16.276   2.351  1.00  0.00     0.134 A 
ATOM     51  F   UNL     1      -0.236 -16.000  -0.403  1.00  0.00    -0.206 F 
ATOM     52  C   UNL     1       1.372 -17.649   0.055  1.00  0.00     0.040 A 
ATOM     53  C   UNL     1       2.770 -17.456   2.006  1.00  0.00     0.040 A 
ATOM     54  F   UNL     1       2.498 -15.640   3.466  1.00  0.00    -0.206 F 
ATOM     55  C   UNL     1       2.395 -18.150   0.858  1.00  0.00     0.006 A 
ENDBRANCH  27  48
BRANCH  39  56
ATOM     56  C   UNL     1      -5.398 -14.095   3.446  1.00  0.00     0.057 A 
ATOM     57  C   UNL     1      -5.542 -14.986   4.517  1.00  0.00     0.134 A 
ATOM     58  C   UNL     1      -6.463 -13.994   2.541  1.00  0.00     0.134 A 
ATOM     59  F   UNL     1      -4.553 -15.142   5.410  1.00  0.00    -0.206 F 
ATOM     60  C   UNL     1      -6.687 -15.772   4.662  1.00  0.00     0.040 A 
ATOM     61  C   UNL     1      -7.625 -14.751   2.693  1.00  0.00     0.040 A 
ATOM     62  F   UNL     1      -6.394 -13.153   1.497  1.00  0.00    -0.206 F 
ATOM     63  C   UNL     1      -7.734 -15.651   3.750  1.00  0.00     0.006 A 
ENDBRANCH  39  56
ENDBRANCH  13  14
ENDBRANCH   6   8
ENDBRANCH   3   4
ENDBRANCH   2   3
ENDBRANCH   1   2
BRANCH   1  64
ATOM     64  C   UNL     1       5.313  -3.495  -3.086  1.00  0.00     0.116 C 
BRANCH  64  65
ATOM     65  N   UNL     1       4.612  -3.883  -4.285  1.00  0.00    -0.354 N 
ATOM     66  C   UNL     1       4.998  -3.738  -5.584  1.00  0.00     0.243 C 
ATOM     67  H   UNL     1       3.736  -4.310  -4.146  1.00  0.00     0.163 HD
ATOM     68  O   UNL     1       4.320  -4.362  -6.412  1.00  0.00    -0.273 OA
BRANCH  66  69
ATOM     69  C   UNL     1       6.059  -2.717  -6.081  1.00  0.00     0.187 C 
BRANCH  69  70
ATOM     70  N   UNL     1       5.286  -1.490  -6.334  1.00  0.00    -0.261 N 
ATOM     71  C   UNL     1       4.831  -0.640  -5.364  1.00  0.00     0.262 C 
ATOM     72  C   UNL     1       4.789  -1.148  -7.567  1.00  0.00     0.262 C 
ATOM     73  O   UNL     1       5.072  -0.614  -4.171  1.00  0.00    -0.269 OA
ATOM     74  C   UNL     1       3.928   0.303  -6.010  1.00  0.00     0.053 A 
ATOM     75  C   UNL     1       3.900  -0.003  -7.357  1.00  0.00     0.053 A 
ATOM     76  O   UNL     1       5.012  -1.643  -8.650  1.00  0.00    -0.269 OA
ATOM     77  C   UNL     1       3.167   1.319  -5.465  1.00  0.00     0.015 A 
ATOM     78  C   UNL     1       3.105   0.700  -8.241  1.00  0.00     0.015 A 
ATOM     79  C   UNL     1       2.354   2.044  -6.339  1.00  0.00     0.001 A 
ATOM     80  C   UNL     1       2.324   1.738  -7.716  1.00  0.00     0.001 A 
ENDBRANCH  69  70
BRANCH  69  81
ATOM     81  C   UNL     1       7.417  -2.474  -5.380  1.00  0.00     0.071 C 
BRANCH  81  82
ATOM     82  C   UNL     1       8.013  -3.589  -4.542  1.00  0.00    -0.045 A 
ATOM     83  C   UNL     1       7.934  -4.935  -4.926  1.00  0.00     0.011 A 
ATOM     84  C   UNL     1       8.555  -3.267  -3.279  1.00  0.00     0.011 A 
ATOM     85  C   UNL     1       8.227  -5.944  -4.003  1.00  0.00     0.086 A 
ATOM     86  C   UNL     1       8.852  -4.268  -2.352  1.00  0.00     0.086 A 
ATOM     87  C   UNL     1       8.641  -5.602  -2.709  1.00  0.00     0.269 A 
BRANCH  87  88
ATOM     88  N   UNL     1       8.763  -6.646  -1.692  1.00  0.00     0.062 N 
ATOM     89  O   UNL     1       8.044  -7.649  -1.820  1.00  0.00    -0.258 OA
ATOM     90  O   UNL     1       9.556  -6.448  -0.763  1.00  0.00    -0.258 OA
ENDBRANCH  87  88
ENDBRANCH  81  82
ENDBRANCH  69  81
ENDBRANCH  66  69
ENDBRANCH  64  65
ENDBRANCH   1  64
TORSDOF 15
