REMARK SMILES CC1=C(C(=O)NCCCCNC(=O)c2ccc(-c3c4nc(c(-c5c(F)cccc5F)c5ccc([nH]5)c(-c5c(F)cccc5F)c5nc(c(-c6c(F)cccc6F)c6ccc3[nH]6)C=C5)C=C4)cc2)[C@H](c2ccc(Cl)cc2)n2ncnc2N1
REMARK SMILES IDX 9 1 8 2 7 3 6 4 4 5 5 6 3 8 1 9 2 10 81 11 68 12 80 13 76 15
REMARK SMILES IDX 79 16 77 17 78 18 69 19 70 20 75 21 71 22 74 23 72 24 73 25
REMARK SMILES IDX 10 26 11 27 12 28 13 30 14 31 15 32 67 33 16 34 66 35 17 36
REMARK SMILES IDX 18 37 19 38 60 39 20 40 65 41 59 42 61 43 21 44 64 45 58 46
REMARK SMILES IDX 57 47 22 49 48 50 31 51 47 52 32 53 35 54 46 55 62 56 33 57
REMARK SMILES IDX 34 58 45 60 63 61 36 62 23 63 24 64 29 65 25 66 26 67 28 68
REMARK SMILES IDX 30 69 27 70 49 71 50 72 55 73 51 74 52 75 54 76 56 77 53 78
REMARK SMILES IDX 37 79 38 80 43 81 39 82 40 83 42 84 44 85 41 86
REMARK H PARENT 6 7 81 14 11 29 61 48 35 59
REMARK Flexibility Score: inf
ROOT
ATOM      1  C   UNL     1       1.620   3.087  -2.696  1.00  0.00     0.023 C 
ENDROOT
BRANCH   1   2
ATOM      2  C   UNL     1       1.677   1.817  -1.831  1.00  0.00     0.023 C 
BRANCH   2   3
ATOM      3  C   UNL     1       0.399   1.534  -1.030  1.00  0.00     0.116 C 
BRANCH   3   4
ATOM      4  N   UNL     1      -0.455   0.614  -1.744  1.00  0.00    -0.352 N 
ATOM      5  C   UNL     1      -0.727  -0.703  -1.748  1.00  0.00     0.251 C 
ATOM      6  O   UNL     1      -1.450  -1.023  -2.703  1.00  0.00    -0.270 OA
ATOM      7  H   UNL     1      -0.991   1.086  -2.421  1.00  0.00     0.163 HD
BRANCH   5   8
ATOM      8  C   UNL     1      -0.320  -1.789  -0.780  1.00  0.00     0.065 C 
ATOM      9  C   UNL     1       1.690  -0.886   0.565  1.00  0.00     0.065 C 
ATOM     10  C   UNL     1       0.693  -1.920   0.128  1.00  0.00     0.026 C 
ATOM     11  N   UNL     1       0.967  -3.172   0.696  1.00  0.00    -0.328 N 
ATOM     12  C   UNL     1      -1.244  -3.044  -1.009  1.00  0.00     0.179 C 
ATOM     13  C   UNL     1       0.522  -4.325   0.175  1.00  0.00     0.226 A 
ATOM     14  H   UNL     1       1.512  -3.206   1.516  1.00  0.00     0.169 HD
ATOM     15  N   UNL     1      -0.495  -4.275  -0.728  1.00  0.00    -0.219 N 
ATOM     16  N   UNL     1       0.898  -5.565   0.347  1.00  0.00    -0.200 NA
ATOM     17  N   UNL     1      -0.779  -5.498  -1.222  1.00  0.00    -0.157 NA
ATOM     18  C   UNL     1       0.098  -6.244  -0.537  1.00  0.00     0.248 A 
BRANCH  12  19
ATOM     19  C   UNL     1      -2.553  -2.982  -0.181  1.00  0.00    -0.018 A 
ATOM     20  C   UNL     1      -2.805  -3.830   0.918  1.00  0.00     0.008 A 
ATOM     21  C   UNL     1      -3.564  -2.068  -0.533  1.00  0.00     0.008 A 
ATOM     22  C   UNL     1      -4.013  -3.774   1.623  1.00  0.00     0.021 A 
ATOM     23  C   UNL     1      -4.766  -1.998   0.183  1.00  0.00     0.021 A 
ATOM     24  C   UNL     1      -4.988  -2.855   1.255  1.00  0.00     0.041 A 
ATOM     25  Cl  UNL     1      -6.472  -2.786   2.120  1.00  0.00    -0.084 Cl
ENDBRANCH  12  19
ENDBRANCH   5   8
ENDBRANCH   3   4
ENDBRANCH   2   3
ENDBRANCH   1   2
BRANCH   1  26
ATOM     26  C   UNL     1       1.485   4.381  -1.899  1.00  0.00     0.116 C 
BRANCH  26  27
ATOM     27  N   UNL     1       2.581   4.583  -0.957  1.00  0.00    -0.352 N 
ATOM     28  C   UNL     1       2.653   5.513   0.056  1.00  0.00     0.251 C 
ATOM     29  H   UNL     1       3.357   3.986  -1.057  1.00  0.00     0.163 HD
ATOM     30  O   UNL     1       3.726   5.823   0.565  1.00  0.00    -0.269 OA
BRANCH  28  31
ATOM     31  C   UNL     1       1.405   6.137   0.516  1.00  0.00     0.039 A 
ATOM     32  C   UNL     1       1.279   7.527   0.541  1.00  0.00     0.014 A 
ATOM     33  C   UNL     1       0.332   5.306   0.839  1.00  0.00     0.014 A 
ATOM     34  C   UNL     1       0.030   8.082   0.802  1.00  0.00     0.010 A 
ATOM     35  C   UNL     1      -0.922   5.856   1.007  1.00  0.00     0.010 A 
ATOM     36  C   UNL     1      -1.079   7.243   1.004  1.00  0.00    -0.014 A 
BRANCH  36  37
ATOM     37  C   UNL     1      -2.421   7.826   1.063  1.00  0.00     0.031 A 
ATOM     38  C   UNL     1      -2.802   8.694  -0.093  1.00  0.00     0.074 A 
ATOM     39  C   UNL     1      -3.361   7.450   1.956  1.00  0.00     0.049 A 
ATOM     40  N   UNL     1      -3.143   9.942  -0.076  1.00  0.00    -0.248 NA
ATOM     41  C   UNL     1      -2.721   8.122  -1.448  1.00  0.00     0.031 C 
ATOM     42  C   UNL     1      -3.286   6.379   2.955  1.00  0.00     0.029 A 
ATOM     43  N   UNL     1      -4.649   7.881   2.072  1.00  0.00    -0.354 N 
ATOM     44  C   UNL     1      -3.493  10.273  -1.386  1.00  0.00     0.074 A 
ATOM     45  C   UNL     1      -3.083   9.161  -2.204  1.00  0.00     0.031 C 
ATOM     46  C   UNL     1      -4.529   6.089   3.397  1.00  0.00     0.029 A 
ATOM     47  C   UNL     1      -5.457   7.058   2.845  1.00  0.00     0.049 A 
ATOM     48  H   UNL     1      -4.978   8.705   1.645  1.00  0.00     0.167 HD
ATOM     49  C   UNL     1      -4.282  11.349  -1.664  1.00  0.00     0.037 A 
ATOM     50  C   UNL     1      -6.801   7.141   2.996  1.00  0.00     0.037 A 
ATOM     51  C   UNL     1      -4.328  12.266  -0.553  1.00  0.00     0.049 A 
ATOM     52  C   UNL     1      -7.215   8.509   2.605  1.00  0.00     0.074 A 
ATOM     53  C   UNL     1      -3.389  12.984   0.162  1.00  0.00     0.029 A 
ATOM     54  N   UNL     1      -5.466  12.294   0.212  1.00  0.00    -0.354 N 
ATOM     55  N   UNL     1      -6.925   9.582   3.283  1.00  0.00    -0.248 NA
ATOM     56  C   UNL     1      -7.609   8.732   1.223  1.00  0.00     0.031 C 
ATOM     57  C   UNL     1      -3.851  12.950   1.511  1.00  0.00     0.029 A 
ATOM     58  C   UNL     1      -5.067  12.266   1.522  1.00  0.00     0.049 A 
ATOM     59  H   UNL     1      -6.394  12.328  -0.117  1.00  0.00     0.167 HD
ATOM     60  C   UNL     1      -6.662  10.543   2.320  1.00  0.00     0.074 A 
ATOM     61  C   UNL     1      -7.211   9.998   1.081  1.00  0.00     0.031 C 
ATOM     62  C   UNL     1      -5.776  11.555   2.558  1.00  0.00     0.037 A 
BRANCH  49  63
ATOM     63  C   UNL     1      -5.302  11.408  -2.782  1.00  0.00     0.057 A 
ATOM     64  C   UNL     1      -5.990  12.614  -3.023  1.00  0.00     0.134 A 
ATOM     65  C   UNL     1      -5.855  10.274  -3.409  1.00  0.00     0.134 A 
ATOM     66  F   UNL     1      -5.569  13.768  -2.484  1.00  0.00    -0.206 F 
ATOM     67  C   UNL     1      -7.188  12.668  -3.746  1.00  0.00     0.040 A 
ATOM     68  C   UNL     1      -7.024  10.326  -4.176  1.00  0.00     0.040 A 
ATOM     69  F   UNL     1      -5.361   9.043  -3.234  1.00  0.00    -0.206 F 
ATOM     70  C   UNL     1      -7.716  11.517  -4.316  1.00  0.00     0.006 A 
ENDBRANCH  49  63
BRANCH  50  71
ATOM     71  C   UNL     1      -7.778   6.053   3.212  1.00  0.00     0.057 A 
ATOM     72  C   UNL     1      -9.074   6.323   3.672  1.00  0.00     0.134 A 
ATOM     73  C   UNL     1      -7.556   4.757   2.712  1.00  0.00     0.134 A 
ATOM     74  F   UNL     1      -9.392   7.541   4.134  1.00  0.00    -0.206 F 
ATOM     75  C   UNL     1     -10.100   5.372   3.608  1.00  0.00     0.040 A 
ATOM     76  C   UNL     1      -8.568   3.795   2.651  1.00  0.00     0.040 A 
ATOM     77  F   UNL     1      -6.373   4.412   2.182  1.00  0.00    -0.206 F 
ATOM     78  C   UNL     1      -9.851   4.106   3.084  1.00  0.00     0.006 A 
ENDBRANCH  50  71
BRANCH  62  79
ATOM     79  C   UNL     1      -5.318  11.774   3.974  1.00  0.00     0.057 A 
ATOM     80  C   UNL     1      -4.625  10.823   4.739  1.00  0.00     0.134 A 
ATOM     81  C   UNL     1      -5.476  13.043   4.541  1.00  0.00     0.134 A 
ATOM     82  F   UNL     1      -4.326   9.615   4.245  1.00  0.00    -0.206 F 
ATOM     83  C   UNL     1      -4.166  11.105   6.029  1.00  0.00     0.040 A 
ATOM     84  C   UNL     1      -4.989  13.350   5.814  1.00  0.00     0.040 A 
ATOM     85  F   UNL     1      -6.075  14.024   3.848  1.00  0.00    -0.206 F 
ATOM     86  C   UNL     1      -4.344  12.374   6.569  1.00  0.00     0.006 A 
ENDBRANCH  62  79
ENDBRANCH  36  37
ENDBRANCH  28  31
ENDBRANCH  26  27
ENDBRANCH   1  26
TORSDOF 12
