REMARK SMILES O=C(Cc1c(C(=O)c2cccc(Cl)c2)[nH]c2ccccc12)NCCCCNC(=O)c1ccc(-c2c3nc(c(-c4c(F)cccc4F)c4ccc([nH]4)c(-c4c(F)cccc4F)c4nc(c(-c5c(F)cccc5F)c5ccc2[nH]5)C=C4)C=C3)cc1
REMARK SMILES IDX 24 1 23 2 22 3 1 4 2 5 3 7 4 8 5 9 21 10 15 11 16 12 20 13
REMARK SMILES IDX 17 15 19 16 18 17 6 18 7 19 8 20 9 21 14 22 10 23 12 24
REMARK SMILES IDX 11 25 13 26 25 27 26 28 27 29 28 30 29 32 30 33 31 34 83 35
REMARK SMILES IDX 32 36 82 37 33 38 34 39 35 40 76 41 36 42 81 43 75 44 77 45
REMARK SMILES IDX 37 46 80 47 74 48 73 49 38 51 64 52 47 53 63 54 48 55 51 56
REMARK SMILES IDX 62 57 78 58 49 59 50 60 61 62 79 63 52 64 39 65 40 66 45 67
REMARK SMILES IDX 41 68 42 69 44 70 46 71 43 72 65 73 66 74 71 75 67 76 68 77
REMARK SMILES IDX 70 78 72 79 69 80 53 81 54 82 59 83 55 84 56 85 58 86 60 87
REMARK SMILES IDX 57 88
REMARK H PARENT 22 6 15 14 27 31 77 50 51 61
REMARK Flexibility Score: inf
ROOT
ATOM      1  C   UNL     1       2.389  -0.196  -3.528  1.00  0.00     0.023 C 
ENDROOT
BRANCH   1   2
ATOM      2  C   UNL     1       2.018  -0.873  -2.212  1.00  0.00     0.116 C 
BRANCH   2   3
ATOM      3  N   UNL     1       2.728  -0.315  -1.079  1.00  0.00    -0.356 N 
ATOM      4  O   UNL     1       0.859   0.444   0.017  1.00  0.00    -0.275 OA
ATOM      5  C   UNL     1       2.074   0.264  -0.009  1.00  0.00     0.224 C 
ATOM      6  H   UNL     1       3.712  -0.350  -1.072  1.00  0.00     0.163 HD
BRANCH   5   7
ATOM      7  C   UNL     1       2.981   0.693   1.131  1.00  0.00     0.138 C 
BRANCH   7   8
ATOM      8  C   UNL     1       3.784  -0.414   1.777  1.00  0.00    -0.002 A 
ATOM      9  C   UNL     1       4.941  -0.217   2.540  1.00  0.00     0.092 A 
ATOM     10  C   UNL     1       3.504  -1.828   1.784  1.00  0.00     0.004 A 
ATOM     11  N   UNL     1       5.353  -1.461   2.965  1.00  0.00    -0.352 N 
ATOM     12  C   UNL     1       4.530  -2.450   2.491  1.00  0.00     0.046 A 
ATOM     13  C   UNL     1       2.479  -2.648   1.262  1.00  0.00     0.010 A 
ATOM     14  H   UNL     1       6.139  -1.619   3.536  1.00  0.00     0.167 HD
ATOM     15  C   UNL     1       4.610  -3.838   2.666  1.00  0.00     0.027 A 
ATOM     16  C   UNL     1       2.545  -4.038   1.418  1.00  0.00     0.001 A 
ATOM     17  C   UNL     1       3.602  -4.623   2.105  1.00  0.00     0.002 A 
BRANCH   9  18
ATOM     18  C   UNL     1       5.580   1.043   2.901  1.00  0.00     0.209 C 
ATOM     19  O   UNL     1       5.111   2.147   2.624  1.00  0.00    -0.287 OA
BRANCH  18  20
ATOM     20  C   UNL     1       6.840   1.041   3.683  1.00  0.00     0.026 A 
ATOM     21  C   UNL     1       7.965   0.327   3.251  1.00  0.00     0.012 A 
ATOM     22  C   UNL     1       6.894   1.810   4.851  1.00  0.00     0.032 A 
ATOM     23  C   UNL     1       9.136   0.355   4.013  1.00  0.00     0.002 A 
ATOM     24  C   UNL     1       8.066   1.831   5.602  1.00  0.00     0.041 A 
ATOM     25  C   UNL     1       9.184   1.103   5.191  1.00  0.00     0.020 A 
ATOM     26  Cl  UNL     1       8.139   2.761   7.047  1.00  0.00    -0.084 Cl
ENDBRANCH  18  20
ENDBRANCH   9  18
ENDBRANCH   7   8
ENDBRANCH   5   7
ENDBRANCH   2   3
ENDBRANCH   1   2
BRANCH   1  27
ATOM     27  C   UNL     1       3.872  -0.272  -3.902  1.00  0.00     0.023 C 
BRANCH  27  28
ATOM     28  C   UNL     1       4.460  -1.677  -3.989  1.00  0.00     0.116 C 
BRANCH  28  29
ATOM     29  N   UNL     1       3.861  -2.482  -5.041  1.00  0.00    -0.352 N 
ATOM     30  C   UNL     1       4.461  -3.199  -6.048  1.00  0.00     0.251 C 
ATOM     31  H   UNL     1       2.877  -2.519  -5.030  1.00  0.00     0.163 HD
ATOM     32  O   UNL     1       3.773  -3.715  -6.926  1.00  0.00    -0.269 OA
BRANCH  30  33
ATOM     33  C   UNL     1       5.935  -3.329  -6.106  1.00  0.00     0.039 A 
ATOM     34  C   UNL     1       6.576  -3.161  -7.337  1.00  0.00     0.014 A 
ATOM     35  C   UNL     1       6.685  -3.627  -4.966  1.00  0.00     0.014 A 
ATOM     36  C   UNL     1       7.971  -3.216  -7.411  1.00  0.00     0.010 A 
ATOM     37  C   UNL     1       8.078  -3.617  -5.028  1.00  0.00     0.010 A 
ATOM     38  C   UNL     1       8.736  -3.406  -6.250  1.00  0.00    -0.014 A 
BRANCH  38  39
ATOM     39  C   UNL     1      10.222  -3.370  -6.290  1.00  0.00     0.031 A 
ATOM     40  C   UNL     1      11.024  -4.594  -5.946  1.00  0.00     0.074 A 
ATOM     41  C   UNL     1      10.853  -2.213  -6.570  1.00  0.00     0.049 A 
ATOM     42  N   UNL     1      12.322  -4.731  -5.846  1.00  0.00    -0.248 NA
ATOM     43  C   UNL     1      10.266  -5.820  -5.650  1.00  0.00     0.031 C 
ATOM     44  C   UNL     1      10.195  -0.942  -6.880  1.00  0.00     0.029 A 
ATOM     45  N   UNL     1      12.192  -1.915  -6.627  1.00  0.00    -0.354 N 
ATOM     46  C   UNL     1      12.536  -6.048  -5.460  1.00  0.00     0.074 A 
ATOM     47  C   UNL     1      11.232  -6.657  -5.300  1.00  0.00     0.031 C 
ATOM     48  C   UNL     1      11.131  -0.008  -7.114  1.00  0.00     0.029 A 
ATOM     49  C   UNL     1      12.452  -0.601  -6.935  1.00  0.00     0.049 A 
ATOM     50  H   UNL     1      12.900  -2.580  -6.462  1.00  0.00     0.167 HD
ATOM     51  C   UNL     1      13.710  -6.698  -5.275  1.00  0.00     0.037 A 
ATOM     52  C   UNL     1      13.623   0.055  -7.052  1.00  0.00     0.037 A 
ATOM     53  C   UNL     1      15.008  -6.104  -5.465  1.00  0.00     0.049 A 
ATOM     54  C   UNL     1      14.912  -0.688  -6.838  1.00  0.00     0.074 A 
ATOM     55  C   UNL     1      16.253  -6.701  -5.365  1.00  0.00     0.029 A 
ATOM     56  N   UNL     1      15.228  -4.775  -5.793  1.00  0.00    -0.354 N 
ATOM     57  N   UNL     1      15.098  -1.949  -6.532  1.00  0.00    -0.248 NA
ATOM     58  C   UNL     1      16.154   0.083  -6.989  1.00  0.00     0.031 C 
ATOM     59  C   UNL     1      17.228  -5.724  -5.594  1.00  0.00     0.029 A 
ATOM     60  C   UNL     1      16.589  -4.529  -5.878  1.00  0.00     0.049 A 
ATOM     61  H   UNL     1      14.522  -4.105  -5.944  1.00  0.00     0.167 HD
ATOM     62  C   UNL     1      16.474  -2.129  -6.483  1.00  0.00     0.074 A 
ATOM     63  C   UNL     1      17.076  -0.851  -6.800  1.00  0.00     0.031 C 
ATOM     64  C   UNL     1      17.176  -3.254  -6.202  1.00  0.00     0.037 A 
BRANCH  51  65
ATOM     65  C   UNL     1      13.646  -8.135  -4.845  1.00  0.00     0.057 A 
ATOM     66  C   UNL     1      13.227  -9.148  -5.717  1.00  0.00     0.134 A 
ATOM     67  C   UNL     1      14.044  -8.514  -3.557  1.00  0.00     0.134 A 
ATOM     68  F   UNL     1      12.822  -8.850  -6.961  1.00  0.00    -0.206 F 
ATOM     69  C   UNL     1      13.182 -10.484  -5.315  1.00  0.00     0.040 A 
ATOM     70  C   UNL     1      14.029  -9.850  -3.152  1.00  0.00     0.040 A 
ATOM     71  F   UNL     1      14.463  -7.595  -2.674  1.00  0.00    -0.206 F 
ATOM     72  C   UNL     1      13.591 -10.839  -4.031  1.00  0.00     0.006 A 
ENDBRANCH  51  65
BRANCH  52  73
ATOM     73  C   UNL     1      13.634   1.495  -7.412  1.00  0.00     0.057 A 
ATOM     74  C   UNL     1      14.075   1.918  -8.671  1.00  0.00     0.134 A 
ATOM     75  C   UNL     1      13.217   2.479  -6.509  1.00  0.00     0.134 A 
ATOM     76  F   UNL     1      14.507   1.022  -9.570  1.00  0.00    -0.206 F 
ATOM     77  C   UNL     1      14.118   3.270  -9.014  1.00  0.00     0.040 A 
ATOM     78  C   UNL     1      13.232   3.833  -6.847  1.00  0.00     0.040 A 
ATOM     79  F   UNL     1      12.778   2.137  -5.288  1.00  0.00    -0.206 F 
ATOM     80  C   UNL     1      13.691   4.232  -8.101  1.00  0.00     0.006 A 
ENDBRANCH  52  73
BRANCH  64  81
ATOM     81  C   UNL     1      18.672  -3.162  -6.258  1.00  0.00     0.057 A 
ATOM     82  C   UNL     1      19.410  -2.500  -5.269  1.00  0.00     0.134 A 
ATOM     83  C   UNL     1      19.385  -3.774  -7.297  1.00  0.00     0.134 A 
ATOM     84  F   UNL     1      18.785  -1.881  -4.255  1.00  0.00    -0.206 F 
ATOM     85  C   UNL     1      20.803  -2.433  -5.321  1.00  0.00     0.040 A 
ATOM     86  C   UNL     1      20.779  -3.735  -7.347  1.00  0.00     0.040 A 
ATOM     87  F   UNL     1      18.738  -4.431  -8.272  1.00  0.00    -0.206 F 
ATOM     88  C   UNL     1      21.491  -3.058  -6.360  1.00  0.00     0.006 A 
ENDBRANCH  64  81
ENDBRANCH  38  39
ENDBRANCH  30  33
ENDBRANCH  28  29
ENDBRANCH  27  28
ENDBRANCH   1  27
TORSDOF 14
