REMARK SMILES O=C(Cc1ccccc1Nc1c(F)cccc1C(F)(F)F)NCCCCNC(=O)c1ccc(-c2c3nc(c(-c4c(F)cccc4F)c4ccc([nH]4)c(-c4c(F)cccc4F)c4nc(c(-c5c(F)cccc5F)c5ccc2[nH]5)C=C4)C=C3)cc1
REMARK SMILES IDX 23 1 22 2 1 3 2 4 3 6 4 7 5 8 9 9 6 10 8 11 7 12 10 13 11 15
REMARK SMILES IDX 12 16 17 17 13 18 14 19 16 20 15 21 18 22 19 23 20 24 21 25
REMARK SMILES IDX 24 26 25 27 26 28 27 29 28 30 29 32 30 33 31 34 83 35 32 36
REMARK SMILES IDX 82 37 33 38 34 39 35 40 76 41 36 42 81 43 75 44 77 45 37 46
REMARK SMILES IDX 80 47 74 48 73 49 38 51 64 52 47 53 63 54 48 55 51 56 62 57
REMARK SMILES IDX 78 58 49 59 50 60 61 62 79 63 52 64 39 65 40 66 45 67 41 68
REMARK SMILES IDX 42 69 44 70 46 71 43 72 65 73 66 74 71 75 67 76 68 77 70 78
REMARK SMILES IDX 72 79 69 80 53 81 54 82 59 83 55 84 56 85 58 86 60 87 57 88
REMARK H PARENT 22 5 10 14 27 31 77 50 51 61
REMARK Flexibility Score: inf
ROOT
ATOM      1  C   UNL     1       2.091   1.649   1.795  1.00  0.00     0.116 C 
ENDROOT
BRANCH   1   2
ATOM      2  N   UNL     1       2.813   0.662   1.014  1.00  0.00    -0.356 N 
ATOM      3  O   UNL     1       0.954  -0.125  -0.071  1.00  0.00    -0.275 OA
ATOM      4  C   UNL     1       2.171  -0.144   0.098  1.00  0.00     0.224 C 
ATOM      5  H   UNL     1       3.785   0.566   1.141  1.00  0.00     0.163 HD
BRANCH   4   6
ATOM      6  C   UNL     1       3.073  -1.013  -0.745  1.00  0.00     0.137 C 
BRANCH   6   7
ATOM      7  C   UNL     1       3.934  -0.360  -1.819  1.00  0.00    -0.015 A 
ATOM      8  C   UNL     1       4.870  -1.243  -2.414  1.00  0.00     0.006 A 
ATOM      9  C   UNL     1       3.879   0.977  -2.280  1.00  0.00     0.042 A 
ATOM     10  C   UNL     1       5.773  -0.816  -3.384  1.00  0.00     0.000 A 
ATOM     11  C   UNL     1       4.855   1.398  -3.206  1.00  0.00     0.026 A 
ATOM     12  C   UNL     1       5.780   0.514  -3.764  1.00  0.00     0.002 A 
BRANCH   9  13
ATOM     13  N   UNL     1       2.941   1.910  -1.794  1.00  0.00    -0.352 N 
ATOM     14  H   UNL     1       2.337   1.567  -1.097  1.00  0.00     0.167 HD
BRANCH  13  15
ATOM     15  C   UNL     1       2.730   3.261  -2.151  1.00  0.00     0.087 A 
ATOM     16  C   UNL     1       2.956   4.253  -1.177  1.00  0.00     0.147 A 
ATOM     17  C   UNL     1       2.113   3.647  -3.353  1.00  0.00     0.082 A 
ATOM     18  F   UNL     1       3.526   3.919  -0.013  1.00  0.00    -0.205 F 
ATOM     19  C   UNL     1       2.622   5.588  -1.373  1.00  0.00     0.041 A 
ATOM     20  C   UNL     1       1.799   5.012  -3.555  1.00  0.00     0.015 A 
ATOM     21  C   UNL     1       2.040   5.972  -2.571  1.00  0.00     0.004 A 
BRANCH  17  22
ATOM     22  C   UNL     1       1.810   2.674  -4.466  1.00  0.00     0.418 C 
ATOM     23  F   UNL     1       0.780   3.099  -5.259  1.00  0.00    -0.166 F 
ATOM     24  F   UNL     1       2.866   2.515  -5.313  1.00  0.00    -0.166 F 
ATOM     25  F   UNL     1       1.446   1.428  -4.059  1.00  0.00    -0.166 F 
ENDBRANCH  17  22
ENDBRANCH  13  15
ENDBRANCH   9  13
ENDBRANCH   6   7
ENDBRANCH   4   6
ENDBRANCH   1   2
BRANCH   1  26
ATOM     26  C   UNL     1       2.544   1.742   3.247  1.00  0.00     0.023 C 
BRANCH  26  27
ATOM     27  C   UNL     1       4.032   2.004   3.491  1.00  0.00     0.023 C 
BRANCH  27  28
ATOM     28  C   UNL     1       4.631   3.263   2.869  1.00  0.00     0.116 C 
BRANCH  28  29
ATOM     29  N   UNL     1       3.962   4.494   3.254  1.00  0.00    -0.352 N 
ATOM     30  C   UNL     1       4.509   5.715   3.584  1.00  0.00     0.251 C 
ATOM     31  H   UNL     1       2.979   4.450   3.282  1.00  0.00     0.163 HD
ATOM     32  O   UNL     1       3.792   6.637   3.948  1.00  0.00    -0.269 OA
BRANCH  30  33
ATOM     33  C   UNL     1       5.977   5.905   3.535  1.00  0.00     0.039 A 
ATOM     34  C   UNL     1       6.622   6.447   4.651  1.00  0.00     0.014 A 
ATOM     35  C   UNL     1       6.715   5.550   2.403  1.00  0.00     0.014 A 
ATOM     36  C   UNL     1       8.016   6.557   4.663  1.00  0.00     0.010 A 
ATOM     37  C   UNL     1       8.109   5.615   2.435  1.00  0.00     0.010 A 
ATOM     38  C   UNL     1       8.775   6.105   3.571  1.00  0.00    -0.014 A 
BRANCH  38  39
ATOM     39  C   UNL     1      10.261   6.099   3.618  1.00  0.00     0.031 A 
ATOM     40  C   UNL     1      11.063   6.979   2.700  1.00  0.00     0.074 A 
ATOM     41  C   UNL     1      10.896   5.245   4.446  1.00  0.00     0.049 A 
ATOM     42  N   UNL     1      12.362   7.060   2.559  1.00  0.00    -0.248 NA
ATOM     43  C   UNL     1      10.304   7.871   1.811  1.00  0.00     0.031 C 
ATOM     44  C   UNL     1      10.240   4.308   5.360  1.00  0.00     0.029 A 
ATOM     45  N   UNL     1      12.236   5.017   4.644  1.00  0.00    -0.354 N 
ATOM     46  C   UNL     1      12.578   7.999   1.558  1.00  0.00     0.074 A 
ATOM     47  C   UNL     1      11.274   8.430   1.100  1.00  0.00     0.031 C 
ATOM     48  C   UNL     1      11.177   3.620   6.032  1.00  0.00     0.029 A 
ATOM     49  C   UNL     1      12.498   4.040   5.574  1.00  0.00     0.049 A 
ATOM     50  H   UNL     1      12.942   5.509   4.165  1.00  0.00     0.167 HD
ATOM     51  C   UNL     1      13.753   8.472   1.078  1.00  0.00     0.037 A 
ATOM     52  C   UNL     1      13.668   3.531   6.003  1.00  0.00     0.037 A 
ATOM     53  C   UNL     1      15.051   8.060   1.546  1.00  0.00     0.049 A 
ATOM     54  C   UNL     1      14.958   4.063   5.442  1.00  0.00     0.074 A 
ATOM     55  C   UNL     1      16.295   8.532   1.164  1.00  0.00     0.029 A 
ATOM     56  N   UNL     1      15.274   7.074   2.495  1.00  0.00    -0.354 N 
ATOM     57  N   UNL     1      15.146   5.003   4.548  1.00  0.00    -0.248 NA
ATOM     58  C   UNL     1      16.200   3.465   5.954  1.00  0.00     0.031 C 
ATOM     59  C   UNL     1      17.272   7.802   1.848  1.00  0.00     0.029 A 
ATOM     60  C   UNL     1      16.636   6.907   2.692  1.00  0.00     0.049 A 
ATOM     61  H   UNL     1      14.569   6.568   2.960  1.00  0.00     0.167 HD
ATOM     62  C   UNL     1      16.522   5.131   4.414  1.00  0.00     0.074 A 
ATOM     63  C   UNL     1      17.123   4.179   5.326  1.00  0.00     0.031 C 
ATOM     64  C   UNL     1      17.224   5.963   3.608  1.00  0.00     0.037 A 
BRANCH  51  65
ATOM     65  C   UNL     1      13.691   9.495  -0.019  1.00  0.00     0.057 A 
ATOM     66  C   UNL     1      13.267  10.809   0.221  1.00  0.00     0.134 A 
ATOM     67  C   UNL     1      14.105   9.177  -1.319  1.00  0.00     0.134 A 
ATOM     68  F   UNL     1      12.850  11.177   1.442  1.00  0.00    -0.206 F 
ATOM     69  C   UNL     1      13.233  11.762  -0.798  1.00  0.00     0.040 A 
ATOM     70  C   UNL     1      14.100  10.129  -2.340  1.00  0.00     0.040 A 
ATOM     71  F   UNL     1      14.532   7.940  -1.615  1.00  0.00    -0.206 F 
ATOM     72  C   UNL     1      13.658  11.425  -2.082  1.00  0.00     0.006 A 
ENDBRANCH  51  65
BRANCH  52  73
ATOM     73  C   UNL     1      13.683   2.468   7.040  1.00  0.00     0.057 A 
ATOM     74  C   UNL     1      14.140   2.733   8.336  1.00  0.00     0.134 A 
ATOM     75  C   UNL     1      13.259   1.164   6.759  1.00  0.00     0.134 A 
ATOM     76  F   UNL     1      14.580   3.959   8.658  1.00  0.00    -0.206 F 
ATOM     77  C   UNL     1      14.196   1.736   9.310  1.00  0.00     0.040 A 
ATOM     78  C   UNL     1      13.286   0.162   7.731  1.00  0.00     0.040 A 
ATOM     79  F   UNL     1      12.805   0.847   5.537  1.00  0.00    -0.206 F 
ATOM     80  C   UNL     1      13.763   0.446   9.009  1.00  0.00     0.006 A 
ENDBRANCH  52  73
BRANCH  64  81
ATOM     81  C   UNL     1      18.721   5.912   3.702  1.00  0.00     0.057 A 
ATOM     82  C   UNL     1      19.460   4.840   3.187  1.00  0.00     0.134 A 
ATOM     83  C   UNL     1      19.435   6.968   4.284  1.00  0.00     0.134 A 
ATOM     84  F   UNL     1      18.836   3.791   2.629  1.00  0.00    -0.206 F 
ATOM     85  C   UNL     1      20.854   4.809   3.266  1.00  0.00     0.040 A 
ATOM     86  C   UNL     1      20.829   6.961   4.346  1.00  0.00     0.040 A 
ATOM     87  F   UNL     1      18.789   8.030   4.791  1.00  0.00    -0.206 F 
ATOM     88  C   UNL     1      21.542   5.876   3.841  1.00  0.00     0.006 A 
ENDBRANCH  64  81
ENDBRANCH  38  39
ENDBRANCH  30  33
ENDBRANCH  28  29
ENDBRANCH  27  28
ENDBRANCH  26  27
ENDBRANCH   1  26
TORSDOF 15
