REMARK SMILES Cc1nc(-c2ccc(C(F)(F)F)cc2)nc(SCC(=O)NCCCCNC(=O)c2ccc(-c3c4nc(c(-c5c(F)cccc5F)c5ccc([nH]5)c(-c5c(F)cccc5F)c5nc(c(-c6c(F)cccc6F)c6ccc3[nH]6)C=C5)C=C4)cc2)c1C
REMARK SMILES IDX 22 1 21 2 19 3 20 4 18 6 17 7 16 8 1 9 2 10 3 11 83 12 4 13
REMARK SMILES IDX 84 14 15 15 5 16 6 17 14 18 7 19 13 20 8 21 9 22 10 23 11 24
REMARK SMILES IDX 12 25 23 26 24 27 25 28 26 29 27 30 28 32 29 33 30 34 82 35
REMARK SMILES IDX 31 36 81 37 32 38 33 39 34 40 75 41 35 42 80 43 74 44 76 45
REMARK SMILES IDX 36 46 79 47 73 48 72 49 37 51 63 52 46 53 62 54 47 55 50 56
REMARK SMILES IDX 61 57 77 58 48 59 49 60 60 62 78 63 51 64 38 65 39 66 44 67
REMARK SMILES IDX 40 68 41 69 43 70 45 71 42 72 64 73 65 74 70 75 66 76 67 77
REMARK SMILES IDX 69 78 71 79 68 80 52 81 53 82 58 83 54 84 55 85 57 86 59 87
REMARK SMILES IDX 56 88
REMARK H PARENT 21 5 26 31 76 50 50 61
REMARK Flexibility Score: inf
ROOT
ATOM      1  C   UNL     1       3.641   6.013   2.117  1.00  0.00     0.116 C 
ENDROOT
BRANCH   1   2
ATOM      2  N   UNL     1       3.774   5.224   0.910  1.00  0.00    -0.355 N 
ATOM      3  C   UNL     1       2.865   4.969  -0.067  1.00  0.00     0.230 C 
ATOM      4  O   UNL     1       3.284   4.403  -1.081  1.00  0.00    -0.274 OA
ATOM      5  H   UNL     1       4.657   4.809   0.778  1.00  0.00     0.163 HD
BRANCH   3   6
ATOM      6  C   UNL     1       1.439   5.465   0.006  1.00  0.00     0.176 C 
BRANCH   6   7
ATOM      7  S   UNL     1       0.426   4.886   1.391  1.00  0.00    -0.096 SA
BRANCH   7   8
ATOM      8  C   UNL     1       0.327   3.109   1.468  1.00  0.00     0.104 A 
ATOM      9  C   UNL     1       0.797  -0.387   0.117  1.00  0.00     0.067 C 
ATOM     10  C   UNL     1       0.466   0.802   0.977  1.00  0.00     0.045 A 
ATOM     11  N   UNL     1       0.002   0.483   2.199  1.00  0.00    -0.233 NA
ATOM     12  C   UNL     1       0.623   2.123   0.532  1.00  0.00     0.003 A 
ATOM     13  C   UNL     1      -0.337   1.495   2.998  1.00  0.00     0.160 A 
ATOM     14  C   UNL     1       1.121   2.350  -0.857  1.00  0.00     0.049 C 
ATOM     15  N   UNL     1      -0.185   2.786   2.684  1.00  0.00    -0.221 NA
BRANCH  13  16
ATOM     16  C   UNL     1      -0.921   1.148   4.298  1.00  0.00     0.019 A 
ATOM     17  C   UNL     1      -0.326   0.166   5.110  1.00  0.00     0.012 A 
ATOM     18  C   UNL     1      -2.108   1.744   4.756  1.00  0.00     0.012 A 
ATOM     19  C   UNL     1      -0.894  -0.208   6.332  1.00  0.00     0.014 A 
ATOM     20  C   UNL     1      -2.691   1.359   5.971  1.00  0.00     0.014 A 
ATOM     21  C   UNL     1      -2.090   0.376   6.770  1.00  0.00     0.056 A 
BRANCH  21  22
ATOM     22  C   UNL     1      -2.699  -0.058   8.081  1.00  0.00     0.416 C 
ATOM     23  F   UNL     1      -2.891  -1.405   8.147  1.00  0.00    -0.166 F 
ATOM     24  F   UNL     1      -1.914   0.258   9.149  1.00  0.00    -0.166 F 
ATOM     25  F   UNL     1      -3.915   0.503   8.333  1.00  0.00    -0.166 F 
ENDBRANCH  21  22
ENDBRANCH  13  16
ENDBRANCH   7   8
ENDBRANCH   6   7
ENDBRANCH   3   6
ENDBRANCH   1   2
BRANCH   1  26
ATOM     26  C   UNL     1       3.731   5.155   3.376  1.00  0.00     0.023 C 
BRANCH  26  27
ATOM     27  C   UNL     1       5.033   4.364   3.535  1.00  0.00     0.023 C 
BRANCH  27  28
ATOM     28  C   UNL     1       6.323   5.166   3.392  1.00  0.00     0.116 C 
BRANCH  28  29
ATOM     29  N   UNL     1       6.408   6.285   4.316  1.00  0.00    -0.352 N 
ATOM     30  C   UNL     1       7.439   6.659   5.145  1.00  0.00     0.251 C 
ATOM     31  H   UNL     1       5.609   6.859   4.353  1.00  0.00     0.163 HD
ATOM     32  O   UNL     1       7.290   7.582   5.934  1.00  0.00    -0.269 OA
BRANCH  30  33
ATOM     33  C   UNL     1       8.719   5.920   5.107  1.00  0.00     0.039 A 
ATOM     34  C   UNL     1       9.287   5.507   6.315  1.00  0.00     0.014 A 
ATOM     35  C   UNL     1       9.351   5.628   3.895  1.00  0.00     0.014 A 
ATOM     36  C   UNL     1      10.454   4.742   6.304  1.00  0.00     0.010 A 
ATOM     37  C   UNL     1      10.477   4.810   3.882  1.00  0.00     0.010 A 
ATOM     38  C   UNL     1      11.038   4.358   5.086  1.00  0.00    -0.014 A 
BRANCH  38  39
ATOM     39  C   UNL     1      12.242   3.492   5.056  1.00  0.00     0.031 A 
ATOM     40  C   UNL     1      13.548   4.033   4.550  1.00  0.00     0.074 A 
ATOM     41  C   UNL     1      12.152   2.208   5.453  1.00  0.00     0.049 A 
ATOM     42  N   UNL     1      14.697   3.423   4.410  1.00  0.00    -0.248 NA
ATOM     43  C   UNL     1      13.560   5.443   4.129  1.00  0.00     0.031 C 
ATOM     44  C   UNL     1      10.936   1.559   5.947  1.00  0.00     0.029 A 
ATOM     45  N   UNL     1      13.102   1.220   5.510  1.00  0.00    -0.354 N 
ATOM     46  C   UNL     1      15.567   4.372   3.891  1.00  0.00     0.074 A 
ATOM     47  C   UNL     1      14.799   5.580   3.679  1.00  0.00     0.031 C 
ATOM     48  C   UNL     1      11.224   0.295   6.295  1.00  0.00     0.029 A 
ATOM     49  C   UNL     1      12.633   0.032   6.014  1.00  0.00     0.049 A 
ATOM     50  H   UNL     1      14.033   1.351   5.216  1.00  0.00     0.167 HD
ATOM     51  C   UNL     1      16.893   4.260   3.643  1.00  0.00     0.037 A 
ATOM     52  C   UNL     1      13.268  -1.135   6.231  1.00  0.00     0.037 A 
ATOM     53  C   UNL     1      17.659   3.062   3.861  1.00  0.00     0.049 A 
ATOM     54  C   UNL     1      14.727  -1.254   5.894  1.00  0.00     0.074 A 
ATOM     55  C   UNL     1      19.011   2.853   3.655  1.00  0.00     0.029 A 
ATOM     56  N   UNL     1      17.137   1.868   4.338  1.00  0.00    -0.354 N 
ATOM     57  N   UNL     1      15.544  -0.340   5.428  1.00  0.00    -0.248 NA
ATOM     58  C   UNL     1      15.353  -2.567   6.109  1.00  0.00     0.031 C 
ATOM     59  C   UNL     1      19.301   1.523   3.972  1.00  0.00     0.029 A 
ATOM     60  C   UNL     1      18.138   0.914   4.417  1.00  0.00     0.049 A 
ATOM     61  H   UNL     1      16.196   1.721   4.583  1.00  0.00     0.167 HD
ATOM     62  C   UNL     1      16.782  -0.958   5.316  1.00  0.00     0.074 A 
ATOM     63  C   UNL     1      16.613  -2.322   5.773  1.00  0.00     0.031 C 
ATOM     64  C   UNL     1      17.954  -0.440   4.875  1.00  0.00     0.037 A 
BRANCH  51  65
ATOM     65  C   UNL     1      17.600   5.477   3.124  1.00  0.00     0.057 A 
ATOM     66  C   UNL     1      17.830   6.593   3.940  1.00  0.00     0.134 A 
ATOM     67  C   UNL     1      18.079   5.528   1.809  1.00  0.00     0.134 A 
ATOM     68  F   UNL     1      17.384   6.612   5.205  1.00  0.00    -0.206 F 
ATOM     69  C   UNL     1      18.490   7.725   3.460  1.00  0.00     0.040 A 
ATOM     70  C   UNL     1      18.763   6.645   1.326  1.00  0.00     0.040 A 
ATOM     71  F   UNL     1      17.897   4.492   0.976  1.00  0.00    -0.206 F 
ATOM     72  C   UNL     1      18.964   7.750   2.151  1.00  0.00     0.006 A 
ENDBRANCH  51  65
BRANCH  52  73
ATOM     73  C   UNL     1      12.534  -2.270   6.844  1.00  0.00     0.057 A 
ATOM     74  C   UNL     1      12.792  -2.655   8.165  1.00  0.00     0.134 A 
ATOM     75  C   UNL     1      11.550  -2.978   6.145  1.00  0.00     0.134 A 
ATOM     76  F   UNL     1      13.736  -2.025   8.879  1.00  0.00    -0.206 F 
ATOM     77  C   UNL     1      12.101  -3.706   8.768  1.00  0.00     0.040 A 
ATOM     78  C   UNL     1      10.837  -4.019   6.742  1.00  0.00     0.040 A 
ATOM     79  F   UNL     1      11.254  -2.654   4.878  1.00  0.00    -0.206 F 
ATOM     80  C   UNL     1      11.114  -4.387   8.058  1.00  0.00     0.006 A 
ENDBRANCH  52  73
BRANCH  64  81
ATOM     81  C   UNL     1      19.154  -1.340   4.877  1.00  0.00     0.057 A 
ATOM     82  C   UNL     1      19.312  -2.356   3.928  1.00  0.00     0.134 A 
ATOM     83  C   UNL     1      20.194  -1.141   5.794  1.00  0.00     0.134 A 
ATOM     84  F   UNL     1      18.346  -2.604   3.030  1.00  0.00    -0.206 F 
ATOM     85  C   UNL     1      20.460  -3.149   3.895  1.00  0.00     0.040 A 
ATOM     86  C   UNL     1      21.357  -1.912   5.756  1.00  0.00     0.040 A 
ATOM     87  F   UNL     1      20.108  -0.177   6.724  1.00  0.00    -0.206 F 
ATOM     88  C   UNL     1      21.491  -2.921   4.806  1.00  0.00     0.006 A 
ENDBRANCH  64  81
ENDBRANCH  38  39
ENDBRANCH  30  33
ENDBRANCH  28  29
ENDBRANCH  27  28
ENDBRANCH  26  27
ENDBRANCH   1  26
TORSDOF 15
