REMARK SMILES O=C(NCCCCNC(=O)[C@@H]1[C@H](C(=O)Nc2cccc(Cl)c2F)[C@@H]2C=C[C@H]1C2)c1ccc(-c2c3nc(c(-c4c(F)cccc4F)c4ccc([nH]4)c(-c4c(F)cccc4F)c4nc(c(-c5c(F)cccc5F)c5ccc2[nH]5)C=C4)C=C3)cc1
REMARK SMILES IDX 5 1 4 2 3 3 1 4 2 5 29 7 30 8 82 9 31 10 81 11 32 12 33 13
REMARK SMILES IDX 34 14 75 15 35 16 80 17 74 18 76 19 36 20 79 21 73 22 72 23
REMARK SMILES IDX 37 25 63 26 46 27 62 28 47 29 50 30 61 31 77 32 48 33 49 34
REMARK SMILES IDX 60 36 78 37 51 38 38 39 39 40 44 41 40 42 41 43 43 44 45 45
REMARK SMILES IDX 42 46 64 47 65 48 70 49 66 50 67 51 69 52 71 53 68 54 52 55
REMARK SMILES IDX 53 56 58 57 54 58 55 59 57 60 59 61 56 62 6 63 7 64 8 65
REMARK SMILES IDX 9 66 10 68 11 69 12 70 27 71 24 72 26 73 28 74 25 75 13 76
REMARK SMILES IDX 14 77 15 78 16 80 17 81 22 82 18 83 20 84 23 85 19 86 21 87
REMARK H PARENT 3 6 76 24 50 35 8 67 15 79
REMARK Flexibility Score: inf
ROOT
ATOM      1  C   UNL     1       4.539  -2.271  -1.363  1.00  0.00     0.023 C 
ENDROOT
BRANCH   1   2
ATOM      2  C   UNL     1       4.437  -0.761  -1.201  1.00  0.00     0.116 C 
BRANCH   2   3
ATOM      3  N   UNL     1       3.052  -0.320  -1.118  1.00  0.00    -0.352 N 
ATOM      4  O   UNL     1       1.143   0.302  -0.088  1.00  0.00    -0.269 OA
ATOM      5  C   UNL     1       2.367   0.206  -0.050  1.00  0.00     0.251 C 
ATOM      6  H   UNL     1       2.530  -0.413  -1.948  1.00  0.00     0.163 HD
BRANCH   5   7
ATOM      7  C   UNL     1       3.105   0.643   1.154  1.00  0.00     0.039 A 
ATOM      8  C   UNL     1       4.286   1.376   1.029  1.00  0.00     0.014 A 
ATOM      9  C   UNL     1       2.605   0.330   2.421  1.00  0.00     0.014 A 
ATOM     10  C   UNL     1       5.048   1.655   2.157  1.00  0.00     0.010 A 
ATOM     11  C   UNL     1       3.324   0.701   3.562  1.00  0.00     0.010 A 
ATOM     12  C   UNL     1       4.569   1.336   3.439  1.00  0.00    -0.014 A 
BRANCH  12  13
ATOM     13  C   UNL     1       5.369   1.732   4.626  1.00  0.00     0.031 A 
ATOM     14  C   UNL     1       5.945   0.705   5.560  1.00  0.00     0.074 A 
ATOM     15  C   UNL     1       5.606   3.042   4.834  1.00  0.00     0.049 A 
ATOM     16  N   UNL     1       6.702   0.883   6.614  1.00  0.00    -0.248 NA
ATOM     17  C   UNL     1       5.625  -0.704   5.285  1.00  0.00     0.031 C 
ATOM     18  C   UNL     1       5.091   4.133   4.002  1.00  0.00     0.029 A 
ATOM     19  N   UNL     1       6.358   3.679   5.787  1.00  0.00    -0.354 N 
ATOM     20  C   UNL     1       6.931  -0.383   7.139  1.00  0.00     0.074 A 
ATOM     21  C   UNL     1       6.209  -1.319   6.304  1.00  0.00     0.031 C 
ATOM     22  C   UNL     1       5.591   5.296   4.442  1.00  0.00     0.029 A 
ATOM     23  C   UNL     1       6.404   5.043   5.626  1.00  0.00     0.049 A 
ATOM     24  H   UNL     1       6.820   3.206   6.516  1.00  0.00     0.167 HD
ATOM     25  C   UNL     1       7.681  -0.731   8.214  1.00  0.00     0.037 A 
ATOM     26  C   UNL     1       7.023   5.989   6.355  1.00  0.00     0.037 A 
ATOM     27  C   UNL     1       8.410   0.206   9.032  1.00  0.00     0.049 A 
ATOM     28  C   UNL     1       7.821   5.576   7.556  1.00  0.00     0.074 A 
ATOM     29  C   UNL     1       9.234  -0.052  10.114  1.00  0.00     0.029 A 
ATOM     30  N   UNL     1       8.396   1.584   8.863  1.00  0.00    -0.354 N 
ATOM     31  N   UNL     1       8.064   4.372   8.014  1.00  0.00    -0.248 NA
ATOM     32  C   UNL     1       8.428   6.656   8.344  1.00  0.00     0.031 C 
ATOM     33  C   UNL     1       9.674   1.171  10.633  1.00  0.00     0.029 A 
ATOM     34  C   UNL     1       9.173   2.189   9.839  1.00  0.00     0.049 A 
ATOM     35  H   UNL     1       7.907   2.061   8.154  1.00  0.00     0.167 HD
ATOM     36  C   UNL     1       8.872   4.547   9.129  1.00  0.00     0.074 A 
ATOM     37  C   UNL     1       9.091   5.972   9.265  1.00  0.00     0.031 C 
ATOM     38  C   UNL     1       9.385   3.610   9.963  1.00  0.00     0.037 A 
BRANCH  25  39
ATOM     39  C   UNL     1       7.731  -2.186   8.586  1.00  0.00     0.057 A 
ATOM     40  C   UNL     1       8.404  -3.134   7.805  1.00  0.00     0.134 A 
ATOM     41  C   UNL     1       7.124  -2.640   9.765  1.00  0.00     0.134 A 
ATOM     42  F   UNL     1       9.000  -2.771   6.659  1.00  0.00    -0.206 F 
ATOM     43  C   UNL     1       8.449  -4.483   8.167  1.00  0.00     0.040 A 
ATOM     44  C   UNL     1       7.185  -3.980  10.152  1.00  0.00     0.040 A 
ATOM     45  F   UNL     1       6.470  -1.786  10.567  1.00  0.00    -0.206 F 
ATOM     46  C   UNL     1       7.843  -4.908   9.348  1.00  0.00     0.006 A 
ENDBRANCH  25  39
BRANCH  26  47
ATOM     47  C   UNL     1       6.914   7.416   5.961  1.00  0.00     0.057 A 
ATOM     48  C   UNL     1       8.024   8.119   5.482  1.00  0.00     0.134 A 
ATOM     49  C   UNL     1       5.700   8.107   6.048  1.00  0.00     0.134 A 
ATOM     50  F   UNL     1       9.219   7.516   5.391  1.00  0.00    -0.206 F 
ATOM     51  C   UNL     1       7.936   9.464   5.119  1.00  0.00     0.040 A 
ATOM     52  C   UNL     1       5.590   9.443   5.660  1.00  0.00     0.040 A 
ATOM     53  F   UNL     1       4.596   7.487   6.491  1.00  0.00    -0.206 F 
ATOM     54  C   UNL     1       6.713  10.127   5.201  1.00  0.00     0.006 A 
ENDBRANCH  26  47
BRANCH  38  55
ATOM     55  C   UNL     1      10.267   4.101  11.075  1.00  0.00     0.057 A 
ATOM     56  C   UNL     1       9.756   4.808  12.171  1.00  0.00     0.134 A 
ATOM     57  C   UNL     1      11.645   3.852  11.051  1.00  0.00     0.134 A 
ATOM     58  F   UNL     1       8.447   5.094  12.247  1.00  0.00    -0.206 F 
ATOM     59  C   UNL     1      10.589   5.277  13.188  1.00  0.00     0.040 A 
ATOM     60  C   UNL     1      12.484   4.290  12.076  1.00  0.00     0.040 A 
ATOM     61  F   UNL     1      12.198   3.175  10.033  1.00  0.00    -0.206 F 
ATOM     62  C   UNL     1      11.957   5.013  13.145  1.00  0.00     0.006 A 
ENDBRANCH  38  55
ENDBRANCH  12  13
ENDBRANCH   5   7
ENDBRANCH   2   3
ENDBRANCH   1   2
BRANCH   1  63
ATOM     63  C   UNL     1       3.999  -2.805  -2.694  1.00  0.00     0.023 C 
BRANCH  63  64
ATOM     64  C   UNL     1       4.656  -2.218  -3.945  1.00  0.00     0.116 C 
BRANCH  64  65
ATOM     65  N   UNL     1       6.082  -2.421  -3.913  1.00  0.00    -0.356 N 
ATOM     66  C   UNL     1       6.949  -2.872  -4.844  1.00  0.00     0.224 C 
ATOM     67  H   UNL     1       6.502  -2.189  -3.053  1.00  0.00     0.163 HD
ATOM     68  O   UNL     1       8.063  -3.196  -4.421  1.00  0.00    -0.275 OA
BRANCH  66  69
ATOM     69  C   UNL     1       6.542  -3.121  -6.275  1.00  0.00     0.098 C 
ATOM     70  C   UNL     1       7.733  -3.398  -7.234  1.00  0.00     0.099 C 
ATOM     71  C   UNL     1       5.628  -2.223  -7.154  1.00  0.00     0.025 C 
ATOM     72  C   UNL     1       7.223  -2.873  -8.602  1.00  0.00     0.025 C 
ATOM     73  C   UNL     1       6.286  -0.986  -7.724  1.00  0.00    -0.027 C 
ATOM     74  C   UNL     1       5.700  -3.056  -8.456  1.00  0.00     0.017 C 
ATOM     75  C   UNL     1       7.215  -1.376  -8.610  1.00  0.00    -0.027 C 
BRANCH  70  76
ATOM     76  C   UNL     1       9.192  -3.072  -6.868  1.00  0.00     0.228 C 
ATOM     77  O   UNL     1       9.993  -4.027  -6.902  1.00  0.00    -0.274 OA
ATOM     78  N   UNL     1       9.798  -1.873  -6.660  1.00  0.00    -0.323 N 
ATOM     79  H   UNL     1      10.762  -1.987  -6.494  1.00  0.00     0.170 HD
BRANCH  78  80
ATOM     80  C   UNL     1       9.434  -0.514  -6.617  1.00  0.00     0.078 A 
ATOM     81  C   UNL     1      10.216   0.347  -7.401  1.00  0.00     0.029 A 
ATOM     82  C   UNL     1       8.448   0.069  -5.820  1.00  0.00     0.165 A 
ATOM     83  C   UNL     1       9.921   1.712  -7.497  1.00  0.00     0.004 A 
ATOM     84  C   UNL     1       8.141   1.431  -5.917  1.00  0.00     0.078 A 
ATOM     85  F   UNL     1       7.826  -0.628  -4.872  1.00  0.00    -0.203 F 
ATOM     86  C   UNL     1       8.861   2.253  -6.774  1.00  0.00     0.024 A 
ATOM     87  Cl  UNL     1       6.856   2.104  -4.981  1.00  0.00    -0.081 Cl
ENDBRANCH  78  80
ENDBRANCH  70  76
ENDBRANCH  66  69
ENDBRANCH  64  65
ENDBRANCH  63  64
ENDBRANCH   1  63
TORSDOF 13
