REMARK SMILES C[C@H]1CC[C@H](CNC(=O)NCc2ccc(C(=O)NCCCCNC(=O)c3ccc(-c4c5nc(c(-c6c(F)cccc6F)c6ccc([nH]6)c(-c6c(F)cccc6F)c6nc(c(-c7c(F)cccc7F)c7ccc4[nH]7)C=C6)C=C5)cc3)o2)CC1
REMARK SMILES IDX 19 1 18 2 16 3 17 4 15 6 12 7 13 8 80 9 14 10 11 11 10 12
REMARK SMILES IDX 7 13 8 14 9 16 6 18 5 19 1 20 2 21 82 22 3 23 81 24 4 25
REMARK SMILES IDX 20 26 21 27 22 28 23 29 24 30 25 32 26 33 27 34 79 35 28 36
REMARK SMILES IDX 78 37 29 38 30 39 31 40 72 41 32 42 77 43 71 44 73 45 33 46
REMARK SMILES IDX 76 47 70 48 69 49 34 51 60 52 43 53 59 54 44 55 47 56 58 57
REMARK SMILES IDX 74 58 45 59 46 60 57 62 75 63 48 64 35 65 36 66 41 67 37 68
REMARK SMILES IDX 38 69 40 70 42 71 39 72 61 73 62 74 67 75 63 76 64 77 66 78
REMARK SMILES IDX 68 79 65 80 49 81 50 82 55 83 51 84 52 85 54 86 56 87 53 88
REMARK H PARENT 18 5 7 15 10 17 23 31 73 50 47 61
REMARK Flexibility Score: inf
ROOT
ATOM      1  C   UNL     1      -8.860  -5.306   2.173  1.00  0.00     0.116 C 
ENDROOT
BRANCH   1   2
ATOM      2  N   UNL     1      -9.023  -3.880   2.353  1.00  0.00    -0.349 N 
ATOM      3  C   UNL     1      -8.351  -2.820   1.784  1.00  0.00     0.286 C 
ATOM      4  O   UNL     1      -8.813  -1.704   2.035  1.00  0.00    -0.266 OA
ATOM      5  H   UNL     1      -9.732  -3.625   2.986  1.00  0.00     0.163 HD
BRANCH   3   6
ATOM      6  C   UNL     1      -7.186  -3.025   0.940  1.00  0.00     0.191 A 
ATOM      7  C   UNL     1      -5.738  -2.364  -0.612  1.00  0.00     0.124 A 
ATOM      8  C   UNL     1      -5.338  -3.620  -0.214  1.00  0.00     0.048 A 
ATOM      9  O   UNL     1      -6.861  -2.006   0.076  1.00  0.00    -0.454 OA
ATOM     10  C   UNL     1      -6.245  -4.031   0.794  1.00  0.00     0.056 A 
BRANCH   7  11
ATOM     11  C   UNL     1      -5.190  -1.407  -1.613  1.00  0.00     0.193 C 
BRANCH  11  12
ATOM     12  N   UNL     1      -5.745  -0.086  -1.444  1.00  0.00    -0.331 N 
ATOM     13  N   UNL     1      -4.100   1.166  -0.309  1.00  0.00    -0.338 N 
ATOM     14  C   UNL     1      -5.242   1.069  -1.001  1.00  0.00     0.315 C 
ATOM     15  H   UNL     1      -3.731   2.079  -0.287  1.00  0.00     0.165 HD
ATOM     16  O   UNL     1      -5.856   2.109  -1.248  1.00  0.00    -0.249 OA
ATOM     17  H   UNL     1      -6.690  -0.022  -1.712  1.00  0.00     0.165 HD
BRANCH  13  18
ATOM     18  C   UNL     1      -3.295   0.201   0.415  1.00  0.00     0.121 C 
BRANCH  18  19
ATOM     19  C   UNL     1      -1.866   0.124  -0.147  1.00  0.00     0.008 C 
ATOM     20  C   UNL     1       2.524  -0.070  -0.172  1.00  0.00     0.007 C 
ATOM     21  C   UNL     1       1.078   0.007   0.312  1.00  0.00    -0.014 C 
ATOM     22  C   UNL     1       0.285  -1.228  -0.130  1.00  0.00     0.003 C 
ATOM     23  C   UNL     1       0.403   1.285  -0.199  1.00  0.00     0.003 C 
ATOM     24  C   UNL     1      -1.169  -1.155   0.338  1.00  0.00     0.006 C 
ATOM     25  C   UNL     1      -1.054   1.370   0.254  1.00  0.00     0.006 C 
ENDBRANCH  18  19
ENDBRANCH  13  18
ENDBRANCH  11  12
ENDBRANCH   7  11
ENDBRANCH   3   6
ENDBRANCH   1   2
BRANCH   1  26
ATOM     26  C   UNL     1      -8.114  -5.936   3.349  1.00  0.00     0.023 C 
BRANCH  26  27
ATOM     27  C   UNL     1      -8.988  -6.206   4.579  1.00  0.00     0.023 C 
BRANCH  27  28
ATOM     28  C   UNL     1     -10.145  -7.179   4.360  1.00  0.00     0.116 C 
BRANCH  28  29
ATOM     29  N   UNL     1      -9.725  -8.478   3.854  1.00  0.00    -0.352 N 
ATOM     30  C   UNL     1     -10.262  -9.716   4.115  1.00  0.00     0.251 C 
ATOM     31  H   UNL     1      -8.953  -8.468   3.244  1.00  0.00     0.163 HD
ATOM     32  O   UNL     1      -9.723 -10.728   3.679  1.00  0.00    -0.269 OA
BRANCH  30  33
ATOM     33  C   UNL     1     -11.470  -9.824   4.959  1.00  0.00     0.039 A 
ATOM     34  C   UNL     1     -11.470 -10.736   6.017  1.00  0.00     0.014 A 
ATOM     35  C   UNL     1     -12.582  -9.012   4.727  1.00  0.00     0.014 A 
ATOM     36  C   UNL     1     -12.559 -10.781   6.890  1.00  0.00     0.010 A 
ATOM     37  C   UNL     1     -13.637  -9.010   5.635  1.00  0.00     0.010 A 
ATOM     38  C   UNL     1     -13.633  -9.890   6.729  1.00  0.00    -0.014 A 
BRANCH  38  39
ATOM     39  C   UNL     1     -14.754  -9.853   7.702  1.00  0.00     0.031 A 
ATOM     40  C   UNL     1     -16.147 -10.210   7.267  1.00  0.00     0.074 A 
ATOM     41  C   UNL     1     -14.528  -9.425   8.960  1.00  0.00     0.049 A 
ATOM     42  N   UNL     1     -17.263 -10.164   7.949  1.00  0.00    -0.248 NA
ATOM     43  C   UNL     1     -16.313 -10.653   5.873  1.00  0.00     0.031 C 
ATOM     44  C   UNL     1     -13.231  -8.998   9.490  1.00  0.00     0.029 A 
ATOM     45  N   UNL     1     -15.387  -9.264  10.019  1.00  0.00    -0.354 N 
ATOM     46  C   UNL     1     -18.262 -10.553   7.066  1.00  0.00     0.074 A 
ATOM     47  C   UNL     1     -17.628 -10.787   5.786  1.00  0.00     0.031 C 
ATOM     48  C   UNL     1     -13.377  -8.641  10.776  1.00  0.00     0.029 A 
ATOM     49  C   UNL     1     -14.780  -8.780  11.152  1.00  0.00     0.049 A 
ATOM     50  H   UNL     1     -16.347  -9.477   9.970  1.00  0.00     0.167 HD
ATOM     51  C   UNL     1     -19.584 -10.723   7.305  1.00  0.00     0.037 A 
ATOM     52  C   UNL     1     -15.299  -8.473  12.357  1.00  0.00     0.037 A 
ATOM     53  C   UNL     1     -20.207 -10.520   8.586  1.00  0.00     0.049 A 
ATOM     54  C   UNL     1     -16.769  -8.676  12.597  1.00  0.00     0.074 A 
ATOM     55  C   UNL     1     -21.527 -10.732   8.945  1.00  0.00     0.029 A 
ATOM     56  N   UNL     1     -19.554 -10.057   9.718  1.00  0.00    -0.354 N 
ATOM     57  N   UNL     1     -17.688  -9.118  11.773  1.00  0.00    -0.248 NA
ATOM     58  C   UNL     1     -17.274  -8.346  13.938  1.00  0.00     0.031 C 
ATOM     59  C   UNL     1     -21.682 -10.358  10.284  1.00  0.00     0.029 A 
ATOM     60  C   UNL     1     -20.448  -9.958  10.771  1.00  0.00     0.049 A 
ATOM     61  H   UNL     1     -18.597  -9.833   9.767  1.00  0.00     0.167 HD
ATOM     62  C   UNL     1     -18.870  -9.146  12.502  1.00  0.00     0.074 A 
ATOM     63  C   UNL     1     -18.549  -8.691  13.838  1.00  0.00     0.031 C 
ATOM     64  C   UNL     1     -20.111  -9.515  12.099  1.00  0.00     0.037 A 
BRANCH  51  65
ATOM     65  C   UNL     1     -20.448 -11.158   6.158  1.00  0.00     0.057 A 
ATOM     66  C   UNL     1     -20.378 -12.454   5.631  1.00  0.00     0.134 A 
ATOM     67  C   UNL     1     -21.395 -10.286   5.605  1.00  0.00     0.134 A 
ATOM     68  F   UNL     1     -19.484 -13.334   6.108  1.00  0.00    -0.206 F 
ATOM     69  C   UNL     1     -21.203 -12.861   4.582  1.00  0.00     0.040 A 
ATOM     70  C   UNL     1     -22.244 -10.690   4.574  1.00  0.00     0.040 A 
ATOM     71  F   UNL     1     -21.519  -9.032   6.066  1.00  0.00    -0.206 F 
ATOM     72  C   UNL     1     -22.146 -11.980   4.056  1.00  0.00     0.006 A 
ENDBRANCH  51  65
BRANCH  52  73
ATOM     73  C   UNL     1     -14.422  -7.955  13.438  1.00  0.00     0.057 A 
ATOM     74  C   UNL     1     -14.137  -8.729  14.569  1.00  0.00     0.134 A 
ATOM     75  C   UNL     1     -13.866  -6.672  13.378  1.00  0.00     0.134 A 
ATOM     76  F   UNL     1     -14.655  -9.960  14.692  1.00  0.00    -0.206 F 
ATOM     77  C   UNL     1     -13.352  -8.238  15.613  1.00  0.00     0.040 A 
ATOM     78  C   UNL     1     -13.059  -6.177  14.403  1.00  0.00     0.040 A 
ATOM     79  F   UNL     1     -14.094  -5.883  12.318  1.00  0.00    -0.206 F 
ATOM     80  C   UNL     1     -12.807  -6.958  15.530  1.00  0.00     0.006 A 
ENDBRANCH  52  73
BRANCH  64  81
ATOM     81  C   UNL     1     -21.205  -9.479  13.125  1.00  0.00     0.057 A 
ATOM     82  C   UNL     1     -21.744  -8.273  13.590  1.00  0.00     0.134 A 
ATOM     83  C   UNL     1     -21.752 -10.669  13.623  1.00  0.00     0.134 A 
ATOM     84  F   UNL     1     -21.255  -7.100  13.162  1.00  0.00    -0.206 F 
ATOM     85  C   UNL     1     -22.775  -8.252  14.531  1.00  0.00     0.040 A 
ATOM     86  C   UNL     1     -22.801 -10.660  14.543  1.00  0.00     0.040 A 
ATOM     87  F   UNL     1     -21.286 -11.858  13.212  1.00  0.00    -0.206 F 
ATOM     88  C   UNL     1     -23.311  -9.448  15.004  1.00  0.00     0.006 A 
ENDBRANCH  64  81
ENDBRANCH  38  39
ENDBRANCH  30  33
ENDBRANCH  28  29
ENDBRANCH  27  28
ENDBRANCH  26  27
ENDBRANCH   1  26
TORSDOF 15
