REMARK SMILES C[C@H](C[NH3+])S[C@H](C)c1ccc(C(=O)NCCCCNC(=O)c2ccc(-c3c4nc(c(-c5c(F)cccc5F)c5ccc([nH]5)c(-c5c(F)cccc5F)c5nc(c(-c6c(F)cccc6F)c6ccc3[nH]6)C=C5)C=C4)cc2)o1
REMARK SMILES IDX 15 1 14 2 12 3 13 4 11 6 8 7 9 8 76 9 10 10 6 11 7 12 5 13
REMARK SMILES IDX 2 14 1 15 3 16 4 17 16 21 17 22 18 23 19 24 20 25 21 27
REMARK SMILES IDX 22 28 23 29 75 30 24 31 74 32 25 33 26 34 27 35 68 36 28 37
REMARK SMILES IDX 73 38 67 39 69 40 29 41 72 42 66 43 65 44 30 46 56 47 39 48
REMARK SMILES IDX 55 49 40 50 43 51 54 52 70 53 41 54 42 55 53 57 71 58 44 59
REMARK SMILES IDX 31 60 32 61 37 62 33 63 34 64 36 65 38 66 35 67 57 68 58 69
REMARK SMILES IDX 63 70 59 71 60 72 62 73 64 74 61 75 45 76 46 77 51 78 47 79
REMARK SMILES IDX 48 80 50 81 52 82 49 83
REMARK H PARENT 14 5 4 18 4 19 4 20 19 26 69 45 43 56
REMARK Flexibility Score: inf
ROOT
ATOM      1  C   UNL     1       0.031   1.093  -5.701  1.00  0.00     0.116 C 
ENDROOT
BRANCH   1   2
ATOM      2  N   UNL     1      -0.262  -0.173  -5.059  1.00  0.00    -0.349 N 
ATOM      3  C   UNL     1      -0.761  -0.439  -3.802  1.00  0.00     0.286 C 
ATOM      4  O   UNL     1      -0.699  -1.613  -3.430  1.00  0.00    -0.266 OA
ATOM      5  H   UNL     1      -0.075  -0.969  -5.607  1.00  0.00     0.163 HD
BRANCH   3   6
ATOM      6  C   UNL     1      -1.323   0.620  -2.985  1.00  0.00     0.191 A 
ATOM      7  C   UNL     1      -1.865   1.542  -1.041  1.00  0.00     0.117 A 
ATOM      8  C   UNL     1      -2.328   2.393  -2.024  1.00  0.00     0.047 A 
ATOM      9  O   UNL     1      -1.268   0.462  -1.622  1.00  0.00    -0.455 OA
ATOM     10  C   UNL     1      -1.993   1.799  -3.263  1.00  0.00     0.056 A 
BRANCH   7  11
ATOM     11  C   UNL     1      -1.935   1.582   0.454  1.00  0.00     0.110 C 
ATOM     12  C   UNL     1      -1.284   0.391   1.150  1.00  0.00     0.028 C 
BRANCH  11  13
ATOM     13  S   UNL     1      -1.363   3.208   1.110  1.00  0.00    -0.142 SA
BRANCH  13  14
ATOM     14  C   UNL     1       0.479   3.049   1.110  1.00  0.00     0.099 C 
ATOM     15  C   UNL     1       1.031   4.290   1.821  1.00  0.00     0.025 C 
BRANCH  14  16
ATOM     16  C   UNL     1       1.106   2.898  -0.293  1.00  0.00     0.273 C 
BRANCH  16  17
ATOM     17  N   UNL     1       0.775   3.989  -1.214  1.00  0.00    -0.357 N 
ATOM     18  H   UNL     1      -0.233   4.009  -1.369  1.00  0.00     0.344 HD
ATOM     19  H   UNL     1       1.252   3.840  -2.103  1.00  0.00     0.344 HD
ATOM     20  H   UNL     1       1.075   4.877  -0.812  1.00  0.00     0.344 HD
ENDBRANCH  16  17
ENDBRANCH  14  16
ENDBRANCH  13  14
ENDBRANCH  11  13
ENDBRANCH   7  11
ENDBRANCH   3   6
ENDBRANCH   1   2
BRANCH   1  21
ATOM     21  C   UNL     1       1.512   1.227  -6.050  1.00  0.00     0.023 C 
BRANCH  21  22
ATOM     22  C   UNL     1       1.982   0.397  -7.245  1.00  0.00     0.023 C 
BRANCH  22  23
ATOM     23  C   UNL     1       1.256   0.659  -8.563  1.00  0.00     0.116 C 
BRANCH  23  24
ATOM     24  N   UNL     1       1.261   2.058  -8.969  1.00  0.00    -0.352 N 
ATOM     25  C   UNL     1       1.476   2.597 -10.217  1.00  0.00     0.251 C 
ATOM     26  H   UNL     1       1.085   2.708  -8.251  1.00  0.00     0.163 HD
ATOM     27  O   UNL     1       1.516   3.813 -10.373  1.00  0.00    -0.269 OA
BRANCH  25  28
ATOM     28  C   UNL     1       1.708   1.695 -11.362  1.00  0.00     0.039 A 
ATOM     29  C   UNL     1       2.859   1.869 -12.134  1.00  0.00     0.014 A 
ATOM     30  C   UNL     1       0.830   0.640 -11.623  1.00  0.00     0.014 A 
ATOM     31  C   UNL     1       3.189   0.918 -13.101  1.00  0.00     0.010 A 
ATOM     32  C   UNL     1       1.191  -0.338 -12.544  1.00  0.00     0.010 A 
ATOM     33  C   UNL     1       2.388  -0.223 -13.270  1.00  0.00    -0.014 A 
BRANCH  33  34
ATOM     34  C   UNL     1       2.809  -1.343 -14.146  1.00  0.00     0.031 A 
ATOM     35  C   UNL     1       1.998  -1.706 -15.355  1.00  0.00     0.074 A 
ATOM     36  C   UNL     1       3.865  -2.099 -13.788  1.00  0.00     0.049 A 
ATOM     37  N   UNL     1       2.126  -2.731 -16.158  1.00  0.00    -0.248 NA
ATOM     38  C   UNL     1       0.878  -0.812 -15.690  1.00  0.00     0.031 C 
ATOM     39  C   UNL     1       4.709  -1.875 -12.612  1.00  0.00     0.029 A 
ATOM     40  N   UNL     1       4.396  -3.227 -14.364  1.00  0.00    -0.354 N 
ATOM     41  C   UNL     1       1.098  -2.614 -17.084  1.00  0.00     0.074 A 
ATOM     42  C   UNL     1       0.330  -1.442 -16.719  1.00  0.00     0.031 C 
ATOM     43  C   UNL     1       5.654  -2.827 -12.559  1.00  0.00     0.029 A 
ATOM     44  C   UNL     1       5.458  -3.753 -13.669  1.00  0.00     0.049 A 
ATOM     45  H   UNL     1       4.049  -3.620 -15.197  1.00  0.00     0.167 HD
ATOM     46  C   UNL     1       0.831  -3.404 -18.151  1.00  0.00     0.037 A 
ATOM     47  C   UNL     1       6.178  -4.869 -13.887  1.00  0.00     0.037 A 
ATOM     48  C   UNL     1       1.609  -4.555 -18.523  1.00  0.00     0.049 A 
ATOM     49  C   UNL     1       5.839  -5.746 -15.059  1.00  0.00     0.074 A 
ATOM     50  C   UNL     1       1.463  -5.373 -19.630  1.00  0.00     0.029 A 
ATOM     51  N   UNL     1       2.677  -5.056 -17.794  1.00  0.00    -0.354 N 
ATOM     52  N   UNL     1       4.905  -5.588 -15.965  1.00  0.00    -0.248 NA
ATOM     53  C   UNL     1       6.648  -6.961 -15.235  1.00  0.00     0.031 C 
ATOM     54  C   UNL     1       2.415  -6.394 -19.548  1.00  0.00     0.029 A 
ATOM     55  C   UNL     1       3.179  -6.191 -18.410  1.00  0.00     0.049 A 
ATOM     56  H   UNL     1       3.026  -4.664 -16.962  1.00  0.00     0.167 HD
ATOM     57  C   UNL     1       5.022  -6.672 -16.825  1.00  0.00     0.074 A 
ATOM     58  C   UNL     1       6.130  -7.471 -16.343  1.00  0.00     0.031 C 
ATOM     59  C   UNL     1       4.277  -6.979 -17.914  1.00  0.00     0.037 A 
BRANCH  46  60
ATOM     60  C   UNL     1      -0.355  -3.045 -18.996  1.00  0.00     0.057 A 
ATOM     61  C   UNL     1      -0.344  -1.930 -19.843  1.00  0.00     0.134 A 
ATOM     62  C   UNL     1      -1.504  -3.845 -18.993  1.00  0.00     0.134 A 
ATOM     63  F   UNL     1       0.723  -1.117 -19.883  1.00  0.00    -0.206 F 
ATOM     64  C   UNL     1      -1.442  -1.610 -20.642  1.00  0.00     0.040 A 
ATOM     65  C   UNL     1      -2.600  -3.549 -19.806  1.00  0.00     0.040 A 
ATOM     66  F   UNL     1      -1.577  -4.931 -18.208  1.00  0.00    -0.206 F 
ATOM     67  C   UNL     1      -2.572  -2.426 -20.630  1.00  0.00     0.006 A 
ENDBRANCH  46  60
BRANCH  47  68
ATOM     68  C   UNL     1       7.291  -5.228 -12.973  1.00  0.00     0.057 A 
ATOM     69  C   UNL     1       8.623  -5.137 -13.391  1.00  0.00     0.134 A 
ATOM     70  C   UNL     1       7.052  -5.676 -11.668  1.00  0.00     0.134 A 
ATOM     71  F   UNL     1       8.912  -4.733 -14.636  1.00  0.00    -0.206 F 
ATOM     72  C   UNL     1       9.678  -5.493 -12.550  1.00  0.00     0.040 A 
ATOM     73  C   UNL     1       8.099  -6.015 -10.809  1.00  0.00     0.040 A 
ATOM     74  F   UNL     1       5.797  -5.781 -11.207  1.00  0.00    -0.206 F 
ATOM     75  C   UNL     1       9.417  -5.930 -11.253  1.00  0.00     0.006 A 
ENDBRANCH  47  68
BRANCH  59  76
ATOM     76  C   UNL     1       4.639  -8.227 -18.661  1.00  0.00     0.057 A 
ATOM     77  C   UNL     1       4.330  -9.497 -18.159  1.00  0.00     0.134 A 
ATOM     78  C   UNL     1       5.261  -8.158 -19.913  1.00  0.00     0.134 A 
ATOM     79  F   UNL     1       3.747  -9.629 -16.957  1.00  0.00    -0.206 F 
ATOM     80  C   UNL     1       4.639 -10.656 -18.871  1.00  0.00     0.040 A 
ATOM     81  C   UNL     1       5.556  -9.309 -20.645  1.00  0.00     0.040 A 
ATOM     82  F   UNL     1       5.579  -6.970 -20.452  1.00  0.00    -0.206 F 
ATOM     83  C   UNL     1       5.247 -10.563 -20.122  1.00  0.00     0.006 A 
ENDBRANCH  59  76
ENDBRANCH  33  34
ENDBRANCH  25  28
ENDBRANCH  23  24
ENDBRANCH  22  23
ENDBRANCH  21  22
ENDBRANCH   1  21
TORSDOF 16
