REMARK SMILES CC[C@@H](C)[C@H](NC(=O)N1CCn2c1nc1ccccc12)C(=O)N[C@H](C)C(=O)NCCCCNC(=O)c1ccc(-c2c3nc(c(-c4c(F)cccc4F)c4ccc([nH]4)c(-c4c(F)cccc4F)c4nc(c(-c5c(F)cccc5F)c5ccc2[nH]5)C=C4)C=C3)cc1
REMARK SMILES IDX 29 1 28 2 26 3 27 4 24 6 25 7 23 8 21 9 22 10 5 12 3 13 4 14
REMARK SMILES IDX 2 15 1 16 6 17 7 18 8 20 9 21 10 22 13 23 11 24 12 25 14 26
REMARK SMILES IDX 20 27 15 28 19 29 16 30 18 31 17 32 30 33 31 34 32 35 33 36
REMARK SMILES IDX 34 37 35 39 36 40 37 41 89 42 38 43 88 44 39 45 40 46 41 47
REMARK SMILES IDX 82 48 42 49 87 50 81 51 83 52 43 53 86 54 80 55 79 56 44 58
REMARK SMILES IDX 70 59 53 60 69 61 54 62 57 63 68 64 84 65 55 66 56 67 67 69
REMARK SMILES IDX 85 70 58 71 45 72 46 73 51 74 47 75 48 76 50 77 52 78 49 79
REMARK SMILES IDX 71 80 72 81 77 82 73 83 74 84 76 85 78 86 75 87 59 88 60 89
REMARK SMILES IDX 65 90 61 91 62 92 64 93 66 94 63 95
REMARK H PARENT 28 5 23 11 6 19 33 38 83 57 57 68
REMARK Flexibility Score: inf
ROOT
ATOM      1  C   UNL     1       5.372   2.937   6.637  1.00  0.00     0.116 C 
ENDROOT
BRANCH   1   2
ATOM      2  N   UNL     1       4.815   1.626   6.920  1.00  0.00    -0.354 N 
ATOM      3  C   UNL     1       4.044   0.808   6.132  1.00  0.00     0.242 C 
ATOM      4  O   UNL     1       3.673  -0.262   6.626  1.00  0.00    -0.273 OA
ATOM      5  H   UNL     1       5.021   1.269   7.814  1.00  0.00     0.163 HD
BRANCH   3   6
ATOM      6  C   UNL     1       3.578   1.209   4.696  1.00  0.00     0.168 C 
ATOM      7  C   UNL     1       2.064   1.214   4.642  1.00  0.00     0.041 C 
BRANCH   6   8
ATOM      8  N   UNL     1       4.366   2.327   4.200  1.00  0.00    -0.343 N 
ATOM      9  C   UNL     1       4.345   3.558   3.665  1.00  0.00     0.243 C 
ATOM     10  O   UNL     1       5.424   4.173   3.755  1.00  0.00    -0.273 OA
ATOM     11  H   UNL     1       5.313   2.076   4.300  1.00  0.00     0.164 HD
BRANCH   9  12
ATOM     12  C   UNL     1       3.150   4.290   3.106  1.00  0.00     0.176 C 
BRANCH  12  13
ATOM     13  C   UNL     1       2.446   5.227   4.178  1.00  0.00     0.018 C 
ATOM     14  C   UNL     1       3.401   6.215   4.872  1.00  0.00     0.010 C 
BRANCH  13  15
ATOM     15  C   UNL     1       1.450   4.564   5.167  1.00  0.00     0.002 C 
ATOM     16  C   UNL     1       1.917   4.248   6.582  1.00  0.00     0.004 C 
ENDBRANCH  13  15
ENDBRANCH  12  13
BRANCH  12  17
ATOM     17  N   UNL     1       2.189   3.496   2.342  1.00  0.00    -0.326 N 
ATOM     18  C   UNL     1       2.222   2.740   1.229  1.00  0.00     0.324 C 
ATOM     19  H   UNL     1       1.291   3.520   2.743  1.00  0.00     0.166 HD
ATOM     20  O   UNL     1       1.166   2.802   0.576  1.00  0.00    -0.248 OA
BRANCH  18  21
ATOM     21  N   UNL     1       3.129   1.775   0.920  1.00  0.00    -0.262 N 
ATOM     22  C   UNL     1       2.647   0.621   0.122  1.00  0.00     0.152 C 
ATOM     23  C   UNL     1       4.436   1.519   1.261  1.00  0.00     0.214 A 
ATOM     24  C   UNL     1       3.622  -0.521   0.423  1.00  0.00     0.148 C 
ATOM     25  N   UNL     1       4.734   0.204   0.997  1.00  0.00    -0.308 N 
ATOM     26  N   UNL     1       5.481   2.106   1.778  1.00  0.00    -0.212 NA
ATOM     27  C   UNL     1       5.844  -0.166   1.679  1.00  0.00     0.070 A 
ATOM     28  C   UNL     1       6.331   1.060   2.137  1.00  0.00     0.091 A 
ATOM     29  C   UNL     1       6.432  -1.394   1.991  1.00  0.00     0.028 A 
ATOM     30  C   UNL     1       7.469   1.071   2.963  1.00  0.00     0.031 A 
ATOM     31  C   UNL     1       7.541  -1.361   2.846  1.00  0.00     0.002 A 
ATOM     32  C   UNL     1       8.050  -0.152   3.330  1.00  0.00     0.002 A 
ENDBRANCH  18  21
ENDBRANCH  12  17
ENDBRANCH   9  12
ENDBRANCH   6   8
ENDBRANCH   3   6
ENDBRANCH   1   2
BRANCH   1  33
ATOM     33  C   UNL     1       5.548   3.833   7.842  1.00  0.00     0.023 C 
BRANCH  33  34
ATOM     34  C   UNL     1       6.971   3.797   8.354  1.00  0.00     0.023 C 
BRANCH  34  35
ATOM     35  C   UNL     1       7.989   4.493   7.431  1.00  0.00     0.116 C 
BRANCH  35  36
ATOM     36  N   UNL     1       8.109   5.940   7.566  1.00  0.00    -0.352 N 
ATOM     37  C   UNL     1       8.469   6.701   8.659  1.00  0.00     0.251 C 
ATOM     38  H   UNL     1       7.901   6.453   6.752  1.00  0.00     0.163 HD
ATOM     39  O   UNL     1       8.622   7.907   8.572  1.00  0.00    -0.269 OA
BRANCH  37  40
ATOM     40  C   UNL     1       8.560   6.030   9.968  1.00  0.00     0.039 A 
ATOM     41  C   UNL     1       9.379   4.910  10.137  1.00  0.00     0.014 A 
ATOM     42  C   UNL     1       7.647   6.417  10.955  1.00  0.00     0.014 A 
ATOM     43  C   UNL     1       9.175   4.084  11.232  1.00  0.00     0.010 A 
ATOM     44  C   UNL     1       7.481   5.614  12.079  1.00  0.00     0.010 A 
ATOM     45  C   UNL     1       8.215   4.425  12.194  1.00  0.00    -0.014 A 
BRANCH  45  46
ATOM     46  C   UNL     1       8.177   3.596  13.403  1.00  0.00     0.031 A 
ATOM     47  C   UNL     1       8.868   4.259  14.541  1.00  0.00     0.074 A 
ATOM     48  C   UNL     1       7.231   2.678  13.684  1.00  0.00     0.049 A 
ATOM     49  N   UNL     1       8.266   5.149  15.272  1.00  0.00    -0.248 NA
ATOM     50  C   UNL     1      10.318   4.222  14.709  1.00  0.00     0.031 C 
ATOM     51  C   UNL     1       5.863   2.689  13.159  1.00  0.00     0.029 A 
ATOM     52  N   UNL     1       7.219   1.704  14.655  1.00  0.00    -0.354 N 
ATOM     53  C   UNL     1       9.251   5.870  15.912  1.00  0.00     0.074 A 
ATOM     54  C   UNL     1      10.506   5.237  15.568  1.00  0.00     0.031 C 
ATOM     55  C   UNL     1       5.096   1.917  13.958  1.00  0.00     0.029 A 
ATOM     56  C   UNL     1       5.943   1.225  14.927  1.00  0.00     0.049 A 
ATOM     57  H   UNL     1       8.030   1.381  15.111  1.00  0.00     0.167 HD
ATOM     58  C   UNL     1       8.982   6.983  16.640  1.00  0.00     0.037 A 
ATOM     59  C   UNL     1       5.524   0.784  16.144  1.00  0.00     0.037 A 
ATOM     60  C   UNL     1       7.606   7.371  16.712  1.00  0.00     0.049 A 
ATOM     61  C   UNL     1       5.555   2.048  16.960  1.00  0.00     0.074 A 
ATOM     62  C   UNL     1       6.777   8.255  16.055  1.00  0.00     0.029 A 
ATOM     63  N   UNL     1       6.790   6.706  17.594  1.00  0.00    -0.354 N 
ATOM     64  N   UNL     1       4.625   2.965  16.983  1.00  0.00    -0.248 NA
ATOM     65  C   UNL     1       6.834   2.466  17.540  1.00  0.00     0.031 C 
ATOM     66  C   UNL     1       5.450   7.766  16.267  1.00  0.00     0.029 A 
ATOM     67  C   UNL     1       5.564   6.580  16.989  1.00  0.00     0.049 A 
ATOM     68  H   UNL     1       7.036   6.382  18.491  1.00  0.00     0.167 HD
ATOM     69  C   UNL     1       5.282   4.149  17.325  1.00  0.00     0.074 A 
ATOM     70  C   UNL     1       6.625   3.765  17.701  1.00  0.00     0.031 C 
ATOM     71  C   UNL     1       4.758   5.387  17.095  1.00  0.00     0.037 A 
BRANCH  58  72
ATOM     72  C   UNL     1       9.986   7.738  17.401  1.00  0.00     0.057 A 
ATOM     73  C   UNL     1      10.778   8.732  16.828  1.00  0.00     0.134 A 
ATOM     74  C   UNL     1      10.001   7.598  18.793  1.00  0.00     0.134 A 
ATOM     75  F   UNL     1      10.793   8.912  15.499  1.00  0.00    -0.206 F 
ATOM     76  C   UNL     1      11.534   9.592  17.627  1.00  0.00     0.040 A 
ATOM     77  C   UNL     1      10.745   8.452  19.601  1.00  0.00     0.040 A 
ATOM     78  F   UNL     1       9.249   6.654  19.384  1.00  0.00    -0.206 F 
ATOM     79  C   UNL     1      11.504   9.463  19.017  1.00  0.00     0.006 A 
ENDBRANCH  58  72
BRANCH  59  80
ATOM     80  C   UNL     1       6.130  -0.508  16.599  1.00  0.00     0.057 A 
ATOM     81  C   UNL     1       6.716  -0.748  17.848  1.00  0.00     0.134 A 
ATOM     82  C   UNL     1       6.101  -1.610  15.720  1.00  0.00     0.134 A 
ATOM     83  F   UNL     1       6.695   0.174  18.819  1.00  0.00    -0.206 F 
ATOM     84  C   UNL     1       7.356  -1.955  18.153  1.00  0.00     0.040 A 
ATOM     85  C   UNL     1       6.715  -2.830  16.020  1.00  0.00     0.040 A 
ATOM     86  F   UNL     1       5.464  -1.524  14.542  1.00  0.00    -0.206 F 
ATOM     87  C   UNL     1       7.372  -2.996  17.232  1.00  0.00     0.006 A 
ENDBRANCH  59  80
BRANCH  71  88
ATOM     88  C   UNL     1       3.332   5.401  16.666  1.00  0.00     0.057 A 
ATOM     89  C   UNL     1       2.951   5.704  15.353  1.00  0.00     0.134 A 
ATOM     90  C   UNL     1       2.318   5.109  17.585  1.00  0.00     0.134 A 
ATOM     91  F   UNL     1       3.869   5.970  14.410  1.00  0.00    -0.206 F 
ATOM     92  C   UNL     1       1.608   5.753  14.978  1.00  0.00     0.040 A 
ATOM     93  C   UNL     1       0.973   5.130  17.215  1.00  0.00     0.040 A 
ATOM     94  F   UNL     1       2.619   4.815  18.860  1.00  0.00    -0.206 F 
ATOM     95  C   UNL     1       0.614   5.464  15.911  1.00  0.00     0.006 A 
ENDBRANCH  71  88
ENDBRANCH  45  46
ENDBRANCH  37  40
ENDBRANCH  35  36
ENDBRANCH  34  35
ENDBRANCH  33  34
ENDBRANCH   1  33
TORSDOF 17
