REMARK SMILES Cn1cc(S(=O)(=O)N2CCCc3cc(C(=O)NCCCCNC(=O)c4ccc(-c5c6nc(c(-c7c(F)cccc7F)c7ccc([nH]7)c(-c7c(F)cccc7F)c7nc(c(-c8c(F)cccc8F)c8ccc5[nH]8)C=C7)C=C6)cc4)ccc32)cc1C(N)=O
REMARK SMILES IDX 19 1 18 2 17 3 15 4 16 5 14 7 8 8 9 9 81 10 10 11 12 12
REMARK SMILES IDX 80 13 11 14 13 15 79 16 5 17 6 18 7 19 4 20 1 21 2 22 3 23
REMARK SMILES IDX 83 24 82 25 84 26 85 27 86 28 20 31 21 32 22 33 23 34 24 36
REMARK SMILES IDX 25 37 26 38 78 39 27 40 77 41 28 42 29 43 30 44 71 45 31 46
REMARK SMILES IDX 76 47 70 48 72 49 32 50 75 51 69 52 68 53 33 55 59 56 42 57
REMARK SMILES IDX 58 58 43 59 46 60 57 61 73 62 44 63 45 64 56 66 74 67 47 68
REMARK SMILES IDX 34 69 35 70 40 71 36 72 37 73 39 74 41 75 38 76 60 77 61 78
REMARK SMILES IDX 66 79 62 80 63 81 65 82 67 83 64 84 48 85 49 86 54 87 50 88
REMARK SMILES IDX 51 89 53 90 55 91 52 92
REMARK H PARENT 17 6 85 29 85 30 22 35 72 54 46 65
REMARK Flexibility Score: inf
ROOT
ATOM      1  C   UNL     1      -6.014   1.130  -6.742  1.00  0.00     0.023 C 
ENDROOT
BRANCH   1   2
ATOM      2  C   UNL     1      -6.827   2.035  -5.814  1.00  0.00     0.116 C 
BRANCH   2   3
ATOM      3  N   UNL     1      -7.937   1.306  -5.237  1.00  0.00    -0.352 N 
ATOM      4  C   UNL     1      -8.077   0.641  -4.045  1.00  0.00     0.251 C 
ATOM      5  O   UNL     1      -9.168   0.117  -3.816  1.00  0.00    -0.269 OA
ATOM      6  H   UNL     1      -8.740   1.282  -5.806  1.00  0.00     0.163 HD
BRANCH   4   7
ATOM      7  C   UNL     1      -7.006   0.562  -3.009  1.00  0.00     0.040 A 
ATOM      8  N   UNL     1      -4.194   0.424   0.191  1.00  0.00    -0.266 N 
ATOM      9  C   UNL     1      -4.586  -0.292   1.418  1.00  0.00     0.136 C 
ATOM     10  C   UNL     1      -5.127   0.456  -0.896  1.00  0.00     0.055 A 
ATOM     11  C   UNL     1      -5.965   0.180   1.846  1.00  0.00     0.028 C 
ATOM     12  C   UNL     1      -6.492   0.271  -0.630  1.00  0.00    -0.023 A 
ATOM     13  C   UNL     1      -4.707   0.589  -2.218  1.00  0.00     0.028 A 
ATOM     14  C   UNL     1      -6.984  -0.101   0.746  1.00  0.00     0.039 C 
ATOM     15  C   UNL     1      -7.419   0.344  -1.685  1.00  0.00     0.019 A 
ATOM     16  C   UNL     1      -5.636   0.626  -3.263  1.00  0.00     0.016 A 
BRANCH   8  17
ATOM     17  S   UNL     1      -2.897   1.516   0.277  1.00  0.00     0.265 S 
ATOM     18  O   UNL     1      -2.810   2.040   1.627  1.00  0.00    -0.201 OA
ATOM     19  O   UNL     1      -2.839   2.378  -0.879  1.00  0.00    -0.201 OA
BRANCH  17  20
ATOM     20  C   UNL     1      -1.452   0.566   0.135  1.00  0.00     0.106 A 
ATOM     21  C   UNL     1       2.124   0.114  -0.013  1.00  0.00     0.150 C 
ATOM     22  N   UNL     1       0.685  -0.045   0.022  1.00  0.00    -0.345 N 
ATOM     23  C   UNL     1      -0.160   1.037   0.120  1.00  0.00     0.108 A 
ATOM     24  C   UNL     1      -0.046  -1.225  -0.031  1.00  0.00     0.107 A 
ATOM     25  C   UNL     1      -1.385  -0.841   0.014  1.00  0.00     0.056 A 
BRANCH  24  26
ATOM     26  C   UNL     1       0.506  -2.566  -0.115  1.00  0.00     0.265 C 
ATOM     27  N   UNL     1      -0.398  -3.589  -0.083  1.00  0.00    -0.364 N 
ATOM     28  O   UNL     1       1.698  -2.841  -0.204  1.00  0.00    -0.268 OA
ATOM     29  H   UNL     1      -1.360  -3.393  -0.013  1.00  0.00     0.160 HD
ATOM     30  H   UNL     1      -0.087  -4.522  -0.131  1.00  0.00     0.160 HD
ENDBRANCH  24  26
ENDBRANCH  17  20
ENDBRANCH   8  17
ENDBRANCH   4   7
ENDBRANCH   2   3
ENDBRANCH   1   2
BRANCH   1  31
ATOM     31  C   UNL     1      -6.643   0.911  -8.120  1.00  0.00     0.023 C 
BRANCH  31  32
ATOM     32  C   UNL     1      -6.777   2.170  -8.969  1.00  0.00     0.116 C 
BRANCH  32  33
ATOM     33  N   UNL     1      -5.510   2.849  -9.197  1.00  0.00    -0.352 N 
ATOM     34  C   UNL     1      -5.126   3.589 -10.288  1.00  0.00     0.251 C 
ATOM     35  H   UNL     1      -4.844   2.769  -8.476  1.00  0.00     0.163 HD
ATOM     36  O   UNL     1      -3.982   4.019 -10.381  1.00  0.00    -0.269 OA
BRANCH  34  37
ATOM     37  C   UNL     1      -6.098   3.820 -11.375  1.00  0.00     0.039 A 
ATOM     38  C   UNL     1      -5.720   3.528 -12.687  1.00  0.00     0.014 A 
ATOM     39  C   UNL     1      -7.388   4.275 -11.091  1.00  0.00     0.014 A 
ATOM     40  C   UNL     1      -6.662   3.627 -13.711  1.00  0.00     0.010 A 
ATOM     41  C   UNL     1      -8.343   4.306 -12.101  1.00  0.00     0.010 A 
ATOM     42  C   UNL     1      -7.989   3.980 -13.419  1.00  0.00    -0.014 A 
BRANCH  42  43
ATOM     43  C   UNL     1      -9.026   4.008 -14.478  1.00  0.00     0.031 A 
ATOM     44  C   UNL     1      -9.687   5.305 -14.851  1.00  0.00     0.074 A 
ATOM     45  C   UNL     1      -9.422   2.856 -15.052  1.00  0.00     0.049 A 
ATOM     46  N   UNL     1     -10.659   5.523 -15.698  1.00  0.00    -0.248 NA
ATOM     47  C   UNL     1      -9.210   6.513 -14.158  1.00  0.00     0.031 C 
ATOM     48  C   UNL     1      -8.893   1.527 -14.736  1.00  0.00     0.029 A 
ATOM     49  N   UNL     1     -10.370   2.616 -16.014  1.00  0.00    -0.354 N 
ATOM     50  C   UNL     1     -10.920   6.885 -15.629  1.00  0.00     0.074 A 
ATOM     51  C   UNL     1     -10.041   7.435 -14.620  1.00  0.00     0.031 C 
ATOM     52  C   UNL     1      -9.508   0.615 -15.507  1.00  0.00     0.029 A 
ATOM     53  C   UNL     1     -10.496   1.289 -16.344  1.00  0.00     0.049 A 
ATOM     54  H   UNL     1     -10.909   3.328 -16.429  1.00  0.00     0.167 HD
ATOM     55  C   UNL     1     -11.797   7.616 -16.357  1.00  0.00     0.037 A 
ATOM     56  C   UNL     1     -11.319   0.684 -17.221  1.00  0.00     0.037 A 
ATOM     57  C   UNL     1     -12.650   7.071 -17.380  1.00  0.00     0.049 A 
ATOM     58  C   UNL     1     -12.281   1.518 -18.020  1.00  0.00     0.074 A 
ATOM     59  C   UNL     1     -13.526   7.737 -18.218  1.00  0.00     0.029 A 
ATOM     60  N   UNL     1     -12.733   5.724 -17.702  1.00  0.00    -0.354 N 
ATOM     61  N   UNL     1     -12.468   2.815 -17.995  1.00  0.00    -0.248 NA
ATOM     62  C   UNL     1     -13.143   0.805 -18.973  1.00  0.00     0.031 C 
ATOM     63  C   UNL     1     -14.168   6.789 -19.022  1.00  0.00     0.029 A 
ATOM     64  C   UNL     1     -13.660   5.537 -18.713  1.00  0.00     0.049 A 
ATOM     65  H   UNL     1     -12.210   5.008 -17.274  1.00  0.00     0.167 HD
ATOM     66  C   UNL     1     -13.445   3.077 -18.946  1.00  0.00     0.074 A 
ATOM     67  C   UNL     1     -13.804   1.805 -19.539  1.00  0.00     0.031 C 
ATOM     68  C   UNL     1     -13.997   4.264 -19.297  1.00  0.00     0.037 A 
BRANCH  55  69
ATOM     69  C   UNL     1     -11.870   9.088 -16.075  1.00  0.00     0.057 A 
ATOM     70  C   UNL     1     -10.831   9.959 -16.429  1.00  0.00     0.134 A 
ATOM     71  C   UNL     1     -13.002   9.646 -15.468  1.00  0.00     0.134 A 
ATOM     72  F   UNL     1      -9.713   9.487 -17.001  1.00  0.00    -0.206 F 
ATOM     73  C   UNL     1     -10.902  11.327 -16.163  1.00  0.00     0.040 A 
ATOM     74  C   UNL     1     -13.097  11.016 -15.222  1.00  0.00     0.040 A 
ATOM     75  F   UNL     1     -14.035   8.869 -15.109  1.00  0.00    -0.206 F 
ATOM     76  C   UNL     1     -12.041  11.860 -15.563  1.00  0.00     0.006 A 
ENDBRANCH  55  69
BRANCH  56  77
ATOM     77  C   UNL     1     -11.251  -0.786 -17.412  1.00  0.00     0.057 A 
ATOM     78  C   UNL     1     -10.735  -1.335 -18.592  1.00  0.00     0.134 A 
ATOM     79  C   UNL     1     -11.704  -1.675 -16.431  1.00  0.00     0.134 A 
ATOM     80  F   UNL     1     -10.302  -0.533 -19.576  1.00  0.00    -0.206 F 
ATOM     81  C   UNL     1     -10.689  -2.715 -18.798  1.00  0.00     0.040 A 
ATOM     82  C   UNL     1     -11.643  -3.058 -16.613  1.00  0.00     0.040 A 
ATOM     83  F   UNL     1     -12.203  -1.212 -15.275  1.00  0.00    -0.206 F 
ATOM     84  C   UNL     1     -11.141  -3.581 -17.804  1.00  0.00     0.006 A 
ENDBRANCH  56  77
BRANCH  68  85
ATOM     85  C   UNL     1     -15.019   4.247 -20.395  1.00  0.00     0.057 A 
ATOM     86  C   UNL     1     -16.312   3.748 -20.193  1.00  0.00     0.134 A 
ATOM     87  C   UNL     1     -14.716   4.773 -21.657  1.00  0.00     0.134 A 
ATOM     88  F   UNL     1     -16.659   3.217 -19.011  1.00  0.00    -0.206 F 
ATOM     89  C   UNL     1     -17.262   3.754 -21.215  1.00  0.00     0.040 A 
ATOM     90  C   UNL     1     -15.666   4.808 -22.679  1.00  0.00     0.040 A 
ATOM     91  F   UNL     1     -13.498   5.274 -21.913  1.00  0.00    -0.206 F 
ATOM     92  C   UNL     1     -16.942   4.293 -22.460  1.00  0.00     0.006 A 
ENDBRANCH  68  85
ENDBRANCH  42  43
ENDBRANCH  34  37
ENDBRANCH  32  33
ENDBRANCH  31  32
ENDBRANCH   1  31
TORSDOF 14
