REMARK SMILES Cc1n[nH]c(C(=O)Nc2cc(C(=O)NCCCCNC(=O)c3ccc(-c4c5nc(c(-c6c(F)cccc6F)c6ccc([nH]6)c(-c6c(F)cccc6F)c6nc(c(-c7c(F)cccc7F)c7ccc4[nH]7)C=C6)C=C5)cc3)[nH]n2)n1
REMARK SMILES IDX 16 1 15 2 14 3 12 4 13 5 11 7 9 8 10 9 77 10 76 11 8 13 6 14
REMARK SMILES IDX 7 15 5 17 1 18 2 19 3 20 78 21 4 22 17 24 18 25 19 26 20 27
REMARK SMILES IDX 21 29 22 30 23 31 75 32 24 33 74 34 25 35 26 36 27 37 68 38
REMARK SMILES IDX 28 39 73 40 67 41 69 42 29 43 72 44 66 45 65 46 30 48 56 49
REMARK SMILES IDX 39 50 55 51 40 52 43 53 54 54 70 55 41 56 42 57 53 59 71 60
REMARK SMILES IDX 44 61 31 62 32 63 37 64 33 65 34 66 36 67 38 68 35 69 57 70
REMARK SMILES IDX 58 71 63 72 59 73 60 74 62 75 64 76 61 77 45 78 46 79 51 80
REMARK SMILES IDX 47 81 48 82 50 83 52 84 49 85
REMARK H PARENT 14 6 76 12 8 16 4 23 19 28 69 47 43 58
REMARK Flexibility Score: inf
ROOT
ATOM      1  C   UNL     1      -4.763   3.202  -0.809  1.00  0.00     0.023 C 
ENDROOT
BRANCH   1   2
ATOM      2  C   UNL     1      -3.820   2.479  -1.775  1.00  0.00     0.116 C 
BRANCH   2   3
ATOM      3  N   UNL     1      -4.133   2.776  -3.162  1.00  0.00    -0.351 N 
ATOM      4  C   UNL     1      -3.610   3.687  -4.048  1.00  0.00     0.269 C 
ATOM      5  O   UNL     1      -4.024   3.665  -5.197  1.00  0.00    -0.268 OA
ATOM      6  H   UNL     1      -4.855   2.221  -3.538  1.00  0.00     0.163 HD
BRANCH   4   7
ATOM      7  C   UNL     1      -2.546   4.575  -3.655  1.00  0.00     0.125 A 
ATOM      8  C   UNL     1      -0.773   5.584  -2.796  1.00  0.00     0.155 A 
ATOM      9  C   UNL     1      -1.994   4.970  -2.456  1.00  0.00     0.082 A 
ATOM     10  N   UNL     1      -0.714   5.857  -4.095  1.00  0.00    -0.157 NA
ATOM     11  N   UNL     1      -1.808   5.253  -4.598  1.00  0.00    -0.271 N 
ATOM     12  H   UNL     1      -2.056   5.292  -5.550  1.00  0.00     0.190 HD
BRANCH   8  13
ATOM     13  N   UNL     1       0.290   5.822  -1.970  1.00  0.00    -0.302 N 
ATOM     14  C   UNL     1       0.733   5.019  -0.933  1.00  0.00     0.294 C 
ATOM     15  O   UNL     1       1.425   5.552  -0.063  1.00  0.00    -0.265 OA
ATOM     16  H   UNL     1       0.794   6.652  -2.130  1.00  0.00     0.172 HD
BRANCH  14  17
ATOM     17  C   UNL     1       0.498   3.575  -0.988  1.00  0.00     0.214 A 
ATOM     18  C   UNL     1       0.866   0.230   0.138  1.00  0.00     0.092 C 
ATOM     19  C   UNL     1       0.540   1.491  -0.559  1.00  0.00     0.148 A 
ATOM     20  N   UNL     1       0.082   1.521  -1.814  1.00  0.00    -0.159 NA
ATOM     21  N   UNL     1       0.761   2.726  -0.005  1.00  0.00    -0.207 NA
ATOM     22  N   UNL     1       0.138   2.834  -2.082  1.00  0.00    -0.255 N 
ATOM     23  H   UNL     1      -0.057   3.221  -2.966  1.00  0.00     0.192 HD
ENDBRANCH  14  17
ENDBRANCH   8  13
ENDBRANCH   4   7
ENDBRANCH   2   3
ENDBRANCH   1   2
BRANCH   1  24
ATOM     24  C   UNL     1      -6.173   2.600  -0.716  1.00  0.00     0.023 C 
BRANCH  24  25
ATOM     25  C   UNL     1      -6.229   1.190  -0.135  1.00  0.00     0.116 C 
BRANCH  25  26
ATOM     26  N   UNL     1      -5.753   1.114   1.248  1.00  0.00    -0.352 N 
ATOM     27  C   UNL     1      -5.503  -0.023   1.995  1.00  0.00     0.251 C 
ATOM     28  H   UNL     1      -5.593   1.974   1.699  1.00  0.00     0.163 HD
ATOM     29  O   UNL     1      -5.517   0.001   3.219  1.00  0.00    -0.269 OA
BRANCH  27  30
ATOM     30  C   UNL     1      -5.194  -1.272   1.280  1.00  0.00     0.039 A 
ATOM     31  C   UNL     1      -5.738  -2.502   1.660  1.00  0.00     0.014 A 
ATOM     32  C   UNL     1      -4.369  -1.166   0.166  1.00  0.00     0.014 A 
ATOM     33  C   UNL     1      -5.509  -3.611   0.849  1.00  0.00     0.010 A 
ATOM     34  C   UNL     1      -4.295  -2.206  -0.719  1.00  0.00     0.010 A 
ATOM     35  C   UNL     1      -4.803  -3.447  -0.354  1.00  0.00    -0.014 A 
BRANCH  35  36
ATOM     36  C   UNL     1      -4.679  -4.531  -1.319  1.00  0.00     0.031 A 
ATOM     37  C   UNL     1      -5.971  -5.125  -1.754  1.00  0.00     0.074 A 
ATOM     38  C   UNL     1      -3.516  -4.811  -1.948  1.00  0.00     0.049 A 
ATOM     39  N   UNL     1      -6.393  -6.323  -1.527  1.00  0.00    -0.248 NA
ATOM     40  C   UNL     1      -6.970  -4.256  -2.398  1.00  0.00     0.031 C 
ATOM     41  C   UNL     1      -2.227  -4.116  -1.843  1.00  0.00     0.029 A 
ATOM     42  N   UNL     1      -3.272  -5.733  -2.916  1.00  0.00    -0.354 N 
ATOM     43  C   UNL     1      -7.616  -6.432  -2.180  1.00  0.00     0.074 A 
ATOM     44  C   UNL     1      -8.003  -5.091  -2.535  1.00  0.00     0.031 C 
ATOM     45  C   UNL     1      -1.427  -4.482  -2.868  1.00  0.00     0.029 A 
ATOM     46  C   UNL     1      -2.074  -5.554  -3.600  1.00  0.00     0.049 A 
ATOM     47  H   UNL     1      -3.894  -6.470  -3.118  1.00  0.00     0.167 HD
ATOM     48  C   UNL     1      -8.084  -7.643  -2.590  1.00  0.00     0.037 A 
ATOM     49  C   UNL     1      -1.659  -6.231  -4.700  1.00  0.00     0.037 A 
ATOM     50  C   UNL     1      -7.370  -8.721  -1.948  1.00  0.00     0.049 A 
ATOM     51  C   UNL     1      -2.439  -7.493  -4.756  1.00  0.00     0.074 A 
ATOM     52  C   UNL     1      -7.155  -9.085  -0.632  1.00  0.00     0.029 A 
ATOM     53  N   UNL     1      -6.401  -9.371  -2.674  1.00  0.00    -0.354 N 
ATOM     54  N   UNL     1      -2.300  -8.460  -3.892  1.00  0.00    -0.248 NA
ATOM     55  C   UNL     1      -3.708  -7.469  -5.468  1.00  0.00     0.031 C 
ATOM     56  C   UNL     1      -5.788  -9.491  -0.585  1.00  0.00     0.029 A 
ATOM     57  C   UNL     1      -5.280  -9.442  -1.883  1.00  0.00     0.049 A 
ATOM     58  H   UNL     1      -6.492  -9.720  -3.590  1.00  0.00     0.167 HD
ATOM     59  C   UNL     1      -3.596  -8.872  -3.618  1.00  0.00     0.074 A 
ATOM     60  C   UNL     1      -4.415  -8.284  -4.679  1.00  0.00     0.031 C 
ATOM     61  C   UNL     1      -3.932  -9.390  -2.399  1.00  0.00     0.037 A 
BRANCH  48  62
ATOM     62  C   UNL     1      -8.912  -7.860  -3.831  1.00  0.00     0.057 A 
ATOM     63  C   UNL     1      -9.490  -9.121  -4.062  1.00  0.00     0.134 A 
ATOM     64  C   UNL     1      -8.925  -6.984  -4.935  1.00  0.00     0.134 A 
ATOM     65  F   UNL     1      -9.521 -10.051  -3.095  1.00  0.00    -0.206 F 
ATOM     66  C   UNL     1      -9.981  -9.503  -5.317  1.00  0.00     0.040 A 
ATOM     67  C   UNL     1      -9.460  -7.337  -6.177  1.00  0.00     0.040 A 
ATOM     68  F   UNL     1      -8.331  -5.785  -4.907  1.00  0.00    -0.206 F 
ATOM     69  C   UNL     1      -9.961  -8.611  -6.381  1.00  0.00     0.006 A 
ENDBRANCH  48  62
BRANCH  49  70
ATOM     70  C   UNL     1      -0.846  -5.744  -5.840  1.00  0.00     0.057 A 
ATOM     71  C   UNL     1      -0.280  -6.634  -6.765  1.00  0.00     0.134 A 
ATOM     72  C   UNL     1      -0.837  -4.387  -6.210  1.00  0.00     0.134 A 
ATOM     73  F   UNL     1      -0.275  -7.953  -6.525  1.00  0.00    -0.206 F 
ATOM     74  C   UNL     1       0.237  -6.204  -7.996  1.00  0.00     0.040 A 
ATOM     75  C   UNL     1      -0.319  -3.944  -7.432  1.00  0.00     0.040 A 
ATOM     76  F   UNL     1      -1.413  -3.454  -5.438  1.00  0.00    -0.206 F 
ATOM     77  C   UNL     1       0.207  -4.856  -8.338  1.00  0.00     0.006 A 
ENDBRANCH  49  70
BRANCH  61  78
ATOM     78  C   UNL     1      -2.818  -9.714  -1.437  1.00  0.00     0.057 A 
ATOM     79  C   UNL     1      -1.916  -8.771  -0.917  1.00  0.00     0.134 A 
ATOM     80  C   UNL     1      -2.740 -11.007  -0.908  1.00  0.00     0.134 A 
ATOM     81  F   UNL     1      -1.975  -7.483  -1.272  1.00  0.00    -0.206 F 
ATOM     82  C   UNL     1      -0.951  -9.111   0.036  1.00  0.00     0.040 A 
ATOM     83  C   UNL     1      -1.804 -11.352   0.070  1.00  0.00     0.040 A 
ATOM     84  F   UNL     1      -3.606 -11.952  -1.306  1.00  0.00    -0.206 F 
ATOM     85  C   UNL     1      -0.895 -10.406   0.537  1.00  0.00     0.006 A 
ENDBRANCH  61  78
ENDBRANCH  35  36
ENDBRANCH  27  30
ENDBRANCH  25  26
ENDBRANCH  24  25
ENDBRANCH   1  24
TORSDOF 13
