REMARK SMILES O=C(Cc1ccccc1)Nc1cccc(C(=O)Nc2ccccc2C(=O)NCCCCNC(=O)c2ccc(-c3c4nc(c(-c5c(F)cccc5F)c5ccc([nH]5)c(-c5c(F)cccc5F)c5nc(c(-c6c(F)cccc6F)c6ccc3[nH]6)C=C5)C=C4)cc2)c1
REMARK SMILES IDX 28 1 27 2 25 3 26 4 24 6 19 7 20 8 21 9 23 10 22 11 18 12
REMARK SMILES IDX 16 13 17 14 15 16 11 17 12 18 89 19 13 20 14 21 10 22 1 23
REMARK SMILES IDX 2 24 3 26 4 27 5 28 9 29 6 30 8 31 7 32 29 33 30 34 31 35
REMARK SMILES IDX 32 36 33 37 34 39 35 40 36 41 88 42 37 43 87 44 38 45 39 46
REMARK SMILES IDX 40 47 81 48 41 49 86 50 80 51 82 52 42 53 85 54 79 55 78 56
REMARK SMILES IDX 43 58 69 59 52 60 68 61 53 62 56 63 67 64 83 65 54 66 55 67
REMARK SMILES IDX 66 69 84 70 57 71 44 72 45 73 50 74 46 75 47 76 49 77 51 78
REMARK SMILES IDX 48 79 70 80 71 81 76 82 72 83 73 84 75 85 77 86 74 87 58 88
REMARK SMILES IDX 59 89 64 90 60 91 61 92 63 93 65 94 62 95
REMARK H PARENT 27 5 18 15 10 25 32 38 82 57 56 68
REMARK Flexibility Score: inf
ROOT
ATOM      1  C   UNL     1      -0.073   0.372   5.878  1.00  0.00     0.116 C 
ENDROOT
BRANCH   1   2
ATOM      2  N   UNL     1       1.216   0.391   5.223  1.00  0.00    -0.352 N 
ATOM      3  C   UNL     1       1.552  -0.013   3.956  1.00  0.00     0.253 C 
ATOM      4  O   UNL     1       2.738   0.056   3.625  1.00  0.00    -0.269 OA
ATOM      5  H   UNL     1       1.958   0.745   5.764  1.00  0.00     0.163 HD
BRANCH   3   6
ATOM      6  C   UNL     1       0.566  -0.631   3.023  1.00  0.00     0.063 A 
ATOM      7  C   UNL     1      -0.764  -0.229   2.770  1.00  0.00     0.054 A 
ATOM      8  C   UNL     1      -1.575  -1.070   1.983  1.00  0.00     0.027 A 
ATOM      9  C   UNL     1      -1.057  -2.199   1.344  1.00  0.00     0.002 A 
ATOM     10  C   UNL     1       1.076  -1.768   2.355  1.00  0.00     0.016 A 
ATOM     11  C   UNL     1       0.279  -2.534   1.507  1.00  0.00     0.001 A 
BRANCH   7  12
ATOM     12  N   UNL     1      -1.413   0.972   3.160  1.00  0.00    -0.321 N 
ATOM     13  C   UNL     1      -0.966   2.271   3.310  1.00  0.00     0.255 C 
ATOM     14  O   UNL     1      -1.681   3.092   3.883  1.00  0.00    -0.269 OA
ATOM     15  H   UNL     1      -2.369   0.856   3.364  1.00  0.00     0.170 HD
BRANCH  13  16
ATOM     16  C   UNL     1       0.334   2.711   2.763  1.00  0.00     0.042 A 
ATOM     17  C   UNL     1       2.168   2.268   1.273  1.00  0.00     0.041 A 
ATOM     18  C   UNL     1       2.945   3.196   1.973  1.00  0.00     0.026 A 
ATOM     19  C   UNL     1       0.829   2.126   1.601  1.00  0.00     0.040 A 
ATOM     20  C   UNL     1       2.391   3.934   3.025  1.00  0.00     0.003 A 
ATOM     21  C   UNL     1       1.088   3.670   3.442  1.00  0.00     0.014 A 
BRANCH  17  22
ATOM     22  N   UNL     1       2.802   1.410   0.358  1.00  0.00    -0.326 N 
ATOM     23  O   UNL     1       0.994   0.276  -0.605  1.00  0.00    -0.274 OA
ATOM     24  C   UNL     1       2.199   0.442  -0.436  1.00  0.00     0.228 C 
ATOM     25  H   UNL     1       3.778   1.505   0.270  1.00  0.00     0.169 HD
BRANCH  24  26
ATOM     26  C   UNL     1       3.200  -0.457  -1.135  1.00  0.00     0.135 C 
BRANCH  26  27
ATOM     27  C   UNL     1       4.087   0.239  -2.141  1.00  0.00    -0.039 A 
ATOM     28  C   UNL     1       5.169  -0.470  -2.680  1.00  0.00     0.004 A 
ATOM     29  C   UNL     1       3.869   1.559  -2.565  1.00  0.00     0.004 A 
ATOM     30  C   UNL     1       6.035   0.142  -3.586  1.00  0.00     0.000 A 
ATOM     31  C   UNL     1       4.748   2.177  -3.451  1.00  0.00     0.000 A 
ATOM     32  C   UNL     1       5.833   1.470  -3.959  1.00  0.00     0.000 A 
ENDBRANCH  26  27
ENDBRANCH  24  26
ENDBRANCH  17  22
ENDBRANCH  13  16
ENDBRANCH   7  12
ENDBRANCH   3   6
ENDBRANCH   1   2
BRANCH   1  33
ATOM     33  C   UNL     1       0.001   0.243   7.392  1.00  0.00     0.023 C 
BRANCH  33  34
ATOM     34  C   UNL     1       0.727   1.374   8.122  1.00  0.00     0.023 C 
BRANCH  34  35
ATOM     35  C   UNL     1       0.369   2.797   7.701  1.00  0.00     0.116 C 
BRANCH  35  36
ATOM     36  N   UNL     1      -1.041   3.120   7.858  1.00  0.00    -0.352 N 
ATOM     37  C   UNL     1      -1.656   4.049   8.667  1.00  0.00     0.251 C 
ATOM     38  H   UNL     1      -1.652   2.591   7.296  1.00  0.00     0.163 HD
ATOM     39  O   UNL     1      -2.875   4.088   8.752  1.00  0.00    -0.269 OA
BRANCH  37  40
ATOM     40  C   UNL     1      -0.835   4.985   9.467  1.00  0.00     0.039 A 
ATOM     41  C   UNL     1      -1.148   5.175  10.816  1.00  0.00     0.014 A 
ATOM     42  C   UNL     1       0.242   5.665   8.896  1.00  0.00     0.014 A 
ATOM     43  C   UNL     1      -0.323   5.976  11.611  1.00  0.00     0.010 A 
ATOM     44  C   UNL     1       1.112   6.386   9.707  1.00  0.00     0.010 A 
ATOM     45  C   UNL     1       0.840   6.551  11.074  1.00  0.00    -0.014 A 
BRANCH  45  46
ATOM     46  C   UNL     1       1.775   7.340  11.918  1.00  0.00     0.031 A 
ATOM     47  C   UNL     1       2.025   8.792  11.609  1.00  0.00     0.074 A 
ATOM     48  C   UNL     1       2.445   6.742  12.924  1.00  0.00     0.049 A 
ATOM     49  N   UNL     1       2.866   9.625  12.169  1.00  0.00    -0.248 NA
ATOM     50  C   UNL     1       1.249   9.377  10.504  1.00  0.00     0.031 C 
ATOM     51  C   UNL     1       2.336   5.329  13.296  1.00  0.00     0.029 A 
ATOM     52  N   UNL     1       3.363   7.246  13.812  1.00  0.00    -0.354 N 
ATOM     53  C   UNL     1       2.724  10.824  11.480  1.00  0.00     0.074 A 
ATOM     54  C   UNL     1       1.770  10.592  10.419  1.00  0.00     0.031 C 
ATOM     55  C   UNL     1       3.138   5.087  14.346  1.00  0.00     0.029 A 
ATOM     56  C   UNL     1       3.843   6.314  14.701  1.00  0.00     0.049 A 
ATOM     57  H   UNL     1       3.651   8.188  13.812  1.00  0.00     0.167 HD
ATOM     58  C   UNL     1       3.307  12.020  11.729  1.00  0.00     0.037 A 
ATOM     59  C   UNL     1       4.752   6.436  15.687  1.00  0.00     0.037 A 
ATOM     60  C   UNL     1       4.238  12.261  12.799  1.00  0.00     0.049 A 
ATOM     61  C   UNL     1       5.381   7.779  15.946  1.00  0.00     0.074 A 
ATOM     62  C   UNL     1       4.873  13.443  13.142  1.00  0.00     0.029 A 
ATOM     63  N   UNL     1       4.658  11.302  13.707  1.00  0.00    -0.354 N 
ATOM     64  N   UNL     1       5.201   8.913  15.313  1.00  0.00    -0.248 NA
ATOM     65  C   UNL     1       6.328   7.862  17.067  1.00  0.00     0.031 C 
ATOM     66  C   UNL     1       5.695  13.193  14.245  1.00  0.00     0.029 A 
ATOM     67  C   UNL     1       5.539  11.867  14.614  1.00  0.00     0.049 A 
ATOM     68  H   UNL     1       4.373  10.360  13.708  1.00  0.00     0.167 HD
ATOM     69  C   UNL     1       5.978   9.849  15.983  1.00  0.00     0.074 A 
ATOM     70  C   UNL     1       6.621   9.154  17.078  1.00  0.00     0.031 C 
ATOM     71  C   UNL     1       6.146  11.167  15.717  1.00  0.00     0.037 A 
BRANCH  58  72
ATOM     72  C   UNL     1       2.928  13.169  10.841  1.00  0.00     0.057 A 
ATOM     73  C   UNL     1       1.654  13.751  10.903  1.00  0.00     0.134 A 
ATOM     74  C   UNL     1       3.848  13.724   9.943  1.00  0.00     0.134 A 
ATOM     75  F   UNL     1       0.721  13.258  11.732  1.00  0.00    -0.206 F 
ATOM     76  C   UNL     1       1.301  14.827  10.088  1.00  0.00     0.040 A 
ATOM     77  C   UNL     1       3.516  14.818   9.142  1.00  0.00     0.040 A 
ATOM     78  F   UNL     1       5.086  13.219   9.837  1.00  0.00    -0.206 F 
ATOM     79  C   UNL     1       2.237  15.369   9.209  1.00  0.00     0.006 A 
ENDBRANCH  58  72
BRANCH  59  80
ATOM     80  C   UNL     1       5.114   5.264  16.527  1.00  0.00     0.057 A 
ATOM     81  C   UNL     1       4.760   5.207  17.881  1.00  0.00     0.134 A 
ATOM     82  C   UNL     1       5.861   4.199  16.012  1.00  0.00     0.134 A 
ATOM     83  F   UNL     1       4.060   6.206  18.438  1.00  0.00    -0.206 F 
ATOM     84  C   UNL     1       5.165   4.152  18.700  1.00  0.00     0.040 A 
ATOM     85  C   UNL     1       6.250   3.123  16.813  1.00  0.00     0.040 A 
ATOM     86  F   UNL     1       6.225   4.187  14.721  1.00  0.00    -0.206 F 
ATOM     87  C   UNL     1       5.912   3.104  18.165  1.00  0.00     0.006 A 
ENDBRANCH  59  80
BRANCH  71  88
ATOM     88  C   UNL     1       7.003  11.956  16.662  1.00  0.00     0.057 A 
ATOM     89  C   UNL     1       8.395  11.809  16.704  1.00  0.00     0.134 A 
ATOM     90  C   UNL     1       6.424  12.899  17.521  1.00  0.00     0.134 A 
ATOM     91  F   UNL     1       9.009  10.915  15.915  1.00  0.00    -0.206 F 
ATOM     92  C   UNL     1       9.178  12.551  17.590  1.00  0.00     0.040 A 
ATOM     93  C   UNL     1       7.200  13.666  18.391  1.00  0.00     0.040 A 
ATOM     94  F   UNL     1       5.097  13.096  17.523  1.00  0.00    -0.206 F 
ATOM     95  C   UNL     1       8.581  13.487  18.432  1.00  0.00     0.006 A 
ENDBRANCH  71  88
ENDBRANCH  45  46
ENDBRANCH  37  40
ENDBRANCH  35  36
ENDBRANCH  34  35
ENDBRANCH  33  34
ENDBRANCH   1  33
TORSDOF 16
