REMARK SMILES CC/C(C(=O)NCCCCNC(=O)c1ccc(-c2c3nc(c(-c4c(F)cccc4F)c4ccc([nH]4)c(-c4c(F)cccc4F)c4nc(c(-c5c(F)cccc5F)c5ccc2[nH]5)C=C4)C=C3)cc1)=C1\CCc2ccccc21
REMARK SMILES IDX 9 1 8 2 7 3 6 4 4 5 5 6 3 8 68 9 69 10 76 11 70 12 71 13
REMARK SMILES IDX 75 14 72 15 74 16 73 17 2 18 1 19 10 20 11 21 12 22 13 24
REMARK SMILES IDX 14 25 15 26 67 27 16 28 66 29 17 30 18 31 19 32 60 33 20 34
REMARK SMILES IDX 65 35 59 36 61 37 21 38 64 39 58 40 57 41 22 43 48 44 31 45
REMARK SMILES IDX 47 46 32 47 35 48 46 49 62 50 33 51 34 52 45 54 63 55 36 56
REMARK SMILES IDX 23 57 24 58 29 59 25 60 26 61 28 62 30 63 27 64 49 65 50 66
REMARK SMILES IDX 55 67 51 68 52 69 54 70 56 71 53 72 37 73 38 74 43 75 39 76
REMARK SMILES IDX 40 77 42 78 44 79 41 80
REMARK H PARENT 6 7 11 23 61 42 35 53
REMARK Flexibility Score: inf
ROOT
ATOM      1  C   UNL     1       3.031   2.951   6.836  1.00  0.00     0.023 C 
ENDROOT
BRANCH   1   2
ATOM      2  C   UNL     1       1.980   2.669   5.774  1.00  0.00     0.023 C 
BRANCH   2   3
ATOM      3  C   UNL     1       2.505   2.460   4.343  1.00  0.00     0.116 C 
BRANCH   3   4
ATOM      4  N   UNL     1       2.236   1.092   3.954  1.00  0.00    -0.352 N 
ATOM      5  C   UNL     1       1.288   0.445   3.244  1.00  0.00     0.247 C 
ATOM      6  O   UNL     1       1.277  -0.778   3.439  1.00  0.00    -0.270 OA
ATOM      7  H   UNL     1       2.923   0.474   4.294  1.00  0.00     0.163 HD
BRANCH   5   8
ATOM      8  C   UNL     1       0.420   1.014   2.141  1.00  0.00     0.020 C 
ATOM      9  C   UNL     1      -0.202   2.206   1.966  1.00  0.00    -0.031 C 
ATOM     10  C   UNL     1      -0.845   2.642   0.645  1.00  0.00     0.041 C 
ATOM     11  C   UNL     1      -0.327   3.429   2.765  1.00  0.00    -0.019 A 
ATOM     12  C   UNL     1      -0.417   4.103   0.474  1.00  0.00     0.041 C 
ATOM     13  C   UNL     1      -0.358   4.535   1.903  1.00  0.00    -0.040 A 
ATOM     14  C   UNL     1      -0.543   3.624   4.114  1.00  0.00     0.009 A 
ATOM     15  C   UNL     1      -0.370   5.838   2.376  1.00  0.00     0.004 A 
ATOM     16  C   UNL     1      -0.583   4.936   4.610  1.00  0.00     0.001 A 
ATOM     17  C   UNL     1      -0.452   6.035   3.751  1.00  0.00     0.000 A 
BRANCH   8  18
ATOM     18  C   UNL     1       0.189  -0.073   1.073  1.00  0.00     0.038 C 
ATOM     19  C   UNL     1       1.275  -0.108   0.007  1.00  0.00     0.009 C 
ENDBRANCH   8  18
ENDBRANCH   5   8
ENDBRANCH   3   4
ENDBRANCH   2   3
ENDBRANCH   1   2
BRANCH   1  20
ATOM     20  C   UNL     1       3.850   4.211   6.601  1.00  0.00     0.116 C 
BRANCH  20  21
ATOM     21  N   UNL     1       3.069   5.428   6.400  1.00  0.00    -0.352 N 
ATOM     22  C   UNL     1       3.316   6.696   6.881  1.00  0.00     0.251 C 
ATOM     23  H   UNL     1       2.259   5.330   5.849  1.00  0.00     0.163 HD
ATOM     24  O   UNL     1       2.540   7.619   6.657  1.00  0.00    -0.269 OA
BRANCH  22  25
ATOM     25  C   UNL     1       4.508   6.911   7.730  1.00  0.00     0.039 A 
ATOM     26  C   UNL     1       4.350   7.504   8.984  1.00  0.00     0.014 A 
ATOM     27  C   UNL     1       5.747   6.402   7.338  1.00  0.00     0.014 A 
ATOM     28  C   UNL     1       5.407   7.468   9.896  1.00  0.00     0.010 A 
ATOM     29  C   UNL     1       6.757   6.272   8.282  1.00  0.00     0.010 A 
ATOM     30  C   UNL     1       6.594   6.787   9.577  1.00  0.00    -0.014 A 
BRANCH  30  31
ATOM     31  C   UNL     1       7.667   6.568  10.583  1.00  0.00     0.031 A 
ATOM     32  C   UNL     1       9.061   7.066  10.314  1.00  0.00     0.074 A 
ATOM     33  C   UNL     1       7.420   5.823  11.679  1.00  0.00     0.049 A 
ATOM     34  N   UNL     1      10.160   6.855  10.992  1.00  0.00    -0.248 NA
ATOM     35  C   UNL     1       9.254   7.868   9.095  1.00  0.00     0.031 C 
ATOM     36  C   UNL     1       6.135   5.206  12.020  1.00  0.00     0.029 A 
ATOM     37  N   UNL     1       8.249   5.439  12.705  1.00  0.00    -0.354 N 
ATOM     38  C   UNL     1      11.175   7.458  10.261  1.00  0.00     0.074 A 
ATOM     39  C   UNL     1      10.571   8.004   9.065  1.00  0.00     0.031 C 
ATOM     40  C   UNL     1       6.256   4.545  13.184  1.00  0.00     0.029 A 
ATOM     41  C   UNL     1       7.632   4.660  13.655  1.00  0.00     0.049 A 
ATOM     42  H   UNL     1       9.197   5.699  12.756  1.00  0.00     0.167 HD
ATOM     43  C   UNL     1      12.488   7.572  10.569  1.00  0.00     0.037 A 
ATOM     44  C   UNL     1       8.121   4.096  14.776  1.00  0.00     0.037 A 
ATOM     45  C   UNL     1      13.076   7.094  11.790  1.00  0.00     0.049 A 
ATOM     46  C   UNL     1       9.566   4.303  15.133  1.00  0.00     0.074 A 
ATOM     47  C   UNL     1      14.376   7.250  12.239  1.00  0.00     0.029 A 
ATOM     48  N   UNL     1      12.398   6.378  12.764  1.00  0.00    -0.354 N 
ATOM     49  N   UNL     1      10.496   4.946  14.470  1.00  0.00    -0.248 NA
ATOM     50  C   UNL     1      10.029   3.713  16.398  1.00  0.00     0.031 C 
ATOM     51  C   UNL     1      14.491   6.606  13.476  1.00  0.00     0.029 A 
ATOM     52  C   UNL     1      13.254   6.078  13.809  1.00  0.00     0.049 A 
ATOM     53  H   UNL     1      11.449   6.120  12.718  1.00  0.00     0.167 HD
ATOM     54  C   UNL     1      11.644   4.860  15.246  1.00  0.00     0.074 A 
ATOM     55  C   UNL     1      11.291   4.115  16.437  1.00  0.00     0.031 C 
ATOM     56  C   UNL     1      12.881   5.352  14.994  1.00  0.00     0.037 A 
BRANCH  43  57
ATOM     57  C   UNL     1      13.375   8.262   9.576  1.00  0.00     0.057 A 
ATOM     58  C   UNL     1      13.310   9.645   9.366  1.00  0.00     0.134 A 
ATOM     59  C   UNL     1      14.326   7.540   8.845  1.00  0.00     0.134 A 
ATOM     60  F   UNL     1      12.410  10.391  10.024  1.00  0.00    -0.206 F 
ATOM     61  C   UNL     1      14.144  10.283   8.447  1.00  0.00     0.040 A 
ATOM     62  C   UNL     1      15.183   8.170   7.942  1.00  0.00     0.040 A 
ATOM     63  F   UNL     1      14.443   6.212   9.002  1.00  0.00    -0.206 F 
ATOM     64  C   UNL     1      15.089   9.545   7.737  1.00  0.00     0.006 A 
ENDBRANCH  43  57
BRANCH  44  65
ATOM     65  C   UNL     1       7.233   3.306  15.665  1.00  0.00     0.057 A 
ATOM     66  C   UNL     1       6.833   3.805  16.910  1.00  0.00     0.134 A 
ATOM     67  C   UNL     1       6.782   2.031  15.306  1.00  0.00     0.134 A 
ATOM     68  F   UNL     1       7.250   5.013  17.317  1.00  0.00    -0.206 F 
ATOM     69  C   UNL     1       6.036   3.057  17.777  1.00  0.00     0.040 A 
ATOM     70  C   UNL     1       5.966   1.280  16.154  1.00  0.00     0.040 A 
ATOM     71  F   UNL     1       7.124   1.500  14.123  1.00  0.00    -0.206 F 
ATOM     72  C   UNL     1       5.598   1.789  17.398  1.00  0.00     0.006 A 
ENDBRANCH  44  65
BRANCH  56  73
ATOM     73  C   UNL     1      13.932   5.133  16.039  1.00  0.00     0.057 A 
ATOM     74  C   UNL     1      14.537   3.885  16.225  1.00  0.00     0.134 A 
ATOM     75  C   UNL     1      14.375   6.196  16.835  1.00  0.00     0.134 A 
ATOM     76  F   UNL     1      14.146   2.825  15.501  1.00  0.00    -0.206 F 
ATOM     77  C   UNL     1      15.537   3.697  17.180  1.00  0.00     0.040 A 
ATOM     78  C   UNL     1      15.389   6.026  17.779  1.00  0.00     0.040 A 
ATOM     79  F   UNL     1      13.840   7.419  16.700  1.00  0.00    -0.206 F 
ATOM     80  C   UNL     1      15.970   4.771  17.955  1.00  0.00     0.006 A 
ENDBRANCH  56  73
ENDBRANCH  30  31
ENDBRANCH  22  25
ENDBRANCH  20  21
ENDBRANCH   1  20
TORSDOF 12
