REMARK SMILES COc1nc2c(cc1C(=O)NCc1ccc(C(=O)NCCCCNC(=O)c3ccc(-c4c5nc(c(-c6c(F)cccc6F)c6ccc([nH]6)c(-c6c(F)cccc6F)c6nc(c(-c7c(F)cccc7F)c7ccc4[nH]7)C=C6)C=C5)cc3)s1)CCC2
REMARK SMILES IDX 20 1 19 2 17 3 18 4 16 6 13 7 14 8 81 9 15 10 12 11 11 12
REMARK SMILES IDX 9 13 10 14 8 16 3 17 4 18 5 19 7 20 6 21 84 22 82 23 83 24
REMARK SMILES IDX 2 25 1 26 21 27 22 28 23 29 24 30 25 31 26 33 27 34 28 35
REMARK SMILES IDX 80 36 29 37 79 38 30 39 31 40 32 41 73 42 33 43 78 44 72 45
REMARK SMILES IDX 74 46 34 47 77 48 71 49 70 50 35 52 61 53 44 54 60 55 45 56
REMARK SMILES IDX 48 57 59 58 75 59 46 60 47 61 58 63 76 64 49 65 36 66 37 67
REMARK SMILES IDX 42 68 38 69 39 70 41 71 43 72 40 73 62 74 63 75 68 76 64 77
REMARK SMILES IDX 65 78 67 79 69 80 66 81 50 82 51 83 56 84 52 85 53 86 55 87
REMARK SMILES IDX 57 88 54 89
REMARK H PARENT 19 5 11 15 24 32 74 51 48 62
REMARK Flexibility Score: inf
ROOT
ATOM      1  C   UNL     1       1.420  -4.725   5.380  1.00  0.00     0.116 C 
ENDROOT
BRANCH   1   2
ATOM      2  N   UNL     1       1.051  -3.419   5.880  1.00  0.00    -0.351 N 
ATOM      3  C   UNL     1       1.123  -2.168   5.312  1.00  0.00     0.261 C 
ATOM      4  O   UNL     1       0.909  -1.234   6.092  1.00  0.00    -0.268 OA
ATOM      5  H   UNL     1       0.680  -3.427   6.791  1.00  0.00     0.163 HD
BRANCH   3   6
ATOM      6  C   UNL     1       1.430  -1.975   3.900  1.00  0.00     0.092 A 
ATOM      7  C   UNL     1       2.069  -0.839   1.763  1.00  0.00     0.025 A 
ATOM      8  C   UNL     1       1.619  -2.126   1.565  1.00  0.00     0.018 A 
ATOM      9  S   UNL     1       2.113  -0.463   3.435  1.00  0.00    -0.133 S 
ATOM     10  C   UNL     1       1.207  -2.753   2.780  1.00  0.00     0.026 A 
BRANCH   7  11
ATOM     11  C   UNL     1       2.426   0.217   0.768  1.00  0.00     0.163 C 
BRANCH  11  12
ATOM     12  N   UNL     1       3.394  -0.250  -0.198  1.00  0.00    -0.347 N 
ATOM     13  C   UNL     1       3.396  -0.809  -1.442  1.00  0.00     0.257 C 
ATOM     14  O   UNL     1       4.522  -0.854  -1.959  1.00  0.00    -0.269 OA
ATOM     15  H   UNL     1       4.313  -0.132   0.137  1.00  0.00     0.164 HD
BRANCH  13  16
ATOM     16  C   UNL     1       2.271  -1.407  -2.222  1.00  0.00     0.102 A 
ATOM     17  C   UNL     1       0.889  -1.314  -2.030  1.00  0.00     0.226 A 
ATOM     18  N   UNL     1      -0.052  -1.968  -2.776  1.00  0.00    -0.218 NA
ATOM     19  C   UNL     1       0.405  -2.700  -3.797  1.00  0.00     0.048 A 
ATOM     20  C   UNL     1       2.679  -2.164  -3.347  1.00  0.00     0.025 A 
ATOM     21  C   UNL     1       1.739  -2.804  -4.134  1.00  0.00    -0.025 A 
ATOM     22  C   UNL     1      -0.458  -3.458  -4.766  1.00  0.00     0.057 C 
ATOM     23  C   UNL     1       1.924  -3.590  -5.388  1.00  0.00     0.038 C 
ATOM     24  C   UNL     1       0.587  -4.343  -5.464  1.00  0.00     0.011 C 
BRANCH  17  25
ATOM     25  O   UNL     1       0.348  -0.553  -1.036  1.00  0.00    -0.480 OA
ATOM     26  C   UNL     1      -0.375   0.538  -1.606  1.00  0.00     0.280 C 
ENDBRANCH  17  25
ENDBRANCH  13  16
ENDBRANCH  11  12
ENDBRANCH   7  11
ENDBRANCH   3   6
ENDBRANCH   1   2
BRANCH   1  27
ATOM     27  C   UNL     1       2.882  -5.057   5.663  1.00  0.00     0.023 C 
BRANCH  27  28
ATOM     28  C   UNL     1       3.178  -5.442   7.115  1.00  0.00     0.023 C 
BRANCH  28  29
ATOM     29  C   UNL     1       2.304  -6.553   7.689  1.00  0.00     0.116 C 
BRANCH  29  30
ATOM     30  N   UNL     1       2.245  -7.745   6.856  1.00  0.00    -0.352 N 
ATOM     31  C   UNL     1       2.059  -9.044   7.268  1.00  0.00     0.251 C 
ATOM     32  H   UNL     1       2.349  -7.606   5.887  1.00  0.00     0.163 HD
ATOM     33  O   UNL     1       2.058  -9.974   6.475  1.00  0.00    -0.269 OA
BRANCH  31  34
ATOM     34  C   UNL     1       1.904  -9.287   8.711  1.00  0.00     0.039 A 
ATOM     35  C   UNL     1       2.887 -10.022   9.374  1.00  0.00     0.014 A 
ATOM     36  C   UNL     1       0.851  -8.687   9.408  1.00  0.00     0.014 A 
ATOM     37  C   UNL     1       2.848 -10.109  10.764  1.00  0.00     0.010 A 
ATOM     38  C   UNL     1       0.840  -8.737  10.796  1.00  0.00     0.010 A 
ATOM     39  C   UNL     1       1.840  -9.445  11.482  1.00  0.00    -0.014 A 
BRANCH  39  40
ATOM     40  C   UNL     1       1.802  -9.506  12.959  1.00  0.00     0.031 A 
ATOM     41  C   UNL     1       0.737 -10.316  13.635  1.00  0.00     0.074 A 
ATOM     42  C   UNL     1       2.693  -8.804  13.682  1.00  0.00     0.049 A 
ATOM     43  N   UNL     1       0.514 -10.487  14.912  1.00  0.00    -0.248 NA
ATOM     44  C   UNL     1      -0.216 -11.012  12.755  1.00  0.00     0.031 C 
ATOM     45  C   UNL     1       3.749  -7.951  13.133  1.00  0.00     0.029 A 
ATOM     46  N   UNL     1       2.846  -8.693  15.040  1.00  0.00    -0.354 N 
ATOM     47  C   UNL     1      -0.600 -11.310  14.989  1.00  0.00     0.074 A 
ATOM     48  C   UNL     1      -1.043 -11.556  13.634  1.00  0.00     0.031 C 
ATOM     49  C   UNL     1       4.452  -7.417  14.147  1.00  0.00     0.029 A 
ATOM     50  C   UNL     1       3.885  -7.875  15.411  1.00  0.00     0.049 A 
ATOM     51  H   UNL     1       2.267  -9.156  15.687  1.00  0.00     0.167 HD
ATOM     52  C   UNL     1      -1.186 -11.836  16.089  1.00  0.00     0.037 A 
ATOM     53  C   UNL     1       4.326  -7.540  16.638  1.00  0.00     0.037 A 
ATOM     54  C   UNL     1      -0.740 -11.596  17.434  1.00  0.00     0.049 A 
ATOM     55  C   UNL     1       3.641  -8.118  17.845  1.00  0.00     0.074 A 
ATOM     56  C   UNL     1      -1.239 -12.111  18.617  1.00  0.00     0.029 A 
ATOM     57  N   UNL     1       0.315 -10.763  17.773  1.00  0.00    -0.354 N 
ATOM     58  N   UNL     1       2.628  -8.948  17.904  1.00  0.00    -0.248 NA
ATOM     59  C   UNL     1       4.168  -7.716  19.157  1.00  0.00     0.031 C 
ATOM     60  C   UNL     1      -0.501 -11.567  19.675  1.00  0.00     0.029 A 
ATOM     61  C   UNL     1       0.475 -10.737  19.148  1.00  0.00     0.049 A 
ATOM     62  H   UNL     1       0.869 -10.263  17.130  1.00  0.00     0.167 HD
ATOM     63  C   UNL     1       2.413  -9.190  19.255  1.00  0.00     0.074 A 
ATOM     64  C   UNL     1       3.409  -8.426  19.980  1.00  0.00     0.031 C 
ATOM     65  C   UNL     1       1.478  -9.973  19.844  1.00  0.00     0.037 A 
BRANCH  52  66
ATOM     66  C   UNL     1      -2.367 -12.730  15.863  1.00  0.00     0.057 A 
ATOM     67  C   UNL     1      -3.663 -12.300  16.166  1.00  0.00     0.134 A 
ATOM     68  C   UNL     1      -2.218 -14.015  15.324  1.00  0.00     0.134 A 
ATOM     69  F   UNL     1      -3.874 -11.080  16.682  1.00  0.00    -0.206 F 
ATOM     70  C   UNL     1      -4.773 -13.115  15.934  1.00  0.00     0.040 A 
ATOM     71  C   UNL     1      -3.321 -14.830  15.066  1.00  0.00     0.040 A 
ATOM     72  F   UNL     1      -1.003 -14.476  14.992  1.00  0.00    -0.206 F 
ATOM     73  C   UNL     1      -4.604 -14.380  15.374  1.00  0.00     0.006 A 
ENDBRANCH  52  66
BRANCH  53  74
ATOM     74  C   UNL     1       5.494  -6.641  16.795  1.00  0.00     0.057 A 
ATOM     75  C   UNL     1       5.399  -5.267  16.548  1.00  0.00     0.134 A 
ATOM     76  C   UNL     1       6.728  -7.137  17.230  1.00  0.00     0.134 A 
ATOM     77  F   UNL     1       4.244  -4.732  16.127  1.00  0.00    -0.206 F 
ATOM     78  C   UNL     1       6.491  -4.417  16.732  1.00  0.00     0.040 A 
ATOM     79  C   UNL     1       7.823  -6.296  17.436  1.00  0.00     0.040 A 
ATOM     80  F   UNL     1       6.872  -8.443  17.501  1.00  0.00    -0.206 F 
ATOM     81  C   UNL     1       7.705  -4.931  17.185  1.00  0.00     0.006 A 
ENDBRANCH  53  74
BRANCH  65  82
ATOM     82  C   UNL     1       1.513 -10.061  21.340  1.00  0.00     0.057 A 
ATOM     83  C   UNL     1       1.986 -11.216  21.974  1.00  0.00     0.134 A 
ATOM     84  C   UNL     1       1.061  -9.012  22.149  1.00  0.00     0.134 A 
ATOM     85  F   UNL     1       2.428 -12.258  21.253  1.00  0.00    -0.206 F 
ATOM     86  C   UNL     1       2.008 -11.324  23.365  1.00  0.00     0.040 A 
ATOM     87  C   UNL     1       1.099  -9.100  23.541  1.00  0.00     0.040 A 
ATOM     88  F   UNL     1       0.613  -7.873  21.599  1.00  0.00    -0.206 F 
ATOM     89  C   UNL     1       1.568 -10.261  24.152  1.00  0.00     0.006 A 
ENDBRANCH  65  82
ENDBRANCH  39  40
ENDBRANCH  31  34
ENDBRANCH  29  30
ENDBRANCH  28  29
ENDBRANCH  27  28
ENDBRANCH   1  27
TORSDOF 15
