REMARK SMILES O=C(NCCCCNC(=O)[C@@H]1C=C[C@@H]([NH+]2CC3(CCOCC3)C2)C1)c1ccc(-c2c3nc(c(-c4c(F)cccc4F)c4ccc([nH]4)c(-c4c(F)cccc4F)c4nc(c(-c5c(F)cccc5F)c5ccc2[nH]5)C=C4)C=C3)cc1
REMARK SMILES IDX 5 1 4 2 3 3 1 4 2 5 25 7 26 8 78 9 27 10 77 11 28 12 29 13
REMARK SMILES IDX 30 14 71 15 31 16 76 17 70 18 72 19 32 20 75 21 69 22 68 23
REMARK SMILES IDX 33 25 59 26 42 27 58 28 43 29 46 30 57 31 73 32 44 33 45 34
REMARK SMILES IDX 56 36 74 37 47 38 34 39 35 40 40 41 36 42 37 43 39 44 41 45
REMARK SMILES IDX 38 46 60 47 61 48 66 49 62 50 63 51 65 52 67 53 64 54 48 55
REMARK SMILES IDX 49 56 54 57 50 58 51 59 53 60 55 61 52 62 6 63 7 64 8 65
REMARK SMILES IDX 9 66 10 68 11 69 12 70 24 71 13 72 14 73 15 74 16 75 23 76
REMARK SMILES IDX 17 78 18 79 22 80 19 81 21 82 20 83
REMARK H PARENT 3 6 72 24 46 35 8 67 15 77
REMARK Flexibility Score: inf
ROOT
ATOM      1  C   UNL     1       3.548   2.830   1.954  1.00  0.00     0.023 C 
ENDROOT
BRANCH   1   2
ATOM      2  C   UNL     1       2.839   4.173   2.070  1.00  0.00     0.116 C 
BRANCH   2   3
ATOM      3  N   UNL     1       3.365   5.179   1.159  1.00  0.00    -0.352 N 
ATOM      4  O   UNL     1       3.374   6.554  -0.630  1.00  0.00    -0.269 OA
ATOM      5  C   UNL     1       2.733   5.839   0.127  1.00  0.00     0.251 C 
ATOM      6  H   UNL     1       4.308   5.423   1.299  1.00  0.00     0.163 HD
BRANCH   5   7
ATOM      7  C   UNL     1       1.277   5.662  -0.078  1.00  0.00     0.039 A 
ATOM      8  C   UNL     1       0.393   5.716   1.001  1.00  0.00     0.014 A 
ATOM      9  C   UNL     1       0.791   5.454  -1.372  1.00  0.00     0.014 A 
ATOM     10  C   UNL     1      -0.951   5.417   0.811  1.00  0.00     0.010 A 
ATOM     11  C   UNL     1      -0.578   5.248  -1.575  1.00  0.00     0.010 A 
ATOM     12  C   UNL     1      -1.457   5.207  -0.482  1.00  0.00    -0.014 A 
BRANCH  12  13
ATOM     13  C   UNL     1      -2.921   5.055  -0.675  1.00  0.00     0.031 A 
ATOM     14  C   UNL     1      -3.515   3.787  -1.217  1.00  0.00     0.074 A 
ATOM     15  C   UNL     1      -3.716   6.096  -0.359  1.00  0.00     0.049 A 
ATOM     16  N   UNL     1      -4.769   3.513  -1.476  1.00  0.00    -0.248 NA
ATOM     17  C   UNL     1      -2.587   2.684  -1.514  1.00  0.00     0.031 C 
ATOM     18  C   UNL     1      -3.248   7.384   0.162  1.00  0.00     0.029 A 
ATOM     19  N   UNL     1      -5.077   6.244  -0.428  1.00  0.00    -0.354 N 
ATOM     20  C   UNL     1      -4.781   2.220  -1.986  1.00  0.00     0.074 A 
ATOM     21  C   UNL     1      -3.406   1.767  -2.014  1.00  0.00     0.031 C 
ATOM     22  C   UNL     1      -4.303   8.179   0.386  1.00  0.00     0.029 A 
ATOM     23  C   UNL     1      -5.513   7.488  -0.041  1.00  0.00     0.049 A 
ATOM     24  H   UNL     1      -5.684   5.527  -0.725  1.00  0.00     0.167 HD
ATOM     25  C   UNL     1      -5.845   1.486  -2.390  1.00  0.00     0.037 A 
ATOM     26  C   UNL     1      -6.743   8.032  -0.065  1.00  0.00     0.037 A 
ATOM     27  C   UNL     1      -7.212   1.942  -2.340  1.00  0.00     0.049 A 
ATOM     28  C   UNL     1      -7.894   7.206  -0.559  1.00  0.00     0.074 A 
ATOM     29  C   UNL     1      -8.364   1.243  -2.659  1.00  0.00     0.029 A 
ATOM     30  N   UNL     1      -7.609   3.216  -1.965  1.00  0.00    -0.354 N 
ATOM     31  N   UNL     1      -7.898   5.962  -0.971  1.00  0.00    -0.248 NA
ATOM     32  C   UNL     1      -9.208   7.859  -0.601  1.00  0.00     0.031 C 
ATOM     33  C   UNL     1      -9.451   2.114  -2.540  1.00  0.00     0.029 A 
ATOM     34  C   UNL     1      -8.984   3.338  -2.090  1.00  0.00     0.049 A 
ATOM     35  H   UNL     1      -7.005   3.929  -1.656  1.00  0.00     0.167 HD
ATOM     36  C   UNL     1      -9.214   5.678  -1.307  1.00  0.00     0.074 A 
ATOM     37  C   UNL     1      -9.984   6.873  -1.027  1.00  0.00     0.031 C 
ATOM     38  C   UNL     1      -9.737   4.534  -1.808  1.00  0.00     0.037 A 
BRANCH  25  39
ATOM     39  C   UNL     1      -5.589   0.115  -2.948  1.00  0.00     0.057 A 
ATOM     40  C   UNL     1      -5.210  -0.962  -2.138  1.00  0.00     0.134 A 
ATOM     41  C   UNL     1      -5.811  -0.148  -4.307  1.00  0.00     0.134 A 
ATOM     42  F   UNL     1      -4.976  -0.779  -0.829  1.00  0.00    -0.206 F 
ATOM     43  C   UNL     1      -5.048  -2.247  -2.660  1.00  0.00     0.040 A 
ATOM     44  C   UNL     1      -5.677  -1.433  -4.836  1.00  0.00     0.040 A 
ATOM     45  F   UNL     1      -6.187   0.835  -5.139  1.00  0.00    -0.206 F 
ATOM     46  C   UNL     1      -5.292  -2.487  -4.011  1.00  0.00     0.006 A 
ENDBRANCH  25  39
BRANCH  26  47
ATOM     47  C   UNL     1      -6.937   9.444   0.352  1.00  0.00     0.057 A 
ATOM     48  C   UNL     1      -7.670   9.770   1.498  1.00  0.00     0.134 A 
ATOM     49  C   UNL     1      -6.401  10.502  -0.394  1.00  0.00     0.134 A 
ATOM     50  F   UNL     1      -8.222   8.803   2.245  1.00  0.00    -0.206 F 
ATOM     51  C   UNL     1      -7.882  11.097   1.875  1.00  0.00     0.040 A 
ATOM     52  C   UNL     1      -6.578  11.831  -0.011  1.00  0.00     0.040 A 
ATOM     53  F   UNL     1      -5.680  10.256  -1.498  1.00  0.00    -0.206 F 
ATOM     54  C   UNL     1      -7.330  12.132   1.122  1.00  0.00     0.006 A 
ENDBRANCH  26  47
BRANCH  38  55
ATOM     55  C   UNL     1     -11.214   4.512  -2.067  1.00  0.00     0.057 A 
ATOM     56  C   UNL     1     -11.786   5.219  -3.133  1.00  0.00     0.134 A 
ATOM     57  C   UNL     1     -12.069   3.740  -1.269  1.00  0.00     0.134 A 
ATOM     58  F   UNL     1     -11.024   5.990  -3.923  1.00  0.00    -0.206 F 
ATOM     59  C   UNL     1     -13.157   5.173  -3.385  1.00  0.00     0.040 A 
ATOM     60  C   UNL     1     -13.437   3.663  -1.529  1.00  0.00     0.040 A 
ATOM     61  F   UNL     1     -11.584   3.034  -0.236  1.00  0.00    -0.206 F 
ATOM     62  C   UNL     1     -13.986   4.385  -2.587  1.00  0.00     0.006 A 
ENDBRANCH  38  55
ENDBRANCH  12  13
ENDBRANCH   5   7
ENDBRANCH   2   3
ENDBRANCH   1   2
BRANCH   1  63
ATOM     63  C   UNL     1       4.986   2.812   2.452  1.00  0.00     0.023 C 
BRANCH  63  64
ATOM     64  C   UNL     1       5.181   3.215   3.908  1.00  0.00     0.116 C 
BRANCH  64  65
ATOM     65  N   UNL     1       4.518   2.358   4.886  1.00  0.00    -0.356 N 
ATOM     66  C   UNL     1       4.978   1.953   6.127  1.00  0.00     0.227 C 
ATOM     67  H   UNL     1       3.628   2.025   4.630  1.00  0.00     0.163 HD
ATOM     68  O   UNL     1       4.228   1.315   6.862  1.00  0.00    -0.274 OA
BRANCH  66  69
ATOM     69  C   UNL     1       6.428   2.291   6.492  1.00  0.00     0.107 C 
ATOM     70  C   UNL     1       7.019   1.906   7.809  1.00  0.00    -0.012 C 
ATOM     71  C   UNL     1       6.628   3.801   6.491  1.00  0.00     0.087 C 
ATOM     72  C   UNL     1       7.512   2.958   8.484  1.00  0.00     0.033 C 
ATOM     73  C   UNL     1       7.163   4.266   7.840  1.00  0.00     0.208 C 
BRANCH  73  74
ATOM     74  N   UNL     1       8.192   5.317   7.841  1.00  0.00    -0.328 N 
ATOM     75  C   UNL     1       7.684   6.615   7.346  1.00  0.00     0.275 C 
ATOM     76  C   UNL     1       9.183   5.254   6.759  1.00  0.00     0.275 C 
ATOM     77  H   UNL     1       8.522   5.209   8.800  1.00  0.00     0.348 HD
ATOM     78  C   UNL     1       8.519   6.479   6.036  1.00  0.00     0.073 C 
ATOM     79  C   UNL     1       9.581   7.555   5.746  1.00  0.00     0.047 C 
ATOM     80  C   UNL     1       7.702   6.216   4.754  1.00  0.00     0.047 C 
ATOM     81  C   UNL     1       8.955   8.760   5.056  1.00  0.00     0.161 C 
ATOM     82  C   UNL     1       7.230   7.504   4.100  1.00  0.00     0.161 C 
ATOM     83  O   UNL     1       8.330   8.359   3.837  1.00  0.00    -0.381 OA
ENDBRANCH  73  74
ENDBRANCH  66  69
ENDBRANCH  64  65
ENDBRANCH  63  64
ENDBRANCH   1  63
TORSDOF 12
