REMARK SMILES COc1cccc(-c2cc(OCC(=O)NCCCCNC(=O)c3ccc(-c4c5nc(c(-c6c(F)cccc6F)c6ccc([nH]6)c(-c6c(F)cccc6F)c6nc(c(-c7c(F)cccc7F)c7ccc4[nH]7)C=C6)C=C5)cc3)nc(Nc3ccccc3Br)n2)c1
REMARK SMILES IDX 16 1 15 2 13 3 14 4 12 6 11 7 10 8 8 9 9 10 87 11 78 12
REMARK SMILES IDX 77 13 7 14 3 15 4 16 88 17 5 18 6 19 2 20 1 21 79 22 80 24
REMARK SMILES IDX 81 25 85 26 82 27 84 28 86 29 83 30 17 31 18 32 19 33 20 34
REMARK SMILES IDX 21 35 22 37 23 38 24 39 76 40 25 41 75 42 26 43 27 44 28 45
REMARK SMILES IDX 69 46 29 47 74 48 68 49 70 50 30 51 73 52 67 53 66 54 31 56
REMARK SMILES IDX 57 57 40 58 56 59 41 60 44 61 55 62 71 63 42 64 43 65 54 67
REMARK SMILES IDX 72 68 45 69 32 70 33 71 38 72 34 73 35 74 37 75 39 76 36 77
REMARK SMILES IDX 58 78 59 79 64 80 60 81 61 82 63 83 65 84 62 85 46 86 47 87
REMARK SMILES IDX 52 88 48 89 49 90 51 91 53 92 50 93
REMARK H PARENT 15 5 79 23 20 36 70 55 44 66
REMARK Flexibility Score: inf
ROOT
ATOM      1  C   UNL     1       8.455  -0.051   1.044  1.00  0.00     0.116 C 
ENDROOT
BRANCH   1   2
ATOM      2  N   UNL     1       7.184   0.640   1.123  1.00  0.00    -0.353 N 
ATOM      3  C   UNL     1       6.488   0.996   2.240  1.00  0.00     0.258 C 
ATOM      4  O   UNL     1       5.413   1.583   2.105  1.00  0.00    -0.271 OA
ATOM      5  H   UNL     1       6.771   0.882   0.263  1.00  0.00     0.163 HD
BRANCH   3   6
ATOM      6  C   UNL     1       7.058   0.674   3.629  1.00  0.00     0.331 C 
BRANCH   6   7
ATOM      7  O   UNL     1       7.300  -0.693   3.918  1.00  0.00    -0.467 OA
BRANCH   7   8
ATOM      8  C   UNL     1       6.225  -1.538   3.952  1.00  0.00     0.219 A 
ATOM      9  C   UNL     1       3.975  -2.142   3.841  1.00  0.00     0.080 A 
ATOM     10  C   UNL     1       4.916  -1.140   3.870  1.00  0.00     0.097 A 
ATOM     11  N   UNL     1       4.302  -3.437   3.946  1.00  0.00    -0.212 NA
ATOM     12  C   UNL     1       5.603  -3.745   4.034  1.00  0.00     0.231 A 
ATOM     13  N   UNL     1       6.582  -2.829   4.053  1.00  0.00    -0.177 NA
BRANCH   9  14
ATOM     14  C   UNL     1       2.555  -1.835   3.662  1.00  0.00     0.004 A 
ATOM     15  C   UNL     1       0.787  -0.749   2.378  1.00  0.00     0.119 A 
ATOM     16  C   UNL     1      -0.121  -1.056   3.391  1.00  0.00     0.046 A 
ATOM     17  C   UNL     1       2.120  -1.134   2.519  1.00  0.00     0.056 A 
ATOM     18  C   UNL     1       0.283  -1.780   4.513  1.00  0.00     0.005 A 
ATOM     19  C   UNL     1       1.614  -2.176   4.643  1.00  0.00     0.010 A 
BRANCH  15  20
ATOM     20  O   UNL     1       0.274  -0.033   1.331  1.00  0.00    -0.497 OA
ATOM     21  C   UNL     1       1.007  -0.084   0.112  1.00  0.00     0.278 C 
ENDBRANCH  15  20
ENDBRANCH   9  14
BRANCH  12  22
ATOM     22  N   UNL     1       5.989  -5.078   4.154  1.00  0.00    -0.323 N 
ATOM     23  H   UNL     1       6.949  -5.239   4.296  1.00  0.00     0.170 HD
BRANCH  22  24
ATOM     24  C   UNL     1       5.176  -6.218   4.098  1.00  0.00     0.055 A 
ATOM     25  C   UNL     1       5.141  -7.061   5.221  1.00  0.00     0.027 A 
ATOM     26  C   UNL     1       4.316  -6.517   3.022  1.00  0.00     0.041 A 
ATOM     27  C   UNL     1       4.258  -8.143   5.287  1.00  0.00     0.002 A 
ATOM     28  C   UNL     1       3.432  -7.601   3.090  1.00  0.00     0.018 A 
ATOM     29  Br  UNL     1       4.380  -5.571   1.368  1.00  0.00    -0.049 Br
ATOM     30  C   UNL     1       3.397  -8.406   4.226  1.00  0.00     0.001 A 
ENDBRANCH  22  24
ENDBRANCH  12  22
ENDBRANCH   7   8
ENDBRANCH   6   7
ENDBRANCH   3   6
ENDBRANCH   1   2
BRANCH   1  31
ATOM     31  C   UNL     1       8.306  -1.472   0.507  1.00  0.00     0.023 C 
BRANCH  31  32
ATOM     32  C   UNL     1       7.738  -1.575  -0.911  1.00  0.00     0.023 C 
BRANCH  32  33
ATOM     33  C   UNL     1       8.446  -0.734  -1.968  1.00  0.00     0.116 C 
BRANCH  33  34
ATOM     34  N   UNL     1       9.857  -1.060  -2.109  1.00  0.00    -0.352 N 
ATOM     35  C   UNL     1      10.589  -1.288  -3.249  1.00  0.00     0.251 C 
ATOM     36  H   UNL     1      10.360  -1.126  -1.265  1.00  0.00     0.163 HD
ATOM     37  O   UNL     1      11.752  -1.673  -3.165  1.00  0.00    -0.269 OA
BRANCH  35  38
ATOM     38  C   UNL     1       9.969  -1.106  -4.579  1.00  0.00     0.039 A 
ATOM     39  C   UNL     1      10.157  -2.094  -5.549  1.00  0.00     0.014 A 
ATOM     40  C   UNL     1       9.198   0.023  -4.869  1.00  0.00     0.014 A 
ATOM     41  C   UNL     1       9.514  -1.984  -6.784  1.00  0.00     0.010 A 
ATOM     42  C   UNL     1       8.498   0.093  -6.072  1.00  0.00     0.010 A 
ATOM     43  C   UNL     1       8.645  -0.911  -7.041  1.00  0.00    -0.014 A 
BRANCH  43  44
ATOM     44  C   UNL     1       7.872  -0.832  -8.308  1.00  0.00     0.031 A 
ATOM     45  C   UNL     1       8.091   0.308  -9.264  1.00  0.00     0.074 A 
ATOM     46  C   UNL     1       6.922  -1.752  -8.567  1.00  0.00     0.049 A 
ATOM     47  N   UNL     1       7.465   0.584 -10.380  1.00  0.00    -0.248 NA
ATOM     48  C   UNL     1       9.135   1.282  -8.906  1.00  0.00     0.031 C 
ATOM     49  C   UNL     1       6.576  -2.880  -7.699  1.00  0.00     0.029 A 
ATOM     50  N   UNL     1       6.061  -1.878  -9.630  1.00  0.00    -0.354 N 
ATOM     51  C   UNL     1       8.024   1.767 -10.847  1.00  0.00     0.074 A 
ATOM     52  C   UNL     1       9.006   2.183  -9.869  1.00  0.00     0.031 C 
ATOM     53  C   UNL     1       5.592  -3.591  -8.271  1.00  0.00     0.029 A 
ATOM     54  C   UNL     1       5.205  -2.948  -9.523  1.00  0.00     0.049 A 
ATOM     55  H   UNL     1       6.057  -1.259 -10.395  1.00  0.00     0.167 HD
ATOM     56  C   UNL     1       7.759   2.434 -11.995  1.00  0.00     0.037 A 
ATOM     57  C   UNL     1       4.213  -3.359 -10.335  1.00  0.00     0.037 A 
ATOM     58  C   UNL     1       6.798   2.005 -12.978  1.00  0.00     0.049 A 
ATOM     59  C   UNL     1       3.932  -2.595 -11.600  1.00  0.00     0.074 A 
ATOM     60  C   UNL     1       6.508   2.576 -14.205  1.00  0.00     0.029 A 
ATOM     61  N   UNL     1       5.964   0.905 -12.842  1.00  0.00    -0.354 N 
ATOM     62  N   UNL     1       4.524  -1.522 -12.067  1.00  0.00    -0.248 NA
ATOM     63  C   UNL     1       2.848  -3.101 -12.454  1.00  0.00     0.031 C 
ATOM     64  C   UNL     1       5.461   1.855 -14.787  1.00  0.00     0.029 A 
ATOM     65  C   UNL     1       5.139   0.799 -13.950  1.00  0.00     0.049 A 
ATOM     66  H   UNL     1       5.959   0.291 -12.073  1.00  0.00     0.167 HD
ATOM     67  C   UNL     1       3.907  -1.244 -13.280  1.00  0.00     0.074 A 
ATOM     68  C   UNL     1       2.905  -2.269 -13.484  1.00  0.00     0.031 C 
ATOM     69  C   UNL     1       4.150  -0.230 -14.147  1.00  0.00     0.037 A 
BRANCH  56  70
ATOM     70  C   UNL     1       8.516   3.705 -12.254  1.00  0.00     0.057 A 
ATOM     71  C   UNL     1       9.887   3.705 -12.548  1.00  0.00     0.134 A 
ATOM     72  C   UNL     1       7.857   4.941 -12.257  1.00  0.00     0.134 A 
ATOM     73  F   UNL     1      10.582   2.558 -12.552  1.00  0.00    -0.206 F 
ATOM     74  C   UNL     1      10.578   4.890 -12.809  1.00  0.00     0.040 A 
ATOM     75  C   UNL     1       8.530   6.129 -12.546  1.00  0.00     0.040 A 
ATOM     76  F   UNL     1       6.544   5.013 -11.992  1.00  0.00    -0.206 F 
ATOM     77  C   UNL     1       9.897   6.106 -12.817  1.00  0.00     0.006 A 
ENDBRANCH  56  70
BRANCH  57  78
ATOM     78  C   UNL     1       3.410  -4.560  -9.983  1.00  0.00     0.057 A 
ATOM     79  C   UNL     1       3.499  -5.737 -10.737  1.00  0.00     0.134 A 
ATOM     80  C   UNL     1       2.525  -4.555  -8.899  1.00  0.00     0.134 A 
ATOM     81  F   UNL     1       4.315  -5.798 -11.799  1.00  0.00    -0.206 F 
ATOM     82  C   UNL     1       2.718  -6.856 -10.441  1.00  0.00     0.040 A 
ATOM     83  C   UNL     1       1.759  -5.676  -8.574  1.00  0.00     0.040 A 
ATOM     84  F   UNL     1       2.398  -3.462  -8.133  1.00  0.00    -0.206 F 
ATOM     85  C   UNL     1       1.848  -6.828  -9.353  1.00  0.00     0.006 A 
ENDBRANCH  57  78
BRANCH  69  86
ATOM     86  C   UNL     1       3.346  -0.200 -15.415  1.00  0.00     0.057 A 
ATOM     87  C   UNL     1       1.984   0.125 -15.424  1.00  0.00     0.134 A 
ATOM     88  C   UNL     1       3.957  -0.458 -16.650  1.00  0.00     0.134 A 
ATOM     89  F   UNL     1       1.335   0.371 -14.275  1.00  0.00    -0.206 F 
ATOM     90  C   UNL     1       1.252   0.167 -16.612  1.00  0.00     0.040 A 
ATOM     91  C   UNL     1       3.243  -0.390 -17.846  1.00  0.00     0.040 A 
ATOM     92  F   UNL     1       5.261  -0.765 -16.714  1.00  0.00    -0.206 F 
ATOM     93  C   UNL     1       1.884  -0.083 -17.829  1.00  0.00     0.006 A 
ENDBRANCH  69  86
ENDBRANCH  43  44
ENDBRANCH  35  38
ENDBRANCH  33  34
ENDBRANCH  32  33
ENDBRANCH  31  32
ENDBRANCH   1  31
TORSDOF 17
