REMARK SMILES CC[C@](C)([NH2+]CC(=O)Nc1c(Cl)ccc(C)c1Cl)C(=O)NCCCCNC(=O)c1ccc(-c2c3nc(c(-c4c(F)cccc4F)c4ccc([nH]4)c(-c4c(F)cccc4F)c4nc(c(-c5c(F)cccc5F)c5ccc2[nH]5)C=C4)C=C3)cc1
REMARK SMILES IDX 22 1 21 2 19 3 20 4 3 6 4 7 2 8 1 9 5 10 6 13 7 14 8 15 9 16
REMARK SMILES IDX 10 18 11 19 17 20 12 21 13 22 15 23 18 24 14 25 16 26 23 27
REMARK SMILES IDX 24 28 25 29 26 30 27 31 28 33 29 34 30 35 82 36 31 37 81 38
REMARK SMILES IDX 32 39 33 40 34 41 75 42 35 43 80 44 74 45 76 46 36 47 79 48
REMARK SMILES IDX 73 49 72 50 37 52 63 53 46 54 62 55 47 56 50 57 61 58 77 59
REMARK SMILES IDX 48 60 49 61 60 63 78 64 51 65 38 66 39 67 44 68 40 69 41 70
REMARK SMILES IDX 43 71 45 72 42 73 64 74 65 75 70 76 66 77 67 78 69 79 71 80
REMARK SMILES IDX 68 81 52 82 53 83 58 84 54 85 55 86 57 87 59 88 56 89
REMARK H PARENT 21 5 5 11 5 12 9 17 26 32 76 51 50 62
REMARK Flexibility Score: inf
ROOT
ATOM      1  C   UNL     1       3.218   1.959   3.849  1.00  0.00     0.116 C 
ENDROOT
BRANCH   1   2
ATOM      2  N   UNL     1       2.822   0.681   3.231  1.00  0.00    -0.351 N 
ATOM      3  C   UNL     1       1.739   0.231   2.493  1.00  0.00     0.281 C 
ATOM      4  O   UNL     1       2.040  -0.620   1.640  1.00  0.00    -0.268 OA
ATOM      5  H   UNL     1       3.492  -0.026   3.377  1.00  0.00     0.163 HD
BRANCH   3   6
ATOM      6  C   UNL     1       0.206   0.477   2.860  1.00  0.00     0.172 C 
ATOM      7  C   UNL     1      -0.084  -0.992   3.397  1.00  0.00     0.090 C 
BRANCH   6   8
ATOM      8  C   UNL     1      -1.016   0.598   1.859  1.00  0.00     0.075 C 
ATOM      9  C   UNL     1      -1.594   1.886   1.266  1.00  0.00     0.011 C 
ENDBRANCH   6   8
BRANCH   6  10
ATOM     10  N   UNL     1       0.128   1.384   3.983  1.00  0.00    -0.326 N 
ATOM     11  H   UNL     1       0.910   1.149   4.594  1.00  0.00     0.347 HD
ATOM     12  H   UNL     1      -0.824   1.233   4.314  1.00  0.00     0.347 HD
BRANCH  10  13
ATOM     13  C   UNL     1       0.165   2.836   3.811  1.00  0.00     0.363 C 
BRANCH  13  14
ATOM     14  C   UNL     1       0.342   3.648   2.509  1.00  0.00     0.279 C 
ATOM     15  O   UNL     1      -0.302   4.724   2.509  1.00  0.00    -0.268 OA
ATOM     16  N   UNL     1       1.053   3.524   1.356  1.00  0.00    -0.319 N 
ATOM     17  H   UNL     1       0.625   4.045   0.638  1.00  0.00     0.170 HD
BRANCH  16  18
ATOM     18  C   UNL     1       2.221   2.880   0.860  1.00  0.00     0.079 A 
ATOM     19  C   UNL     1       2.189   1.778  -0.022  1.00  0.00     0.066 A 
ATOM     20  C   UNL     1       3.441   3.600   0.864  1.00  0.00     0.069 A 
ATOM     21  Cl  UNL     1       0.764   1.125  -0.744  1.00  0.00    -0.082 Cl
ATOM     22  C   UNL     1       3.360   1.216  -0.550  1.00  0.00     0.023 A 
ATOM     23  C   UNL     1       4.597   3.128   0.191  1.00  0.00    -0.030 A 
ATOM     24  Cl  UNL     1       3.508   5.157   1.642  1.00  0.00    -0.082 Cl
ATOM     25  C   UNL     1       4.563   1.883  -0.438  1.00  0.00     0.006 A 
ATOM     26  C   UNL     1       5.829   3.970   0.002  1.00  0.00     0.046 C 
ENDBRANCH  16  18
ENDBRANCH  13  14
ENDBRANCH  10  13
ENDBRANCH   6  10
ENDBRANCH   3   6
ENDBRANCH   1   2
BRANCH   1  27
ATOM     27  C   UNL     1       3.380   1.986   5.375  1.00  0.00     0.023 C 
BRANCH  27  28
ATOM     28  C   UNL     1       4.734   2.539   5.866  1.00  0.00     0.023 C 
BRANCH  28  29
ATOM     29  C   UNL     1       5.148   3.947   5.420  1.00  0.00     0.116 C 
BRANCH  29  30
ATOM     30  N   UNL     1       4.407   5.035   6.041  1.00  0.00    -0.352 N 
ATOM     31  C   UNL     1       4.888   6.219   6.566  1.00  0.00     0.251 C 
ATOM     32  H   UNL     1       3.432   4.911   6.094  1.00  0.00     0.163 HD
ATOM     33  O   UNL     1       4.123   7.024   7.096  1.00  0.00    -0.269 OA
BRANCH  31  34
ATOM     34  C   UNL     1       6.342   6.504   6.544  1.00  0.00     0.039 A 
ATOM     35  C   UNL     1       6.986   6.841   7.739  1.00  0.00     0.014 A 
ATOM     36  C   UNL     1       7.078   6.386   5.363  1.00  0.00     0.014 A 
ATOM     37  C   UNL     1       8.381   6.946   7.771  1.00  0.00     0.010 A 
ATOM     38  C   UNL     1       8.471   6.425   5.411  1.00  0.00     0.010 A 
ATOM     39  C   UNL     1       9.140   6.683   6.619  1.00  0.00    -0.014 A 
BRANCH  39  40
ATOM     40  C   UNL     1      10.627   6.638   6.663  1.00  0.00     0.031 A 
ATOM     41  C   UNL     1      11.442   7.609   5.853  1.00  0.00     0.074 A 
ATOM     42  C   UNL     1      11.248   5.667   7.362  1.00  0.00     0.049 A 
ATOM     43  N   UNL     1      12.740   7.667   5.689  1.00  0.00    -0.248 NA
ATOM     44  C   UNL     1      10.696   8.631   5.103  1.00  0.00     0.031 C 
ATOM     45  C   UNL     1      10.580   4.624   8.145  1.00  0.00     0.029 A 
ATOM     46  N   UNL     1      12.585   5.389   7.519  1.00  0.00    -0.354 N 
ATOM     47  C   UNL     1      12.962   8.710   4.799  1.00  0.00     0.074 A 
ATOM     48  C   UNL     1      11.664   9.227   4.423  1.00  0.00     0.031 C 
ATOM     49  C   UNL     1      11.507   3.840   8.718  1.00  0.00     0.029 A 
ATOM     50  C   UNL     1      12.834   4.299   8.319  1.00  0.00     0.049 A 
ATOM     51  H   UNL     1      13.298   5.921   7.098  1.00  0.00     0.167 HD
ATOM     52  C   UNL     1      14.140   9.209   4.353  1.00  0.00     0.037 A 
ATOM     53  C   UNL     1      13.998   3.732   8.689  1.00  0.00     0.037 A 
ATOM     54  C   UNL     1      15.433   8.725   4.761  1.00  0.00     0.049 A 
ATOM     55  C   UNL     1      15.293   4.319   8.200  1.00  0.00     0.074 A 
ATOM     56  C   UNL     1      16.683   9.216   4.424  1.00  0.00     0.029 A 
ATOM     57  N   UNL     1      15.642   7.642   5.600  1.00  0.00    -0.354 N 
ATOM     58  N   UNL     1      15.488   5.350   7.414  1.00  0.00    -0.248 NA
ATOM     59  C   UNL     1      16.531   3.666   8.652  1.00  0.00     0.031 C 
ATOM     60  C   UNL     1      17.649   8.409   5.034  1.00  0.00     0.029 A 
ATOM     61  C   UNL     1      17.000   7.439   5.780  1.00  0.00     0.049 A 
ATOM     62  H   UNL     1      14.930   7.097   6.008  1.00  0.00     0.167 HD
ATOM     63  C   UNL     1      16.866   5.488   7.303  1.00  0.00     0.074 A 
ATOM     64  C   UNL     1      17.459   4.442   8.109  1.00  0.00     0.031 C 
ATOM     65  C   UNL     1      17.575   6.401   6.596  1.00  0.00     0.037 A 
BRANCH  52  66
ATOM     66  C   UNL     1      14.082  10.347   3.377  1.00  0.00     0.057 A 
ATOM     67  C   UNL     1      13.679  11.632   3.766  1.00  0.00     0.134 A 
ATOM     68  C   UNL     1      14.457  10.165   2.040  1.00  0.00     0.134 A 
ATOM     69  F   UNL     1      13.297  11.871   5.030  1.00  0.00    -0.206 F 
ATOM     70  C   UNL     1      13.622  12.687   2.854  1.00  0.00     0.040 A 
ATOM     71  C   UNL     1      14.429  11.218   1.125  1.00  0.00     0.040 A 
ATOM     72  F   UNL     1      14.859   8.962   1.603  1.00  0.00    -0.206 F 
ATOM     73  C   UNL     1      14.004  12.482   1.529  1.00  0.00     0.006 A 
ENDBRANCH  52  66
BRANCH  53  74
ATOM     74  C   UNL     1      14.002   2.560   9.601  1.00  0.00     0.057 A 
ATOM     75  C   UNL     1      14.441   2.682  10.925  1.00  0.00     0.134 A 
ATOM     76  C   UNL     1      13.589   1.293   9.173  1.00  0.00     0.134 A 
ATOM     77  F   UNL     1      14.870   3.867  11.386  1.00  0.00    -0.206 F 
ATOM     78  C   UNL     1      14.487   1.585  11.786  1.00  0.00     0.040 A 
ATOM     79  C   UNL     1      13.608   0.191  10.030  1.00  0.00     0.040 A 
ATOM     80  F   UNL     1      13.153   1.110   7.918  1.00  0.00    -0.206 F 
ATOM     81  C   UNL     1      14.065   0.334  11.339  1.00  0.00     0.006 A 
ENDBRANCH  53  74
BRANCH  65  82
ATOM     82  C   UNL     1      19.070   6.333   6.692  1.00  0.00     0.057 A 
ATOM     83  C   UNL     1      19.807   5.335   6.043  1.00  0.00     0.134 A 
ATOM     84  C   UNL     1      19.782   7.304   7.407  1.00  0.00     0.134 A 
ATOM     85  F   UNL     1      19.182   4.368   5.354  1.00  0.00    -0.206 F 
ATOM     86  C   UNL     1      21.200   5.294   6.117  1.00  0.00     0.040 A 
ATOM     87  C   UNL     1      21.176   7.288   7.468  1.00  0.00     0.040 A 
ATOM     88  F   UNL     1      19.136   8.292   8.044  1.00  0.00    -0.206 F 
ATOM     89  C   UNL     1      21.889   6.277   6.825  1.00  0.00     0.006 A 
ENDBRANCH  65  82
ENDBRANCH  39  40
ENDBRANCH  31  34
ENDBRANCH  29  30
ENDBRANCH  28  29
ENDBRANCH  27  28
ENDBRANCH   1  27
TORSDOF 16
