REMARK SMILES C[NH2+]C[C@H](C)C(=O)N[C@H](Cc1ccccc1)C(=O)NCCCCNC(=O)c1ccc(-c2c3nc(c(-c4c(F)cccc4F)c4ccc([nH]4)c(-c4c(F)cccc4F)c4nc(c(-c5c(F)cccc5F)c5ccc2[nH]5)C=C4)C=C3)cc1
REMARK SMILES IDX 20 1 19 2 17 3 18 4 9 6 8 7 6 8 7 9 4 11 5 12 3 13 2 14 1 15
REMARK SMILES IDX 10 18 11 19 12 20 16 21 13 22 15 23 14 24 21 25 22 26 23 27
REMARK SMILES IDX 24 28 25 29 26 31 27 32 28 33 80 34 29 35 79 36 30 37 31 38
REMARK SMILES IDX 32 39 73 40 33 41 78 42 72 43 74 44 34 45 77 46 71 47 70 48
REMARK SMILES IDX 35 50 61 51 44 52 60 53 45 54 48 55 59 56 75 57 46 58 47 59
REMARK SMILES IDX 58 61 76 62 49 63 36 64 37 65 42 66 38 67 39 68 41 69 43 70
REMARK SMILES IDX 40 71 62 72 63 73 68 74 64 75 65 76 67 77 69 78 66 79 50 80
REMARK SMILES IDX 51 81 56 82 52 83 53 84 55 85 57 86 54 87
REMARK H PARENT 19 5 8 10 2 16 2 17 24 30 74 49 48 60
REMARK Flexibility Score: inf
ROOT
ATOM      1  C   UNL     1      -6.110   3.923  -1.507  1.00  0.00     0.116 C 
ENDROOT
BRANCH   1   2
ATOM      2  N   UNL     1      -4.988   4.608  -2.110  1.00  0.00    -0.354 N 
ATOM      3  C   UNL     1      -3.776   4.138  -2.528  1.00  0.00     0.242 C 
ATOM      4  O   UNL     1      -3.131   4.900  -3.260  1.00  0.00    -0.273 OA
ATOM      5  H   UNL     1      -5.121   5.574  -2.242  1.00  0.00     0.163 HD
BRANCH   3   6
ATOM      6  C   UNL     1      -3.196   2.745  -2.171  1.00  0.00     0.175 C 
BRANCH   6   7
ATOM      7  N   UNL     1      -3.089   1.736  -3.258  1.00  0.00    -0.344 N 
ATOM      8  C   UNL     1      -3.897   0.970  -4.020  1.00  0.00     0.229 C 
ATOM      9  O   UNL     1      -3.357  -0.023  -4.529  1.00  0.00    -0.275 OA
ATOM     10  H   UNL     1      -2.145   1.581  -3.492  1.00  0.00     0.164 HD
BRANCH   8  11
ATOM     11  C   UNL     1      -5.358   1.237  -4.341  1.00  0.00     0.130 C 
ATOM     12  C   UNL     1      -6.260   0.855  -3.176  1.00  0.00     0.024 C 
BRANCH  11  13
ATOM     13  C   UNL     1      -5.628   2.626  -4.935  1.00  0.00     0.273 C 
BRANCH  13  14
ATOM     14  N   UNL     1      -4.793   2.968  -6.087  1.00  0.00    -0.348 N 
ATOM     15  C   UNL     1      -5.483   2.842  -7.357  1.00  0.00     0.330 C 
ATOM     16  H   UNL     1      -4.479   3.934  -5.984  1.00  0.00     0.346 HD
ATOM     17  H   UNL     1      -4.014   2.309  -6.101  1.00  0.00     0.346 HD
ENDBRANCH  13  14
ENDBRANCH  11  13
ENDBRANCH   8  11
ENDBRANCH   6   7
BRANCH   6  18
ATOM     18  C   UNL     1      -3.448   2.095  -0.798  1.00  0.00     0.070 C 
BRANCH  18  19
ATOM     19  C   UNL     1      -3.013   2.845   0.453  1.00  0.00    -0.045 A 
ATOM     20  C   UNL     1      -3.121   4.233   0.618  1.00  0.00     0.004 A 
ATOM     21  C   UNL     1      -2.528   2.100   1.542  1.00  0.00     0.004 A 
ATOM     22  C   UNL     1      -2.754   4.856   1.815  1.00  0.00     0.000 A 
ATOM     23  C   UNL     1      -2.154   2.722   2.737  1.00  0.00     0.000 A 
ATOM     24  C   UNL     1      -2.269   4.101   2.875  1.00  0.00     0.000 A 
ENDBRANCH  18  19
ENDBRANCH   6  18
ENDBRANCH   3   6
ENDBRANCH   1   2
BRANCH   1  25
ATOM     25  C   UNL     1      -7.161   4.825  -0.875  1.00  0.00     0.023 C 
BRANCH  25  26
ATOM     26  C   UNL     1      -7.802   5.869  -1.786  1.00  0.00     0.023 C 
BRANCH  26  27
ATOM     27  C   UNL     1      -8.095   5.447  -3.223  1.00  0.00     0.116 C 
BRANCH  27  28
ATOM     28  N   UNL     1      -9.098   4.399  -3.351  1.00  0.00    -0.352 N 
ATOM     29  C   UNL     1     -10.391   4.453  -3.819  1.00  0.00     0.251 C 
ATOM     30  H   UNL     1      -8.803   3.507  -3.055  1.00  0.00     0.163 HD
ATOM     31  O   UNL     1     -11.093   3.446  -3.793  1.00  0.00    -0.269 OA
BRANCH  29  32
ATOM     32  C   UNL     1     -10.963   5.734  -4.287  1.00  0.00     0.039 A 
ATOM     33  C   UNL     1     -12.194   6.145  -3.770  1.00  0.00     0.014 A 
ATOM     34  C   UNL     1     -10.274   6.552  -5.183  1.00  0.00     0.014 A 
ATOM     35  C   UNL     1     -12.666   7.430  -4.047  1.00  0.00     0.010 A 
ATOM     36  C   UNL     1     -10.697   7.864  -5.381  1.00  0.00     0.010 A 
ATOM     37  C   UNL     1     -11.884   8.327  -4.793  1.00  0.00    -0.014 A 
BRANCH  37  38
ATOM     38  C   UNL     1     -12.259   9.761  -4.917  1.00  0.00     0.031 A 
ATOM     39  C   UNL     1     -12.516  10.372  -6.267  1.00  0.00     0.074 A 
ATOM     40  C   UNL     1     -12.277  10.539  -3.815  1.00  0.00     0.049 A 
ATOM     41  N   UNL     1     -12.764  11.621  -6.574  1.00  0.00    -0.248 NA
ATOM     42  C   UNL     1     -12.459   9.469  -7.426  1.00  0.00     0.031 C 
ATOM     43  C   UNL     1     -11.986  10.088  -2.452  1.00  0.00     0.029 A 
ATOM     44  N   UNL     1     -12.541  11.879  -3.667  1.00  0.00    -0.354 N 
ATOM     45  C   UNL     1     -12.875  11.655  -7.958  1.00  0.00     0.074 A 
ATOM     46  C   UNL     1     -12.618  10.313  -8.435  1.00  0.00     0.031 C 
ATOM     47  C   UNL     1     -12.112  11.123  -1.607  1.00  0.00     0.029 A 
ATOM     48  C   UNL     1     -12.450  12.320  -2.368  1.00  0.00     0.049 A 
ATOM     49  H   UNL     1     -12.772  12.468  -4.421  1.00  0.00     0.167 HD
ATOM     50  C   UNL     1     -13.185  12.703  -8.758  1.00  0.00     0.037 A 
ATOM     51  C   UNL     1     -12.612  13.552  -1.847  1.00  0.00     0.037 A 
ATOM     52  C   UNL     1     -13.469  14.032  -8.283  1.00  0.00     0.049 A 
ATOM     53  C   UNL     1     -12.959  14.697  -2.758  1.00  0.00     0.074 A 
ATOM     54  C   UNL     1     -13.859  15.142  -9.012  1.00  0.00     0.029 A 
ATOM     55  N   UNL     1     -13.394  14.431  -6.957  1.00  0.00    -0.354 N 
ATOM     56  N   UNL     1     -13.133  14.696  -4.057  1.00  0.00    -0.248 NA
ATOM     57  C   UNL     1     -13.135  16.014  -2.129  1.00  0.00     0.031 C 
ATOM     58  C   UNL     1     -13.979  16.224  -8.133  1.00  0.00     0.029 A 
ATOM     59  C   UNL     1     -13.710  15.776  -6.851  1.00  0.00     0.049 A 
ATOM     60  H   UNL     1     -13.151  13.846  -6.204  1.00  0.00     0.167 HD
ATOM     61  C   UNL     1     -13.468  16.000  -4.396  1.00  0.00     0.074 A 
ATOM     62  C   UNL     1     -13.486  16.762  -3.164  1.00  0.00     0.031 C 
ATOM     63  C   UNL     1     -13.736  16.520  -5.618  1.00  0.00     0.037 A 
BRANCH  50  64
ATOM     64  C   UNL     1     -13.244  12.453 -10.236  1.00  0.00     0.057 A 
ATOM     65  C   UNL     1     -14.274  11.700 -10.816  1.00  0.00     0.134 A 
ATOM     66  C   UNL     1     -12.287  13.008 -11.096  1.00  0.00     0.134 A 
ATOM     67  F   UNL     1     -15.216  11.133 -10.047  1.00  0.00    -0.206 F 
ATOM     68  C   UNL     1     -14.338  11.489 -12.194  1.00  0.00     0.040 A 
ATOM     69  C   UNL     1     -12.355  12.825 -12.478  1.00  0.00     0.040 A 
ATOM     70  F   UNL     1     -11.278  13.745 -10.607  1.00  0.00    -0.206 F 
ATOM     71  C   UNL     1     -13.380  12.059 -13.030  1.00  0.00     0.006 A 
ENDBRANCH  50  64
BRANCH  51  72
ATOM     72  C   UNL     1     -12.470  13.770  -0.385  1.00  0.00     0.057 A 
ATOM     73  C   UNL     1     -13.581  14.076   0.409  1.00  0.00     0.134 A 
ATOM     74  C   UNL     1     -11.224  13.700   0.250  1.00  0.00     0.134 A 
ATOM     75  F   UNL     1     -14.799  14.176  -0.145  1.00  0.00    -0.206 F 
ATOM     76  C   UNL     1     -13.458  14.329   1.776  1.00  0.00     0.040 A 
ATOM     77  C   UNL     1     -11.089  13.925   1.621  1.00  0.00     0.040 A 
ATOM     78  F   UNL     1     -10.121  13.403  -0.453  1.00  0.00    -0.206 F 
ATOM     79  C   UNL     1     -12.208  14.249   2.386  1.00  0.00     0.006 A 
ENDBRANCH  51  72
BRANCH  63  80
ATOM     80  C   UNL     1     -14.112  17.971  -5.681  1.00  0.00     0.057 A 
ATOM     81  C   UNL     1     -13.169  18.989  -5.487  1.00  0.00     0.134 A 
ATOM     82  C   UNL     1     -15.426  18.354  -5.976  1.00  0.00     0.134 A 
ATOM     83  F   UNL     1     -11.896  18.689  -5.187  1.00  0.00    -0.206 F 
ATOM     84  C   UNL     1     -13.526  20.336  -5.564  1.00  0.00     0.040 A 
ATOM     85  C   UNL     1     -15.789  19.697  -6.081  1.00  0.00     0.040 A 
ATOM     86  F   UNL     1     -16.376  17.428  -6.181  1.00  0.00    -0.206 F 
ATOM     87  C   UNL     1     -14.838  20.693  -5.869  1.00  0.00     0.006 A 
ENDBRANCH  63  80
ENDBRANCH  37  38
ENDBRANCH  29  32
ENDBRANCH  27  28
ENDBRANCH  26  27
ENDBRANCH  25  26
ENDBRANCH   1  25
TORSDOF 17
