REMARK SMILES CC[C@@](C)(NC(=O)[C@@H](C)NC(=O)c1ccco1)C(=O)NCCCCNC(=O)c1ccc(-c2c3nc(c(-c4c(F)cccc4F)c4ccc([nH]4)c(-c4c(F)cccc4F)c4nc(c(-c5c(F)cccc5F)c5ccc2[nH]5)C=C4)C=C3)cc1
REMARK SMILES IDX 21 1 20 2 18 3 19 4 3 6 4 7 2 8 1 9 5 10 6 11 7 13 8 14 9 15
REMARK SMILES IDX 10 16 11 17 12 19 13 20 14 21 17 22 15 23 16 24 22 25 23 26
REMARK SMILES IDX 24 27 25 28 26 29 27 31 28 32 29 33 81 34 30 35 80 36 31 37
REMARK SMILES IDX 32 38 33 39 74 40 34 41 79 42 73 43 75 44 35 45 78 46 72 47
REMARK SMILES IDX 71 48 36 50 62 51 45 52 61 53 46 54 49 55 60 56 76 57 47 58
REMARK SMILES IDX 48 59 59 61 77 62 50 63 37 64 38 65 43 66 39 67 40 68 42 69
REMARK SMILES IDX 44 70 41 71 63 72 64 73 69 74 65 75 66 76 68 77 70 78 67 79
REMARK SMILES IDX 51 80 52 81 57 82 53 83 54 84 56 85 58 86 55 87
REMARK H PARENT 20 5 5 12 10 18 25 30 75 49 49 60
REMARK Flexibility Score: inf
ROOT
ATOM      1  C   UNL     1       1.878   3.766   3.880  1.00  0.00     0.116 C 
ENDROOT
BRANCH   1   2
ATOM      2  N   UNL     1       2.678   2.979   2.949  1.00  0.00    -0.354 N 
ATOM      3  C   UNL     1       2.394   1.884   2.176  1.00  0.00     0.245 C 
ATOM      4  O   UNL     1       3.293   1.481   1.431  1.00  0.00    -0.272 OA
ATOM      5  H   UNL     1       3.605   3.298   2.857  1.00  0.00     0.163 HD
BRANCH   3   6
ATOM      6  C   UNL     1       1.063   1.112   2.293  1.00  0.00     0.116 C 
ATOM      7  C   UNL     1      -0.100   2.019   1.817  1.00  0.00     0.045 C 
BRANCH   6   8
ATOM      8  C   UNL     1       0.954  -0.191   1.450  1.00  0.00     0.035 C 
ATOM      9  C   UNL     1       1.100  -0.073  -0.065  1.00  0.00     0.007 C 
ENDBRANCH   6   8
BRANCH   6  10
ATOM     10  N   UNL     1       0.910   0.748   3.723  1.00  0.00    -0.340 N 
ATOM     11  C   UNL     1       1.645   0.020   4.610  1.00  0.00     0.243 C 
ATOM     12  H   UNL     1       0.089   1.116   4.122  1.00  0.00     0.164 HD
ATOM     13  O   UNL     1       0.983  -0.387   5.580  1.00  0.00    -0.273 OA
BRANCH  11  14
ATOM     14  C   UNL     1       3.143  -0.451   4.505  1.00  0.00     0.168 C 
ATOM     15  C   UNL     1       3.264  -1.830   3.869  1.00  0.00     0.041 C 
BRANCH  14  16
ATOM     16  N   UNL     1       4.187   0.401   3.942  1.00  0.00    -0.338 N 
ATOM     17  C   UNL     1       5.303   0.969   4.521  1.00  0.00     0.287 C 
ATOM     18  H   UNL     1       4.075   0.605   2.985  1.00  0.00     0.164 HD
ATOM     19  O   UNL     1       5.918   1.786   3.833  1.00  0.00    -0.266 OA
BRANCH  17  20
ATOM     20  C   UNL     1       5.681   0.665   5.889  1.00  0.00     0.191 A 
ATOM     21  C   UNL     1       5.775  -0.500   6.630  1.00  0.00     0.056 A 
ATOM     22  O   UNL     1       6.102   1.715   6.671  1.00  0.00    -0.459 OA
ATOM     23  C   UNL     1       6.245  -0.139   7.919  1.00  0.00     0.043 A 
ATOM     24  C   UNL     1       6.420   1.223   7.894  1.00  0.00     0.196 A 
ENDBRANCH  17  20
ENDBRANCH  14  16
ENDBRANCH  11  14
ENDBRANCH   6  10
ENDBRANCH   3   6
ENDBRANCH   1   2
BRANCH   1  25
ATOM     25  C   UNL     1       2.185   3.580   5.367  1.00  0.00     0.023 C 
BRANCH  25  26
ATOM     26  C   UNL     1       3.633   3.767   5.789  1.00  0.00     0.023 C 
BRANCH  26  27
ATOM     27  C   UNL     1       4.324   5.036   5.329  1.00  0.00     0.116 C 
BRANCH  27  28
ATOM     28  N   UNL     1       4.012   6.166   6.184  1.00  0.00    -0.352 N 
ATOM     29  C   UNL     1       4.827   6.865   7.041  1.00  0.00     0.251 C 
ATOM     30  H   UNL     1       3.079   6.477   6.145  1.00  0.00     0.163 HD
ATOM     31  O   UNL     1       4.321   7.643   7.847  1.00  0.00    -0.269 OA
BRANCH  29  32
ATOM     32  C   UNL     1       6.304   6.697   7.019  1.00  0.00     0.039 A 
ATOM     33  C   UNL     1       7.003   6.779   8.229  1.00  0.00     0.014 A 
ATOM     34  C   UNL     1       7.017   6.532   5.829  1.00  0.00     0.014 A 
ATOM     35  C   UNL     1       8.398   6.672   8.244  1.00  0.00     0.010 A 
ATOM     36  C   UNL     1       8.396   6.328   5.854  1.00  0.00     0.010 A 
ATOM     37  C   UNL     1       9.109   6.431   7.057  1.00  0.00    -0.014 A 
BRANCH  37  38
ATOM     38  C   UNL     1      10.595   6.352   7.051  1.00  0.00     0.031 A 
ATOM     39  C   UNL     1      11.402   7.370   6.286  1.00  0.00     0.074 A 
ATOM     40  C   UNL     1      11.223   5.356   7.705  1.00  0.00     0.049 A 
ATOM     41  N   UNL     1      12.701   7.455   6.134  1.00  0.00    -0.248 NA
ATOM     42  C   UNL     1      10.651   8.419   5.577  1.00  0.00     0.031 C 
ATOM     43  C   UNL     1      10.564   4.281   8.447  1.00  0.00     0.029 A 
ATOM     44  N   UNL     1      12.562   5.085   7.848  1.00  0.00    -0.354 N 
ATOM     45  C   UNL     1      12.915   8.545   5.298  1.00  0.00     0.074 A 
ATOM     46  C   UNL     1      11.615   9.060   4.934  1.00  0.00     0.031 C 
ATOM     47  C   UNL     1      11.499   3.487   8.995  1.00  0.00     0.029 A 
ATOM     48  C   UNL     1      12.822   3.973   8.611  1.00  0.00     0.049 A 
ATOM     49  H   UNL     1      13.270   5.636   7.441  1.00  0.00     0.167 HD
ATOM     50  C   UNL     1      14.088   9.086   4.889  1.00  0.00     0.037 A 
ATOM     51  C   UNL     1      13.992   3.406   8.961  1.00  0.00     0.037 A 
ATOM     52  C   UNL     1      15.384   8.600   5.282  1.00  0.00     0.049 A 
ATOM     53  C   UNL     1      15.282   4.027   8.496  1.00  0.00     0.074 A 
ATOM     54  C   UNL     1      16.629   9.124   4.978  1.00  0.00     0.029 A 
ATOM     55  N   UNL     1      15.602   7.476   6.063  1.00  0.00    -0.354 N 
ATOM     56  N   UNL     1      15.468   5.099   7.765  1.00  0.00    -0.248 NA
ATOM     57  C   UNL     1      16.525   3.359   8.909  1.00  0.00     0.031 C 
ATOM     58  C   UNL     1      17.602   8.291   5.539  1.00  0.00     0.029 A 
ATOM     59  C   UNL     1      16.962   7.277   6.233  1.00  0.00     0.049 A 
ATOM     60  H   UNL     1      14.895   6.905   6.441  1.00  0.00     0.167 HD
ATOM     61  C   UNL     1      16.845   5.251   7.656  1.00  0.00     0.074 A 
ATOM     62  C   UNL     1      17.446   4.169   8.406  1.00  0.00     0.031 C 
ATOM     63  C   UNL     1      17.547   6.201   6.992  1.00  0.00     0.037 A 
BRANCH  50  64
ATOM     64  C   UNL     1      14.023  10.273   3.971  1.00  0.00     0.057 A 
ATOM     65  C   UNL     1      13.588  11.529   4.414  1.00  0.00     0.134 A 
ATOM     66  C   UNL     1      14.438  10.168   2.638  1.00  0.00     0.134 A 
ATOM     67  F   UNL     1      13.167  11.697   5.677  1.00  0.00    -0.206 F 
ATOM     68  C   UNL     1      13.541  12.631   3.558  1.00  0.00     0.040 A 
ATOM     69  C   UNL     1      14.422  11.269   1.779  1.00  0.00     0.040 A 
ATOM     70  F   UNL     1      14.875   8.998   2.150  1.00  0.00    -0.206 F 
ATOM     71  C   UNL     1      13.966  12.503   2.237  1.00  0.00     0.006 A 
ENDBRANCH  50  64
BRANCH  51  72
ATOM     72  C   UNL     1      14.007   2.196   9.820  1.00  0.00     0.057 A 
ATOM     73  C   UNL     1      14.469   2.254  11.141  1.00  0.00     0.134 A 
ATOM     74  C   UNL     1      13.575   0.953   9.343  1.00  0.00     0.134 A 
ATOM     75  F   UNL     1      14.916   3.412  11.649  1.00  0.00    -0.206 F 
ATOM     76  C   UNL     1      14.520   1.117  11.949  1.00  0.00     0.040 A 
ATOM     77  C   UNL     1      13.596  -0.187  10.149  1.00  0.00     0.040 A 
ATOM     78  F   UNL     1      13.117   0.830   8.089  1.00  0.00    -0.206 F 
ATOM     79  C   UNL     1      14.078  -0.108  11.454  1.00  0.00     0.006 A 
ENDBRANCH  51  72
BRANCH  63  80
ATOM     80  C   UNL     1      19.044   6.138   7.078  1.00  0.00     0.057 A 
ATOM     81  C   UNL     1      19.783   5.158   6.404  1.00  0.00     0.134 A 
ATOM     82  C   UNL     1      19.756   7.094   7.813  1.00  0.00     0.134 A 
ATOM     83  F   UNL     1      19.161   4.206   5.693  1.00  0.00    -0.206 F 
ATOM     84  C   UNL     1      21.177   5.119   6.475  1.00  0.00     0.040 A 
ATOM     85  C   UNL     1      21.150   7.082   7.870  1.00  0.00     0.040 A 
ATOM     86  F   UNL     1      19.109   8.066   8.475  1.00  0.00    -0.206 F 
ATOM     87  C   UNL     1      21.864   6.087   7.205  1.00  0.00     0.006 A 
ENDBRANCH  63  80
ENDBRANCH  37  38
ENDBRANCH  29  32
ENDBRANCH  27  28
ENDBRANCH  26  27
ENDBRANCH  25  26
ENDBRANCH   1  25
TORSDOF 16
