REMARK SMILES CC(C)=C1[C@H]2CC[C@@H]1[C@@H](C(=O)Nc1cc(C)cc(C)c1)[C@@H]2C(=O)NCCCCNC(=O)c1ccc(-c2c3nc(c(-c4c(F)cccc4F)c4ccc([nH]4)c(-c4c(F)cccc4F)c4nc(c(-c5c(F)cccc5F)c5ccc2[nH]5)C=C4)C=C3)cc1
REMARK SMILES IDX 26 1 25 2 24 3 22 4 23 5 21 7 1 8 2 9 3 10 4 11 5 12 8 13
REMARK SMILES IDX 6 14 7 15 9 16 10 17 11 18 12 19 13 21 14 22 20 23 15 24
REMARK SMILES IDX 18 25 16 26 17 27 19 28 27 29 28 30 29 31 30 32 31 34 32 35
REMARK SMILES IDX 33 36 85 37 34 38 84 39 35 40 36 41 37 42 78 43 38 44 83 45
REMARK SMILES IDX 77 46 79 47 39 48 82 49 76 50 75 51 40 53 66 54 49 55 65 56
REMARK SMILES IDX 50 57 53 58 64 59 80 60 51 61 52 62 63 64 81 65 54 66 41 67
REMARK SMILES IDX 42 68 47 69 43 70 44 71 46 72 48 73 45 74 67 75 68 76 73 77
REMARK SMILES IDX 69 78 70 79 72 80 74 81 71 82 55 83 56 84 61 85 57 86 58 87
REMARK SMILES IDX 60 88 62 89 59 90
REMARK H PARENT 24 6 12 20 29 33 79 52 53 63
REMARK Flexibility Score: inf
ROOT
ATOM      1  C   UNL     1       2.000   6.928  -3.896  1.00  0.00     0.023 C 
ENDROOT
BRANCH   1   2
ATOM      2  C   UNL     1       1.046   5.750  -3.925  1.00  0.00     0.116 C 
BRANCH   2   3
ATOM      3  N   UNL     1       1.203   4.806  -4.994  1.00  0.00    -0.356 N 
ATOM      4  C   UNL     1       1.021   3.458  -4.978  1.00  0.00     0.224 C 
ATOM      5  O   UNL     1       0.898   2.920  -6.086  1.00  0.00    -0.275 OA
ATOM      6  H   UNL     1       1.481   5.187  -5.859  1.00  0.00     0.163 HD
BRANCH   4   7
ATOM      7  C   UNL     1       0.986   2.576  -3.719  1.00  0.00     0.098 C 
ATOM      8  C   UNL     1       0.115   0.641   0.582  1.00  0.00     0.039 C 
ATOM      9  C   UNL     1      -0.419   0.907  -0.801  1.00  0.00    -0.077 C 
ATOM     10  C   UNL     1      -1.772   0.335  -1.106  1.00  0.00     0.039 C 
ATOM     11  C   UNL     1       0.192   1.773  -1.631  1.00  0.00    -0.064 C 
ATOM     12  C   UNL     1      -0.311   2.469  -2.879  1.00  0.00     0.028 C 
ATOM     13  C   UNL     1       1.354   2.676  -1.328  1.00  0.00     0.028 C 
ATOM     14  C   UNL     1      -0.690   3.748  -2.125  1.00  0.00     0.009 C 
ATOM     15  C   UNL     1       0.453   3.909  -1.079  1.00  0.00     0.009 C 
ATOM     16  C   UNL     1       2.096   2.772  -2.683  1.00  0.00     0.099 C 
BRANCH  16  17
ATOM     17  C   UNL     1       3.364   1.899  -2.783  1.00  0.00     0.228 C 
ATOM     18  O   UNL     1       4.442   2.475  -2.999  1.00  0.00    -0.274 OA
ATOM     19  N   UNL     1       3.444   0.567  -2.513  1.00  0.00    -0.326 N 
ATOM     20  H   UNL     1       4.355   0.252  -2.312  1.00  0.00     0.169 HD
BRANCH  19  21
ATOM     21  C   UNL     1       2.472  -0.433  -2.470  1.00  0.00     0.041 A 
ATOM     22  C   UNL     1       1.623  -0.677  -3.544  1.00  0.00     0.029 A 
ATOM     23  C   UNL     1       2.407  -1.251  -1.343  1.00  0.00     0.029 A 
ATOM     24  C   UNL     1       0.567  -1.587  -3.430  1.00  0.00    -0.049 A 
ATOM     25  C   UNL     1       1.372  -2.188  -1.214  1.00  0.00    -0.049 A 
ATOM     26  C   UNL     1      -0.475  -1.654  -4.508  1.00  0.00     0.044 C 
ATOM     27  C   UNL     1       0.437  -2.325  -2.250  1.00  0.00     0.007 A 
ATOM     28  C   UNL     1       1.190  -2.958   0.061  1.00  0.00     0.044 C 
ENDBRANCH  19  21
ENDBRANCH  16  17
ENDBRANCH   4   7
ENDBRANCH   2   3
ENDBRANCH   1   2
BRANCH   1  29
ATOM     29  C   UNL     1       1.551   8.141  -4.696  1.00  0.00     0.023 C 
BRANCH  29  30
ATOM     30  C   UNL     1       0.086   8.546  -4.548  1.00  0.00     0.116 C 
BRANCH  30  31
ATOM     31  N   UNL     1      -0.373   8.713  -3.172  1.00  0.00    -0.352 N 
ATOM     32  C   UNL     1      -1.157   9.722  -2.646  1.00  0.00     0.251 C 
ATOM     33  H   UNL     1      -0.088   8.017  -2.537  1.00  0.00     0.163 HD
ATOM     34  O   UNL     1      -1.465   9.742  -1.469  1.00  0.00    -0.269 OA
BRANCH  32  35
ATOM     35  C   UNL     1      -1.556  10.821  -3.548  1.00  0.00     0.039 A 
ATOM     36  C   UNL     1      -1.092  12.108  -3.272  1.00  0.00     0.014 A 
ATOM     37  C   UNL     1      -2.216  10.533  -4.745  1.00  0.00     0.014 A 
ATOM     38  C   UNL     1      -1.172  13.085  -4.262  1.00  0.00     0.010 A 
ATOM     39  C   UNL     1      -2.218  11.484  -5.757  1.00  0.00     0.010 A 
ATOM     40  C   UNL     1      -1.665  12.757  -5.536  1.00  0.00    -0.014 A 
BRANCH  40  41
ATOM     41  C   UNL     1      -1.548  13.701  -6.675  1.00  0.00     0.031 A 
ATOM     42  C   UNL     1      -2.780  14.203  -7.367  1.00  0.00     0.074 A 
ATOM     43  C   UNL     1      -0.326  14.022  -7.149  1.00  0.00     0.049 A 
ATOM     44  N   UNL     1      -2.880  14.941  -8.443  1.00  0.00    -0.248 NA
ATOM     45  C   UNL     1      -4.072  13.794  -6.794  1.00  0.00     0.031 C 
ATOM     46  C   UNL     1       0.949  13.549  -6.604  1.00  0.00     0.029 A 
ATOM     47  N   UNL     1       0.043  14.811  -8.211  1.00  0.00    -0.354 N 
ATOM     48  C   UNL     1      -4.240  15.070  -8.684  1.00  0.00     0.074 A 
ATOM     49  C   UNL     1      -4.926  14.293  -7.674  1.00  0.00     0.031 C 
ATOM     50  C   UNL     1       1.957  14.074  -7.320  1.00  0.00     0.029 A 
ATOM     51  C   UNL     1       1.402  14.885  -8.398  1.00  0.00     0.049 A 
ATOM     52  H   UNL     1      -0.606  15.279  -8.785  1.00  0.00     0.167 HD
ATOM     53  C   UNL     1      -4.862  15.790  -9.646  1.00  0.00     0.037 A 
ATOM     54  C   UNL     1       2.121  15.524  -9.341  1.00  0.00     0.037 A 
ATOM     55  C   UNL     1      -4.180  16.587 -10.629  1.00  0.00     0.049 A 
ATOM     56  C   UNL     1       1.406  16.309 -10.404  1.00  0.00     0.074 A 
ATOM     57  C   UNL     1      -4.723  17.423 -11.589  1.00  0.00     0.029 A 
ATOM     58  N   UNL     1      -2.803  16.643 -10.781  1.00  0.00    -0.354 N 
ATOM     59  N   UNL     1       0.118  16.488 -10.571  1.00  0.00    -0.248 NA
ATOM     60  C   UNL     1       2.243  16.976 -11.412  1.00  0.00     0.031 C 
ATOM     61  C   UNL     1      -3.675  17.954 -12.349  1.00  0.00     0.029 A 
ATOM     62  C   UNL     1      -2.479  17.477 -11.839  1.00  0.00     0.049 A 
ATOM     63  H   UNL     1      -2.152  16.163 -10.221  1.00  0.00     0.167 HD
ATOM     64  C   UNL     1      -0.010  17.296 -11.693  1.00  0.00     0.074 A 
ATOM     65  C   UNL     1       1.331  17.589 -12.154  1.00  0.00     0.031 C 
ATOM     66  C   UNL     1      -1.138  17.751 -12.289  1.00  0.00     0.037 A 
BRANCH  53  67
ATOM     67  C   UNL     1      -6.361  15.755  -9.671  1.00  0.00     0.057 A 
ATOM     68  C   UNL     1      -7.129  16.398  -8.692  1.00  0.00     0.134 A 
ATOM     69  C   UNL     1      -7.044  15.094 -10.700  1.00  0.00     0.134 A 
ATOM     70  F   UNL     1      -6.534  17.035  -7.672  1.00  0.00    -0.206 F 
ATOM     71  C   UNL     1      -8.524  16.364  -8.720  1.00  0.00     0.040 A 
ATOM     72  C   UNL     1      -8.438  15.074 -10.752  1.00  0.00     0.040 A 
ATOM     73  F   UNL     1      -6.368  14.461 -11.670  1.00  0.00    -0.206 F 
ATOM     74  C   UNL     1      -9.182  15.706  -9.757  1.00  0.00     0.006 A 
ENDBRANCH  53  67
BRANCH  54  75
ATOM     75  C   UNL     1       3.604  15.457  -9.320  1.00  0.00     0.057 A 
ATOM     76  C   UNL     1       4.370  16.576  -8.973  1.00  0.00     0.134 A 
ATOM     77  C   UNL     1       4.290  14.283  -9.653  1.00  0.00     0.134 A 
ATOM     78  F   UNL     1       3.769  17.734  -8.664  1.00  0.00    -0.206 F 
ATOM     79  C   UNL     1       5.765  16.535  -8.971  1.00  0.00     0.040 A 
ATOM     80  C   UNL     1       5.685  14.222  -9.635  1.00  0.00     0.040 A 
ATOM     81  F   UNL     1       3.614  13.175  -9.990  1.00  0.00    -0.206 F 
ATOM     82  C   UNL     1       6.426  15.353  -9.299  1.00  0.00     0.006 A 
ENDBRANCH  54  75
BRANCH  66  83
ATOM     83  C   UNL     1      -0.970  18.615 -13.502  1.00  0.00     0.057 A 
ATOM     84  C   UNL     1      -0.596  18.076 -14.739  1.00  0.00     0.134 A 
ATOM     85  C   UNL     1      -1.228  19.990 -13.444  1.00  0.00     0.134 A 
ATOM     86  F   UNL     1      -0.322  16.768 -14.855  1.00  0.00    -0.206 F 
ATOM     87  C   UNL     1      -0.471  18.877 -15.874  1.00  0.00     0.040 A 
ATOM     88  C   UNL     1      -1.128  20.798 -14.577  1.00  0.00     0.040 A 
ATOM     89  F   UNL     1      -1.596  20.566 -12.290  1.00  0.00    -0.206 F 
ATOM     90  C   UNL     1      -0.745  20.242 -15.796  1.00  0.00     0.006 A 
ENDBRANCH  66  83
ENDBRANCH  40  41
ENDBRANCH  32  35
ENDBRANCH  30  31
ENDBRANCH  29  30
ENDBRANCH   1  29
TORSDOF 13
