REMARK SMILES C[C@H]1[C@H](C)CC[C@@]2(C(=O)NCCCCNC(=O)c3ccc(-c4c5nc(c(-c6c(F)cccc6F)c6ccc([nH]6)c(-c6c(F)cccc6F)c6nc(c(-c7c(F)cccc7F)c7ccc4[nH]7)C=C6)C=C5)cc3)CC[C@@]3(C)C(=CC[C@@H]4[C@@]5(C)CC[C@H](O)C(C)(C)[C@@H]5CC[C@]43C)[C@H]12
REMARK SMILES IDX 13 1 12 2 11 3 10 4 8 5 9 6 7 8 1 9 2 10 3 11 94 12 4 13
REMARK SMILES IDX 5 14 76 15 6 16 72 17 74 18 77 19 73 20 75 21 92 22 78 23
REMARK SMILES IDX 79 24 91 25 93 26 80 27 90 28 81 29 82 30 89 31 83 32 86 33
REMARK SMILES IDX 84 34 87 35 88 36 85 37 14 39 15 40 16 41 17 43 18 44 19 45
REMARK SMILES IDX 71 46 20 47 70 48 21 49 22 50 23 51 64 52 24 53 69 54 63 55
REMARK SMILES IDX 65 56 25 57 68 58 62 59 61 60 26 62 52 63 35 64 51 65 36 66
REMARK SMILES IDX 39 67 50 68 66 69 37 70 38 71 49 73 67 74 40 75 27 76 28 77
REMARK SMILES IDX 33 78 29 79 30 80 32 81 34 82 31 83 53 84 54 85 59 86 55 87
REMARK SMILES IDX 56 88 58 89 60 90 57 91 41 92 42 93 47 94 43 95 44 96 46 97
REMARK SMILES IDX 48 98 45 99
REMARK H PARENT 10 7 85 38 15 42 65 61 39 72
REMARK Flexibility Score: inf
ROOT
ATOM      1  C   UNL     1       3.822  -1.936  -1.881  1.00  0.00     0.023 C 
ENDROOT
BRANCH   1   2
ATOM      2  C   UNL     1       2.981  -2.120  -3.149  1.00  0.00     0.023 C 
BRANCH   2   3
ATOM      3  C   UNL     1       1.706  -1.279  -3.254  1.00  0.00     0.116 C 
BRANCH   3   4
ATOM      4  N   UNL     1       1.932   0.139  -3.433  1.00  0.00    -0.356 N 
ATOM      5  C   UNL     1       1.069   1.180  -3.620  1.00  0.00     0.226 C 
ATOM      6  O   UNL     1       1.563   2.104  -4.282  1.00  0.00    -0.274 OA
ATOM      7  H   UNL     1       2.881   0.401  -3.416  1.00  0.00     0.163 HD
BRANCH   5   8
ATOM      8  C   UNL     1      -0.390   1.299  -3.031  1.00  0.00     0.056 C 
ATOM      9  C   UNL     1      -0.284   0.469   0.831  1.00  0.00     0.008 C 
ATOM     10  C   UNL     1      -0.221   0.184  -0.682  1.00  0.00    -0.003 C 
ATOM     11  C   UNL     1      -1.295  -0.868  -1.093  1.00  0.00    -0.011 C 
ATOM     12  C   UNL     1      -0.419   1.490  -1.490  1.00  0.00     0.034 C 
ATOM     13  C   UNL     1      -1.044  -2.262  -0.491  1.00  0.00     0.008 C 
ATOM     14  C   UNL     1      -1.470  -1.063  -2.610  1.00  0.00     0.005 C 
ATOM     15  C   UNL     1       0.470   2.709  -1.200  1.00  0.00    -0.063 C 
ATOM     16  C   UNL     1      -1.312   0.158  -3.505  1.00  0.00     0.018 C 
ATOM     17  C   UNL     1      -1.039   2.620  -3.621  1.00  0.00     0.018 C 
ATOM     18  C   UNL     1      -0.138   4.077  -1.606  1.00  0.00    -0.006 C 
ATOM     19  C   UNL     1       1.769   2.571  -0.870  1.00  0.00    -0.027 C 
ATOM     20  C   UNL     1      -0.469   3.970  -3.131  1.00  0.00     0.013 C 
ATOM     21  C   UNL     1      -1.474   4.315  -0.846  1.00  0.00     0.017 C 
ATOM     22  C   UNL     1       0.887   5.306  -1.287  1.00  0.00    -0.020 C 
ATOM     23  C   UNL     1       2.793   3.665  -0.968  1.00  0.00     0.032 C 
ATOM     24  C   UNL     1       2.309   4.875  -1.808  1.00  0.00     0.006 C 
ATOM     25  C   UNL     1       0.441   6.625  -1.969  1.00  0.00     0.008 C 
ATOM     26  C   UNL     1       0.905   5.590   0.247  1.00  0.00     0.012 C 
ATOM     27  C   UNL     1       3.406   6.005  -2.055  1.00  0.00    -0.025 C 
ATOM     28  C   UNL     1       1.500   7.729  -1.910  1.00  0.00     0.005 C 
ATOM     29  C   UNL     1       4.202   6.277  -0.761  1.00  0.00     0.012 C 
ATOM     30  C   UNL     1       4.410   5.486  -3.136  1.00  0.00     0.010 C 
ATOM     31  C   UNL     1       2.747   7.287  -2.688  1.00  0.00     0.003 C 
ATOM     32  C   UNL     1       5.437   6.527  -3.585  1.00  0.00     0.033 C 
ATOM     33  C   UNL     1       3.741   8.448  -3.079  1.00  0.00    -0.006 C 
ATOM     34  C   UNL     1       4.816   7.850  -4.039  1.00  0.00     0.120 C 
ATOM     35  C   UNL     1       4.372   9.186  -1.878  1.00  0.00     0.014 C 
ATOM     36  C   UNL     1       2.986   9.551  -3.876  1.00  0.00     0.014 C 
BRANCH  34  37
ATOM     37  O   UNL     1       5.863   8.787  -4.296  1.00  0.00    -0.393 OA
ATOM     38  H   UNL     1       6.347   8.965  -3.474  1.00  0.00     0.210 HD
ENDBRANCH  34  37
ENDBRANCH   5   8
ENDBRANCH   3   4
ENDBRANCH   2   3
ENDBRANCH   1   2
BRANCH   1  39
ATOM     39  C   UNL     1       3.132  -2.188  -0.541  1.00  0.00     0.116 C 
BRANCH  39  40
ATOM     40  N   UNL     1       2.565  -3.519  -0.393  1.00  0.00    -0.352 N 
ATOM     41  C   UNL     1       2.876  -4.554   0.461  1.00  0.00     0.251 C 
ATOM     42  H   UNL     1       1.827  -3.716  -1.014  1.00  0.00     0.163 HD
ATOM     43  O   UNL     1       2.256  -5.605   0.389  1.00  0.00    -0.269 OA
BRANCH  41  44
ATOM     44  C   UNL     1       4.000  -4.437   1.418  1.00  0.00     0.039 A 
ATOM     45  C   UNL     1       4.933  -5.478   1.461  1.00  0.00     0.014 A 
ATOM     46  C   UNL     1       4.154  -3.330   2.253  1.00  0.00     0.014 A 
ATOM     47  C   UNL     1       6.078  -5.354   2.251  1.00  0.00     0.010 A 
ATOM     48  C   UNL     1       5.331  -3.174   2.986  1.00  0.00     0.010 A 
ATOM     49  C   UNL     1       6.317  -4.173   2.971  1.00  0.00    -0.014 A 
BRANCH  49  50
ATOM     50  C   UNL     1       7.619  -3.946   3.652  1.00  0.00     0.031 A 
ATOM     51  C   UNL     1       7.693  -3.790   5.144  1.00  0.00     0.074 A 
ATOM     52  C   UNL     1       8.735  -3.807   2.907  1.00  0.00     0.049 A 
ATOM     53  N   UNL     1       8.732  -3.525   5.895  1.00  0.00    -0.248 NA
ATOM     54  C   UNL     1       6.432  -3.925   5.887  1.00  0.00     0.031 C 
ATOM     55  C   UNL     1       8.792  -3.880   1.445  1.00  0.00     0.029 A 
ATOM     56  N   UNL     1      10.035  -3.566   3.276  1.00  0.00    -0.354 N 
ATOM     57  C   UNL     1       8.250  -3.445   7.194  1.00  0.00     0.074 A 
ATOM     58  C   UNL     1       6.818  -3.647   7.124  1.00  0.00     0.031 C 
ATOM     59  C   UNL     1      10.062  -3.712   1.044  1.00  0.00     0.029 A 
ATOM     60  C   UNL     1      10.904  -3.486   2.214  1.00  0.00     0.049 A 
ATOM     61  H   UNL     1      10.319  -3.460   4.213  1.00  0.00     0.167 HD
ATOM     62  C   UNL     1       8.938  -3.241   8.343  1.00  0.00     0.037 A 
ATOM     63  C   UNL     1      12.229  -3.252   2.183  1.00  0.00     0.037 A 
ATOM     64  C   UNL     1      10.366  -3.066   8.417  1.00  0.00     0.049 A 
ATOM     65  C   UNL     1      12.972  -3.043   3.472  1.00  0.00     0.074 A 
ATOM     66  C   UNL     1      11.159  -2.914   9.542  1.00  0.00     0.029 A 
ATOM     67  N   UNL     1      11.214  -3.019   7.321  1.00  0.00    -0.354 N 
ATOM     68  N   UNL     1      12.510  -3.037   4.698  1.00  0.00    -0.248 NA
ATOM     69  C   UNL     1      14.420  -2.812   3.373  1.00  0.00     0.031 C 
ATOM     70  C   UNL     1      12.483  -2.742   9.124  1.00  0.00     0.029 A 
ATOM     71  C   UNL     1      12.520  -2.825   7.742  1.00  0.00     0.049 A 
ATOM     72  H   UNL     1      10.930  -3.110   6.383  1.00  0.00     0.167 HD
ATOM     73  C   UNL     1      13.612  -2.830   5.518  1.00  0.00     0.074 A 
ATOM     74  C   UNL     1      14.766  -2.727   4.650  1.00  0.00     0.031 C 
ATOM     75  C   UNL     1      13.661  -2.733   6.868  1.00  0.00     0.037 A 
BRANCH  62  76
ATOM     76  C   UNL     1       8.151  -3.203   9.620  1.00  0.00     0.057 A 
ATOM     77  C   UNL     1       7.583  -4.360  10.170  1.00  0.00     0.134 A 
ATOM     78  C   UNL     1       7.984  -2.004  10.324  1.00  0.00     0.134 A 
ATOM     79  F   UNL     1       7.698  -5.538   9.539  1.00  0.00    -0.206 F 
ATOM     80  C   UNL     1       6.854  -4.321  11.359  1.00  0.00     0.040 A 
ATOM     81  C   UNL     1       7.279  -1.957  11.528  1.00  0.00     0.040 A 
ATOM     82  F   UNL     1       8.509  -0.861   9.857  1.00  0.00    -0.206 F 
ATOM     83  C   UNL     1       6.705  -3.117  12.045  1.00  0.00     0.006 A 
ENDBRANCH  62  76
BRANCH  63  84
ATOM     84  C   UNL     1      12.950  -3.232   0.885  1.00  0.00     0.057 A 
ATOM     85  C   UNL     1      13.820  -4.269   0.530  1.00  0.00     0.134 A 
ATOM     86  C   UNL     1      12.793  -2.180  -0.024  1.00  0.00     0.134 A 
ATOM     87  F   UNL     1      14.024  -5.295   1.369  1.00  0.00    -0.206 F 
ATOM     88  C   UNL     1      14.523  -4.253  -0.675  1.00  0.00     0.040 A 
ATOM     89  C   UNL     1      13.472  -2.162  -1.243  1.00  0.00     0.040 A 
ATOM     90  F   UNL     1      11.967  -1.161   0.255  1.00  0.00    -0.206 F 
ATOM     91  C   UNL     1      14.346  -3.198  -1.568  1.00  0.00     0.006 A 
ENDBRANCH  63  84
BRANCH  75  92
ATOM     92  C   UNL     1      15.010  -2.538   7.492  1.00  0.00     0.057 A 
ATOM     93  C   UNL     1      15.682  -1.311   7.428  1.00  0.00     0.134 A 
ATOM     94  C   UNL     1      15.628  -3.580   8.195  1.00  0.00     0.134 A 
ATOM     95  F   UNL     1      15.150  -0.279   6.756  1.00  0.00    -0.206 F 
ATOM     96  C   UNL     1      16.931  -1.133   8.026  1.00  0.00     0.040 A 
ATOM     97  C   UNL     1      16.865  -3.407   8.817  1.00  0.00     0.040 A 
ATOM     98  F   UNL     1      15.033  -4.778   8.298  1.00  0.00    -0.206 F 
ATOM     99  C   UNL     1      17.522  -2.182   8.729  1.00  0.00     0.006 A 
ENDBRANCH  75  92
ENDBRANCH  49  50
ENDBRANCH  41  44
ENDBRANCH  39  40
ENDBRANCH   1  39
TORSDOF 12
