REMARK SMILES O=C(NCCCCNC(=O)[C@@H](c1c[nH]c2cc(OCc3ccccc3)ccc12)[NH+]1CCSCC1)c1ccc(-c2c3nc(c(-c4c(F)cccc4F)c4ccc([nH]4)c(-c4c(F)cccc4F)c4nc(c(-c5c(F)cccc5F)c5ccc2[nH]5)C=C4)C=C3)cc1
REMARK SMILES IDX 6 1 5 2 4 3 3 4 1 5 2 6 35 8 36 9 88 10 37 11 87 12 38 13
REMARK SMILES IDX 39 14 40 15 81 16 41 17 86 18 80 19 82 20 42 21 85 22 79 23
REMARK SMILES IDX 78 24 43 26 69 27 52 28 68 29 53 30 56 31 67 32 83 33 54 34
REMARK SMILES IDX 55 35 66 37 84 38 57 39 44 40 45 41 50 42 46 43 47 44 49 45
REMARK SMILES IDX 51 46 48 47 70 48 71 49 76 50 72 51 73 52 75 53 77 54 74 55
REMARK SMILES IDX 58 56 59 57 64 58 60 59 61 60 63 61 65 62 62 63 7 64 8 65
REMARK SMILES IDX 9 66 10 68 11 69 12 70 13 71 28 72 14 73 15 74 27 75 16 77
REMARK SMILES IDX 26 78 17 79 18 80 19 81 20 82 21 83 25 84 22 85 24 86 23 87
REMARK SMILES IDX 29 88 30 89 34 90 31 92 33 93 32 94
REMARK H PARENT 3 7 82 25 56 36 8 67 14 76 29 91
REMARK Flexibility Score: inf
ROOT
ATOM      1  C   UNL     1       4.481   3.525   1.181  1.00  0.00     0.023 C 
ENDROOT
BRANCH   1   2
ATOM      2  C   UNL     1       4.841   2.688  -0.044  1.00  0.00     0.023 C 
BRANCH   2   3
ATOM      3  C   UNL     1       4.461   1.220   0.066  1.00  0.00     0.116 C 
BRANCH   3   4
ATOM      4  N   UNL     1       3.041   1.009   0.299  1.00  0.00    -0.352 N 
ATOM      5  O   UNL     1       1.059  -0.046  -0.007  1.00  0.00    -0.269 OA
ATOM      6  C   UNL     1       2.267  -0.026  -0.170  1.00  0.00     0.251 C 
ATOM      7  H   UNL     1       2.584   1.682   0.854  1.00  0.00     0.163 HD
BRANCH   6   8
ATOM      8  C   UNL     1       2.949  -1.106  -0.907  1.00  0.00     0.039 A 
ATOM      9  C   UNL     1       4.047  -1.748  -0.327  1.00  0.00     0.014 A 
ATOM     10  C   UNL     1       2.530  -1.422  -2.200  1.00  0.00     0.014 A 
ATOM     11  C   UNL     1       4.793  -2.639  -1.082  1.00  0.00     0.010 A 
ATOM     12  C   UNL     1       3.236  -2.377  -2.930  1.00  0.00     0.010 A 
ATOM     13  C   UNL     1       4.375  -2.984  -2.378  1.00  0.00    -0.014 A 
BRANCH  13  14
ATOM     14  C   UNL     1       5.063  -4.090  -3.080  1.00  0.00     0.031 A 
ATOM     15  C   UNL     1       5.855  -3.856  -4.331  1.00  0.00     0.074 A 
ATOM     16  C   UNL     1       4.944  -5.325  -2.556  1.00  0.00     0.049 A 
ATOM     17  N   UNL     1       6.480  -4.730  -5.077  1.00  0.00    -0.248 NA
ATOM     18  C   UNL     1       5.956  -2.470  -4.815  1.00  0.00     0.031 C 
ATOM     19  C   UNL     1       4.175  -5.655  -1.352  1.00  0.00     0.029 A 
ATOM     20  N   UNL     1       5.462  -6.526  -2.958  1.00  0.00    -0.354 N 
ATOM     21  C   UNL     1       7.027  -4.011  -6.130  1.00  0.00     0.074 A 
ATOM     22  C   UNL     1       6.658  -2.625  -5.932  1.00  0.00     0.031 C 
ATOM     23  C   UNL     1       4.294  -6.965  -1.098  1.00  0.00     0.029 A 
ATOM     24  C   UNL     1       5.087  -7.576  -2.156  1.00  0.00     0.049 A 
ATOM     25  H   UNL     1       6.046  -6.628  -3.744  1.00  0.00     0.167 HD
ATOM     26  C   UNL     1       7.769  -4.476  -7.162  1.00  0.00     0.037 A 
ATOM     27  C   UNL     1       5.322  -8.893  -2.279  1.00  0.00     0.037 A 
ATOM     28  C   UNL     1       8.150  -5.856  -7.327  1.00  0.00     0.049 A 
ATOM     29  C   UNL     1       6.128  -9.374  -3.447  1.00  0.00     0.074 A 
ATOM     30  C   UNL     1       8.969  -6.414  -8.294  1.00  0.00     0.029 A 
ATOM     31  N   UNL     1       7.729  -6.895  -6.511  1.00  0.00    -0.354 N 
ATOM     32  N   UNL     1       6.687  -8.674  -4.404  1.00  0.00    -0.248 NA
ATOM     33  C   UNL     1       6.323 -10.824  -3.562  1.00  0.00     0.031 C 
ATOM     34  C   UNL     1       9.004  -7.797  -8.092  1.00  0.00     0.029 A 
ATOM     35  C   UNL     1       8.239  -8.097  -6.976  1.00  0.00     0.049 A 
ATOM     36  H   UNL     1       7.153  -6.795  -5.719  1.00  0.00     0.167 HD
ATOM     37  C   UNL     1       7.299  -9.597  -5.237  1.00  0.00     0.074 A 
ATOM     38  C   UNL     1       7.069 -10.904  -4.654  1.00  0.00     0.031 C 
ATOM     39  C   UNL     1       7.981  -9.385  -6.388  1.00  0.00     0.037 A 
BRANCH  26  40
ATOM     40  C   UNL     1       8.214  -3.502  -8.212  1.00  0.00     0.057 A 
ATOM     41  C   UNL     1       9.270  -2.609  -7.994  1.00  0.00     0.134 A 
ATOM     42  C   UNL     1       7.642  -3.529  -9.491  1.00  0.00     0.134 A 
ATOM     43  F   UNL     1       9.855  -2.529  -6.790  1.00  0.00    -0.206 F 
ATOM     44  C   UNL     1       9.741  -1.776  -9.012  1.00  0.00     0.040 A 
ATOM     45  C   UNL     1       8.115  -2.714 -10.520  1.00  0.00     0.040 A 
ATOM     46  F   UNL     1       6.631  -4.367  -9.766  1.00  0.00    -0.206 F 
ATOM     47  C   UNL     1       9.169  -1.835 -10.282  1.00  0.00     0.006 A 
ENDBRANCH  26  40
BRANCH  27  48
ATOM     48  C   UNL     1       4.745  -9.840  -1.295  1.00  0.00     0.057 A 
ATOM     49  C   UNL     1       5.557 -10.536  -0.395  1.00  0.00     0.134 A 
ATOM     50  C   UNL     1       3.363 -10.060  -1.226  1.00  0.00     0.134 A 
ATOM     51  F   UNL     1       6.888 -10.377  -0.423  1.00  0.00    -0.206 F 
ATOM     52  C   UNL     1       5.017 -11.430   0.532  1.00  0.00     0.040 A 
ATOM     53  C   UNL     1       2.808 -10.929  -0.287  1.00  0.00     0.040 A 
ATOM     54  F   UNL     1       2.532  -9.414  -2.057  1.00  0.00    -0.206 F 
ATOM     55  C   UNL     1       3.638 -11.623   0.591  1.00  0.00     0.006 A 
ENDBRANCH  27  48
BRANCH  39  56
ATOM     56  C   UNL     1       8.514 -10.598  -7.084  1.00  0.00     0.057 A 
ATOM     57  C   UNL     1       7.669 -11.463  -7.791  1.00  0.00     0.134 A 
ATOM     58  C   UNL     1       9.882 -10.896  -7.063  1.00  0.00     0.134 A 
ATOM     59  F   UNL     1       6.347 -11.239  -7.830  1.00  0.00    -0.206 F 
ATOM     60  C   UNL     1       8.164 -12.595  -8.437  1.00  0.00     0.040 A 
ATOM     61  C   UNL     1      10.392 -12.013  -7.725  1.00  0.00     0.040 A 
ATOM     62  F   UNL     1      10.742 -10.103  -6.406  1.00  0.00    -0.206 F 
ATOM     63  C   UNL     1       9.531 -12.869  -8.409  1.00  0.00     0.006 A 
ENDBRANCH  39  56
ENDBRANCH  13  14
ENDBRANCH   6   8
ENDBRANCH   3   4
ENDBRANCH   2   3
ENDBRANCH   1   2
BRANCH   1  64
ATOM     64  C   UNL     1       5.114   3.026   2.476  1.00  0.00     0.116 C 
BRANCH  64  65
ATOM     65  N   UNL     1       6.517   3.369   2.541  1.00  0.00    -0.351 N 
ATOM     66  C   UNL     1       7.142   4.278   3.347  1.00  0.00     0.283 C 
ATOM     67  H   UNL     1       7.102   2.880   1.919  1.00  0.00     0.163 HD
ATOM     68  O   UNL     1       8.373   4.360   3.235  1.00  0.00    -0.268 OA
BRANCH  66  69
ATOM     69  C   UNL     1       6.386   5.155   4.384  1.00  0.00     0.307 C 
BRANCH  69  70
ATOM     70  C   UNL     1       5.506   6.178   3.679  1.00  0.00     0.044 A 
ATOM     71  C   UNL     1       4.167   6.070   3.330  1.00  0.00     0.094 A 
ATOM     72  C   UNL     1       5.898   7.510   3.305  1.00  0.00     0.009 A 
ATOM     73  N   UNL     1       3.791   7.195   2.654  1.00  0.00    -0.361 N 
ATOM     74  C   UNL     1       4.797   8.123   2.707  1.00  0.00     0.050 A 
ATOM     75  C   UNL     1       7.076   8.271   3.457  1.00  0.00     0.015 A 
ATOM     76  H   UNL     1       2.928   7.320   2.197  1.00  0.00     0.166 HD
ATOM     77  C   UNL     1       4.790   9.462   2.312  1.00  0.00     0.073 A 
ATOM     78  C   UNL     1       7.067   9.635   3.123  1.00  0.00     0.047 A 
ATOM     79  C   UNL     1       5.912  10.233   2.622  1.00  0.00     0.121 A 
BRANCH  79  80
ATOM     80  O   UNL     1       5.705  11.578   2.481  1.00  0.00    -0.489 OA
BRANCH  80  81
ATOM     81  C   UNL     1       6.444  12.471   3.321  1.00  0.00     0.265 C 
BRANCH  81  82
ATOM     82  C   UNL     1       6.031  12.569   4.785  1.00  0.00    -0.011 A 
ATOM     83  C   UNL     1       6.221  13.792   5.453  1.00  0.00     0.007 A 
ATOM     84  C   UNL     1       5.570  11.481   5.542  1.00  0.00     0.007 A 
ATOM     85  C   UNL     1       5.970  13.915   6.823  1.00  0.00     0.000 A 
ATOM     86  C   UNL     1       5.331  11.599   6.915  1.00  0.00     0.000 A 
ATOM     87  C   UNL     1       5.536  12.815   7.556  1.00  0.00     0.000 A 
ENDBRANCH  81  82
ENDBRANCH  80  81
ENDBRANCH  79  80
ENDBRANCH  69  70
BRANCH  69  88
ATOM     88  N   UNL     1       5.595   4.398   5.415  1.00  0.00    -0.319 N 
ATOM     89  C   UNL     1       5.452   5.257   6.623  1.00  0.00     0.274 C 
ATOM     90  C   UNL     1       6.218   3.114   5.807  1.00  0.00     0.274 C 
ATOM     91  H   UNL     1       4.691   4.172   5.000  1.00  0.00     0.349 HD
ATOM     92  C   UNL     1       4.529   4.693   7.712  1.00  0.00     0.131 C 
ATOM     93  C   UNL     1       5.323   2.281   6.736  1.00  0.00     0.131 C 
ATOM     94  S   UNL     1       5.087   3.084   8.345  1.00  0.00    -0.150 SA
ENDBRANCH  69  88
ENDBRANCH  66  69
ENDBRANCH  64  65
ENDBRANCH   1  64
TORSDOF 16
