REMARK SMILES Cc1nn(C)c2c1NC(=O)[C@@H](CCC(=O)NCCCCNC(=O)c1ccc(-c3c4nc(c(-c5c(F)cccc5F)c5ccc([nH]5)c(-c5c(F)cccc5F)c5nc(c(-c6c(F)cccc6F)c6ccc3[nH]6)C=C5)C=C4)cc1)N2
REMARK SMILES IDX 18 1 17 2 16 3 14 4 15 5 13 7 12 8 11 9 1 10 2 11 3 12 7 13
REMARK SMILES IDX 4 14 6 15 8 16 5 17 78 18 9 19 10 22 19 23 20 24 21 25 22 26
REMARK SMILES IDX 23 28 24 29 25 30 77 31 26 32 76 33 27 34 28 35 29 36 70 37
REMARK SMILES IDX 30 38 75 39 69 40 71 41 31 42 74 43 68 44 67 45 32 47 58 48
REMARK SMILES IDX 41 49 57 50 42 51 45 52 56 53 72 54 43 55 44 56 55 58 73 59
REMARK SMILES IDX 46 60 33 61 34 62 39 63 35 64 36 65 38 66 40 67 37 68 59 69
REMARK SMILES IDX 60 70 65 71 61 72 62 73 64 74 66 75 63 76 47 77 48 78 53 79
REMARK SMILES IDX 49 80 50 81 52 82 54 83 51 84
REMARK H PARENT 16 6 8 20 78 21 21 27 71 46 45 57
REMARK Flexibility Score: inf
ROOT
ATOM      1  C   UNL     1      -0.756  -0.437   5.147  1.00  0.00     0.023 C 
ENDROOT
BRANCH   1   2
ATOM      2  C   UNL     1      -2.031   0.116   4.460  1.00  0.00     0.116 C 
BRANCH   2   3
ATOM      3  N   UNL     1      -2.070   0.125   2.998  1.00  0.00    -0.356 N 
ATOM      4  C   UNL     1      -2.945  -0.395   2.077  1.00  0.00     0.220 C 
ATOM      5  O   UNL     1      -2.838   0.036   0.924  1.00  0.00    -0.275 OA
ATOM      6  H   UNL     1      -1.313   0.603   2.590  1.00  0.00     0.163 HD
BRANCH   4   7
ATOM      7  C   UNL     1      -3.985  -1.482   2.391  1.00  0.00     0.102 C 
BRANCH   7   8
ATOM      8  C   UNL     1      -3.746  -2.842   1.632  1.00  0.00     0.045 C 
BRANCH   8   9
ATOM      9  C   UNL     1      -2.883  -3.916   2.381  1.00  0.00     0.171 C 
ATOM     10  C   UNL     1       0.949  -1.105   0.285  1.00  0.00     0.071 C 
ATOM     11  C   UNL     1       0.455  -2.478   0.538  1.00  0.00     0.085 A 
ATOM     12  N   UNL     1       0.875  -3.523  -0.201  1.00  0.00    -0.174 NA
ATOM     13  C   UNL     1      -0.478  -2.915   1.487  1.00  0.00     0.107 A 
ATOM     14  N   UNL     1       0.148  -4.572   0.292  1.00  0.00    -0.251 N 
ATOM     15  C   UNL     1      -0.910  -4.132   1.043  1.00  0.00     0.149 A 
ATOM     16  N   UNL     1      -0.987  -2.418   2.656  1.00  0.00    -0.320 N 
ATOM     17  C   UNL     1       0.804  -5.851   0.448  1.00  0.00     0.176 C 
ATOM     18  N   UNL     1      -2.030  -4.753   1.484  1.00  0.00    -0.357 N 
ATOM     19  C   UNL     1      -1.979  -3.126   3.326  1.00  0.00     0.247 C 
ATOM     20  H   UNL     1      -0.654  -1.566   3.020  1.00  0.00     0.170 HD
ATOM     21  H   UNL     1      -2.262  -5.677   1.235  1.00  0.00     0.163 HD
ATOM     22  O   UNL     1      -2.266  -2.982   4.515  1.00  0.00    -0.272 OA
ENDBRANCH   8   9
ENDBRANCH   7   8
ENDBRANCH   4   7
ENDBRANCH   2   3
ENDBRANCH   1   2
BRANCH   1  23
ATOM     23  C   UNL     1       0.624  -0.121   4.535  1.00  0.00     0.023 C 
BRANCH  23  24
ATOM     24  C   UNL     1       1.629   0.313   5.604  1.00  0.00     0.116 C 
BRANCH  24  25
ATOM     25  N   UNL     1       1.787  -0.695   6.642  1.00  0.00    -0.352 N 
ATOM     26  C   UNL     1       2.590  -0.723   7.750  1.00  0.00     0.251 C 
ATOM     27  H   UNL     1       1.220  -1.492   6.528  1.00  0.00     0.163 HD
ATOM     28  O   UNL     1       2.649  -1.764   8.410  1.00  0.00    -0.269 OA
BRANCH  26  29
ATOM     29  C   UNL     1       3.424   0.430   8.155  1.00  0.00     0.039 A 
ATOM     30  C   UNL     1       4.679   0.151   8.713  1.00  0.00     0.014 A 
ATOM     31  C   UNL     1       2.988   1.755   8.072  1.00  0.00     0.014 A 
ATOM     32  C   UNL     1       5.516   1.190   9.114  1.00  0.00     0.010 A 
ATOM     33  C   UNL     1       3.834   2.796   8.450  1.00  0.00     0.010 A 
ATOM     34  C   UNL     1       5.110   2.518   8.950  1.00  0.00    -0.014 A 
BRANCH  34  35
ATOM     35  C   UNL     1       6.089   3.586   9.216  1.00  0.00     0.031 A 
ATOM     36  C   UNL     1       6.268   4.562   8.097  1.00  0.00     0.074 A 
ATOM     37  C   UNL     1       6.395   3.964  10.474  1.00  0.00     0.049 A 
ATOM     38  N   UNL     1       5.460   5.566   7.909  1.00  0.00    -0.248 NA
ATOM     39  C   UNL     1       7.173   4.319   6.975  1.00  0.00     0.031 C 
ATOM     40  C   UNL     1       5.448   3.881  11.593  1.00  0.00     0.029 A 
ATOM     41  N   UNL     1       7.451   4.692  10.973  1.00  0.00    -0.354 N 
ATOM     42  C   UNL     1       5.699   6.058   6.640  1.00  0.00     0.074 A 
ATOM     43  C   UNL     1       6.788   5.268   6.106  1.00  0.00     0.031 C 
ATOM     44  C   UNL     1       5.884   4.684  12.585  1.00  0.00     0.029 A 
ATOM     45  C   UNL     1       7.205   5.213  12.243  1.00  0.00     0.049 A 
ATOM     46  H   UNL     1       8.293   4.831  10.483  1.00  0.00     0.167 HD
ATOM     47  C   UNL     1       4.973   7.067   6.092  1.00  0.00     0.037 A 
ATOM     48  C   UNL     1       7.670   6.412  12.690  1.00  0.00     0.037 A 
ATOM     49  C   UNL     1       3.916   7.590   6.906  1.00  0.00     0.049 A 
ATOM     50  C   UNL     1       6.927   7.371  11.800  1.00  0.00     0.074 A 
ATOM     51  C   UNL     1       2.553   7.431   7.027  1.00  0.00     0.029 A 
ATOM     52  N   UNL     1       4.248   8.480   7.898  1.00  0.00    -0.354 N 
ATOM     53  N   UNL     1       5.684   7.738  11.945  1.00  0.00    -0.248 NA
ATOM     54  C   UNL     1       7.506   7.677  10.491  1.00  0.00     0.031 C 
ATOM     55  C   UNL     1       2.239   7.849   8.360  1.00  0.00     0.029 A 
ATOM     56  C   UNL     1       3.445   8.188   8.971  1.00  0.00     0.049 A 
ATOM     57  H   UNL     1       4.929   9.189   7.849  1.00  0.00     0.167 HD
ATOM     58  C   UNL     1       5.246   8.089  10.668  1.00  0.00     0.074 A 
ATOM     59  C   UNL     1       6.426   8.066   9.826  1.00  0.00     0.031 C 
ATOM     60  C   UNL     1       3.926   8.191  10.333  1.00  0.00     0.037 A 
BRANCH  47  61
ATOM     61  C   UNL     1       5.276   7.739   4.816  1.00  0.00     0.057 A 
ATOM     62  C   UNL     1       5.919   8.983   4.867  1.00  0.00     0.134 A 
ATOM     63  C   UNL     1       4.738   7.329   3.597  1.00  0.00     0.134 A 
ATOM     64  F   UNL     1       6.432   9.428   6.027  1.00  0.00    -0.206 F 
ATOM     65  C   UNL     1       5.984   9.819   3.756  1.00  0.00     0.040 A 
ATOM     66  C   UNL     1       4.803   8.155   2.470  1.00  0.00     0.040 A 
ATOM     67  F   UNL     1       4.093   6.158   3.494  1.00  0.00    -0.206 F 
ATOM     68  C   UNL     1       5.411   9.410   2.554  1.00  0.00     0.006 A 
ENDBRANCH  47  61
BRANCH  48  69
ATOM     69  C   UNL     1       9.138   6.520  12.953  1.00  0.00     0.057 A 
ATOM     70  C   UNL     1       9.782   5.503  13.685  1.00  0.00     0.134 A 
ATOM     71  C   UNL     1       9.951   7.596  12.571  1.00  0.00     0.134 A 
ATOM     72  F   UNL     1       9.076   4.487  14.206  1.00  0.00    -0.206 F 
ATOM     73  C   UNL     1      11.161   5.501  13.917  1.00  0.00     0.040 A 
ATOM     74  C   UNL     1      11.336   7.595  12.772  1.00  0.00     0.040 A 
ATOM     75  F   UNL     1       9.435   8.686  11.987  1.00  0.00    -0.206 F 
ATOM     76  C   UNL     1      11.949   6.537  13.433  1.00  0.00     0.006 A 
ENDBRANCH  48  69
BRANCH  60  77
ATOM     77  C   UNL     1       2.974   7.994  11.466  1.00  0.00     0.057 A 
ATOM     78  C   UNL     1       2.871   8.937  12.494  1.00  0.00     0.134 A 
ATOM     79  C   UNL     1       2.166   6.851  11.554  1.00  0.00     0.134 A 
ATOM     80  F   UNL     1       3.610  10.057  12.469  1.00  0.00    -0.206 F 
ATOM     81  C   UNL     1       1.997   8.751  13.567  1.00  0.00     0.040 A 
ATOM     82  C   UNL     1       1.266   6.670  12.606  1.00  0.00     0.040 A 
ATOM     83  F   UNL     1       2.224   5.888  10.620  1.00  0.00    -0.206 F 
ATOM     84  C   UNL     1       1.184   7.620  13.620  1.00  0.00     0.006 A 
ENDBRANCH  60  77
ENDBRANCH  34  35
ENDBRANCH  26  29
ENDBRANCH  24  25
ENDBRANCH  23  24
ENDBRANCH   1  23
TORSDOF 13
