REMARK SMILES CO[C@@H]1CCC[C@@H]1n1c(SCC(=O)NCCCCNC(=O)c2ccc(-c3c4nc(c(-c5c(F)cccc5F)c5ccc([nH]5)c(-c5c(F)cccc5F)c5nc(c(-c6c(F)cccc6F)c6ccc3[nH]6)C=C5)C=C4)cc2)nc2cnccc21
REMARK SMILES IDX 15 1 14 2 12 3 13 4 11 6 10 7 9 8 8 9 82 10 76 11 77 12
REMARK SMILES IDX 81 13 78 14 80 15 79 16 7 17 3 18 4 19 5 20 6 21 2 22 1 23
REMARK SMILES IDX 16 24 17 25 18 26 19 27 20 28 21 30 22 31 23 32 75 33 24 34
REMARK SMILES IDX 74 35 25 36 26 37 27 38 68 39 28 40 73 41 67 42 69 43 29 44
REMARK SMILES IDX 72 45 66 46 65 47 30 49 56 50 39 51 55 52 40 53 43 54 54 55
REMARK SMILES IDX 70 56 41 57 42 58 53 60 71 61 44 62 31 63 32 64 37 65 33 66
REMARK SMILES IDX 34 67 36 68 38 69 35 70 57 71 58 72 63 73 59 74 60 75 62 76
REMARK SMILES IDX 64 77 61 78 45 79 46 80 51 81 47 82 48 83 50 84 52 85 49 86
REMARK H PARENT 14 5 19 29 69 48 43 59
REMARK Flexibility Score: inf
ROOT
ATOM      1  C   UNL     1      -1.313  -4.436  -7.674  1.00  0.00     0.116 C 
ENDROOT
BRANCH   1   2
ATOM      2  N   UNL     1      -0.397  -3.713  -6.817  1.00  0.00    -0.355 N 
ATOM      3  C   UNL     1      -0.554  -3.720  -5.457  1.00  0.00     0.230 C 
ATOM      4  O   UNL     1      -0.794  -2.632  -4.930  1.00  0.00    -0.274 OA
ATOM      5  H   UNL     1       0.348  -3.210  -7.218  1.00  0.00     0.163 HD
BRANCH   3   6
ATOM      6  C   UNL     1      -0.326  -5.055  -4.775  1.00  0.00     0.178 C 
BRANCH   6   7
ATOM      7  S   UNL     1      -0.007  -5.036  -2.997  1.00  0.00    -0.078 SA
BRANCH   7   8
ATOM      8  C   UNL     1      -0.997  -3.747  -2.395  1.00  0.00     0.169 A 
ATOM      9  N   UNL     1      -0.482  -2.543  -1.917  1.00  0.00    -0.313 N 
ATOM     10  C   UNL     1      -1.571  -1.856  -1.391  1.00  0.00     0.072 A 
ATOM     11  N   UNL     1      -2.295  -3.848  -2.257  1.00  0.00    -0.221 NA
ATOM     12  C   UNL     1      -2.669  -2.701  -1.609  1.00  0.00     0.108 A 
ATOM     13  C   UNL     1      -1.767  -0.639  -0.729  1.00  0.00     0.049 A 
ATOM     14  C   UNL     1      -3.940  -2.325  -1.147  1.00  0.00     0.141 A 
ATOM     15  C   UNL     1      -3.056  -0.364  -0.287  1.00  0.00     0.113 A 
ATOM     16  N   UNL     1      -4.124  -1.160  -0.477  1.00  0.00    -0.262 NA
BRANCH   9  17
ATOM     17  C   UNL     1       0.953  -2.256  -1.871  1.00  0.00     0.119 C 
ATOM     18  C   UNL     1       1.510  -0.969  -1.229  1.00  0.00     0.140 C 
ATOM     19  C   UNL     1       1.282   0.118  -2.287  1.00  0.00     0.034 C 
ATOM     20  C   UNL     1       1.393  -0.614  -3.623  1.00  0.00     0.005 C 
ATOM     21  C   UNL     1       1.624  -2.078  -3.253  1.00  0.00     0.028 C 
BRANCH  18  22
ATOM     22  O   UNL     1       1.054  -0.716   0.083  1.00  0.00    -0.379 OA
ATOM     23  C   UNL     1       1.690   0.402   0.686  1.00  0.00     0.195 C 
ENDBRANCH  18  22
ENDBRANCH   9  17
ENDBRANCH   7   8
ENDBRANCH   6   7
ENDBRANCH   3   6
ENDBRANCH   1   2
BRANCH   1  24
ATOM     24  C   UNL     1      -2.610  -3.639  -7.855  1.00  0.00     0.023 C 
BRANCH  24  25
ATOM     25  C   UNL     1      -2.415  -2.189  -8.328  1.00  0.00     0.023 C 
BRANCH  25  26
ATOM     26  C   UNL     1      -1.468  -2.020  -9.518  1.00  0.00     0.116 C 
BRANCH  26  27
ATOM     27  N   UNL     1      -1.776  -2.878 -10.642  1.00  0.00    -0.352 N 
ATOM     28  C   UNL     1      -2.790  -2.924 -11.555  1.00  0.00     0.251 C 
ATOM     29  H   UNL     1      -1.105  -3.585 -10.779  1.00  0.00     0.163 HD
ATOM     30  O   UNL     1      -2.759  -3.860 -12.360  1.00  0.00    -0.269 OA
BRANCH  28  31
ATOM     31  C   UNL     1      -3.917  -1.956 -11.619  1.00  0.00     0.039 A 
ATOM     32  C   UNL     1      -3.953  -0.721 -10.971  1.00  0.00     0.014 A 
ATOM     33  C   UNL     1      -5.008  -2.318 -12.428  1.00  0.00     0.014 A 
ATOM     34  C   UNL     1      -5.075   0.096 -11.056  1.00  0.00     0.010 A 
ATOM     35  C   UNL     1      -6.113  -1.480 -12.558  1.00  0.00     0.010 A 
ATOM     36  C   UNL     1      -6.162  -0.284 -11.842  1.00  0.00    -0.014 A 
BRANCH  36  37
ATOM     37  C   UNL     1      -7.291   0.643 -11.920  1.00  0.00     0.031 A 
ATOM     38  C   UNL     1      -7.022   2.021 -12.439  1.00  0.00     0.074 A 
ATOM     39  C   UNL     1      -8.565   0.284 -11.676  1.00  0.00     0.049 A 
ATOM     40  N   UNL     1      -7.309   3.159 -11.888  1.00  0.00    -0.248 NA
ATOM     41  C   UNL     1      -6.339   2.142 -13.736  1.00  0.00     0.031 C 
ATOM     42  C   UNL     1      -9.098  -1.059 -11.448  1.00  0.00     0.029 A 
ATOM     43  N   UNL     1      -9.682   1.067 -11.709  1.00  0.00    -0.354 N 
ATOM     44  C   UNL     1      -6.980   4.142 -12.821  1.00  0.00     0.074 A 
ATOM     45  C   UNL     1      -6.327   3.464 -13.913  1.00  0.00     0.031 C 
ATOM     46  C   UNL     1     -10.439  -1.028 -11.602  1.00  0.00     0.029 A 
ATOM     47  C   UNL     1     -10.858   0.348 -11.814  1.00  0.00     0.049 A 
ATOM     48  H   UNL     1      -9.653   2.050 -11.662  1.00  0.00     0.167 HD
ATOM     49  C   UNL     1      -7.387   5.437 -12.708  1.00  0.00     0.037 A 
ATOM     50  C   UNL     1     -12.079   0.833 -12.139  1.00  0.00     0.037 A 
ATOM     51  C   UNL     1      -7.811   5.772 -11.379  1.00  0.00     0.049 A 
ATOM     52  C   UNL     1     -12.091   2.292 -11.881  1.00  0.00     0.074 A 
ATOM     53  C   UNL     1      -7.220   5.751 -10.129  1.00  0.00     0.029 A 
ATOM     54  N   UNL     1      -9.145   5.989 -11.140  1.00  0.00    -0.354 N 
ATOM     55  N   UNL     1     -12.090   2.835 -10.695  1.00  0.00    -0.248 NA
ATOM     56  C   UNL     1     -11.737   3.186 -12.974  1.00  0.00     0.031 C 
ATOM     57  C   UNL     1      -8.277   5.447  -9.223  1.00  0.00     0.029 A 
ATOM     58  C   UNL     1      -9.434   5.306  -9.988  1.00  0.00     0.049 A 
ATOM     59  H   UNL     1      -9.766   6.526 -11.684  1.00  0.00     0.167 HD
ATOM     60  C   UNL     1     -11.347   3.997 -10.838  1.00  0.00     0.074 A 
ATOM     61  C   UNL     1     -11.265   4.221 -12.277  1.00  0.00     0.031 C 
ATOM     62  C   UNL     1     -10.628   4.518  -9.801  1.00  0.00     0.037 A 
BRANCH  49  63
ATOM     63  C   UNL     1      -7.648   6.354 -13.874  1.00  0.00     0.057 A 
ATOM     64  C   UNL     1      -8.071   5.894 -15.135  1.00  0.00     0.134 A 
ATOM     65  C   UNL     1      -7.760   7.742 -13.669  1.00  0.00     0.134 A 
ATOM     66  F   UNL     1      -8.114   4.587 -15.430  1.00  0.00    -0.206 F 
ATOM     67  C   UNL     1      -8.565   6.750 -16.124  1.00  0.00     0.040 A 
ATOM     68  C   UNL     1      -8.298   8.602 -14.634  1.00  0.00     0.040 A 
ATOM     69  F   UNL     1      -7.419   8.294 -12.495  1.00  0.00    -0.206 F 
ATOM     70  C   UNL     1      -8.705   8.106 -15.867  1.00  0.00     0.006 A 
ENDBRANCH  49  63
BRANCH  50  71
ATOM     71  C   UNL     1     -13.155   0.129 -12.866  1.00  0.00     0.057 A 
ATOM     72  C   UNL     1     -12.872  -0.881 -13.806  1.00  0.00     0.134 A 
ATOM     73  C   UNL     1     -14.482   0.568 -12.817  1.00  0.00     0.134 A 
ATOM     74  F   UNL     1     -11.616  -1.300 -14.021  1.00  0.00    -0.206 F 
ATOM     75  C   UNL     1     -13.855  -1.446 -14.621  1.00  0.00     0.040 A 
ATOM     76  C   UNL     1     -15.475   0.023 -13.642  1.00  0.00     0.040 A 
ATOM     77  F   UNL     1     -14.839   1.571 -12.003  1.00  0.00    -0.206 F 
ATOM     78  C   UNL     1     -15.163  -0.990 -14.546  1.00  0.00     0.006 A 
ENDBRANCH  50  71
BRANCH  62  79
ATOM     79  C   UNL     1     -10.871   3.980  -8.422  1.00  0.00     0.057 A 
ATOM     80  C   UNL     1     -11.197   4.867  -7.389  1.00  0.00     0.134 A 
ATOM     81  C   UNL     1     -10.631   2.646  -8.062  1.00  0.00     0.134 A 
ATOM     82  F   UNL     1     -11.371   6.173  -7.647  1.00  0.00    -0.206 F 
ATOM     83  C   UNL     1     -11.302   4.444  -6.061  1.00  0.00     0.040 A 
ATOM     84  C   UNL     1     -10.766   2.204  -6.744  1.00  0.00     0.040 A 
ATOM     85  F   UNL     1     -10.200   1.753  -8.963  1.00  0.00    -0.206 F 
ATOM     86  C   UNL     1     -11.098   3.105  -5.737  1.00  0.00     0.006 A 
ENDBRANCH  62  79
ENDBRANCH  36  37
ENDBRANCH  28  31
ENDBRANCH  26  27
ENDBRANCH  25  26
ENDBRANCH  24  25
ENDBRANCH   1  24
TORSDOF 15
