REMARK SMILES C[C@@H]1CC[C@@]1(SC1CCCCC1)C(=O)NCCCCNC(=O)c1ccc(-c2c3nc(c(-c4c(F)cccc4F)c4ccc([nH]4)c(-c4c(F)cccc4F)c4nc(c(-c5c(F)cccc5F)c5ccc2[nH]5)C=C4)C=C3)cc1
REMARK SMILES IDX 17 1 16 2 15 3 13 4 14 5 5 7 1 8 2 9 3 10 4 11 6 12 7 13
REMARK SMILES IDX 8 14 12 15 9 16 11 17 10 18 18 19 19 20 20 21 21 22 22 24
REMARK SMILES IDX 23 25 24 26 76 27 25 28 75 29 26 30 27 31 28 32 69 33 29 34
REMARK SMILES IDX 74 35 68 36 70 37 30 38 73 39 67 40 66 41 31 43 57 44 40 45
REMARK SMILES IDX 56 46 41 47 44 48 55 49 71 50 42 51 43 52 54 54 72 55 45 56
REMARK SMILES IDX 32 57 33 58 38 59 34 60 35 61 37 62 39 63 36 64 58 65 59 66
REMARK SMILES IDX 64 67 60 68 61 69 63 70 65 71 62 72 46 73 47 74 52 75 48 76
REMARK SMILES IDX 49 77 51 78 53 79 50 80
REMARK H PARENT 15 6 20 23 70 42 44 53
REMARK Flexibility Score: inf
ROOT
ATOM      1  C   UNL     1       1.165   1.164  -3.839  1.00  0.00     0.023 C 
ENDROOT
BRANCH   1   2
ATOM      2  C   UNL     1       1.645   1.868  -2.577  1.00  0.00     0.116 C 
BRANCH   2   3
ATOM      3  N   UNL     1       0.539   2.461  -1.859  1.00  0.00    -0.355 N 
ATOM      4  C   UNL     1       0.037   2.194  -0.606  1.00  0.00     0.236 C 
ATOM      5  O   UNL     1      -0.864   2.965  -0.239  1.00  0.00    -0.273 OA
ATOM      6  H   UNL     1       0.067   3.174  -2.347  1.00  0.00     0.163 HD
BRANCH   4   7
ATOM      7  C   UNL     1       0.556   0.985   0.267  1.00  0.00     0.097 C 
ATOM      8  C   UNL     1      -1.413   0.149   2.020  1.00  0.00     0.009 C 
ATOM      9  C   UNL     1      -0.678   0.047   0.696  1.00  0.00     0.012 C 
ATOM     10  C   UNL     1       0.246  -1.174   0.553  1.00  0.00     0.007 C 
ATOM     11  C   UNL     1       1.155  -0.324  -0.339  1.00  0.00     0.028 C 
BRANCH   7  12
ATOM     12  S   UNL     1       1.470   1.556   1.803  1.00  0.00    -0.141 SA
BRANCH  12  13
ATOM     13  C   UNL     1       2.970   2.441   1.245  1.00  0.00     0.047 C 
ATOM     14  C   UNL     1       4.017   1.510   0.628  1.00  0.00     0.014 C 
ATOM     15  C   UNL     1       2.742   3.716   0.428  1.00  0.00     0.014 C 
ATOM     16  C   UNL     1       5.311   2.256   0.305  1.00  0.00     0.001 C 
ATOM     17  C   UNL     1       4.049   4.413   0.042  1.00  0.00     0.001 C 
ATOM     18  C   UNL     1       5.041   3.450  -0.603  1.00  0.00     0.000 C 
ENDBRANCH  12  13
ENDBRANCH   7  12
ENDBRANCH   4   7
ENDBRANCH   2   3
ENDBRANCH   1   2
BRANCH   1  19
ATOM     19  C   UNL     1       0.667   2.121  -4.925  1.00  0.00     0.023 C 
BRANCH  19  20
ATOM     20  C   UNL     1       1.685   3.163  -5.376  1.00  0.00     0.116 C 
BRANCH  20  21
ATOM     21  N   UNL     1       2.909   2.568  -5.886  1.00  0.00    -0.352 N 
ATOM     22  C   UNL     1       3.643   2.928  -6.987  1.00  0.00     0.251 C 
ATOM     23  H   UNL     1       3.259   1.805  -5.372  1.00  0.00     0.163 HD
ATOM     24  O   UNL     1       4.571   2.219  -7.369  1.00  0.00    -0.269 OA
BRANCH  22  25
ATOM     25  C   UNL     1       3.298   4.159  -7.726  1.00  0.00     0.039 A 
ATOM     26  C   UNL     1       3.252   4.117  -9.121  1.00  0.00     0.014 A 
ATOM     27  C   UNL     1       3.025   5.351  -7.048  1.00  0.00     0.014 A 
ATOM     28  C   UNL     1       2.898   5.262  -9.834  1.00  0.00     0.010 A 
ATOM     29  C   UNL     1       2.592   6.468  -7.756  1.00  0.00     0.010 A 
ATOM     30  C   UNL     1       2.546   6.442  -9.157  1.00  0.00    -0.014 A 
BRANCH  30  31
ATOM     31  C   UNL     1       2.169   7.667  -9.909  1.00  0.00     0.031 A 
ATOM     32  C   UNL     1       3.021   8.905  -9.808  1.00  0.00     0.074 A 
ATOM     33  C   UNL     1       1.046   7.676 -10.655  1.00  0.00     0.049 A 
ATOM     34  N   UNL     1       2.853  10.072 -10.376  1.00  0.00    -0.248 NA
ATOM     35  C   UNL     1       4.204   8.833  -8.934  1.00  0.00     0.031 C 
ATOM     36  C   UNL     1       0.106   6.560 -10.789  1.00  0.00     0.029 A 
ATOM     37  N   UNL     1       0.502   8.661 -11.440  1.00  0.00    -0.354 N 
ATOM     38  C   UNL     1       3.890  10.872  -9.914  1.00  0.00     0.074 A 
ATOM     39  C   UNL     1       4.656  10.078  -8.980  1.00  0.00     0.031 C 
ATOM     40  C   UNL     1      -0.882   6.915 -11.627  1.00  0.00     0.029 A 
ATOM     41  C   UNL     1      -0.665   8.290 -12.064  1.00  0.00     0.049 A 
ATOM     42  H   UNL     1       0.910   9.551 -11.547  1.00  0.00     0.167 HD
ATOM     43  C   UNL     1       4.193  12.147 -10.255  1.00  0.00     0.037 A 
ATOM     44  C   UNL     1      -1.468   8.983 -12.893  1.00  0.00     0.037 A 
ATOM     45  C   UNL     1       3.456  12.921 -11.218  1.00  0.00     0.049 A 
ATOM     46  C   UNL     1      -1.088  10.390 -13.273  1.00  0.00     0.074 A 
ATOM     47  C   UNL     1       3.730  14.194 -11.689  1.00  0.00     0.029 A 
ATOM     48  N   UNL     1       2.302  12.497 -11.857  1.00  0.00    -0.354 N 
ATOM     49  N   UNL     1      -0.051  11.100 -12.898  1.00  0.00    -0.248 NA
ATOM     50  C   UNL     1      -1.982  11.085 -14.209  1.00  0.00     0.031 C 
ATOM     51  C   UNL     1       2.712  14.560 -12.575  1.00  0.00     0.029 A 
ATOM     52  C   UNL     1       1.841  13.491 -12.703  1.00  0.00     0.049 A 
ATOM     53  H   UNL     1       1.874  11.620 -11.728  1.00  0.00     0.167 HD
ATOM     54  C   UNL     1      -0.145  12.303 -13.586  1.00  0.00     0.074 A 
ATOM     55  C   UNL     1      -1.330  12.220 -14.413  1.00  0.00     0.031 C 
ATOM     56  C   UNL     1       0.674  13.383 -13.539  1.00  0.00     0.037 A 
BRANCH  43  57
ATOM     57  C   UNL     1       5.376  12.791  -9.593  1.00  0.00     0.057 A 
ATOM     58  C   UNL     1       6.691  12.411  -9.890  1.00  0.00     0.134 A 
ATOM     59  C   UNL     1       5.199  13.858  -8.703  1.00  0.00     0.134 A 
ATOM     60  F   UNL     1       6.932  11.388 -10.724  1.00  0.00    -0.206 F 
ATOM     61  C   UNL     1       7.786  13.061  -9.318  1.00  0.00     0.040 A 
ATOM     62  C   UNL     1       6.285  14.534  -8.146  1.00  0.00     0.040 A 
ATOM     63  F   UNL     1       3.966  14.276  -8.378  1.00  0.00    -0.206 F 
ATOM     64  C   UNL     1       7.584  14.134  -8.452  1.00  0.00     0.006 A 
ENDBRANCH  43  57
BRANCH  44  65
ATOM     65  C   UNL     1      -2.705   8.368 -13.442  1.00  0.00     0.057 A 
ATOM     66  C   UNL     1      -2.841   8.107 -14.812  1.00  0.00     0.134 A 
ATOM     67  C   UNL     1      -3.805   8.088 -12.623  1.00  0.00     0.134 A 
ATOM     68  F   UNL     1      -1.829   8.369 -15.652  1.00  0.00    -0.206 F 
ATOM     69  C   UNL     1      -4.038   7.635 -15.353  1.00  0.00     0.040 A 
ATOM     70  C   UNL     1      -4.998   7.585 -13.147  1.00  0.00     0.040 A 
ATOM     71  F   UNL     1      -3.739   8.303 -11.301  1.00  0.00    -0.206 F 
ATOM     72  C   UNL     1      -5.122   7.373 -14.518  1.00  0.00     0.006 A 
ENDBRANCH  44  65
BRANCH  56  73
ATOM     73  C   UNL     1       0.356  14.526 -14.460  1.00  0.00     0.057 A 
ATOM     74  C   UNL     1      -0.769  15.341 -14.280  1.00  0.00     0.134 A 
ATOM     75  C   UNL     1       1.201  14.820 -15.538  1.00  0.00     0.134 A 
ATOM     76  F   UNL     1      -1.625  15.108 -13.273  1.00  0.00    -0.206 F 
ATOM     77  C   UNL     1      -1.067  16.378 -15.166  1.00  0.00     0.040 A 
ATOM     78  C   UNL     1       0.933  15.877 -16.409  1.00  0.00     0.040 A 
ATOM     79  F   UNL     1       2.304  14.090 -15.760  1.00  0.00    -0.206 F 
ATOM     80  C   UNL     1      -0.211  16.651 -16.232  1.00  0.00     0.006 A 
ENDBRANCH  56  73
ENDBRANCH  30  31
ENDBRANCH  22  25
ENDBRANCH  20  21
ENDBRANCH  19  20
ENDBRANCH   1  19
TORSDOF 13
