REMARK SMILES C[C@@H](C(=O)NCCCCNC(=O)c1ccc(-c2c3nc(c(-c4c(F)cccc4F)c4ccc([nH]4)c(-c4c(F)cccc4F)c4nc(c(-c5c(F)cccc5F)c5ccc2[nH]5)C=C4)C=C3)cc1)c1ccc(-c2ccc3[nH]ccc3c2)cc1
REMARK SMILES IDX 7 1 6 2 5 3 3 4 4 5 2 7 1 8 67 9 68 10 81 11 69 12 80 13
REMARK SMILES IDX 70 14 71 15 72 16 79 17 73 18 78 19 74 20 77 21 75 22 76 23
REMARK SMILES IDX 8 25 9 26 10 27 11 28 12 30 13 31 14 32 66 33 15 34 65 35
REMARK SMILES IDX 16 36 17 37 18 38 59 39 19 40 64 41 58 42 60 43 20 44 63 45
REMARK SMILES IDX 57 46 56 47 21 49 47 50 30 51 46 52 31 53 34 54 45 55 61 56
REMARK SMILES IDX 32 57 33 58 44 60 62 61 35 62 22 63 23 64 28 65 24 66 25 67
REMARK SMILES IDX 27 68 29 69 26 70 48 71 49 72 54 73 50 74 51 75 53 76 55 77
REMARK SMILES IDX 52 78 36 79 37 80 42 81 38 82 39 83 41 84 43 85 40 86
REMARK H PARENT 5 6 75 24 10 29 60 48 34 59
REMARK Flexibility Score: inf
ROOT
ATOM      1  C   UNL     1       4.204   0.174   1.295  1.00  0.00     0.023 C 
ENDROOT
BRANCH   1   2
ATOM      2  C   UNL     1       3.439  -1.129   1.534  1.00  0.00     0.116 C 
BRANCH   2   3
ATOM      3  N   UNL     1       2.403  -0.932   2.524  1.00  0.00    -0.356 N 
ATOM      4  C   UNL     1       1.071  -0.698   2.352  1.00  0.00     0.227 C 
ATOM      5  O   UNL     1       0.433  -0.380   3.357  1.00  0.00    -0.274 OA
ATOM      6  H   UNL     1       2.705  -0.973   3.461  1.00  0.00     0.163 HD
BRANCH   4   7
ATOM      7  C   UNL     1       0.436  -0.883   0.964  1.00  0.00     0.105 C 
ATOM      8  C   UNL     1       0.858   0.202  -0.037  1.00  0.00     0.023 C 
BRANCH   7   9
ATOM      9  C   UNL     1      -1.083  -0.953   1.054  1.00  0.00    -0.036 A 
ATOM     10  C   UNL     1      -1.849   0.214   1.177  1.00  0.00     0.005 A 
ATOM     11  C   UNL     1      -1.738  -2.193   1.032  1.00  0.00     0.005 A 
ATOM     12  C   UNL     1      -3.238   0.149   1.204  1.00  0.00     0.009 A 
ATOM     13  C   UNL     1      -3.134  -2.256   1.069  1.00  0.00     0.009 A 
ATOM     14  C   UNL     1      -3.896  -1.084   1.127  1.00  0.00    -0.018 A 
BRANCH  14  15
ATOM     15  C   UNL     1      -5.355  -1.111   1.062  1.00  0.00    -0.018 A 
ATOM     16  C   UNL     1      -5.995  -0.821  -0.152  1.00  0.00     0.011 A 
ATOM     17  C   UNL     1      -6.125  -1.343   2.214  1.00  0.00     0.019 A 
ATOM     18  C   UNL     1      -7.386  -0.769  -0.259  1.00  0.00     0.027 A 
ATOM     19  C   UNL     1      -7.528  -1.247   2.142  1.00  0.00    -0.000 A 
ATOM     20  C   UNL     1      -8.123  -0.982   0.908  1.00  0.00     0.045 A 
ATOM     21  C   UNL     1      -8.574  -1.324   3.102  1.00  0.00     0.028 A 
ATOM     22  N   UNL     1      -9.484  -0.971   1.110  1.00  0.00    -0.361 N 
ATOM     23  C   UNL     1      -9.765  -1.124   2.441  1.00  0.00     0.083 A 
ATOM     24  H   UNL     1     -10.158  -0.867   0.400  1.00  0.00     0.166 HD
ENDBRANCH  14  15
ENDBRANCH   7   9
ENDBRANCH   4   7
ENDBRANCH   2   3
ENDBRANCH   1   2
BRANCH   1  25
ATOM     25  C   UNL     1       4.990   0.672   2.511  1.00  0.00     0.023 C 
BRANCH  25  26
ATOM     26  C   UNL     1       5.980  -0.332   3.085  1.00  0.00     0.116 C 
BRANCH  26  27
ATOM     27  N   UNL     1       6.964  -0.768   2.108  1.00  0.00    -0.352 N 
ATOM     28  C   UNL     1       8.319  -0.928   2.261  1.00  0.00     0.251 C 
ATOM     29  H   UNL     1       6.610  -0.977   1.214  1.00  0.00     0.163 HD
ATOM     30  O   UNL     1       9.027  -1.157   1.288  1.00  0.00    -0.269 OA
BRANCH  28  31
ATOM     31  C   UNL     1       8.921  -0.791   3.603  1.00  0.00     0.039 A 
ATOM     32  C   UNL     1      10.083  -0.030   3.744  1.00  0.00     0.014 A 
ATOM     33  C   UNL     1       8.335  -1.396   4.718  1.00  0.00     0.014 A 
ATOM     34  C   UNL     1      10.625   0.172   5.013  1.00  0.00     0.010 A 
ATOM     35  C   UNL     1       8.829  -1.126   5.990  1.00  0.00     0.010 A 
ATOM     36  C   UNL     1       9.983  -0.346   6.151  1.00  0.00    -0.014 A 
BRANCH  36  37
ATOM     37  C   UNL     1      10.511  -0.083   7.513  1.00  0.00     0.031 A 
ATOM     38  C   UNL     1      10.988  -1.221   8.373  1.00  0.00     0.074 A 
ATOM     39  C   UNL     1      10.511   1.175   7.996  1.00  0.00     0.049 A 
ATOM     40  N   UNL     1      11.442  -1.195   9.600  1.00  0.00    -0.248 NA
ATOM     41  C   UNL     1      10.923  -2.569   7.786  1.00  0.00     0.031 C 
ATOM     42  C   UNL     1      10.029   2.357   7.279  1.00  0.00     0.029 A 
ATOM     43  N   UNL     1      10.927   1.668   9.207  1.00  0.00    -0.354 N 
ATOM     44  C   UNL     1      11.706  -2.518   9.933  1.00  0.00     0.074 A 
ATOM     45  C   UNL     1      11.304  -3.326   8.803  1.00  0.00     0.031 C 
ATOM     46  C   UNL     1      10.203   3.441   8.052  1.00  0.00     0.029 A 
ATOM     47  C   UNL     1      10.769   3.027   9.331  1.00  0.00     0.049 A 
ATOM     48  H   UNL     1      11.303   1.102   9.919  1.00  0.00     0.167 HD
ATOM     49  C   UNL     1      12.257  -3.013  11.067  1.00  0.00     0.037 A 
ATOM     50  C   UNL     1      11.044   3.847  10.364  1.00  0.00     0.037 A 
ATOM     51  C   UNL     1      12.670  -2.203  12.184  1.00  0.00     0.049 A 
ATOM     52  C   UNL     1      11.639   3.270  11.619  1.00  0.00     0.074 A 
ATOM     53  C   UNL     1      13.288  -2.603  13.356  1.00  0.00     0.029 A 
ATOM     54  N   UNL     1      12.501  -0.829  12.270  1.00  0.00    -0.354 N 
ATOM     55  N   UNL     1      11.952   2.026  11.892  1.00  0.00    -0.248 NA
ATOM     56  C   UNL     1      11.928   4.214  12.708  1.00  0.00     0.031 C 
ATOM     57  C   UNL     1      13.443  -1.479  14.174  1.00  0.00     0.029 A 
ATOM     58  C   UNL     1      12.979  -0.369  13.486  1.00  0.00     0.049 A 
ATOM     59  H   UNL     1      12.100  -0.264  11.570  1.00  0.00     0.167 HD
ATOM     60  C   UNL     1      12.502   2.043  13.167  1.00  0.00     0.074 A 
ATOM     61  C   UNL     1      12.495   3.423  13.607  1.00  0.00     0.031 C 
ATOM     62  C   UNL     1      12.972   1.009  13.908  1.00  0.00     0.037 A 
BRANCH  49  63
ATOM     63  C   UNL     1      12.444  -4.501  11.155  1.00  0.00     0.057 A 
ATOM     64  C   UNL     1      13.379  -5.178  10.359  1.00  0.00     0.134 A 
ATOM     65  C   UNL     1      11.706  -5.262  12.070  1.00  0.00     0.134 A 
ATOM     66  F   UNL     1      14.111  -4.512   9.454  1.00  0.00    -0.206 F 
ATOM     67  C   UNL     1      13.550  -6.561  10.450  1.00  0.00     0.040 A 
ATOM     68  C   UNL     1      11.891  -6.640  12.192  1.00  0.00     0.040 A 
ATOM     69  F   UNL     1      10.799  -4.678  12.868  1.00  0.00    -0.206 F 
ATOM     70  C   UNL     1      12.810  -7.295  11.374  1.00  0.00     0.006 A 
ENDBRANCH  49  63
BRANCH  50  71
ATOM     71  C   UNL     1      10.780   5.304  10.250  1.00  0.00     0.057 A 
ATOM     72  C   UNL     1      11.831   6.229  10.208  1.00  0.00     0.134 A 
ATOM     73  C   UNL     1       9.476   5.810  10.196  1.00  0.00     0.134 A 
ATOM     74  F   UNL     1      13.103   5.808  10.274  1.00  0.00    -0.206 F 
ATOM     75  C   UNL     1      11.595   7.603  10.141  1.00  0.00     0.040 A 
ATOM     76  C   UNL     1       9.225   7.179  10.100  1.00  0.00     0.040 A 
ATOM     77  F   UNL     1       8.425   4.977  10.223  1.00  0.00    -0.206 F 
ATOM     78  C   UNL     1      10.287   8.081  10.083  1.00  0.00     0.006 A 
ENDBRANCH  50  71
BRANCH  62  79
ATOM     79  C   UNL     1      13.558   1.335  15.252  1.00  0.00     0.057 A 
ATOM     80  C   UNL     1      12.765   1.756  16.327  1.00  0.00     0.134 A 
ATOM     81  C   UNL     1      14.933   1.195  15.480  1.00  0.00     0.134 A 
ATOM     82  F   UNL     1      11.443   1.922  16.174  1.00  0.00    -0.206 F 
ATOM     83  C   UNL     1      13.323   2.053  17.572  1.00  0.00     0.040 A 
ATOM     84  C   UNL     1      15.498   1.458  16.729  1.00  0.00     0.040 A 
ATOM     85  F   UNL     1      15.750   0.786  14.497  1.00  0.00    -0.206 F 
ATOM     86  C   UNL     1      14.693   1.897  17.777  1.00  0.00     0.006 A 
ENDBRANCH  62  79
ENDBRANCH  36  37
ENDBRANCH  28  31
ENDBRANCH  26  27
ENDBRANCH  25  26
ENDBRANCH   1  25
TORSDOF 13
