REMARK SMILES CC1(C)[C@H]2CC[C@]1(C)C(=O)N(CC(=O)NCCCCNC(=O)c1ccc(-c3c4nc(c(-c5c(F)cccc5F)c5ccc([nH]5)c(-c5c(F)cccc5F)c5nc(c(-c6c(F)cccc6F)c6ccc3[nH]6)C=C5)C=C4)cc1)C2=O
REMARK SMILES IDX 18 1 17 2 16 3 15 4 13 5 14 6 12 8 11 9 1 10 2 11 4 12 7 13
REMARK SMILES IDX 3 14 5 15 77 16 6 17 9 18 8 19 78 20 10 21 19 22 20 23 21 24
REMARK SMILES IDX 22 26 23 27 24 28 76 29 25 30 75 31 26 32 27 33 28 34 69 35
REMARK SMILES IDX 29 36 74 37 68 38 70 39 30 40 73 41 67 42 66 43 31 45 57 46
REMARK SMILES IDX 40 47 56 48 41 49 44 50 55 51 71 52 42 53 43 54 54 56 72 57
REMARK SMILES IDX 45 58 32 59 33 60 38 61 34 62 35 63 37 64 39 65 36 66 58 67
REMARK SMILES IDX 59 68 64 69 60 70 61 71 63 72 65 73 62 74 46 75 47 76 52 77
REMARK SMILES IDX 48 78 49 79 51 80 53 81 50 82
REMARK H PARENT 15 7 20 25 70 44 44 55
REMARK Flexibility Score: inf
ROOT
ATOM      1  C   UNL     1      -0.494   3.135   0.486  1.00  0.00     0.023 C 
ENDROOT
BRANCH   1   2
ATOM      2  C   UNL     1      -1.446   1.998   0.204  1.00  0.00     0.023 C 
BRANCH   2   3
ATOM      3  C   UNL     1      -2.949   2.269   0.161  1.00  0.00     0.116 C 
BRANCH   3   4
ATOM      4  N   UNL     1      -3.392   2.630  -1.182  1.00  0.00    -0.355 N 
ATOM      5  C   UNL     1      -3.850   1.857  -2.219  1.00  0.00     0.240 C 
ATOM      6  O   UNL     1      -4.016   2.430  -3.302  1.00  0.00    -0.273 OA
ATOM      7  H   UNL     1      -3.355   3.594  -1.377  1.00  0.00     0.163 HD
BRANCH   5   8
ATOM      8  C   UNL     1      -4.014   0.324  -2.104  1.00  0.00     0.228 C 
BRANCH   8   9
ATOM      9  N   UNL     1      -2.784  -0.282  -2.601  1.00  0.00    -0.272 N 
ATOM     10  C   UNL     1      -0.285  -2.661  -2.071  1.00  0.00     0.013 C 
ATOM     11  C   UNL     1      -0.141  -1.518  -3.094  1.00  0.00    -0.010 C 
ATOM     12  C   UNL     1      -0.384  -0.141  -2.490  1.00  0.00     0.086 C 
ATOM     13  C   UNL     1      -1.260  -1.450  -4.191  1.00  0.00     0.053 C 
ATOM     14  C   UNL     1       1.315  -1.577  -3.618  1.00  0.00     0.013 C 
ATOM     15  C   UNL     1      -0.483   0.804  -3.720  1.00  0.00     0.015 C 
ATOM     16  C   UNL     1      -1.712  -0.279  -1.766  1.00  0.00     0.233 C 
ATOM     17  C   UNL     1      -0.953  -0.100  -4.884  1.00  0.00     0.018 C 
ATOM     18  C   UNL     1      -2.719  -1.210  -3.622  1.00  0.00     0.236 C 
ATOM     19  C   UNL     1      -1.225  -2.645  -5.134  1.00  0.00     0.022 C 
ATOM     20  O   UNL     1      -1.803  -0.561  -0.574  1.00  0.00    -0.274 OA
ATOM     21  O   UNL     1      -3.708  -1.780  -4.075  1.00  0.00    -0.274 OA
ENDBRANCH   8   9
ENDBRANCH   5   8
ENDBRANCH   3   4
ENDBRANCH   2   3
ENDBRANCH   1   2
BRANCH   1  22
ATOM     22  C   UNL     1      -0.378   3.498   1.947  1.00  0.00     0.116 C 
BRANCH  22  23
ATOM     23  N   UNL     1       0.101   2.421   2.813  1.00  0.00    -0.352 N 
ATOM     24  C   UNL     1       1.054   2.462   3.808  1.00  0.00     0.251 C 
ATOM     25  H   UNL     1      -0.317   1.542   2.664  1.00  0.00     0.163 HD
ATOM     26  O   UNL     1       1.370   1.444   4.417  1.00  0.00    -0.269 OA
BRANCH  24  27
ATOM     27  C   UNL     1       1.740   3.739   4.092  1.00  0.00     0.039 A 
ATOM     28  C   UNL     1       3.130   3.757   4.234  1.00  0.00     0.014 A 
ATOM     29  C   UNL     1       1.017   4.930   4.100  1.00  0.00     0.014 A 
ATOM     30  C   UNL     1       3.798   4.982   4.271  1.00  0.00     0.010 A 
ATOM     31  C   UNL     1       1.690   6.132   3.972  1.00  0.00     0.010 A 
ATOM     32  C   UNL     1       3.086   6.177   4.080  1.00  0.00    -0.014 A 
BRANCH  32  33
ATOM     33  C   UNL     1       3.755   7.500   4.035  1.00  0.00     0.031 A 
ATOM     34  C   UNL     1       3.329   8.568   5.008  1.00  0.00     0.074 A 
ATOM     35  C   UNL     1       4.652   7.773   3.067  1.00  0.00     0.049 A 
ATOM     36  N   UNL     1       3.669   9.830   5.054  1.00  0.00    -0.248 NA
ATOM     37  C   UNL     1       2.337   8.183   6.029  1.00  0.00     0.031 C 
ATOM     38  C   UNL     1       5.075   6.851   2.009  1.00  0.00     0.029 A 
ATOM     39  N   UNL     1       5.360   8.918   2.806  1.00  0.00    -0.354 N 
ATOM     40  C   UNL     1       2.897  10.389   6.065  1.00  0.00     0.074 A 
ATOM     41  C   UNL     1       2.024   9.352   6.562  1.00  0.00     0.031 C 
ATOM     42  C   UNL     1       5.992   7.457   1.235  1.00  0.00     0.029 A 
ATOM     43  C   UNL     1       6.195   8.818   1.719  1.00  0.00     0.049 A 
ATOM     44  H   UNL     1       5.277   9.737   3.347  1.00  0.00     0.167 HD
ATOM     45  C   UNL     1       2.939  11.645   6.562  1.00  0.00     0.037 A 
ATOM     46  C   UNL     1       7.030   9.725   1.180  1.00  0.00     0.037 A 
ATOM     47  C   UNL     1       3.880  12.639   6.129  1.00  0.00     0.049 A 
ATOM     48  C   UNL     1       7.131  11.084   1.817  1.00  0.00     0.074 A 
ATOM     49  C   UNL     1       4.098  13.903   6.646  1.00  0.00     0.029 A 
ATOM     50  N   UNL     1       4.775  12.469   5.085  1.00  0.00    -0.354 N 
ATOM     51  N   UNL     1       6.461  11.571   2.833  1.00  0.00    -0.248 NA
ATOM     52  C   UNL     1       8.112  12.015   1.242  1.00  0.00     0.031 C 
ATOM     53  C   UNL     1       5.109  14.509   5.895  1.00  0.00     0.029 A 
ATOM     54  C   UNL     1       5.542  13.609   4.934  1.00  0.00     0.049 A 
ATOM     55  H   UNL     1       4.853  11.657   4.533  1.00  0.00     0.167 HD
ATOM     56  C   UNL     1       6.954  12.853   3.035  1.00  0.00     0.074 A 
ATOM     57  C   UNL     1       7.992  13.061   2.047  1.00  0.00     0.031 C 
ATOM     58  C   UNL     1       6.580  13.779   3.951  1.00  0.00     0.037 A 
BRANCH  45  59
ATOM     59  C   UNL     1       1.966  11.999   7.648  1.00  0.00     0.057 A 
ATOM     60  C   UNL     1       2.072  11.469   8.940  1.00  0.00     0.134 A 
ATOM     61  C   UNL     1       0.927  12.905   7.404  1.00  0.00     0.134 A 
ATOM     62  F   UNL     1       3.034  10.581   9.234  1.00  0.00    -0.206 F 
ATOM     63  C   UNL     1       1.165  11.808   9.945  1.00  0.00     0.040 A 
ATOM     64  C   UNL     1       0.030  13.274   8.409  1.00  0.00     0.040 A 
ATOM     65  F   UNL     1       0.768  13.451   6.189  1.00  0.00    -0.206 F 
ATOM     66  C   UNL     1       0.145  12.720   9.682  1.00  0.00     0.006 A 
ENDBRANCH  45  59
BRANCH  46  67
ATOM     67  C   UNL     1       7.862   9.374   0.001  1.00  0.00     0.057 A 
ATOM     68  C   UNL     1       9.248   9.210   0.118  1.00  0.00     0.134 A 
ATOM     69  C   UNL     1       7.301   9.210  -1.270  1.00  0.00     0.134 A 
ATOM     70  F   UNL     1       9.848   9.368   1.307  1.00  0.00    -0.206 F 
ATOM     71  C   UNL     1      10.049   8.923  -0.989  1.00  0.00     0.040 A 
ATOM     72  C   UNL     1       8.086   8.900  -2.383  1.00  0.00     0.040 A 
ATOM     73  F   UNL     1       5.978   9.343  -1.449  1.00  0.00    -0.206 F 
ATOM     74  C   UNL     1       9.466   8.765  -2.245  1.00  0.00     0.006 A 
ENDBRANCH  46  67
BRANCH  58  75
ATOM     75  C   UNL     1       7.318  15.082   3.945  1.00  0.00     0.057 A 
ATOM     76  C   UNL     1       7.099  16.045   2.953  1.00  0.00     0.134 A 
ATOM     77  C   UNL     1       8.218  15.394   4.971  1.00  0.00     0.134 A 
ATOM     78  F   UNL     1       6.256  15.799   1.940  1.00  0.00    -0.206 F 
ATOM     79  C   UNL     1       7.767  17.270   2.971  1.00  0.00     0.040 A 
ATOM     80  C   UNL     1       8.873  16.624   5.013  1.00  0.00     0.040 A 
ATOM     81  F   UNL     1       8.461  14.515   5.955  1.00  0.00    -0.206 F 
ATOM     82  C   UNL     1       8.652  17.564   4.008  1.00  0.00     0.006 A 
ENDBRANCH  58  75
ENDBRANCH  32  33
ENDBRANCH  24  27
ENDBRANCH  22  23
ENDBRANCH   1  22
TORSDOF 12
