REMARK SMILES C[C@@H](C(=O)NCCCCNC(=O)c1ccc(-c2c3nc(c(-c4c(F)cccc4F)c4ccc([nH]4)c(-c4c(F)cccc4F)c4nc(c(-c5c(F)cccc5F)c5ccc2[nH]5)C=C4)C=C3)cc1)[N@@H+]1CCc2n[nH]c(C(c3ccccc3)c3ccccc3)c2C1
REMARK SMILES IDX 7 1 6 2 5 3 3 4 4 5 2 7 1 8 67 9 68 10 88 11 69 13 87 14
REMARK SMILES IDX 70 15 73 16 71 17 72 18 74 20 75 21 76 22 80 23 77 24 79 25
REMARK SMILES IDX 78 26 81 27 82 28 86 29 83 30 85 31 84 32 8 33 9 34 10 35
REMARK SMILES IDX 11 36 12 38 13 39 14 40 66 41 15 42 65 43 16 44 17 45 18 46
REMARK SMILES IDX 59 47 19 48 64 49 58 50 60 51 20 52 63 53 57 54 56 55 21 57
REMARK SMILES IDX 47 58 30 59 46 60 31 61 34 62 45 63 61 64 32 65 33 66 44 68
REMARK SMILES IDX 62 69 35 70 22 71 23 72 28 73 24 74 25 75 27 76 29 77 26 78
REMARK SMILES IDX 48 79 49 80 54 81 50 82 51 83 53 84 55 85 52 86 36 87 37 88
REMARK SMILES IDX 42 89 38 90 39 91 41 92 43 93 40 94
REMARK H PARENT 5 6 67 12 72 19 10 37 60 56 34 67
REMARK Flexibility Score: inf
ROOT
ATOM      1  C   UNL     1       4.628   0.335  -0.772  1.00  0.00     0.023 C 
ENDROOT
BRANCH   1   2
ATOM      2  C   UNL     1       3.897   1.635  -0.464  1.00  0.00     0.116 C 
BRANCH   2   3
ATOM      3  N   UNL     1       2.725   1.842  -1.289  1.00  0.00    -0.351 N 
ATOM      4  C   UNL     1       1.486   2.185  -0.789  1.00  0.00     0.278 C 
ATOM      5  O   UNL     1       1.100   3.339  -0.997  1.00  0.00    -0.268 OA
ATOM      6  H   UNL     1       2.818   1.732  -2.263  1.00  0.00     0.163 HD
BRANCH   4   7
ATOM      7  C   UNL     1       0.501   1.060  -0.311  1.00  0.00     0.271 C 
ATOM      8  C   UNL     1       1.134  -0.062   0.509  1.00  0.00     0.086 C 
BRANCH   7   9
ATOM      9  N   UNL     1      -0.343   0.618  -1.461  1.00  0.00    -0.321 N 
ATOM     10  C   UNL     1      -1.355  -0.452  -1.189  1.00  0.00     0.269 C 
ATOM     11  C   UNL     1       0.419   0.401  -2.692  1.00  0.00     0.303 C 
ATOM     12  H   UNL     1      -0.933   1.435  -1.621  1.00  0.00     0.349 HD
ATOM     13  C   UNL     1      -1.692  -1.432  -2.376  1.00  0.00     0.120 C 
ATOM     14  C   UNL     1       0.738  -1.045  -2.829  1.00  0.00     0.052 A 
ATOM     15  C   UNL     1      -0.428  -1.804  -3.060  1.00  0.00     0.077 A 
ATOM     16  C   UNL     1       1.697  -1.799  -3.477  1.00  0.00     0.056 A 
ATOM     17  N   UNL     1      -0.325  -2.452  -4.226  1.00  0.00    -0.180 NA
ATOM     18  N   UNL     1       0.962  -2.213  -4.569  1.00  0.00    -0.281 N 
ATOM     19  H   UNL     1       1.325  -2.321  -5.477  1.00  0.00     0.190 HD
BRANCH  16  20
ATOM     20  C   UNL     1       2.999  -2.493  -3.090  1.00  0.00     0.098 C 
BRANCH  20  21
ATOM     21  C   UNL     1       3.022  -3.217  -1.722  1.00  0.00    -0.035 A 
ATOM     22  C   UNL     1       4.235  -3.286  -1.001  1.00  0.00     0.005 A 
ATOM     23  C   UNL     1       1.940  -3.968  -1.233  1.00  0.00     0.005 A 
ATOM     24  C   UNL     1       4.364  -4.068   0.151  1.00  0.00     0.000 A 
ATOM     25  C   UNL     1       2.076  -4.768  -0.089  1.00  0.00     0.000 A 
ATOM     26  C   UNL     1       3.287  -4.822   0.599  1.00  0.00     0.000 A 
ENDBRANCH  20  21
BRANCH  20  27
ATOM     27  C   UNL     1       3.500  -3.388  -4.237  1.00  0.00    -0.035 A 
ATOM     28  C   UNL     1       3.409  -4.790  -4.201  1.00  0.00     0.005 A 
ATOM     29  C   UNL     1       3.937  -2.776  -5.427  1.00  0.00     0.005 A 
ATOM     30  C   UNL     1       3.710  -5.553  -5.327  1.00  0.00     0.000 A 
ATOM     31  C   UNL     1       4.205  -3.540  -6.561  1.00  0.00     0.000 A 
ATOM     32  C   UNL     1       4.087  -4.927  -6.511  1.00  0.00     0.000 A 
ENDBRANCH  20  27
ENDBRANCH  16  20
ENDBRANCH   7   9
ENDBRANCH   4   7
ENDBRANCH   2   3
ENDBRANCH   1   2
BRANCH   1  33
ATOM     33  C   UNL     1       5.169   0.202  -2.197  1.00  0.00     0.023 C 
BRANCH  33  34
ATOM     34  C   UNL     1       6.159   1.246  -2.676  1.00  0.00     0.116 C 
BRANCH  34  35
ATOM     35  N   UNL     1       7.343   1.330  -1.842  1.00  0.00    -0.352 N 
ATOM     36  C   UNL     1       8.657   1.041  -2.108  1.00  0.00     0.251 C 
ATOM     37  H   UNL     1       7.175   1.651  -0.927  1.00  0.00     0.163 HD
ATOM     38  O   UNL     1       9.467   1.046  -1.175  1.00  0.00    -0.269 OA
BRANCH  36  39
ATOM     39  C   UNL     1       9.124   0.696  -3.471  1.00  0.00     0.039 A 
ATOM     40  C   UNL     1      10.140  -0.257  -3.612  1.00  0.00     0.014 A 
ATOM     41  C   UNL     1       8.610   1.319  -4.609  1.00  0.00     0.014 A 
ATOM     42  C   UNL     1      10.584  -0.628  -4.885  1.00  0.00     0.010 A 
ATOM     43  C   UNL     1       8.975   0.873  -5.877  1.00  0.00     0.010 A 
ATOM     44  C   UNL     1       9.975  -0.097  -6.032  1.00  0.00    -0.014 A 
BRANCH  44  45
ATOM     45  C   UNL     1      10.380  -0.522  -7.398  1.00  0.00     0.031 A 
ATOM     46  C   UNL     1      10.925   0.488  -8.373  1.00  0.00     0.074 A 
ATOM     47  C   UNL     1      10.189  -1.799  -7.787  1.00  0.00     0.049 A 
ATOM     48  N   UNL     1      11.235   0.337  -9.636  1.00  0.00    -0.248 NA
ATOM     49  C   UNL     1      11.115   1.859  -7.871  1.00  0.00     0.031 C 
ATOM     50  C   UNL     1       9.627  -2.864  -6.954  1.00  0.00     0.029 A 
ATOM     51  N   UNL     1      10.433  -2.415  -8.990  1.00  0.00    -0.354 N 
ATOM     52  C   UNL     1      11.631   1.593 -10.081  1.00  0.00     0.074 A 
ATOM     53  C   UNL     1      11.471   2.505  -8.971  1.00  0.00     0.031 C 
ATOM     54  C   UNL     1       9.590  -4.004  -7.662  1.00  0.00     0.029 A 
ATOM     55  C   UNL     1      10.078  -3.742  -9.012  1.00  0.00     0.049 A 
ATOM     56  H   UNL     1      10.826  -1.949  -9.764  1.00  0.00     0.167 HD
ATOM     57  C   UNL     1      12.107   1.949 -11.298  1.00  0.00     0.037 A 
ATOM     58  C   UNL     1      10.123  -4.643 -10.013  1.00  0.00     0.037 A 
ATOM     59  C   UNL     1      12.299   1.030 -12.389  1.00  0.00     0.049 A 
ATOM     60  C   UNL     1      10.646  -4.220 -11.358  1.00  0.00     0.074 A 
ATOM     61  C   UNL     1      12.848   1.277 -13.635  1.00  0.00     0.029 A 
ATOM     62  N   UNL     1      11.944  -0.310 -12.364  1.00  0.00    -0.354 N 
ATOM     63  N   UNL     1      11.089  -3.047 -11.741  1.00  0.00    -0.248 NA
ATOM     64  C   UNL     1      10.675  -5.244 -12.412  1.00  0.00     0.031 C 
ATOM     65  C   UNL     1      12.771   0.100 -14.385  1.00  0.00     0.029 A 
ATOM     66  C   UNL     1      12.229  -0.894 -13.587  1.00  0.00     0.049 A 
ATOM     67  H   UNL     1      11.547  -0.776 -11.593  1.00  0.00     0.167 HD
ATOM     68  C   UNL     1      11.473  -3.198 -13.067  1.00  0.00     0.074 A 
ATOM     69  C   UNL     1      11.226  -4.581 -13.419  1.00  0.00     0.031 C 
ATOM     70  C   UNL     1      11.983  -2.275 -13.919  1.00  0.00     0.037 A 
BRANCH  57  71
ATOM     71  C   UNL     1      12.453   3.394 -11.518  1.00  0.00     0.057 A 
ATOM     72  C   UNL     1      13.547   4.001 -10.888  1.00  0.00     0.134 A 
ATOM     73  C   UNL     1      11.707   4.178 -12.408  1.00  0.00     0.134 A 
ATOM     74  F   UNL     1      14.298   3.311 -10.016  1.00  0.00    -0.206 F 
ATOM     75  C   UNL     1      13.871   5.340 -11.114  1.00  0.00     0.040 A 
ATOM     76  C   UNL     1      12.039   5.510 -12.665  1.00  0.00     0.040 A 
ATOM     77  F   UNL     1      10.650   3.660 -13.052  1.00  0.00    -0.206 F 
ATOM     78  C   UNL     1      13.120   6.096 -12.012  1.00  0.00     0.006 A 
ENDBRANCH  57  71
BRANCH  58  79
ATOM     79  C   UNL     1       9.662  -6.038  -9.783  1.00  0.00     0.057 A 
ATOM     80  C   UNL     1      10.563  -7.109  -9.794  1.00  0.00     0.134 A 
ATOM     81  C   UNL     1       8.311  -6.336  -9.562  1.00  0.00     0.134 A 
ATOM     82  F   UNL     1      11.867  -6.891 -10.018  1.00  0.00    -0.206 F 
ATOM     83  C   UNL     1      10.137  -8.427  -9.618  1.00  0.00     0.040 A 
ATOM     84  C   UNL     1       7.875  -7.646  -9.356  1.00  0.00     0.040 A 
ATOM     85  F   UNL     1       7.396  -5.356  -9.532  1.00  0.00    -0.206 F 
ATOM     86  C   UNL     1       8.789  -8.697  -9.393  1.00  0.00     0.006 A 
ENDBRANCH  58  79
BRANCH  70  87
ATOM     87  C   UNL     1      12.337  -2.732 -15.304  1.00  0.00     0.057 A 
ATOM     88  C   UNL     1      11.355  -3.036 -16.255  1.00  0.00     0.134 A 
ATOM     89  C   UNL     1      13.676  -2.810 -15.708  1.00  0.00     0.134 A 
ATOM     90  F   UNL     1      10.055  -2.993 -15.928  1.00  0.00    -0.206 F 
ATOM     91  C   UNL     1      11.694  -3.419 -17.554  1.00  0.00     0.040 A 
ATOM     92  C   UNL     1      14.026  -3.163 -17.011  1.00  0.00     0.040 A 
ATOM     93  F   UNL     1      14.665  -2.522 -14.848  1.00  0.00    -0.206 F 
ATOM     94  C   UNL     1      13.033  -3.474 -17.938  1.00  0.00     0.006 A 
ENDBRANCH  70  87
ENDBRANCH  44  45
ENDBRANCH  36  39
ENDBRANCH  34  35
ENDBRANCH  33  34
ENDBRANCH   1  33
TORSDOF 15
