REMARK SMILES Cc1nc(S[C@@H](C(=O)NCCCCNC(=O)c2ccc(-c3c4nc(c(-c5c(F)cccc5F)c5ccc([nH]5)c(-c5c(F)cccc5F)c5nc(c(-c6c(F)cccc6F)c6ccc3[nH]6)C=C5)C=C4)cc2)c2ccccc2)nc2ccccc12
REMARK SMILES IDX 11 1 10 2 9 3 7 4 8 5 6 7 5 8 4 9 1 10 2 11 3 12 83 13 78 14
REMARK SMILES IDX 82 15 77 16 79 17 81 18 80 19 71 20 72 21 76 22 73 23 75 24
REMARK SMILES IDX 74 25 12 26 13 27 14 28 15 29 16 31 17 32 18 33 70 34 19 35
REMARK SMILES IDX 69 36 20 37 21 38 22 39 63 40 23 41 68 42 62 43 64 44 24 45
REMARK SMILES IDX 67 46 61 47 60 48 25 50 51 51 34 52 50 53 35 54 38 55 49 56
REMARK SMILES IDX 65 57 36 58 37 59 48 61 66 62 39 63 26 64 27 65 32 66 28 67
REMARK SMILES IDX 29 68 31 69 33 70 30 71 52 72 53 73 58 74 54 75 55 76 57 77
REMARK SMILES IDX 59 78 56 79 40 80 41 81 46 82 42 83 43 84 45 85 47 86 44 87
REMARK H PARENT 9 6 14 30 64 49 38 60
REMARK Flexibility Score: inf
ROOT
ATOM      1  C   UNL     1       4.047   5.732   2.064  1.00  0.00     0.023 C 
ENDROOT
BRANCH   1   2
ATOM      2  C   UNL     1       4.414   5.763   0.580  1.00  0.00     0.116 C 
BRANCH   2   3
ATOM      3  N   UNL     1       4.511   4.427   0.022  1.00  0.00    -0.355 N 
ATOM      4  C   UNL     1       3.687   3.741  -0.833  1.00  0.00     0.238 C 
ATOM      5  O   UNL     1       4.079   2.607  -1.122  1.00  0.00    -0.273 OA
ATOM      6  H   UNL     1       5.308   3.925   0.308  1.00  0.00     0.163 HD
BRANCH   4   7
ATOM      7  C   UNL     1       2.457   4.431  -1.461  1.00  0.00     0.174 C 
BRANCH   7   8
ATOM      8  S   UNL     1       1.222   4.984  -0.218  1.00  0.00    -0.068 SA
BRANCH   8   9
ATOM      9  C   UNL     1       0.731   3.486   0.580  1.00  0.00     0.189 A 
ATOM     10  C   UNL     1       1.202  -0.088   0.136  1.00  0.00     0.067 C 
ATOM     11  C   UNL     1       0.688   1.197   0.718  1.00  0.00     0.050 A 
ATOM     12  N   UNL     1       1.202   2.314   0.159  1.00  0.00    -0.227 NA
ATOM     13  C   UNL     1      -0.303   1.238   1.708  1.00  0.00     0.022 A 
ATOM     14  C   UNL     1      -0.671   2.527   2.114  1.00  0.00     0.075 A 
ATOM     15  C   UNL     1      -0.935   0.114   2.298  1.00  0.00     0.012 A 
ATOM     16  N   UNL     1      -0.162   3.634   1.567  1.00  0.00    -0.222 NA
ATOM     17  C   UNL     1      -1.624   2.664   3.116  1.00  0.00     0.029 A 
ATOM     18  C   UNL     1      -1.899   0.278   3.291  1.00  0.00     0.001 A 
ATOM     19  C   UNL     1      -2.239   1.558   3.707  1.00  0.00     0.002 A 
ENDBRANCH   8   9
ENDBRANCH   7   8
BRANCH   7  20
ATOM     20  C   UNL     1       1.794   3.782  -2.678  1.00  0.00    -0.025 A 
ATOM     21  C   UNL     1       1.769   2.398  -2.904  1.00  0.00     0.005 A 
ATOM     22  C   UNL     1       1.132   4.604  -3.612  1.00  0.00     0.005 A 
ATOM     23  C   UNL     1       1.125   1.853  -4.018  1.00  0.00     0.000 A 
ATOM     24  C   UNL     1       0.485   4.061  -4.725  1.00  0.00     0.000 A 
ATOM     25  C   UNL     1       0.483   2.685  -4.929  1.00  0.00     0.000 A 
ENDBRANCH   7  20
ENDBRANCH   4   7
ENDBRANCH   2   3
ENDBRANCH   1   2
BRANCH   1  26
ATOM     26  C   UNL     1       5.021   4.953   2.953  1.00  0.00     0.023 C 
BRANCH  26  27
ATOM     27  C   UNL     1       6.476   5.397   2.875  1.00  0.00     0.116 C 
BRANCH  27  28
ATOM     28  N   UNL     1       6.684   6.771   3.306  1.00  0.00    -0.352 N 
ATOM     29  C   UNL     1       7.676   7.282   4.112  1.00  0.00     0.251 C 
ATOM     30  H   UNL     1       6.026   7.424   2.976  1.00  0.00     0.163 HD
ATOM     31  O   UNL     1       7.642   8.455   4.468  1.00  0.00    -0.269 OA
BRANCH  29  32
ATOM     32  C   UNL     1       8.762   6.396   4.584  1.00  0.00     0.039 A 
ATOM     33  C   UNL     1       9.409   5.529   3.702  1.00  0.00     0.014 A 
ATOM     34  C   UNL     1       9.109   6.408   5.939  1.00  0.00     0.014 A 
ATOM     35  C   UNL     1      10.273   4.561   4.200  1.00  0.00     0.010 A 
ATOM     36  C   UNL     1      10.043   5.487   6.424  1.00  0.00     0.010 A 
ATOM     37  C   UNL     1      10.593   4.521   5.568  1.00  0.00    -0.014 A 
BRANCH  37  38
ATOM     38  C   UNL     1      11.498   3.453   6.068  1.00  0.00     0.031 A 
ATOM     39  C   UNL     1      10.999   2.393   7.013  1.00  0.00     0.074 A 
ATOM     40  C   UNL     1      12.763   3.402   5.611  1.00  0.00     0.049 A 
ATOM     41  N   UNL     1      11.632   1.351   7.493  1.00  0.00    -0.248 NA
ATOM     42  C   UNL     1       9.613   2.520   7.489  1.00  0.00     0.031 C 
ATOM     43  C   UNL     1      13.369   4.373   4.698  1.00  0.00     0.029 A 
ATOM     44  N   UNL     1      13.757   2.482   5.826  1.00  0.00    -0.354 N 
ATOM     45  C   UNL     1      10.732   0.710   8.335  1.00  0.00     0.074 A 
ATOM     46  C   UNL     1       9.517   1.498   8.328  1.00  0.00     0.031 C 
ATOM     47  C   UNL     1      14.608   3.968   4.386  1.00  0.00     0.029 A 
ATOM     48  C   UNL     1      14.903   2.740   5.115  1.00  0.00     0.049 A 
ATOM     49  H   UNL     1      13.658   1.712   6.431  1.00  0.00     0.167 HD
ATOM     50  C   UNL     1      10.896  -0.435   9.041  1.00  0.00     0.037 A 
ATOM     51  C   UNL     1      16.066   2.066   5.059  1.00  0.00     0.037 A 
ATOM     52  C   UNL     1      12.097  -1.231   9.035  1.00  0.00     0.049 A 
ATOM     53  C   UNL     1      16.229   0.813   5.869  1.00  0.00     0.074 A 
ATOM     54  C   UNL     1      12.344  -2.429   9.685  1.00  0.00     0.029 A 
ATOM     55  N   UNL     1      13.255  -0.907   8.346  1.00  0.00    -0.354 N 
ATOM     56  N   UNL     1      15.357   0.205   6.636  1.00  0.00    -0.248 NA
ATOM     57  C   UNL     1      17.542   0.158   5.809  1.00  0.00     0.031 C 
ATOM     58  C   UNL     1      13.666  -2.807   9.422  1.00  0.00     0.029 A 
ATOM     59  C   UNL     1      14.229  -1.867   8.575  1.00  0.00     0.049 A 
ATOM     60  H   UNL     1      13.370  -0.111   7.777  1.00  0.00     0.167 HD
ATOM     61  C   UNL     1      16.013  -0.905   7.148  1.00  0.00     0.074 A 
ATOM     62  C   UNL     1      17.346  -0.903   6.579  1.00  0.00     0.031 C 
ATOM     63  C   UNL     1      15.556  -1.840   8.017  1.00  0.00     0.037 A 
BRANCH  50  64
ATOM     64  C   UNL     1       9.747  -0.889   9.895  1.00  0.00     0.057 A 
ATOM     65  C   UNL     1       9.821  -0.809  11.292  1.00  0.00     0.134 A 
ATOM     66  C   UNL     1       8.578  -1.427   9.341  1.00  0.00     0.134 A 
ATOM     67  F   UNL     1      10.915  -0.310  11.888  1.00  0.00    -0.206 F 
ATOM     68  C   UNL     1       8.774  -1.244  12.106  1.00  0.00     0.040 A 
ATOM     69  C   UNL     1       7.514  -1.844  10.144  1.00  0.00     0.040 A 
ATOM     70  F   UNL     1       8.438  -1.521   8.010  1.00  0.00    -0.206 F 
ATOM     71  C   UNL     1       7.613  -1.758  11.531  1.00  0.00     0.006 A 
ENDBRANCH  50  64
BRANCH  51  72
ATOM     72  C   UNL     1      17.169   2.567   4.204  1.00  0.00     0.057 A 
ATOM     73  C   UNL     1      17.866   3.738   4.529  1.00  0.00     0.134 A 
ATOM     74  C   UNL     1      17.548   1.889   3.041  1.00  0.00     0.134 A 
ATOM     75  F   UNL     1      17.544   4.434   5.629  1.00  0.00    -0.206 F 
ATOM     76  C   UNL     1      18.892   4.224   3.719  1.00  0.00     0.040 A 
ATOM     77  C   UNL     1      18.589   2.350   2.235  1.00  0.00     0.040 A 
ATOM     78  F   UNL     1      16.929   0.752   2.691  1.00  0.00    -0.206 F 
ATOM     79  C   UNL     1      19.260   3.525   2.571  1.00  0.00     0.006 A 
ENDBRANCH  51  72
BRANCH  63  80
ATOM     80  C   UNL     1      16.513  -2.930   8.397  1.00  0.00     0.057 A 
ATOM     81  C   UNL     1      16.353  -4.230   7.902  1.00  0.00     0.134 A 
ATOM     82  C   UNL     1      17.597  -2.689   9.251  1.00  0.00     0.134 A 
ATOM     83  F   UNL     1      15.333  -4.527   7.084  1.00  0.00    -0.206 F 
ATOM     84  C   UNL     1      17.242  -5.251   8.239  1.00  0.00     0.040 A 
ATOM     85  C   UNL     1      18.507  -3.697   9.576  1.00  0.00     0.040 A 
ATOM     86  F   UNL     1      17.815  -1.460   9.743  1.00  0.00    -0.206 F 
ATOM     87  C   UNL     1      18.328  -4.983   9.072  1.00  0.00     0.006 A 
ENDBRANCH  63  80
ENDBRANCH  37  38
ENDBRANCH  29  32
ENDBRANCH  27  28
ENDBRANCH  26  27
ENDBRANCH   1  26
TORSDOF 14
