REMARK SMILES CC(=O)Oc1ccccc1SCCCCCC(=O)NCCCCNC(=O)c1ccc(-c2c3nc(c(-c4c(F)cccc4F)c4ccc([nH]4)c(-c4c(F)cccc4F)c4nc(c(-c5c(F)cccc5F)c5ccc2[nH]5)C=C4)C=C3)cc1
REMARK SMILES IDX 17 1 18 2 19 3 16 5 15 6 14 7 13 8 12 9 11 10 10 11 5 12
REMARK SMILES IDX 6 13 7 14 9 15 8 16 4 17 2 18 1 19 3 20 20 21 21 22 22 23
REMARK SMILES IDX 23 24 24 25 25 26 26 28 27 29 28 30 80 31 29 32 79 33 30 34
REMARK SMILES IDX 31 35 32 36 73 37 33 38 78 39 72 40 74 41 34 42 77 43 71 44
REMARK SMILES IDX 70 45 35 47 61 48 44 49 60 50 45 51 48 52 59 53 75 54 46 55
REMARK SMILES IDX 47 56 58 58 76 59 49 60 36 61 37 62 42 63 38 64 39 65 41 66
REMARK SMILES IDX 43 67 40 68 62 69 63 70 68 71 64 72 65 73 67 74 69 75 66 76
REMARK SMILES IDX 50 77 51 78 56 79 52 80 53 81 55 82 57 83 54 84
REMARK H PARENT 19 4 24 27 74 46 48 57
REMARK Flexibility Score: inf
ROOT
ATOM      1  C   UNL     1       4.350   1.372  -0.019  1.00  0.00     0.219 C 
ATOM      2  O   UNL     1       5.415   1.138   0.552  1.00  0.00    -0.275 OA
ATOM      3  N   UNL     1       4.363   2.138  -1.144  1.00  0.00    -0.356 N 
ATOM      4  H   UNL     1       5.251   2.376  -1.496  1.00  0.00     0.163 HD
ENDROOT
BRANCH   1   5
ATOM      5  C   UNL     1       3.038   0.804   0.487  1.00  0.00     0.100 C 
BRANCH   5   6
ATOM      6  C   UNL     1       2.255   1.743   1.406  1.00  0.00     0.010 C 
BRANCH   6   7
ATOM      7  C   UNL     1       1.083   2.579   0.848  1.00  0.00     0.001 C 
BRANCH   7   8
ATOM      8  C   UNL     1       0.112   1.957  -0.155  1.00  0.00     0.011 C 
BRANCH   8   9
ATOM      9  C   UNL     1      -1.394   1.779   0.112  1.00  0.00     0.075 C 
BRANCH   9  10
ATOM     10  S   UNL     1      -2.469   2.715   1.249  1.00  0.00    -0.122 SA
BRANCH  10  11
ATOM     11  C   UNL     1      -1.577   3.002   2.759  1.00  0.00     0.050 A 
ATOM     12  C   UNL     1      -0.702   2.162   3.461  1.00  0.00     0.144 A 
ATOM     13  C   UNL     1       0.143   2.686   4.457  1.00  0.00     0.048 A 
ATOM     14  C   UNL     1       0.085   4.035   4.802  1.00  0.00     0.004 A 
ATOM     15  C   UNL     1      -1.682   4.340   3.196  1.00  0.00     0.019 A 
ATOM     16  C   UNL     1      -0.851   4.859   4.191  1.00  0.00     0.001 A 
BRANCH  12  17
ATOM     17  O   UNL     1      -0.311   0.858   3.048  1.00  0.00    -0.426 OA
BRANCH  17  18
ATOM     18  C   UNL     1      -1.096  -0.203   2.603  1.00  0.00     0.308 C 
ATOM     19  C   UNL     1      -0.171  -1.224   1.987  1.00  0.00     0.139 C 
ATOM     20  O   UNL     1      -2.306  -0.298   2.680  1.00  0.00    -0.252 OA
ENDBRANCH  17  18
ENDBRANCH  12  17
ENDBRANCH  10  11
ENDBRANCH   9  10
ENDBRANCH   8   9
ENDBRANCH   7   8
ENDBRANCH   6   7
ENDBRANCH   5   6
ENDBRANCH   1   5
BRANCH   3  21
ATOM     21  C   UNL     1       3.231   2.644  -1.883  1.00  0.00     0.116 C 
BRANCH  21  22
ATOM     22  C   UNL     1       2.879   4.052  -1.411  1.00  0.00     0.023 C 
BRANCH  22  23
ATOM     23  C   UNL     1       3.522   5.182  -2.178  1.00  0.00     0.023 C 
BRANCH  23  24
ATOM     24  C   UNL     1       3.114   5.212  -3.632  1.00  0.00     0.116 C 
BRANCH  24  25
ATOM     25  N   UNL     1       1.680   5.364  -3.871  1.00  0.00    -0.352 N 
ATOM     26  C   UNL     1       1.100   6.026  -4.934  1.00  0.00     0.251 C 
ATOM     27  H   UNL     1       1.072   4.957  -3.213  1.00  0.00     0.163 HD
ATOM     28  O   UNL     1      -0.111   6.149  -5.046  1.00  0.00    -0.269 OA
BRANCH  26  29
ATOM     29  C   UNL     1       2.028   6.636  -5.904  1.00  0.00     0.039 A 
ATOM     30  C   UNL     1       2.085   8.026  -5.993  1.00  0.00     0.014 A 
ATOM     31  C   UNL     1       3.020   5.828  -6.465  1.00  0.00     0.014 A 
ATOM     32  C   UNL     1       3.205   8.618  -6.576  1.00  0.00     0.010 A 
ATOM     33  C   UNL     1       4.189   6.425  -6.909  1.00  0.00     0.010 A 
ATOM     34  C   UNL     1       4.291   7.824  -6.984  1.00  0.00    -0.014 A 
BRANCH  34  35
ATOM     35  C   UNL     1       5.533   8.420  -7.537  1.00  0.00     0.031 A 
ATOM     36  C   UNL     1       5.977   8.014  -8.918  1.00  0.00     0.074 A 
ATOM     37  C   UNL     1       6.294   9.248  -6.791  1.00  0.00     0.049 A 
ATOM     38  N   UNL     1       7.081   8.309  -9.553  1.00  0.00    -0.248 NA
ATOM     39  C   UNL     1       5.082   7.112  -9.666  1.00  0.00     0.031 C 
ATOM     40  C   UNL     1       6.009   9.670  -5.417  1.00  0.00     0.029 A 
ATOM     41  N   UNL     1       7.477   9.880  -7.088  1.00  0.00    -0.354 N 
ATOM     42  C   UNL     1       7.025   7.601 -10.746  1.00  0.00     0.074 A 
ATOM     43  C   UNL     1       5.820   6.808 -10.721  1.00  0.00     0.031 C 
ATOM     44  C   UNL     1       6.968  10.518  -5.006  1.00  0.00     0.029 A 
ATOM     45  C   UNL     1       7.959  10.667  -6.067  1.00  0.00     0.049 A 
ATOM     46  H   UNL     1       7.939   9.778  -7.951  1.00  0.00     0.167 HD
ATOM     47  C   UNL     1       7.881   7.639 -11.792  1.00  0.00     0.037 A 
ATOM     48  C   UNL     1       9.075  11.418  -6.000  1.00  0.00     0.037 A 
ATOM     49  C   UNL     1       9.036   8.489 -11.848  1.00  0.00     0.049 A 
ATOM     50  C   UNL     1       9.997  11.461  -7.192  1.00  0.00     0.074 A 
ATOM     51  C   UNL     1       9.915   8.674 -12.899  1.00  0.00     0.029 A 
ATOM     52  N   UNL     1       9.463   9.304 -10.812  1.00  0.00    -0.354 N 
ATOM     53  N   UNL     1       9.885  10.852  -8.348  1.00  0.00    -0.248 NA
ATOM     54  C   UNL     1      11.199  12.300  -7.072  1.00  0.00     0.031 C 
ATOM     55  C   UNL     1      10.903   9.570 -12.483  1.00  0.00     0.029 A 
ATOM     56  C   UNL     1      10.608   9.980 -11.192  1.00  0.00     0.049 A 
ATOM     57  H   UNL     1       9.018   9.389  -9.938  1.00  0.00     0.167 HD
ATOM     58  C   UNL     1      10.975  11.266  -9.104  1.00  0.00     0.074 A 
ATOM     59  C   UNL     1      11.731  12.185  -8.280  1.00  0.00     0.031 C 
ATOM     60  C   UNL     1      11.323  10.916 -10.366  1.00  0.00     0.037 A 
BRANCH  47  61
ATOM     61  C   UNL     1       7.587   6.756 -12.967  1.00  0.00     0.057 A 
ATOM     62  C   UNL     1       6.509   7.002 -13.828  1.00  0.00     0.134 A 
ATOM     63  C   UNL     1       8.423   5.674 -13.269  1.00  0.00     0.134 A 
ATOM     64  F   UNL     1       5.659   8.011 -13.583  1.00  0.00    -0.206 F 
ATOM     65  C   UNL     1       6.263   6.193 -14.938  1.00  0.00     0.040 A 
ATOM     66  C   UNL     1       8.205   4.876 -14.393  1.00  0.00     0.040 A 
ATOM     67  F   UNL     1       9.472   5.384 -12.485  1.00  0.00    -0.206 F 
ATOM     68  C   UNL     1       7.120   5.133 -15.229  1.00  0.00     0.006 A 
ENDBRANCH  47  61
BRANCH  48  69
ATOM     69  C   UNL     1       9.390  12.213  -4.782  1.00  0.00     0.057 A 
ATOM     70  C   UNL     1       9.385  13.613  -4.812  1.00  0.00     0.134 A 
ATOM     71  C   UNL     1       9.761  11.599  -3.580  1.00  0.00     0.134 A 
ATOM     72  F   UNL     1       9.059  14.263  -5.940  1.00  0.00    -0.206 F 
ATOM     73  C   UNL     1       9.773  14.373  -3.707  1.00  0.00     0.040 A 
ATOM     74  C   UNL     1      10.123  12.347  -2.457  1.00  0.00     0.040 A 
ATOM     75  F   UNL     1       9.780  10.262  -3.479  1.00  0.00    -0.206 F 
ATOM     76  C   UNL     1      10.142  13.739  -2.523  1.00  0.00     0.006 A 
ENDBRANCH  48  69
BRANCH  60  77
ATOM     77  C   UNL     1      12.535  11.572 -10.957  1.00  0.00     0.057 A 
ATOM     78  C   UNL     1      13.831  11.241 -10.546  1.00  0.00     0.134 A 
ATOM     79  C   UNL     1      12.400  12.499 -11.999  1.00  0.00     0.134 A 
ATOM     80  F   UNL     1      14.026  10.367  -9.547  1.00  0.00    -0.206 F 
ATOM     81  C   UNL     1      14.952  11.826 -11.137  1.00  0.00     0.040 A 
ATOM     82  C   UNL     1      13.513  13.068 -12.617  1.00  0.00     0.040 A 
ATOM     83  F   UNL     1      11.185  12.847 -12.448  1.00  0.00    -0.206 F 
ATOM     84  C   UNL     1      14.794  12.735 -12.182  1.00  0.00     0.006 A 
ENDBRANCH  60  77
ENDBRANCH  34  35
ENDBRANCH  26  29
ENDBRANCH  24  25
ENDBRANCH  23  24
ENDBRANCH  22  23
ENDBRANCH  21  22
ENDBRANCH   3  21
TORSDOF 19
