REMARK SMILES O=C(NCCCCNC(=O)c1ccc(S(=O)(=O)NCc2ccn[nH]2)c(F)c1)c1ccc(-c2c3nc(c(-c4c(F)cccc4F)c4ccc([nH]4)c(-c4c(F)cccc4F)c4nc(c(-c5c(F)cccc5F)c5ccc2[nH]5)C=C4)C=C3)cc1
REMARK SMILES IDX 6 1 5 2 4 3 3 4 1 5 2 6 28 8 29 9 81 10 30 11 80 12 31 13
REMARK SMILES IDX 32 14 33 15 74 16 34 17 79 18 73 19 75 20 35 21 78 22 72 23
REMARK SMILES IDX 71 24 36 26 62 27 45 28 61 29 46 30 49 31 60 32 76 33 47 34
REMARK SMILES IDX 48 35 59 37 77 38 50 39 37 40 38 41 43 42 39 43 40 44 42 45
REMARK SMILES IDX 44 46 41 47 63 48 64 49 69 50 65 51 66 52 68 53 70 54 67 55
REMARK SMILES IDX 51 56 52 57 57 58 53 59 54 60 56 61 58 62 55 63 7 64 8 65
REMARK SMILES IDX 9 66 10 68 11 69 12 70 27 71 13 72 25 73 14 74 26 75 15 76
REMARK SMILES IDX 16 77 17 78 18 79 19 81 20 82 21 83 24 84 22 85 23 86
REMARK H PARENT 3 7 75 25 49 36 8 67 18 80 24 87
REMARK Flexibility Score: inf
ROOT
ATOM      1  C   UNL     1       4.398   3.810  -0.887  1.00  0.00     0.023 C 
ENDROOT
BRANCH   1   2
ATOM      2  C   UNL     1       4.886   2.408  -1.247  1.00  0.00     0.023 C 
BRANCH   2   3
ATOM      3  C   UNL     1       4.567   1.318  -0.232  1.00  0.00     0.116 C 
BRANCH   3   4
ATOM      4  N   UNL     1       3.140   1.114  -0.039  1.00  0.00    -0.352 N 
ATOM      5  O   UNL     1       1.183  -0.004  -0.029  1.00  0.00    -0.269 OA
ATOM      6  C   UNL     1       2.408  -0.047  -0.106  1.00  0.00     0.251 C 
ATOM      7  H   UNL     1       2.624   1.926   0.170  1.00  0.00     0.163 HD
BRANCH   6   8
ATOM      8  C   UNL     1       3.087  -1.347  -0.301  1.00  0.00     0.039 A 
ATOM      9  C   UNL     1       4.226  -1.683   0.433  1.00  0.00     0.014 A 
ATOM     10  C   UNL     1       2.560  -2.254  -1.228  1.00  0.00     0.014 A 
ATOM     11  C   UNL     1       4.912  -2.859   0.147  1.00  0.00     0.010 A 
ATOM     12  C   UNL     1       3.210  -3.469  -1.462  1.00  0.00     0.010 A 
ATOM     13  C   UNL     1       4.407  -3.768  -0.797  1.00  0.00    -0.014 A 
BRANCH  13  14
ATOM     14  C   UNL     1       5.118  -5.051  -1.022  1.00  0.00     0.031 A 
ATOM     15  C   UNL     1       5.803  -5.346  -2.327  1.00  0.00     0.074 A 
ATOM     16  C   UNL     1       5.174  -5.943  -0.014  1.00  0.00     0.049 A 
ATOM     17  N   UNL     1       6.490  -6.405  -2.672  1.00  0.00    -0.248 NA
ATOM     18  C   UNL     1       5.704  -4.325  -3.382  1.00  0.00     0.031 C 
ATOM     19  C   UNL     1       4.541  -5.771   1.296  1.00  0.00     0.029 A 
ATOM     20  N   UNL     1       5.808  -7.155   0.079  1.00  0.00    -0.354 N 
ATOM     21  C   UNL     1       6.893  -6.189  -3.983  1.00  0.00     0.074 A 
ATOM     22  C   UNL     1       6.360  -4.903  -4.381  1.00  0.00     0.031 C 
ATOM     23  C   UNL     1       4.860  -6.813   2.077  1.00  0.00     0.029 A 
ATOM     24  C   UNL     1       5.675  -7.749   1.310  1.00  0.00     0.049 A 
ATOM     25  H   UNL     1       6.309  -7.560  -0.665  1.00  0.00     0.167 HD
ATOM     26  C   UNL     1       7.646  -6.987  -4.776  1.00  0.00     0.037 A 
ATOM     27  C   UNL     1       6.148  -8.921   1.771  1.00  0.00     0.037 A 
ATOM     28  C   UNL     1       8.195  -8.255  -4.371  1.00  0.00     0.049 A 
ATOM     29  C   UNL     1       6.968  -9.790   0.866  1.00  0.00     0.074 A 
ATOM     30  C   UNL     1       8.997  -9.118  -5.100  1.00  0.00     0.029 A 
ATOM     31  N   UNL     1       8.002  -8.841  -3.130  1.00  0.00    -0.354 N 
ATOM     32  N   UNL     1       7.349  -9.563  -0.367  1.00  0.00    -0.248 NA
ATOM     33  C   UNL     1       7.412 -11.081   1.409  1.00  0.00     0.031 C 
ATOM     34  C   UNL     1       9.265 -10.240  -4.309  1.00  0.00     0.029 A 
ATOM     35  C   UNL     1       8.656 -10.061  -3.078  1.00  0.00     0.049 A 
ATOM     36  H   UNL     1       7.479  -8.448  -2.394  1.00  0.00     0.167 HD
ATOM     37  C   UNL     1       8.078 -10.680  -0.749  1.00  0.00     0.074 A 
ATOM     38  C   UNL     1       8.105 -11.574   0.391  1.00  0.00     0.031 C 
ATOM     39  C   UNL     1       8.665 -10.942  -1.940  1.00  0.00     0.037 A 
BRANCH  26  40
ATOM     40  C   UNL     1       7.928  -6.524  -6.173  1.00  0.00     0.057 A 
ATOM     41  C   UNL     1       7.291  -7.125  -7.266  1.00  0.00     0.134 A 
ATOM     42  C   UNL     1       8.896  -5.550  -6.441  1.00  0.00     0.134 A 
ATOM     43  F   UNL     1       6.358  -8.070  -7.075  1.00  0.00    -0.206 F 
ATOM     44  C   UNL     1       7.618  -6.783  -8.579  1.00  0.00     0.040 A 
ATOM     45  C   UNL     1       9.222  -5.188  -7.750  1.00  0.00     0.040 A 
ATOM     46  F   UNL     1       9.535  -4.932  -5.436  1.00  0.00    -0.206 F 
ATOM     47  C   UNL     1       8.588  -5.812  -8.823  1.00  0.00     0.006 A 
ENDBRANCH  26  40
BRANCH  27  48
ATOM     48  C   UNL     1       5.854  -9.328   3.165  1.00  0.00     0.057 A 
ATOM     49  C   UNL     1       4.567  -9.718   3.553  1.00  0.00     0.134 A 
ATOM     50  C   UNL     1       6.848  -9.301   4.149  1.00  0.00     0.134 A 
ATOM     51  F   UNL     1       3.572  -9.756   2.654  1.00  0.00    -0.206 F 
ATOM     52  C   UNL     1       4.272 -10.048   4.876  1.00  0.00     0.040 A 
ATOM     53  C   UNL     1       6.572  -9.649   5.472  1.00  0.00     0.040 A 
ATOM     54  F   UNL     1       8.103  -8.950   3.832  1.00  0.00    -0.206 F 
ATOM     55  C   UNL     1       5.278 -10.015   5.840  1.00  0.00     0.006 A 
ENDBRANCH  27  48
BRANCH  39  56
ATOM     56  C   UNL     1       9.384 -12.248  -2.075  1.00  0.00     0.057 A 
ATOM     57  C   UNL     1      10.783 -12.302  -2.068  1.00  0.00     0.134 A 
ATOM     58  C   UNL     1       8.687 -13.447  -2.263  1.00  0.00     0.134 A 
ATOM     59  F   UNL     1      11.506 -11.185  -1.898  1.00  0.00    -0.206 F 
ATOM     60  C   UNL     1      11.465 -13.504  -2.253  1.00  0.00     0.040 A 
ATOM     61  C   UNL     1       9.358 -14.659  -2.432  1.00  0.00     0.040 A 
ATOM     62  F   UNL     1       7.345 -13.460  -2.267  1.00  0.00    -0.206 F 
ATOM     63  C   UNL     1      10.751 -14.688  -2.434  1.00  0.00     0.006 A 
ENDBRANCH  39  56
ENDBRANCH  13  14
ENDBRANCH   6   8
ENDBRANCH   3   4
ENDBRANCH   2   3
ENDBRANCH   1   2
BRANCH   1  64
ATOM     64  C   UNL     1       4.787   4.313   0.501  1.00  0.00     0.116 C 
BRANCH  64  65
ATOM     65  N   UNL     1       6.227   4.328   0.723  1.00  0.00    -0.352 N 
ATOM     66  C   UNL     1       7.052   5.357   1.106  1.00  0.00     0.251 C 
ATOM     67  H   UNL     1       6.678   3.466   0.576  1.00  0.00     0.163 HD
ATOM     68  O   UNL     1       8.268   5.199   1.129  1.00  0.00    -0.269 OA
BRANCH  66  69
ATOM     69  C   UNL     1       6.485   6.678   1.445  1.00  0.00     0.042 A 
ATOM     70  C   UNL     1       5.416   6.800   2.335  1.00  0.00     0.015 A 
ATOM     71  C   UNL     1       7.036   7.815   0.844  1.00  0.00     0.054 A 
ATOM     72  C   UNL     1       4.801   8.040   2.502  1.00  0.00     0.026 A 
ATOM     73  C   UNL     1       6.441   9.057   1.046  1.00  0.00     0.144 A 
ATOM     74  C   UNL     1       5.296   9.163   1.825  1.00  0.00     0.118 A 
ATOM     75  F   UNL     1       6.975  10.119   0.430  1.00  0.00    -0.205 F 
BRANCH  74  76
ATOM     76  S   UNL     1       4.325  10.634   1.895  1.00  0.00     0.243 S 
ATOM     77  O   UNL     1       2.955  10.202   1.726  1.00  0.00    -0.207 OA
ATOM     78  O   UNL     1       4.751  11.352   3.076  1.00  0.00    -0.207 OA
BRANCH  76  79
ATOM     79  N   UNL     1       4.716  11.585   0.596  1.00  0.00    -0.205 NA
ATOM     80  H   UNL     1       5.709  11.793   0.697  1.00  0.00     0.141 HD
BRANCH  79  81
ATOM     81  C   UNL     1       4.537  11.194  -0.785  1.00  0.00     0.154 C 
BRANCH  81  82
ATOM     82  C   UNL     1       3.128  11.321  -1.201  1.00  0.00     0.050 A 
ATOM     83  C   UNL     1       2.312  12.403  -1.454  1.00  0.00     0.046 A 
ATOM     84  N   UNL     1       2.350  10.218  -1.444  1.00  0.00    -0.281 N 
ATOM     85  C   UNL     1       1.097  11.845  -1.890  1.00  0.00     0.135 A 
ATOM     86  N   UNL     1       1.132  10.511  -1.921  1.00  0.00    -0.184 NA
ATOM     87  H   UNL     1       2.658   9.297  -1.282  1.00  0.00     0.190 HD
ENDBRANCH  81  82
ENDBRANCH  79  81
ENDBRANCH  76  79
ENDBRANCH  74  76
ENDBRANCH  66  69
ENDBRANCH  64  65
ENDBRANCH   1  64
TORSDOF 15
