REMARK SMILES Cc1nn(CC(=O)NCCCCNC(=O)c2ccc(-c3c4nc(c(-c5c(F)cccc5F)c5ccc([nH]5)c(-c5c(F)cccc5F)c5nc(c(-c6c(F)cccc6F)c6ccc3[nH]6)C=C5)C=C4)cc2)c(C)c1NS(=O)(=O)c1cccc2cccnc12
REMARK SMILES IDX 9 1 8 2 6 3 7 4 5 6 4 7 1 8 2 9 3 10 72 11 70 12 71 13 73 14
REMARK SMILES IDX 74 16 75 17 76 18 77 19 78 20 86 21 79 22 81 23 85 24 80 25
REMARK SMILES IDX 82 26 84 27 83 28 10 29 11 30 12 31 13 32 14 33 15 35 16 36
REMARK SMILES IDX 17 37 69 38 18 39 68 40 19 41 20 42 21 43 62 44 22 45 67 46
REMARK SMILES IDX 61 47 63 48 23 49 66 50 60 51 59 52 24 54 50 55 33 56 49 57
REMARK SMILES IDX 34 58 37 59 48 60 64 61 35 62 36 63 47 65 65 66 38 67 25 68
REMARK SMILES IDX 26 69 31 70 27 71 28 72 30 73 32 74 29 75 51 76 52 77 57 78
REMARK SMILES IDX 53 79 54 80 56 81 58 82 55 83 39 84 40 85 45 86 41 87 42 88
REMARK SMILES IDX 44 89 46 90 43 91
REMARK H PARENT 8 5 73 15 13 34 63 53 37 64
REMARK Flexibility Score: inf
ROOT
ATOM      1  C   UNL     1      -2.664  -3.024   2.670  1.00  0.00     0.116 C 
ENDROOT
BRANCH   1   2
ATOM      2  N   UNL     1      -1.944  -4.236   2.333  1.00  0.00    -0.354 N 
ATOM      3  C   UNL     1      -0.664  -4.618   2.607  1.00  0.00     0.241 C 
ATOM      4  O   UNL     1      -0.417  -5.824   2.462  1.00  0.00    -0.273 OA
ATOM      5  H   UNL     1      -2.467  -4.895   1.822  1.00  0.00     0.163 HD
BRANCH   3   6
ATOM      6  C   UNL     1       0.401  -3.715   3.199  1.00  0.00     0.244 C 
BRANCH   6   7
ATOM      7  N   UNL     1       0.389  -2.336   2.755  1.00  0.00    -0.258 N 
ATOM      8  C   UNL     1       0.255   0.007   0.148  1.00  0.00     0.071 C 
ATOM      9  C   UNL     1       0.145  -0.713   1.441  1.00  0.00     0.084 A 
ATOM     10  N   UNL     1       0.434  -2.024   1.452  1.00  0.00    -0.175 NA
ATOM     11  C   UNL     1      -0.140  -0.226   2.759  1.00  0.00     0.093 A 
ATOM     12  C   UNL     1       0.421  -1.213   3.543  1.00  0.00     0.060 A 
ATOM     13  C   UNL     1       1.050  -1.197   4.877  1.00  0.00     0.069 C 
BRANCH  11  14
ATOM     14  N   UNL     1      -0.582   1.051   3.149  1.00  0.00    -0.276 N 
ATOM     15  H   UNL     1      -0.092   1.837   2.816  1.00  0.00     0.180 HD
BRANCH  14  16
ATOM     16  S   UNL     1      -1.943   1.307   4.186  1.00  0.00     0.264 S 
ATOM     17  O   UNL     1      -1.898   2.723   4.484  1.00  0.00    -0.201 OA
ATOM     18  O   UNL     1      -3.103   0.769   3.496  1.00  0.00    -0.201 OA
BRANCH  16  19
ATOM     19  C   UNL     1      -1.632   0.461   5.718  1.00  0.00     0.114 A 
ATOM     20  C   UNL     1      -0.770   1.094   6.634  1.00  0.00     0.024 A 
ATOM     21  C   UNL     1      -2.213  -0.779   6.017  1.00  0.00     0.091 A 
ATOM     22  C   UNL     1      -0.347   0.421   7.776  1.00  0.00     0.002 A 
ATOM     23  C   UNL     1      -1.674  -1.488   7.122  1.00  0.00     0.002 A 
ATOM     24  N   UNL     1      -3.229  -1.336   5.329  1.00  0.00    -0.255 NA
ATOM     25  C   UNL     1      -0.748  -0.891   7.983  1.00  0.00     0.010 A 
ATOM     26  C   UNL     1      -2.061  -2.816   7.356  1.00  0.00     0.012 A 
ATOM     27  C   UNL     1      -3.675  -2.560   5.691  1.00  0.00     0.112 A 
ATOM     28  C   UNL     1      -3.089  -3.369   6.627  1.00  0.00     0.021 A 
ENDBRANCH  16  19
ENDBRANCH  14  16
ENDBRANCH  11  14
ENDBRANCH   6   7
ENDBRANCH   3   6
ENDBRANCH   1   2
BRANCH   1  29
ATOM     29  C   UNL     1      -3.272  -2.274   1.484  1.00  0.00     0.023 C 
BRANCH  29  30
ATOM     30  C   UNL     1      -4.511  -2.937   0.861  1.00  0.00     0.023 C 
BRANCH  30  31
ATOM     31  C   UNL     1      -5.747  -3.013   1.764  1.00  0.00     0.116 C 
BRANCH  31  32
ATOM     32  N   UNL     1      -6.444  -1.740   1.946  1.00  0.00    -0.352 N 
ATOM     33  C   UNL     1      -7.670  -1.521   2.558  1.00  0.00     0.251 C 
ATOM     34  H   UNL     1      -5.987  -0.943   1.593  1.00  0.00     0.163 HD
ATOM     35  O   UNL     1      -8.323  -0.511   2.330  1.00  0.00    -0.269 OA
BRANCH  33  36
ATOM     36  C   UNL     1      -8.177  -2.516   3.529  1.00  0.00     0.039 A 
ATOM     37  C   UNL     1      -9.512  -2.905   3.582  1.00  0.00     0.014 A 
ATOM     38  C   UNL     1      -7.267  -3.049   4.434  1.00  0.00     0.014 A 
ATOM     39  C   UNL     1      -9.883  -3.920   4.469  1.00  0.00     0.010 A 
ATOM     40  C   UNL     1      -7.598  -4.115   5.244  1.00  0.00     0.010 A 
ATOM     41  C   UNL     1      -8.914  -4.556   5.271  1.00  0.00    -0.014 A 
BRANCH  41  42
ATOM     42  C   UNL     1      -9.243  -5.815   5.952  1.00  0.00     0.031 A 
ATOM     43  C   UNL     1      -9.815  -6.841   5.037  1.00  0.00     0.074 A 
ATOM     44  C   UNL     1      -8.862  -6.164   7.202  1.00  0.00     0.049 A 
ATOM     45  N   UNL     1     -11.014  -7.319   5.043  1.00  0.00    -0.248 NA
ATOM     46  C   UNL     1      -9.001  -7.291   3.894  1.00  0.00     0.031 C 
ATOM     47  C   UNL     1      -7.988  -5.410   8.105  1.00  0.00     0.029 A 
ATOM     48  N   UNL     1      -9.082  -7.327   7.894  1.00  0.00    -0.354 N 
ATOM     49  C   UNL     1     -11.033  -8.302   4.055  1.00  0.00     0.074 A 
ATOM     50  C   UNL     1      -9.851  -8.102   3.261  1.00  0.00     0.031 C 
ATOM     51  C   UNL     1      -7.570  -6.214   9.107  1.00  0.00     0.029 A 
ATOM     52  C   UNL     1      -8.270  -7.484   9.014  1.00  0.00     0.049 A 
ATOM     53  H   UNL     1      -9.756  -7.992   7.624  1.00  0.00     0.167 HD
ATOM     54  C   UNL     1     -11.850  -9.383   4.182  1.00  0.00     0.037 A 
ATOM     55  C   UNL     1      -8.161  -8.574   9.814  1.00  0.00     0.037 A 
ATOM     56  C   UNL     1     -12.844  -9.151   5.200  1.00  0.00     0.049 A 
ATOM     57  C   UNL     1      -9.390  -9.380   9.654  1.00  0.00     0.074 A 
ATOM     58  C   UNL     1     -13.955  -8.356   5.371  1.00  0.00     0.029 A 
ATOM     59  N   UNL     1     -12.465  -9.592   6.438  1.00  0.00    -0.354 N 
ATOM     60  N   UNL     1     -10.563  -9.004  10.078  1.00  0.00    -0.248 NA
ATOM     61  C   UNL     1      -9.390 -10.523   8.749  1.00  0.00     0.031 C 
ATOM     62  C   UNL     1     -14.099  -8.177   6.782  1.00  0.00     0.029 A 
ATOM     63  C   UNL     1     -13.095  -8.896   7.429  1.00  0.00     0.049 A 
ATOM     64  H   UNL     1     -11.819 -10.318   6.594  1.00  0.00     0.167 HD
ATOM     65  C   UNL     1     -11.439  -9.540   9.157  1.00  0.00     0.074 A 
ATOM     66  C   UNL     1     -10.700 -10.615   8.510  1.00  0.00     0.031 C 
ATOM     67  C   UNL     1     -12.542  -8.839   8.764  1.00  0.00     0.037 A 
BRANCH  54  68
ATOM     68  C   UNL     1     -11.448 -10.808   3.831  1.00  0.00     0.057 A 
ATOM     69  C   UNL     1     -12.403 -11.833   3.994  1.00  0.00     0.134 A 
ATOM     70  C   UNL     1     -10.118 -11.255   3.698  1.00  0.00     0.134 A 
ATOM     71  F   UNL     1     -13.704 -11.544   4.144  1.00  0.00    -0.206 F 
ATOM     72  C   UNL     1     -12.047 -13.184   4.112  1.00  0.00     0.040 A 
ATOM     73  C   UNL     1      -9.759 -12.606   3.764  1.00  0.00     0.040 A 
ATOM     74  F   UNL     1      -9.079 -10.418   3.607  1.00  0.00    -0.206 F 
ATOM     75  C   UNL     1     -10.719 -13.573   4.008  1.00  0.00     0.006 A 
ENDBRANCH  54  68
BRANCH  55  76
ATOM     76  C   UNL     1      -7.018  -9.062  10.621  1.00  0.00     0.057 A 
ATOM     77  C   UNL     1      -7.198 -10.023  11.630  1.00  0.00     0.134 A 
ATOM     78  C   UNL     1      -5.690  -8.815  10.238  1.00  0.00     0.134 A 
ATOM     79  F   UNL     1      -8.428 -10.350  12.051  1.00  0.00    -0.206 F 
ATOM     80  C   UNL     1      -6.126 -10.730  12.189  1.00  0.00     0.040 A 
ATOM     81  C   UNL     1      -4.609  -9.509  10.795  1.00  0.00     0.040 A 
ATOM     82  F   UNL     1      -5.402  -7.958   9.248  1.00  0.00    -0.206 F 
ATOM     83  C   UNL     1      -4.827 -10.485  11.759  1.00  0.00     0.006 A 
ENDBRANCH  55  76
BRANCH  67  84
ATOM     84  C   UNL     1     -13.091  -7.826   9.720  1.00  0.00     0.057 A 
ATOM     85  C   UNL     1     -12.415  -6.676  10.151  1.00  0.00     0.134 A 
ATOM     86  C   UNL     1     -14.398  -8.009  10.188  1.00  0.00     0.134 A 
ATOM     87  F   UNL     1     -11.193  -6.372   9.693  1.00  0.00    -0.206 F 
ATOM     88  C   UNL     1     -12.999  -5.779  11.050  1.00  0.00     0.040 A 
ATOM     89  C   UNL     1     -15.006  -7.101  11.054  1.00  0.00     0.040 A 
ATOM     90  F   UNL     1     -15.118  -9.068   9.786  1.00  0.00    -0.206 F 
ATOM     91  C   UNL     1     -14.300  -5.988  11.501  1.00  0.00     0.006 A 
ENDBRANCH  67  84
ENDBRANCH  41  42
ENDBRANCH  33  36
ENDBRANCH  31  32
ENDBRANCH  30  31
ENDBRANCH  29  30
ENDBRANCH   1  29
TORSDOF 15
