REMARK SMILES Cc1nn([C@@H](C)C(=O)NCCCCNC(=O)c2ccc(-c3c4nc(c(-c5c(F)cccc5F)c5ccc([nH]5)c(-c5c(F)cccc5F)c5nc(c(-c6c(F)cccc6F)c6ccc3[nH]6)C=C5)C=C4)cc2)c(=O)c2cc3cc(F)ccc3n12
REMARK SMILES IDX 12 1 11 2 10 3 9 4 7 5 8 6 5 8 6 9 4 10 1 11 2 12 3 13 82 14
REMARK SMILES IDX 73 15 81 16 71 17 74 18 75 19 80 20 72 21 76 22 79 23 77 24
REMARK SMILES IDX 78 25 13 26 14 27 15 28 16 30 17 31 18 32 70 33 19 34 69 35
REMARK SMILES IDX 20 36 21 37 22 38 63 39 23 40 68 41 62 42 64 43 24 44 67 45
REMARK SMILES IDX 61 46 60 47 25 49 51 50 34 51 50 52 35 53 38 54 49 55 65 56
REMARK SMILES IDX 36 57 37 58 48 60 66 61 39 62 26 63 27 64 32 65 28 66 29 67
REMARK SMILES IDX 31 68 33 69 30 70 52 71 53 72 58 73 54 74 55 75 57 76 59 77
REMARK SMILES IDX 56 78 40 79 41 80 46 81 42 82 43 83 45 84 47 85 44 86
REMARK H PARENT 9 7 14 29 64 48 38 59
REMARK Flexibility Score: inf
ROOT
ATOM      1  C   UNL     1      -2.095  -7.410   0.197  1.00  0.00     0.023 C 
ENDROOT
BRANCH   1   2
ATOM      2  C   UNL     1      -1.351  -6.313  -0.574  1.00  0.00     0.023 C 
BRANCH   2   3
ATOM      3  C   UNL     1      -2.036  -5.907  -1.879  1.00  0.00     0.116 C 
BRANCH   3   4
ATOM      4  N   UNL     1      -2.987  -4.841  -1.681  1.00  0.00    -0.354 N 
ATOM      5  C   UNL     1      -2.937  -3.522  -2.006  1.00  0.00     0.244 C 
ATOM      6  O   UNL     1      -3.979  -2.886  -1.796  1.00  0.00    -0.273 OA
ATOM      7  H   UNL     1      -3.818  -5.118  -1.232  1.00  0.00     0.163 HD
BRANCH   5   8
ATOM      8  C   UNL     1      -1.720  -2.820  -2.660  1.00  0.00     0.197 C 
ATOM      9  C   UNL     1      -1.467  -3.268  -4.096  1.00  0.00     0.044 C 
BRANCH   8  10
ATOM     10  N   UNL     1      -0.527  -2.717  -1.791  1.00  0.00    -0.214 N 
ATOM     11  C   UNL     1       0.919   0.026   0.256  1.00  0.00     0.090 C 
ATOM     12  C   UNL     1       0.619  -1.322  -0.309  1.00  0.00     0.131 A 
ATOM     13  N   UNL     1      -0.346  -1.473  -1.171  1.00  0.00    -0.155 NA
ATOM     14  N   UNL     1       1.406  -2.399   0.121  1.00  0.00    -0.291 N 
ATOM     15  C   UNL     1       1.256  -3.607  -0.510  1.00  0.00     0.115 A 
ATOM     16  C   UNL     1       2.385  -2.541   1.110  1.00  0.00     0.055 A 
ATOM     17  C   UNL     1       0.427  -3.733  -1.676  1.00  0.00     0.291 A 
ATOM     18  C   UNL     1       1.975  -4.567   0.157  1.00  0.00     0.043 A 
ATOM     19  C   UNL     1       2.698  -3.912   1.176  1.00  0.00     0.004 A 
ATOM     20  C   UNL     1       3.028  -1.628   1.971  1.00  0.00     0.030 A 
ATOM     21  O   UNL     1       0.570  -4.657  -2.456  1.00  0.00    -0.265 OA
ATOM     22  C   UNL     1       3.620  -4.383   2.129  1.00  0.00     0.049 A 
ATOM     23  C   UNL     1       3.982  -2.113   2.874  1.00  0.00     0.041 A 
ATOM     24  C   UNL     1       4.259  -3.467   2.954  1.00  0.00     0.123 A 
ATOM     25  F   UNL     1       5.174  -3.903   3.830  1.00  0.00    -0.207 F 
ENDBRANCH   8  10
ENDBRANCH   5   8
ENDBRANCH   3   4
ENDBRANCH   2   3
ENDBRANCH   1   2
BRANCH   1  26
ATOM     26  C   UNL     1      -2.300  -8.693  -0.614  1.00  0.00     0.116 C 
BRANCH  26  27
ATOM     27  N   UNL     1      -1.063  -9.290  -1.071  1.00  0.00    -0.352 N 
ATOM     28  C   UNL     1      -0.245 -10.271  -0.589  1.00  0.00     0.251 C 
ATOM     29  H   UNL     1      -0.740  -8.902  -1.917  1.00  0.00     0.163 HD
ATOM     30  O   UNL     1       0.636 -10.678  -1.349  1.00  0.00    -0.269 OA
BRANCH  28  31
ATOM     31  C   UNL     1      -0.288 -10.793   0.801  1.00  0.00     0.039 A 
ATOM     32  C   UNL     1      -1.245 -10.465   1.760  1.00  0.00     0.014 A 
ATOM     33  C   UNL     1       0.797 -11.608   1.177  1.00  0.00     0.014 A 
ATOM     34  C   UNL     1      -1.057 -10.818   3.085  1.00  0.00     0.010 A 
ATOM     35  C   UNL     1       0.981 -11.986   2.497  1.00  0.00     0.010 A 
ATOM     36  C   UNL     1       0.080 -11.537   3.454  1.00  0.00    -0.014 A 
BRANCH  36  37
ATOM     37  C   UNL     1       0.179 -11.964   4.842  1.00  0.00     0.031 A 
ATOM     38  C   UNL     1      -0.946 -12.860   5.239  1.00  0.00     0.074 A 
ATOM     39  C   UNL     1       1.233 -11.651   5.623  1.00  0.00     0.049 A 
ATOM     40  N   UNL     1      -1.839 -12.657   6.151  1.00  0.00    -0.248 NA
ATOM     41  C   UNL     1      -1.232 -14.026   4.381  1.00  0.00     0.031 C 
ATOM     42  C   UNL     1       2.467 -10.966   5.230  1.00  0.00     0.029 A 
ATOM     43  N   UNL     1       1.469 -11.966   6.929  1.00  0.00    -0.354 N 
ATOM     44  C   UNL     1      -2.666 -13.781   6.129  1.00  0.00     0.074 A 
ATOM     45  C   UNL     1      -2.366 -14.480   4.912  1.00  0.00     0.031 C 
ATOM     46  C   UNL     1       3.402 -11.132   6.193  1.00  0.00     0.029 A 
ATOM     47  C   UNL     1       2.800 -11.816   7.322  1.00  0.00     0.049 A 
ATOM     48  H   UNL     1       0.762 -12.274   7.541  1.00  0.00     0.167 HD
ATOM     49  C   UNL     1      -3.319 -14.179   7.255  1.00  0.00     0.037 A 
ATOM     50  C   UNL     1       3.359 -12.291   8.467  1.00  0.00     0.037 A 
ATOM     51  C   UNL     1      -3.461 -13.073   8.171  1.00  0.00     0.049 A 
ATOM     52  C   UNL     1       2.252 -12.592   9.409  1.00  0.00     0.074 A 
ATOM     53  C   UNL     1      -4.092 -11.846   8.128  1.00  0.00     0.029 A 
ATOM     54  N   UNL     1      -2.568 -13.001   9.211  1.00  0.00    -0.354 N 
ATOM     55  N   UNL     1       1.514 -11.674   9.966  1.00  0.00    -0.248 NA
ATOM     56  C   UNL     1       1.657 -13.917   9.335  1.00  0.00     0.031 C 
ATOM     57  C   UNL     1      -3.220 -10.958   8.825  1.00  0.00     0.029 A 
ATOM     58  C   UNL     1      -2.154 -11.703   9.328  1.00  0.00     0.049 A 
ATOM     59  H   UNL     1      -2.277 -13.754   9.775  1.00  0.00     0.167 HD
ATOM     60  C   UNL     1       0.223 -12.174   9.892  1.00  0.00     0.074 A 
ATOM     61  C   UNL     1       0.380 -13.588   9.551  1.00  0.00     0.031 C 
ATOM     62  C   UNL     1      -0.850 -11.332   9.820  1.00  0.00     0.037 A 
BRANCH  49  63
ATOM     63  C   UNL     1      -3.366 -15.624   7.722  1.00  0.00     0.057 A 
ATOM     64  C   UNL     1      -2.582 -16.673   7.197  1.00  0.00     0.134 A 
ATOM     65  C   UNL     1      -3.960 -15.904   8.969  1.00  0.00     0.134 A 
ATOM     66  F   UNL     1      -1.952 -16.598   6.021  1.00  0.00    -0.206 F 
ATOM     67  C   UNL     1      -2.321 -17.852   7.900  1.00  0.00     0.040 A 
ATOM     68  C   UNL     1      -3.673 -17.065   9.697  1.00  0.00     0.040 A 
ATOM     69  F   UNL     1      -4.760 -15.009   9.569  1.00  0.00    -0.206 F 
ATOM     70  C   UNL     1      -2.830 -18.033   9.173  1.00  0.00     0.006 A 
ENDBRANCH  49  63
BRANCH  50  71
ATOM     71  C   UNL     1       4.733 -12.802   8.698  1.00  0.00     0.057 A 
ATOM     72  C   UNL     1       5.479 -13.390   7.663  1.00  0.00     0.134 A 
ATOM     73  C   UNL     1       5.237 -12.985   9.995  1.00  0.00     0.134 A 
ATOM     74  F   UNL     1       5.050 -13.352   6.393  1.00  0.00    -0.206 F 
ATOM     75  C   UNL     1       6.647 -14.125   7.901  1.00  0.00     0.040 A 
ATOM     76  C   UNL     1       6.403 -13.723  10.248  1.00  0.00     0.040 A 
ATOM     77  F   UNL     1       4.572 -12.508  11.058  1.00  0.00    -0.206 F 
ATOM     78  C   UNL     1       7.107 -14.305   9.199  1.00  0.00     0.006 A 
ENDBRANCH  50  71
BRANCH  62  79
ATOM     79  C   UNL     1      -0.610  -9.872  10.079  1.00  0.00     0.057 A 
ATOM     80  C   UNL     1      -1.343  -9.251  11.096  1.00  0.00     0.134 A 
ATOM     81  C   UNL     1       0.206  -9.046   9.290  1.00  0.00     0.134 A 
ATOM     82  F   UNL     1      -2.188  -9.968  11.854  1.00  0.00    -0.206 F 
ATOM     83  C   UNL     1      -1.265  -7.878  11.329  1.00  0.00     0.040 A 
ATOM     84  C   UNL     1       0.321  -7.674   9.536  1.00  0.00     0.040 A 
ATOM     85  F   UNL     1       0.867  -9.532   8.231  1.00  0.00    -0.206 F 
ATOM     86  C   UNL     1      -0.421  -7.085  10.556  1.00  0.00     0.006 A 
ENDBRANCH  62  79
ENDBRANCH  36  37
ENDBRANCH  28  31
ENDBRANCH  26  27
ENDBRANCH   1  26
TORSDOF 12
