REMARK SMILES O=C(NCCCCNC(=O)[C@H](NC(=O)[C@H]1CC[C@@H](CNC(=O)[C@@H]2Cc3ccccc3C[NH2+]2)CC1)c1ccccc1)c1ccc(-c2c3nc(c(-c4c(F)cccc4F)c4ccc([nH]4)c(-c4c(F)cccc4F)c4nc(c(-c5c(F)cccc5F)c5ccc2[nH]5)C=C4)C=C3)cc1
REMARK SMILES IDX 7 1 6 2 5 3 4 4 3 5 1 6 2 7 41 9 42 10 94 11 43 12 93 13
REMARK SMILES IDX 44 14 45 15 46 16 87 17 47 18 92 19 86 20 88 21 48 22 91 23
REMARK SMILES IDX 85 24 84 25 49 27 75 28 58 29 74 30 59 31 62 32 73 33 89 34
REMARK SMILES IDX 60 35 61 36 72 38 90 39 63 40 50 41 51 42 56 43 52 44 53 45
REMARK SMILES IDX 55 46 57 47 54 48 76 49 77 50 82 51 78 52 79 53 81 54 83 55
REMARK SMILES IDX 80 56 64 57 65 58 70 59 66 60 67 61 69 62 71 63 68 64 8 65
REMARK SMILES IDX 9 66 10 68 11 69 35 70 36 71 40 72 37 73 39 74 38 75 12 76
REMARK SMILES IDX 13 77 14 79 15 80 34 81 16 82 33 83 17 84 18 85 19 86 20 87
REMARK SMILES IDX 21 88 22 90 23 91 24 92 32 93 25 94 31 95 26 98 30 99 27 100
REMARK SMILES IDX 29 101 28 102
REMARK H PARENT 3 8 88 26 62 37 8 67 12 78 20 89 32 96 32 97
REMARK Flexibility Score: inf
ROOT
ATOM      1  C   UNL     1      -2.199  10.819  -3.553  1.00  0.00     0.116 C 
ENDROOT
BRANCH   1   2
ATOM      2  C   UNL     1      -2.225  11.272  -5.008  1.00  0.00     0.023 C 
BRANCH   2   3
ATOM      3  C   UNL     1      -1.347  10.463  -5.955  1.00  0.00     0.023 C 
BRANCH   3   4
ATOM      4  C   UNL     1      -1.566   8.957  -5.912  1.00  0.00     0.116 C 
BRANCH   4   5
ATOM      5  N   UNL     1      -2.934   8.564  -6.222  1.00  0.00    -0.352 N 
ATOM      6  O   UNL     1      -4.597   7.584  -7.396  1.00  0.00    -0.269 OA
ATOM      7  C   UNL     1      -3.393   7.705  -7.192  1.00  0.00     0.251 C 
ATOM      8  H   UNL     1      -3.629   8.973  -5.658  1.00  0.00     0.163 HD
BRANCH   7   9
ATOM      9  C   UNL     1      -2.421   6.949  -8.008  1.00  0.00     0.039 A 
ATOM     10  C   UNL     1      -1.345   6.302  -7.398  1.00  0.00     0.014 A 
ATOM     11  C   UNL     1      -2.570   6.916  -9.397  1.00  0.00     0.014 A 
ATOM     12  C   UNL     1      -0.331   5.771  -8.182  1.00  0.00     0.010 A 
ATOM     13  C   UNL     1      -1.597   6.290 -10.181  1.00  0.00     0.010 A 
ATOM     14  C   UNL     1      -0.452   5.744  -9.581  1.00  0.00    -0.014 A 
BRANCH  14  15
ATOM     15  C   UNL     1       0.602   5.074 -10.382  1.00  0.00     0.031 A 
ATOM     16  C   UNL     1       1.445   5.838 -11.364  1.00  0.00     0.074 A 
ATOM     17  C   UNL     1       0.810   3.757 -10.188  1.00  0.00     0.049 A 
ATOM     18  N   UNL     1       2.408   5.400 -12.135  1.00  0.00    -0.248 NA
ATOM     19  C   UNL     1       1.172   7.277 -11.506  1.00  0.00     0.031 C 
ATOM     20  C   UNL     1       0.047   2.912  -9.266  1.00  0.00     0.029 A 
ATOM     21  N   UNL     1       1.730   2.903 -10.736  1.00  0.00    -0.354 N 
ATOM     22  C   UNL     1       2.843   6.498 -12.866  1.00  0.00     0.074 A 
ATOM     23  C   UNL     1       2.023   7.621 -12.464  1.00  0.00     0.031 C 
ATOM     24  C   UNL     1       0.559   1.674  -9.277  1.00  0.00     0.029 A 
ATOM     25  C   UNL     1       1.637   1.619 -10.255  1.00  0.00     0.049 A 
ATOM     26  H   UNL     1       2.394   3.181 -11.408  1.00  0.00     0.167 HD
ATOM     27  C   UNL     1       3.839   6.561 -13.783  1.00  0.00     0.037 A 
ATOM     28  C   UNL     1       2.326   0.512 -10.582  1.00  0.00     0.037 A 
ATOM     29  C   UNL     1       4.660   5.440 -14.166  1.00  0.00     0.049 A 
ATOM     30  C   UNL     1       3.403   0.607 -11.622  1.00  0.00     0.074 A 
ATOM     31  C   UNL     1       5.716   5.410 -15.062  1.00  0.00     0.029 A 
ATOM     32  N   UNL     1       4.515   4.149 -13.679  1.00  0.00    -0.354 N 
ATOM     33  N   UNL     1       3.820   1.659 -12.284  1.00  0.00    -0.248 NA
ATOM     34  C   UNL     1       4.101  -0.638 -11.964  1.00  0.00     0.031 C 
ATOM     35  C   UNL     1       6.178   4.093 -15.151  1.00  0.00     0.029 A 
ATOM     36  C   UNL     1       5.446   3.311 -14.273  1.00  0.00     0.049 A 
ATOM     37  H   UNL     1       3.849   3.869 -13.010  1.00  0.00     0.167 HD
ATOM     38  C   UNL     1       4.841   1.207 -13.106  1.00  0.00     0.074 A 
ATOM     39  C   UNL     1       4.993  -0.210 -12.845  1.00  0.00     0.031 C 
ATOM     40  C   UNL     1       5.585   1.903 -14.000  1.00  0.00     0.037 A 
BRANCH  27  41
ATOM     41  C   UNL     1       4.091   7.881 -14.455  1.00  0.00     0.057 A 
ATOM     42  C   UNL     1       4.686   8.955 -13.781  1.00  0.00     0.134 A 
ATOM     43  C   UNL     1       3.791   8.058 -15.812  1.00  0.00     0.134 A 
ATOM     44  F   UNL     1       4.990   8.856 -12.478  1.00  0.00    -0.206 F 
ATOM     45  C   UNL     1       4.958  10.162 -14.428  1.00  0.00     0.040 A 
ATOM     46  C   UNL     1       4.080   9.252 -16.476  1.00  0.00     0.040 A 
ATOM     47  F   UNL     1       3.228   7.068 -16.520  1.00  0.00    -0.206 F 
ATOM     48  C   UNL     1       4.663  10.310 -15.782  1.00  0.00     0.006 A 
ENDBRANCH  27  41
BRANCH  28  49
ATOM     49  C   UNL     1       2.003  -0.778  -9.925  1.00  0.00     0.057 A 
ATOM     50  C   UNL     1       2.899  -1.385  -9.039  1.00  0.00     0.134 A 
ATOM     51  C   UNL     1       0.784  -1.428 -10.160  1.00  0.00     0.134 A 
ATOM     52  F   UNL     1       4.087  -0.818  -8.787  1.00  0.00    -0.206 F 
ATOM     53  C   UNL     1       2.602  -2.601  -8.422  1.00  0.00     0.040 A 
ATOM     54  C   UNL     1       0.463  -2.628  -9.527  1.00  0.00     0.040 A 
ATOM     55  F   UNL     1      -0.121  -0.891 -10.990  1.00  0.00    -0.206 F 
ATOM     56  C   UNL     1       1.377  -3.223  -8.660  1.00  0.00     0.006 A 
ENDBRANCH  28  49
BRANCH  40  57
ATOM     57  C   UNL     1       6.650   1.144 -14.733  1.00  0.00     0.057 A 
ATOM     58  C   UNL     1       6.340   0.219 -15.738  1.00  0.00     0.134 A 
ATOM     59  C   UNL     1       8.004   1.359 -14.445  1.00  0.00     0.134 A 
ATOM     60  F   UNL     1       5.061  -0.043 -16.050  1.00  0.00    -0.206 F 
ATOM     61  C   UNL     1       7.338  -0.485 -16.413  1.00  0.00     0.040 A 
ATOM     62  C   UNL     1       9.011   0.680 -15.131  1.00  0.00     0.040 A 
ATOM     63  F   UNL     1       8.368   2.236 -13.498  1.00  0.00    -0.206 F 
ATOM     64  C   UNL     1       8.679  -0.250 -16.113  1.00  0.00     0.006 A 
ENDBRANCH  40  57
ENDBRANCH  14  15
ENDBRANCH   7   9
ENDBRANCH   4   5
ENDBRANCH   3   4
ENDBRANCH   2   3
ENDBRANCH   1   2
BRANCH   1  65
ATOM     65  N   UNL     1      -0.921  11.048  -2.909  1.00  0.00    -0.354 N 
ATOM     66  C   UNL     1      -0.646  11.680  -1.723  1.00  0.00     0.247 C 
ATOM     67  H   UNL     1      -0.137  10.700  -3.393  1.00  0.00     0.163 HD
ATOM     68  O   UNL     1       0.532  11.692  -1.364  1.00  0.00    -0.272 OA
BRANCH  66  69
ATOM     69  C   UNL     1      -1.790  12.344  -0.902  1.00  0.00     0.202 C 
BRANCH  69  70
ATOM     70  C   UNL     1      -2.676  11.357  -0.162  1.00  0.00    -0.016 A 
ATOM     71  C   UNL     1      -3.976  11.030  -0.580  1.00  0.00     0.006 A 
ATOM     72  C   UNL     1      -2.189  10.668   0.936  1.00  0.00     0.006 A 
ATOM     73  C   UNL     1      -4.723  10.040   0.074  1.00  0.00     0.000 A 
ATOM     74  C   UNL     1      -2.946   9.736   1.646  1.00  0.00     0.000 A 
ATOM     75  C   UNL     1      -4.212   9.400   1.197  1.00  0.00     0.000 A 
ENDBRANCH  69  70
BRANCH  69  76
ATOM     76  N   UNL     1      -1.392  13.585  -0.193  1.00  0.00    -0.340 N 
ATOM     77  C   UNL     1      -0.692  14.076   0.845  1.00  0.00     0.224 C 
ATOM     78  H   UNL     1      -1.799  14.346  -0.668  1.00  0.00     0.164 HD
ATOM     79  O   UNL     1      -0.653  15.320   0.846  1.00  0.00    -0.275 OA
BRANCH  77  80
ATOM     80  C   UNL     1       0.025  13.359   1.999  1.00  0.00     0.078 C 
ATOM     81  C   UNL     1      -0.908  12.739   3.042  1.00  0.00     0.014 C 
ATOM     82  C   UNL     1       1.230  12.524   1.590  1.00  0.00     0.014 C 
ATOM     83  C   UNL     1      -0.346  11.602   3.923  1.00  0.00     0.006 C 
ATOM     84  C   UNL     1       1.884  11.847   2.790  1.00  0.00     0.006 C 
ATOM     85  C   UNL     1       0.938  10.858   3.474  1.00  0.00     0.008 C 
BRANCH  85  86
ATOM     86  C   UNL     1       0.641   9.586   2.647  1.00  0.00     0.119 C 
BRANCH  86  87
ATOM     87  N   UNL     1       1.784   8.763   2.309  1.00  0.00    -0.351 N 
ATOM     88  C   UNL     1       1.734   7.508   1.747  1.00  0.00     0.278 C 
ATOM     89  H   UNL     1       2.676   9.135   2.499  1.00  0.00     0.163 HD
ATOM     90  O   UNL     1       2.613   7.211   0.935  1.00  0.00    -0.268 OA
BRANCH  88  91
ATOM     91  C   UNL     1       0.663   6.478   2.184  1.00  0.00     0.277 C 
ATOM     92  C   UNL     1      -0.729   6.696   1.560  1.00  0.00     0.111 C 
ATOM     93  N   UNL     1       0.746   6.294   3.653  1.00  0.00    -0.332 N 
ATOM     94  C   UNL     1      -1.755   5.794   2.205  1.00  0.00    -0.033 A 
ATOM     95  C   UNL     1      -0.531   6.219   4.347  1.00  0.00     0.298 C 
ATOM     96  H   UNL     1       1.268   7.080   4.040  1.00  0.00     0.347 HD
ATOM     97  H   UNL     1       1.197   5.391   3.798  1.00  0.00     0.347 HD
ATOM     98  C   UNL     1      -2.841   5.264   1.499  1.00  0.00     0.004 A 
ATOM     99  C   UNL     1      -1.608   5.508   3.573  1.00  0.00     0.010 A 
ATOM    100  C   UNL     1      -3.744   4.413   2.142  1.00  0.00     0.000 A 
ATOM    101  C   UNL     1      -2.514   4.648   4.206  1.00  0.00     0.010 A 
ATOM    102  C   UNL     1      -3.572   4.093   3.488  1.00  0.00     0.001 A 
ENDBRANCH  88  91
ENDBRANCH  86  87
ENDBRANCH  85  86
ENDBRANCH  77  80
ENDBRANCH  69  76
ENDBRANCH  66  69
ENDBRANCH   1  65
TORSDOF 17
