REMARK SMILES Cc1ccc(C(=O)NCCCCNC(=O)c2ccc(-c3c4nc(c(-c5c(F)cccc5F)c5ccc([nH]5)c(-c5c(F)cccc5F)c5nc(c(-c6c(F)cccc6F)c6ccc3[nH]6)C=C5)C=C4)cc2)cc1NC(=O)C(=O)NC[C@@H](c1ccccc1)[NH+]1CC[NH+](C)CC1
REMARK SMILES IDX 9 1 8 2 6 3 7 4 5 6 1 7 2 8 3 9 71 10 4 11 70 12 72 13 73 14
REMARK SMILES IDX 74 16 75 17 76 18 77 19 78 21 79 22 86 23 87 24 92 25 88 27
REMARK SMILES IDX 91 28 89 29 90 30 80 32 81 33 85 34 82 35 84 36 83 37 10 38
REMARK SMILES IDX 11 39 12 40 13 41 14 42 15 44 16 45 17 46 69 47 18 48 68 49
REMARK SMILES IDX 19 50 20 51 21 52 62 53 22 54 67 55 61 56 63 57 23 58 66 59
REMARK SMILES IDX 60 60 59 61 24 63 50 64 33 65 49 66 34 67 37 68 48 69 64 70
REMARK SMILES IDX 35 71 36 72 47 74 65 75 38 76 25 77 26 78 31 79 27 80 28 81
REMARK SMILES IDX 30 82 32 83 29 84 51 85 52 86 57 87 53 88 54 89 56 90 58 91
REMARK SMILES IDX 55 92 39 93 40 94 45 95 41 96 42 97 44 98 46 99 43 100
REMARK H PARENT 8 5 72 15 77 20 86 26 89 31 13 43 63 62 37 73
REMARK Flexibility Score: inf
ROOT
ATOM      1  C   UNL     1       1.502   8.210  -4.796  1.00  0.00     0.116 C 
ENDROOT
BRANCH   1   2
ATOM      2  N   UNL     1       2.651   8.618  -5.573  1.00  0.00    -0.352 N 
ATOM      3  C   UNL     1       2.997   9.891  -5.991  1.00  0.00     0.251 C 
ATOM      4  O   UNL     1       4.034  10.043  -6.633  1.00  0.00    -0.269 OA
ATOM      5  H   UNL     1       3.266   7.897  -5.840  1.00  0.00     0.163 HD
BRANCH   3   6
ATOM      6  C   UNL     1       2.111  11.070  -5.748  1.00  0.00     0.041 A 
ATOM      7  C   UNL     1      -0.692  14.349  -5.475  1.00  0.00     0.046 C 
ATOM      8  C   UNL     1       0.295  13.211  -5.492  1.00  0.00    -0.027 A 
ATOM      9  C   UNL     1       1.089  13.068  -6.647  1.00  0.00     0.006 A 
ATOM     10  C   UNL     1       0.451  12.295  -4.431  1.00  0.00     0.045 A 
ATOM     11  C   UNL     1       1.971  11.996  -6.784  1.00  0.00     0.014 A 
ATOM     12  C   UNL     1       1.417  11.284  -4.546  1.00  0.00     0.040 A 
BRANCH  10  13
ATOM     13  N   UNL     1      -0.333  12.426  -3.261  1.00  0.00    -0.318 N 
ATOM     14  C   UNL     1      -0.809  11.458  -2.384  1.00  0.00     0.313 C 
ATOM     15  H   UNL     1      -0.582  13.351  -3.030  1.00  0.00     0.170 HD
ATOM     16  O   UNL     1      -1.310  11.765  -1.306  1.00  0.00    -0.263 OA
BRANCH  14  17
ATOM     17  C   UNL     1      -0.858   9.987  -2.852  1.00  0.00     0.309 C 
ATOM     18  O   UNL     1      -1.114   9.718  -4.020  1.00  0.00    -0.264 OA
ATOM     19  N   UNL     1      -0.622   8.971  -1.948  1.00  0.00    -0.341 N 
ATOM     20  H   UNL     1       0.165   8.396  -2.094  1.00  0.00     0.164 HD
BRANCH  19  21
ATOM     21  C   UNL     1      -1.474   8.693  -0.779  1.00  0.00     0.186 C 
BRANCH  21  22
ATOM     22  C   UNL     1      -2.167   7.266  -0.873  1.00  0.00     0.235 C 
BRANCH  22  23
ATOM     23  N   UNL     1      -3.525   7.123  -1.446  1.00  0.00    -0.318 N 
ATOM     24  C   UNL     1      -3.762   7.801  -2.725  1.00  0.00     0.325 C 
ATOM     25  C   UNL     1      -4.664   7.390  -0.556  1.00  0.00     0.325 C 
ATOM     26  H   UNL     1      -3.498   6.117  -1.611  1.00  0.00     0.349 HD
ATOM     27  C   UNL     1      -4.212   9.281  -2.634  1.00  0.00     0.324 C 
ATOM     28  C   UNL     1      -4.918   8.882  -0.305  1.00  0.00     0.324 C 
ATOM     29  N   UNL     1      -5.141   9.639  -1.546  1.00  0.00    -0.328 N 
ATOM     30  C   UNL     1      -5.072  11.077  -1.275  1.00  0.00     0.333 C 
ATOM     31  H   UNL     1      -6.074   9.387  -1.872  1.00  0.00     0.348 HD
ENDBRANCH  22  23
BRANCH  22  32
ATOM     32  C   UNL     1      -2.029   6.404   0.391  1.00  0.00     0.011 A 
ATOM     33  C   UNL     1      -1.736   5.035   0.250  1.00  0.00     0.010 A 
ATOM     34  C   UNL     1      -2.293   6.888   1.680  1.00  0.00     0.010 A 
ATOM     35  C   UNL     1      -1.658   4.189   1.358  1.00  0.00     0.001 A 
ATOM     36  C   UNL     1      -2.234   6.037   2.791  1.00  0.00     0.001 A 
ATOM     37  C   UNL     1      -1.904   4.690   2.631  1.00  0.00     0.000 A 
ENDBRANCH  22  32
ENDBRANCH  21  22
ENDBRANCH  19  21
ENDBRANCH  14  17
ENDBRANCH  10  13
ENDBRANCH   3   6
ENDBRANCH   1   2
BRANCH   1  38
ATOM     38  C   UNL     1       0.683   7.023  -5.293  1.00  0.00     0.023 C 
BRANCH  38  39
ATOM     39  C   UNL     1       1.367   5.667  -5.306  1.00  0.00     0.023 C 
BRANCH  39  40
ATOM     40  C   UNL     1       1.877   5.183  -3.959  1.00  0.00     0.116 C 
BRANCH  40  41
ATOM     41  N   UNL     1       0.930   4.466  -3.123  1.00  0.00    -0.352 N 
ATOM     42  C   UNL     1       1.153   3.819  -1.911  1.00  0.00     0.251 C 
ATOM     43  H   UNL     1       0.005   4.434  -3.459  1.00  0.00     0.163 HD
ATOM     44  O   UNL     1       0.307   3.059  -1.475  1.00  0.00    -0.269 OA
BRANCH  42  45
ATOM     45  C   UNL     1       2.348   4.145  -1.075  1.00  0.00     0.039 A 
ATOM     46  C   UNL     1       2.235   4.073   0.324  1.00  0.00     0.014 A 
ATOM     47  C   UNL     1       3.523   4.638  -1.623  1.00  0.00     0.014 A 
ATOM     48  C   UNL     1       3.194   4.681   1.141  1.00  0.00     0.010 A 
ATOM     49  C   UNL     1       4.394   5.354  -0.840  1.00  0.00     0.010 A 
ATOM     50  C   UNL     1       4.209   5.412   0.542  1.00  0.00    -0.014 A 
BRANCH  50  51
ATOM     51  C   UNL     1       5.220   6.213   1.212  1.00  0.00     0.031 A 
ATOM     52  C   UNL     1       6.581   5.653   1.355  1.00  0.00     0.074 A 
ATOM     53  C   UNL     1       5.011   7.548   1.267  1.00  0.00     0.049 A 
ATOM     54  N   UNL     1       7.559   6.264   1.929  1.00  0.00    -0.248 NA
ATOM     55  C   UNL     1       6.946   4.316   0.877  1.00  0.00     0.031 C 
ATOM     56  C   UNL     1       6.006   8.615   1.230  1.00  0.00     0.029 A 
ATOM     57  N   UNL     1       3.813   8.213   1.553  1.00  0.00    -0.354 N 
ATOM     58  C   UNL     1       8.707   5.610   1.551  1.00  0.00     0.074 A 
ATOM     59  C   UNL     1       8.268   4.326   1.072  1.00  0.00     0.031 C 
ATOM     60  C   UNL     1       5.467   9.738   1.733  1.00  0.00     0.029 A 
ATOM     61  C   UNL     1       4.183   9.364   2.296  1.00  0.00     0.049 A 
ATOM     62  H   UNL     1       2.904   7.939   1.294  1.00  0.00     0.167 HD
ATOM     63  C   UNL     1       9.871   6.315   1.507  1.00  0.00     0.037 A 
ATOM     64  C   UNL     1       3.849   9.504   3.619  1.00  0.00     0.037 A 
ATOM     65  C   UNL     1       9.726   7.599   2.193  1.00  0.00     0.049 A 
ATOM     66  C   UNL     1       5.024   9.651   4.539  1.00  0.00     0.074 A 
ATOM     67  C   UNL     1       9.655   8.909   1.753  1.00  0.00     0.029 A 
ATOM     68  N   UNL     1       9.352   7.611   3.535  1.00  0.00    -0.354 N 
ATOM     69  N   UNL     1       6.235   9.313   4.209  1.00  0.00    -0.248 NA
ATOM     70  C   UNL     1       4.919  10.123   5.915  1.00  0.00     0.031 C 
ATOM     71  C   UNL     1       9.104   9.687   2.809  1.00  0.00     0.029 A 
ATOM     72  C   UNL     1       8.901   8.862   3.904  1.00  0.00     0.049 A 
ATOM     73  H   UNL     1       9.402   6.834   4.138  1.00  0.00     0.167 HD
ATOM     74  C   UNL     1       7.052   9.461   5.290  1.00  0.00     0.074 A 
ATOM     75  C   UNL     1       6.191   9.999   6.327  1.00  0.00     0.031 C 
ATOM     76  C   UNL     1       8.363   9.093   5.239  1.00  0.00     0.037 A 
BRANCH  63  77
ATOM     77  C   UNL     1      11.079   5.963   0.662  1.00  0.00     0.057 A 
ATOM     78  C   UNL     1      12.255   6.734   0.765  1.00  0.00     0.134 A 
ATOM     79  C   UNL     1      11.121   4.986  -0.355  1.00  0.00     0.134 A 
ATOM     80  F   UNL     1      12.367   7.715   1.671  1.00  0.00    -0.206 F 
ATOM     81  C   UNL     1      13.366   6.552  -0.072  1.00  0.00     0.040 A 
ATOM     82  C   UNL     1      12.246   4.758  -1.162  1.00  0.00     0.040 A 
ATOM     83  F   UNL     1      10.062   4.237  -0.681  1.00  0.00    -0.206 F 
ATOM     84  C   UNL     1      13.371   5.552  -1.032  1.00  0.00     0.006 A 
ENDBRANCH  63  77
BRANCH  64  85
ATOM     85  C   UNL     1       2.626   8.742   3.985  1.00  0.00     0.057 A 
ATOM     86  C   UNL     1       1.475   9.067   3.259  1.00  0.00     0.134 A 
ATOM     87  C   UNL     1       2.757   7.434   4.471  1.00  0.00     0.134 A 
ATOM     88  F   UNL     1       1.275  10.318   2.816  1.00  0.00    -0.206 F 
ATOM     89  C   UNL     1       0.680   8.057   2.745  1.00  0.00     0.040 A 
ATOM     90  C   UNL     1       1.920   6.425   4.009  1.00  0.00     0.040 A 
ATOM     91  F   UNL     1       3.792   7.087   5.247  1.00  0.00    -0.206 F 
ATOM     92  C   UNL     1       0.955   6.730   3.059  1.00  0.00     0.006 A 
ENDBRANCH  64  85
BRANCH  76  93
ATOM     93  C   UNL     1       9.257   8.994   6.438  1.00  0.00     0.057 A 
ATOM     94  C   UNL     1       8.813   8.648   7.724  1.00  0.00     0.134 A 
ATOM     95  C   UNL     1      10.652   9.130   6.294  1.00  0.00     0.134 A 
ATOM     96  F   UNL     1       7.527   8.361   7.969  1.00  0.00    -0.206 F 
ATOM     97  C   UNL     1       9.687   8.531   8.810  1.00  0.00     0.040 A 
ATOM     98  C   UNL     1      11.539   8.961   7.359  1.00  0.00     0.040 A 
ATOM     99  F   UNL     1      11.210   9.415   5.108  1.00  0.00    -0.206 F 
ATOM    100  C   UNL     1      11.056   8.682   8.628  1.00  0.00     0.006 A 
ENDBRANCH  76  93
ENDBRANCH  50  51
ENDBRANCH  42  45
ENDBRANCH  40  41
ENDBRANCH  39  40
ENDBRANCH  38  39
ENDBRANCH   1  38
TORSDOF 17
