REMARK SMILES Cc1nc2sc3c(c2c2nc(CCC(=O)NCCCCNC(=O)c4ccc(-c5c6nc(c(-c7c(F)cccc7F)c7ccc([nH]7)c(-c7c(F)cccc7F)c7nc(c(-c8c(F)cccc8F)c8ccc5[nH]8)C=C7)C=C6)cc4)nn12)[C@@H](C)CCC3
REMARK SMILES IDX 18 1 17 2 16 3 14 4 15 5 13 7 12 8 11 9 1 10 2 11 3 12 79 13
REMARK SMILES IDX 4 14 9 15 78 16 5 17 8 18 10 19 6 20 7 21 84 22 80 23 83 24
REMARK SMILES IDX 81 25 82 26 19 27 20 28 21 29 22 30 23 32 24 33 25 34 77 35
REMARK SMILES IDX 26 36 76 37 27 38 28 39 29 40 70 41 30 42 75 43 69 44 71 45
REMARK SMILES IDX 31 46 74 47 68 48 67 49 32 51 58 52 41 53 57 54 42 55 45 56
REMARK SMILES IDX 56 57 72 58 43 59 44 60 55 62 73 63 46 64 33 65 34 66 39 67
REMARK SMILES IDX 35 68 36 69 38 70 40 71 37 72 59 73 60 74 65 75 61 76 62 77
REMARK SMILES IDX 64 78 66 79 63 80 47 81 48 82 53 83 49 84 50 85 52 86 54 87
REMARK SMILES IDX 51 88
REMARK H PARENT 16 6 21 31 71 50 45 61
REMARK Flexibility Score: inf
ROOT
ATOM      1  C   UNL     1      -2.143   2.509   2.137  1.00  0.00     0.023 C 
ENDROOT
BRANCH   1   2
ATOM      2  C   UNL     1      -2.804   3.894   2.150  1.00  0.00     0.116 C 
BRANCH   2   3
ATOM      3  N   UNL     1      -2.291   4.779   3.185  1.00  0.00    -0.356 N 
ATOM      4  C   UNL     1      -1.074   5.375   3.311  1.00  0.00     0.220 C 
ATOM      5  O   UNL     1      -0.832   6.000   4.344  1.00  0.00    -0.275 OA
ATOM      6  H   UNL     1      -2.926   4.980   3.909  1.00  0.00     0.163 HD
BRANCH   4   7
ATOM      7  C   UNL     1      -0.090   5.318   2.168  1.00  0.00     0.108 C 
BRANCH   7   8
ATOM      8  C   UNL     1       1.308   4.911   2.638  1.00  0.00     0.089 C 
BRANCH   8   9
ATOM      9  C   UNL     1       1.435   3.456   2.946  1.00  0.00     0.152 A 
ATOM     10  C   UNL     1       1.478   0.064   0.608  1.00  0.00     0.090 C 
ATOM     11  C   UNL     1       1.464   0.120   2.104  1.00  0.00     0.131 A 
ATOM     12  N   UNL     1       1.309  -0.950   2.830  1.00  0.00    -0.222 NA
ATOM     13  N   UNL     1       1.543   1.395   2.669  1.00  0.00    -0.199 N 
ATOM     14  C   UNL     1       1.061  -0.747   4.164  1.00  0.00     0.129 A 
ATOM     15  C   UNL     1       1.333   1.632   4.012  1.00  0.00     0.168 A 
ATOM     16  N   UNL     1       1.606   2.549   1.973  1.00  0.00    -0.150 NA
ATOM     17  S   UNL     1       0.693  -2.075   5.156  1.00  0.00    -0.120 S 
ATOM     18  C   UNL     1       0.938   0.457   4.859  1.00  0.00     0.060 A 
ATOM     19  N   UNL     1       1.304   2.931   4.217  1.00  0.00    -0.211 NA
ATOM     20  C   UNL     1       0.068  -1.060   6.367  1.00  0.00     0.011 A 
ATOM     21  C   UNL     1       0.274   0.302   6.138  1.00  0.00    -0.018 A 
ATOM     22  C   UNL     1      -0.685  -1.681   7.505  1.00  0.00     0.047 C 
ATOM     23  C   UNL     1      -0.214   1.315   7.181  1.00  0.00     0.018 C 
ATOM     24  C   UNL     1      -0.824  -0.700   8.661  1.00  0.00     0.006 C 
ATOM     25  C   UNL     1      -0.878   2.592   6.676  1.00  0.00     0.013 C 
ATOM     26  C   UNL     1      -1.258   0.669   8.148  1.00  0.00     0.008 C 
ENDBRANCH   8   9
ENDBRANCH   7   8
ENDBRANCH   4   7
ENDBRANCH   2   3
ENDBRANCH   1   2
BRANCH   1  27
ATOM     27  C   UNL     1      -1.961   1.966   3.548  1.00  0.00     0.023 C 
BRANCH  27  28
ATOM     28  C   UNL     1      -2.459   0.569   3.804  1.00  0.00     0.116 C 
BRANCH  28  29
ATOM     29  N   UNL     1      -1.945  -0.574   3.037  1.00  0.00    -0.352 N 
ATOM     30  C   UNL     1      -2.381  -1.905   3.150  1.00  0.00     0.251 C 
ATOM     31  H   UNL     1      -1.230  -0.391   2.384  1.00  0.00     0.163 HD
ATOM     32  O   UNL     1      -1.748  -2.853   2.680  1.00  0.00    -0.269 OA
BRANCH  30  33
ATOM     33  C   UNL     1      -3.666  -2.142   3.829  1.00  0.00     0.039 A 
ATOM     34  C   UNL     1      -3.961  -3.097   4.805  1.00  0.00     0.014 A 
ATOM     35  C   UNL     1      -4.588  -1.170   3.551  1.00  0.00     0.014 A 
ATOM     36  C   UNL     1      -5.155  -2.939   5.528  1.00  0.00     0.010 A 
ATOM     37  C   UNL     1      -5.300  -0.737   4.617  1.00  0.00     0.010 A 
ATOM     38  C   UNL     1      -5.834  -1.722   5.408  1.00  0.00    -0.014 A 
BRANCH  38  39
ATOM     39  C   UNL     1      -7.140  -1.356   5.943  1.00  0.00     0.031 A 
ATOM     40  C   UNL     1      -7.310  -1.341   7.413  1.00  0.00     0.074 A 
ATOM     41  C   UNL     1      -8.036  -0.708   5.147  1.00  0.00     0.049 A 
ATOM     42  N   UNL     1      -8.190  -1.983   8.105  1.00  0.00    -0.248 NA
ATOM     43  C   UNL     1      -6.381  -0.537   8.221  1.00  0.00     0.031 C 
ATOM     44  C   UNL     1      -7.912  -0.294   3.730  1.00  0.00     0.029 A 
ATOM     45  N   UNL     1      -9.213  -0.132   5.497  1.00  0.00    -0.354 N 
ATOM     46  C   UNL     1      -8.037  -1.563   9.422  1.00  0.00     0.074 A 
ATOM     47  C   UNL     1      -6.835  -0.765   9.456  1.00  0.00     0.031 C 
ATOM     48  C   UNL     1      -8.816   0.662   3.443  1.00  0.00     0.029 A 
ATOM     49  C   UNL     1      -9.725   0.758   4.561  1.00  0.00     0.049 A 
ATOM     50  H   UNL     1      -9.669  -0.330   6.346  1.00  0.00     0.167 HD
ATOM     51  C   UNL     1      -9.002  -1.767  10.361  1.00  0.00     0.037 A 
ATOM     52  C   UNL     1     -10.834   1.521   4.685  1.00  0.00     0.037 A 
ATOM     53  C   UNL     1      -9.993  -2.712   9.914  1.00  0.00     0.049 A 
ATOM     54  C   UNL     1     -11.659   0.899   5.749  1.00  0.00     0.074 A 
ATOM     55  C   UNL     1      -9.946  -4.038   9.524  1.00  0.00     0.029 A 
ATOM     56  N   UNL     1     -11.183  -2.234   9.419  1.00  0.00    -0.354 N 
ATOM     57  N   UNL     1     -12.213  -0.279   5.642  1.00  0.00    -0.248 NA
ATOM     58  C   UNL     1     -11.467   1.378   7.108  1.00  0.00     0.031 C 
ATOM     59  C   UNL     1     -10.818  -4.120   8.397  1.00  0.00     0.029 A 
ATOM     60  C   UNL     1     -11.390  -2.861   8.211  1.00  0.00     0.049 A 
ATOM     61  H   UNL     1     -11.773  -1.572   9.845  1.00  0.00     0.167 HD
ATOM     62  C   UNL     1     -12.059  -0.862   6.893  1.00  0.00     0.074 A 
ATOM     63  C   UNL     1     -11.673   0.239   7.775  1.00  0.00     0.031 C 
ATOM     64  C   UNL     1     -11.970  -2.219   7.050  1.00  0.00     0.037 A 
BRANCH  51  65
ATOM     65  C   UNL     1      -9.171  -0.931  11.595  1.00  0.00     0.057 A 
ATOM     66  C   UNL     1      -9.902  -1.419  12.690  1.00  0.00     0.134 A 
ATOM     67  C   UNL     1      -8.817   0.431  11.662  1.00  0.00     0.134 A 
ATOM     68  F   UNL     1     -10.333  -2.689  12.718  1.00  0.00    -0.206 F 
ATOM     69  C   UNL     1     -10.260  -0.605  13.772  1.00  0.00     0.040 A 
ATOM     70  C   UNL     1      -9.124   1.240  12.759  1.00  0.00     0.040 A 
ATOM     71  F   UNL     1      -8.235   1.059  10.630  1.00  0.00    -0.206 F 
ATOM     72  C   UNL     1      -9.865   0.728  13.813  1.00  0.00     0.006 A 
ENDBRANCH  51  65
BRANCH  52  73
ATOM     73  C   UNL     1     -11.059   2.880   4.148  1.00  0.00     0.057 A 
ATOM     74  C   UNL     1     -12.346   3.424   4.072  1.00  0.00     0.134 A 
ATOM     75  C   UNL     1      -9.994   3.776   3.935  1.00  0.00     0.134 A 
ATOM     76  F   UNL     1     -13.422   2.655   4.290  1.00  0.00    -0.206 F 
ATOM     77  C   UNL     1     -12.563   4.786   3.825  1.00  0.00     0.040 A 
ATOM     78  C   UNL     1     -10.197   5.136   3.682  1.00  0.00     0.040 A 
ATOM     79  F   UNL     1      -8.717   3.379   4.047  1.00  0.00    -0.206 F 
ATOM     80  C   UNL     1     -11.486   5.650   3.642  1.00  0.00     0.006 A 
ENDBRANCH  52  73
BRANCH  64  81
ATOM     81  C   UNL     1     -12.233  -3.097   5.846  1.00  0.00     0.057 A 
ATOM     82  C   UNL     1     -11.462  -3.072   4.673  1.00  0.00     0.134 A 
ATOM     83  C   UNL     1     -13.185  -4.117   5.931  1.00  0.00     0.134 A 
ATOM     84  F   UNL     1     -10.453  -2.212   4.526  1.00  0.00    -0.206 F 
ATOM     85  C   UNL     1     -11.654  -3.977   3.623  1.00  0.00     0.040 A 
ATOM     86  C   UNL     1     -13.369  -5.051   4.904  1.00  0.00     0.040 A 
ATOM     87  F   UNL     1     -13.926  -4.259   7.042  1.00  0.00    -0.206 F 
ATOM     88  C   UNL     1     -12.609  -4.977   3.740  1.00  0.00     0.006 A 
ENDBRANCH  64  81
ENDBRANCH  38  39
ENDBRANCH  30  33
ENDBRANCH  28  29
ENDBRANCH  27  28
ENDBRANCH   1  27
TORSDOF 13
