REMARK SMILES O=C(NCCCCNC(=O)c1cn(Cc2ccc(N3CCCC3=O)cc2)c2cc(F)c(F)cc2c1=O)c1ccc(-c2c3nc(c(-c4c(F)cccc4F)c4ccc([nH]4)c(-c4c(F)cccc4F)c4nc(c(-c5c(F)cccc5F)c5ccc2[nH]5)C=C4)C=C3)cc1
REMARK SMILES IDX 6 1 5 2 4 3 3 4 1 5 2 6 37 8 38 9 90 10 39 11 89 12 40 13
REMARK SMILES IDX 41 14 42 15 83 16 43 17 88 18 82 19 84 20 44 21 87 22 81 23
REMARK SMILES IDX 80 24 45 26 71 27 54 28 70 29 55 30 58 31 69 32 85 33 56 34
REMARK SMILES IDX 57 35 68 37 86 38 59 39 46 40 47 41 52 42 48 43 49 44 51 45
REMARK SMILES IDX 53 46 50 47 72 48 73 49 78 50 74 51 75 52 77 53 79 54 76 55
REMARK SMILES IDX 60 56 61 57 66 58 62 59 63 60 65 61 67 62 64 63 7 64 8 65
REMARK SMILES IDX 9 66 10 68 11 69 12 70 35 71 13 72 34 73 36 74 27 75 33 76
REMARK SMILES IDX 28 77 31 78 29 79 32 80 30 81 14 82 15 83 16 84 26 85 17 86
REMARK SMILES IDX 25 87 18 88 19 89 20 90 23 91 21 92 22 93 24 94
REMARK H PARENT 3 7 84 25 58 36 8 67
REMARK Flexibility Score: inf
ROOT
ATOM      1  C   UNL     1       4.579   3.295   1.853  1.00  0.00     0.023 C 
ENDROOT
BRANCH   1   2
ATOM      2  C   UNL     1       5.051   2.368   0.733  1.00  0.00     0.023 C 
BRANCH   2   3
ATOM      3  C   UNL     1       4.611   0.913   0.852  1.00  0.00     0.116 C 
BRANCH   3   4
ATOM      4  N   UNL     1       3.165   0.765   0.875  1.00  0.00    -0.352 N 
ATOM      5  O   UNL     1       1.135   0.105   0.164  1.00  0.00    -0.269 OA
ATOM      6  C   UNL     1       2.354  -0.025   0.099  1.00  0.00     0.251 C 
ATOM      7  H   UNL     1       2.698   1.312   1.547  1.00  0.00     0.163 HD
BRANCH   6   8
ATOM      8  C   UNL     1       2.936  -1.025  -0.822  1.00  0.00     0.039 A 
ATOM      9  C   UNL     1       2.383  -1.166  -2.099  1.00  0.00     0.014 A 
ATOM     10  C   UNL     1       3.984  -1.857  -0.418  1.00  0.00     0.014 A 
ATOM     11  C   UNL     1       2.898  -2.120  -2.980  1.00  0.00     0.010 A 
ATOM     12  C   UNL     1       4.542  -2.759  -1.321  1.00  0.00     0.010 A 
ATOM     13  C   UNL     1       3.989  -2.916  -2.602  1.00  0.00    -0.014 A 
BRANCH  13  14
ATOM     14  C   UNL     1       4.527  -3.968  -3.500  1.00  0.00     0.031 A 
ATOM     15  C   UNL     1       4.418  -5.413  -3.099  1.00  0.00     0.074 A 
ATOM     16  C   UNL     1       5.161  -3.632  -4.638  1.00  0.00     0.049 A 
ATOM     17  N   UNL     1       4.917  -6.477  -3.675  1.00  0.00    -0.248 NA
ATOM     18  C   UNL     1       3.666  -5.694  -1.865  1.00  0.00     0.031 C 
ATOM     19  C   UNL     1       5.350  -2.267  -5.129  1.00  0.00     0.029 A 
ATOM     20  N   UNL     1       5.783  -4.416  -5.576  1.00  0.00    -0.354 N 
ATOM     21  C   UNL     1       4.558  -7.547  -2.865  1.00  0.00     0.074 A 
ATOM     22  C   UNL     1       3.849  -6.998  -1.730  1.00  0.00     0.031 C 
ATOM     23  C   UNL     1       6.041  -2.309  -6.279  1.00  0.00     0.029 A 
ATOM     24  C   UNL     1       6.381  -3.697  -6.581  1.00  0.00     0.049 A 
ATOM     25  H   UNL     1       5.798  -5.399  -5.533  1.00  0.00     0.167 HD
ATOM     26  C   UNL     1       4.780  -8.870  -3.058  1.00  0.00     0.037 A 
ATOM     27  C   UNL     1       7.144  -4.108  -7.612  1.00  0.00     0.037 A 
ATOM     28  C   UNL     1       5.481  -9.412  -4.193  1.00  0.00     0.049 A 
ATOM     29  C   UNL     1       7.428  -5.575  -7.780  1.00  0.00     0.074 A 
ATOM     30  C   UNL     1       5.706 -10.738  -4.519  1.00  0.00     0.029 A 
ATOM     31  N   UNL     1       6.088  -8.650  -5.181  1.00  0.00    -0.354 N 
ATOM     32  N   UNL     1       7.028  -6.585  -7.046  1.00  0.00    -0.248 NA
ATOM     33  C   UNL     1       8.275  -5.957  -8.918  1.00  0.00     0.031 C 
ATOM     34  C   UNL     1       6.502 -10.776  -5.670  1.00  0.00     0.029 A 
ATOM     35  C   UNL     1       6.728  -9.476  -6.092  1.00  0.00     0.049 A 
ATOM     36  H   UNL     1       6.067  -7.667  -5.229  1.00  0.00     0.167 HD
ATOM     37  C   UNL     1       7.571  -7.721  -7.631  1.00  0.00     0.074 A 
ATOM     38  C   UNL     1       8.303  -7.277  -8.801  1.00  0.00     0.031 C 
ATOM     39  C   UNL     1       7.479  -9.015  -7.234  1.00  0.00     0.037 A 
BRANCH  26  40
ATOM     40  C   UNL     1       4.279  -9.807  -1.995  1.00  0.00     0.057 A 
ATOM     41  C   UNL     1       5.179 -10.506  -1.179  1.00  0.00     0.134 A 
ATOM     42  C   UNL     1       2.911 -10.000  -1.756  1.00  0.00     0.134 A 
ATOM     43  F   UNL     1       6.502 -10.377  -1.356  1.00  0.00    -0.206 F 
ATOM     44  C   UNL     1       4.736 -11.344  -0.154  1.00  0.00     0.040 A 
ATOM     45  C   UNL     1       2.457 -10.809  -0.712  1.00  0.00     0.040 A 
ATOM     46  F   UNL     1       1.994  -9.354  -2.492  1.00  0.00    -0.206 F 
ATOM     47  C   UNL     1       3.372 -11.486   0.091  1.00  0.00     0.006 A 
ENDBRANCH  26  40
BRANCH  27  48
ATOM     48  C   UNL     1       7.711  -3.107  -8.550  1.00  0.00     0.057 A 
ATOM     49  C   UNL     1       8.717  -2.220  -8.147  1.00  0.00     0.134 A 
ATOM     50  C   UNL     1       7.251  -3.006  -9.867  1.00  0.00     0.134 A 
ATOM     51  F   UNL     1       9.198  -2.264  -6.896  1.00  0.00    -0.206 F 
ATOM     52  C   UNL     1       9.232  -1.256  -9.014  1.00  0.00     0.040 A 
ATOM     53  C   UNL     1       7.775  -2.063 -10.753  1.00  0.00     0.040 A 
ATOM     54  F   UNL     1       6.305  -3.843 -10.318  1.00  0.00    -0.206 F 
ATOM     55  C   UNL     1       8.763  -1.179 -10.324  1.00  0.00     0.006 A 
ENDBRANCH  27  48
BRANCH  39  56
ATOM     56  C   UNL     1       8.202 -10.036  -8.065  1.00  0.00     0.057 A 
ATOM     57  C   UNL     1       7.498 -10.952  -8.857  1.00  0.00     0.134 A 
ATOM     58  C   UNL     1       9.601 -10.125  -8.064  1.00  0.00     0.134 A 
ATOM     59  F   UNL     1       6.157 -10.927  -8.899  1.00  0.00    -0.206 F 
ATOM     60  C   UNL     1       8.158 -11.921  -9.614  1.00  0.00     0.040 A 
ATOM     61  C   UNL     1      10.273 -11.072  -8.839  1.00  0.00     0.040 A 
ATOM     62  F   UNL     1      10.336  -9.268  -7.340  1.00  0.00    -0.206 F 
ATOM     63  C   UNL     1       9.550 -11.978  -9.613  1.00  0.00     0.006 A 
ENDBRANCH  39  56
ENDBRANCH  13  14
ENDBRANCH   6   8
ENDBRANCH   3   4
ENDBRANCH   2   3
ENDBRANCH   1   2
BRANCH   1  64
ATOM     64  C   UNL     1       4.862   2.814   3.272  1.00  0.00     0.116 C 
BRANCH  64  65
ATOM     65  N   UNL     1       6.275   2.612   3.544  1.00  0.00    -0.352 N 
ATOM     66  C   UNL     1       7.084   3.172   4.496  1.00  0.00     0.256 C 
ATOM     67  H   UNL     1       6.723   1.971   2.946  1.00  0.00     0.163 HD
ATOM     68  O   UNL     1       8.263   2.830   4.552  1.00  0.00    -0.269 OA
BRANCH  66  69
ATOM     69  C   UNL     1       6.523   4.171   5.430  1.00  0.00     0.104 A 
ATOM     70  C   UNL     1       5.469   3.876   6.208  1.00  0.00     0.104 A 
ATOM     71  C   UNL     1       7.127   5.511   5.586  1.00  0.00     0.202 A 
ATOM     72  N   UNL     1       4.780   4.755   7.038  1.00  0.00    -0.342 N 
ATOM     73  C   UNL     1       6.503   6.428   6.569  1.00  0.00     0.050 A 
ATOM     74  O   UNL     1       8.061   5.902   4.895  1.00  0.00    -0.288 OA
ATOM     75  C   UNL     1       5.264   6.079   7.152  1.00  0.00     0.055 A 
ATOM     76  C   UNL     1       7.137   7.649   6.846  1.00  0.00     0.056 A 
ATOM     77  C   UNL     1       4.592   7.099   7.834  1.00  0.00     0.069 A 
ATOM     78  C   UNL     1       6.505   8.564   7.670  1.00  0.00     0.159 A 
ATOM     79  C   UNL     1       5.224   8.306   8.129  1.00  0.00     0.160 A 
ATOM     80  F   UNL     1       7.122   9.707   7.994  1.00  0.00    -0.204 F 
ATOM     81  F   UNL     1       4.580   9.207   8.883  1.00  0.00    -0.204 F 
BRANCH  72  82
ATOM     82  C   UNL     1       3.643   4.288   7.875  1.00  0.00     0.157 C 
BRANCH  82  83
ATOM     83  C   UNL     1       4.039   4.011   9.315  1.00  0.00    -0.028 A 
ATOM     84  C   UNL     1       4.073   5.036  10.267  1.00  0.00     0.008 A 
ATOM     85  C   UNL     1       4.394   2.727   9.742  1.00  0.00     0.008 A 
ATOM     86  C   UNL     1       4.529   4.816  11.568  1.00  0.00     0.027 A 
ATOM     87  C   UNL     1       4.843   2.504  11.055  1.00  0.00     0.027 A 
ATOM     88  C   UNL     1       4.952   3.553  11.977  1.00  0.00     0.044 A 
BRANCH  88  89
ATOM     89  N   UNL     1       5.498   3.369  13.272  1.00  0.00    -0.312 N 
ATOM     90  C   UNL     1       5.222   4.249  14.383  1.00  0.00     0.126 C 
ATOM     91  C   UNL     1       6.341   2.320  13.659  1.00  0.00     0.227 C 
ATOM     92  C   UNL     1       6.352   3.991  15.354  1.00  0.00     0.032 C 
ATOM     93  C   UNL     1       6.713   2.539  15.107  1.00  0.00     0.102 C 
ATOM     94  O   UNL     1       6.743   1.371  13.001  1.00  0.00    -0.275 OA
ENDBRANCH  88  89
ENDBRANCH  82  83
ENDBRANCH  72  82
ENDBRANCH  66  69
ENDBRANCH  64  65
ENDBRANCH   1  64
TORSDOF 14
