REMARK SMILES O=C(NCCCCNC(=O)[C@H]1CCCCN1C(=O)c1nc(C2CC2)n[nH]1)c1ccc(-c2c3nc(c(-c4c(F)cccc4F)c4ccc([nH]4)c(-c4c(F)cccc4F)c4nc(c(-c5c(F)cccc5F)c5ccc2[nH]5)C=C4)C=C3)cc1
REMARK SMILES IDX 6 1 5 2 4 3 3 4 1 5 2 6 27 8 28 9 80 10 29 11 79 12 30 13
REMARK SMILES IDX 31 14 32 15 73 16 33 17 78 18 72 19 74 20 34 21 77 22 71 23
REMARK SMILES IDX 70 24 35 26 61 27 44 28 60 29 45 30 48 31 59 32 75 33 46 34
REMARK SMILES IDX 47 35 58 37 76 38 49 39 36 40 37 41 42 42 38 43 39 44 41 45
REMARK SMILES IDX 43 46 40 47 62 48 63 49 68 50 64 51 65 52 67 53 69 54 66 55
REMARK SMILES IDX 50 56 51 57 56 58 52 59 53 60 55 61 57 62 54 63 7 64 8 65
REMARK SMILES IDX 9 66 10 68 11 69 12 70 16 71 13 72 15 73 14 74 17 75 18 76
REMARK SMILES IDX 19 77 20 78 26 79 21 80 25 81 22 83 23 84 24 85
REMARK H PARENT 3 7 74 25 48 36 8 67 26 82
REMARK Flexibility Score: inf
ROOT
ATOM      1  C   UNL     1       5.438   1.158   2.789  1.00  0.00     0.023 C 
ENDROOT
BRANCH   1   2
ATOM      2  C   UNL     1       4.050   1.016   2.155  1.00  0.00     0.023 C 
BRANCH   2   3
ATOM      3  C   UNL     1       3.374   2.326   1.764  1.00  0.00     0.116 C 
BRANCH   3   4
ATOM      4  N   UNL     1       4.125   3.072   0.769  1.00  0.00    -0.352 N 
ATOM      5  O   UNL     1       4.466   4.151  -1.183  1.00  0.00    -0.269 OA
ATOM      6  C   UNL     1       3.671   3.675  -0.378  1.00  0.00     0.251 C 
ATOM      7  H   UNL     1       5.091   3.156   0.939  1.00  0.00     0.163 HD
BRANCH   6   8
ATOM      8  C   UNL     1       2.220   3.728  -0.654  1.00  0.00     0.039 A 
ATOM      9  C   UNL     1       1.317   4.127   0.335  1.00  0.00     0.014 A 
ATOM     10  C   UNL     1       1.760   3.385  -1.929  1.00  0.00     0.014 A 
ATOM     11  C   UNL     1      -0.051   4.074   0.085  1.00  0.00     0.010 A 
ATOM     12  C   UNL     1       0.390   3.397  -2.200  1.00  0.00     0.010 A 
ATOM     13  C   UNL     1      -0.527   3.721  -1.189  1.00  0.00    -0.014 A 
BRANCH  13  14
ATOM     14  C   UNL     1      -1.984   3.763  -1.461  1.00  0.00     0.031 A 
ATOM     15  C   UNL     1      -2.760   2.509  -1.744  1.00  0.00     0.074 A 
ATOM     16  C   UNL     1      -2.610   4.955  -1.437  1.00  0.00     0.049 A 
ATOM     17  N   UNL     1      -4.037   2.372  -2.000  1.00  0.00    -0.248 NA
ATOM     18  C   UNL     1      -2.008   1.245  -1.746  1.00  0.00     0.031 C 
ATOM     19  C   UNL     1      -1.958   6.243  -1.185  1.00  0.00     0.029 A 
ATOM     20  N   UNL     1      -3.930   5.280  -1.614  1.00  0.00    -0.354 N 
ATOM     21  C   UNL     1      -4.240   1.014  -2.207  1.00  0.00     0.074 A 
ATOM     22  C   UNL     1      -2.951   0.370  -2.070  1.00  0.00     0.031 C 
ATOM     23  C   UNL     1      -2.884   7.212  -1.187  1.00  0.00     0.029 A 
ATOM     24  C   UNL     1      -4.183   6.624  -1.493  1.00  0.00     0.049 A 
ATOM     25  H   UNL     1      -4.628   4.614  -1.810  1.00  0.00     0.167 HD
ATOM     26  C   UNL     1      -5.399   0.365  -2.479  1.00  0.00     0.037 A 
ATOM     27  C   UNL     1      -5.331   7.312  -1.629  1.00  0.00     0.037 A 
ATOM     28  C   UNL     1      -6.682   1.009  -2.602  1.00  0.00     0.049 A 
ATOM     29  C   UNL     1      -6.593   6.571  -1.956  1.00  0.00     0.074 A 
ATOM     30  C   UNL     1      -7.918   0.432  -2.839  1.00  0.00     0.029 A 
ATOM     31  N   UNL     1      -6.893   2.376  -2.502  1.00  0.00    -0.354 N 
ATOM     32  N   UNL     1      -6.775   5.283  -2.118  1.00  0.00    -0.248 NA
ATOM     33  C   UNL     1      -7.809   7.378  -2.125  1.00  0.00     0.031 C 
ATOM     34  C   UNL     1      -8.871   1.453  -2.921  1.00  0.00     0.029 A 
ATOM     35  C   UNL     1      -8.235   2.663  -2.695  1.00  0.00     0.049 A 
ATOM     36  H   UNL     1      -6.193   3.044  -2.321  1.00  0.00     0.167 HD
ATOM     37  C   UNL     1      -8.124   5.123  -2.398  1.00  0.00     0.074 A 
ATOM     38  C   UNL     1      -8.719   6.444  -2.363  1.00  0.00     0.031 C 
ATOM     39  C   UNL     1      -8.808   3.984  -2.662  1.00  0.00     0.037 A 
BRANCH  26  40
ATOM     40  C   UNL     1      -5.334  -1.121  -2.675  1.00  0.00     0.057 A 
ATOM     41  C   UNL     1      -5.152  -2.001  -1.601  1.00  0.00     0.134 A 
ATOM     42  C   UNL     1      -5.507  -1.681  -3.947  1.00  0.00     0.134 A 
ATOM     43  F   UNL     1      -4.970  -1.528  -0.358  1.00  0.00    -0.206 F 
ATOM     44  C   UNL     1      -5.129  -3.384  -1.786  1.00  0.00     0.040 A 
ATOM     45  C   UNL     1      -5.506  -3.064  -4.143  1.00  0.00     0.040 A 
ATOM     46  F   UNL     1      -5.692  -0.895  -5.018  1.00  0.00    -0.206 F 
ATOM     47  C   UNL     1      -5.313  -3.920  -3.060  1.00  0.00     0.006 A 
ENDBRANCH  26  40
BRANCH  27  48
ATOM     48  C   UNL     1      -5.329   8.784  -1.457  1.00  0.00     0.057 A 
ATOM     49  C   UNL     1      -5.918   9.382  -0.338  1.00  0.00     0.134 A 
ATOM     50  C   UNL     1      -4.718   9.625  -2.395  1.00  0.00     0.134 A 
ATOM     51  F   UNL     1      -6.532   8.627   0.585  1.00  0.00    -0.206 F 
ATOM     52  C   UNL     1      -5.908  10.766  -0.161  1.00  0.00     0.040 A 
ATOM     53  C   UNL     1      -4.679  11.008  -2.218  1.00  0.00     0.040 A 
ATOM     54  F   UNL     1      -4.129   9.110  -3.484  1.00  0.00    -0.206 F 
ATOM     55  C   UNL     1      -5.280  11.582  -1.100  1.00  0.00     0.006 A 
ENDBRANCH  27  48
BRANCH  39  56
ATOM     56  C   UNL     1     -10.279   4.121  -2.919  1.00  0.00     0.057 A 
ATOM     57  C   UNL     1     -10.768   4.635  -4.126  1.00  0.00     0.134 A 
ATOM     58  C   UNL     1     -11.213   3.712  -1.960  1.00  0.00     0.134 A 
ATOM     59  F   UNL     1      -9.923   5.059  -5.077  1.00  0.00    -0.206 F 
ATOM     60  C   UNL     1     -12.139   4.756  -4.362  1.00  0.00     0.040 A 
ATOM     61  C   UNL     1     -12.585   3.807  -2.193  1.00  0.00     0.040 A 
ATOM     62  F   UNL     1     -10.806   3.206  -0.785  1.00  0.00    -0.206 F 
ATOM     63  C   UNL     1     -13.051   4.336  -3.395  1.00  0.00     0.006 A 
ENDBRANCH  39  56
ENDBRANCH  13  14
ENDBRANCH   6   8
ENDBRANCH   3   4
ENDBRANCH   2   3
ENDBRANCH   1   2
BRANCH   1  64
ATOM     64  C   UNL     1       5.498   2.105   3.987  1.00  0.00     0.116 C 
BRANCH  64  65
ATOM     65  N   UNL     1       4.600   1.675   5.041  1.00  0.00    -0.354 N 
ATOM     66  C   UNL     1       4.880   1.077   6.237  1.00  0.00     0.242 C 
ATOM     67  H   UNL     1       3.644   1.838   4.868  1.00  0.00     0.163 HD
ATOM     68  O   UNL     1       3.916   0.701   6.906  1.00  0.00    -0.273 OA
BRANCH  66  69
ATOM     69  C   UNL     1       6.345   1.019   6.735  1.00  0.00     0.174 C 
ATOM     70  C   UNL     1       6.756   2.385   7.305  1.00  0.00     0.035 C 
ATOM     71  N   UNL     1       6.607  -0.034   7.731  1.00  0.00    -0.324 N 
ATOM     72  C   UNL     1       6.110   2.648   8.668  1.00  0.00     0.004 C 
ATOM     73  C   UNL     1       5.982   0.147   9.048  1.00  0.00     0.121 C 
ATOM     74  C   UNL     1       6.378   1.500   9.638  1.00  0.00     0.022 C 
BRANCH  71  75
ATOM     75  C   UNL     1       7.562  -1.016   7.446  1.00  0.00     0.291 C 
ATOM     76  O   UNL     1       8.292  -0.931   6.457  1.00  0.00    -0.265 OA
BRANCH  75  77
ATOM     77  C   UNL     1       7.738  -2.084   8.398  1.00  0.00     0.214 A 
ATOM     78  N   UNL     1       6.800  -2.867   8.895  1.00  0.00    -0.207 NA
ATOM     79  N   UNL     1       8.939  -2.442   8.933  1.00  0.00    -0.255 N 
ATOM     80  C   UNL     1       7.481  -3.633   9.805  1.00  0.00     0.154 A 
ATOM     81  N   UNL     1       8.789  -3.364   9.898  1.00  0.00    -0.158 NA
ATOM     82  H   UNL     1       9.806  -2.072   8.648  1.00  0.00     0.192 HD
BRANCH  80  83
ATOM     83  C   UNL     1       6.811  -4.690  10.664  1.00  0.00     0.060 C 
ATOM     84  C   UNL     1       5.302  -4.662  10.806  1.00  0.00     0.012 C 
ATOM     85  C   UNL     1       5.943  -5.729   9.985  1.00  0.00     0.012 C 
ENDBRANCH  80  83
ENDBRANCH  75  77
ENDBRANCH  71  75
ENDBRANCH  66  69
ENDBRANCH  64  65
ENDBRANCH   1  64
TORSDOF 14
