REMARK SMILES CCC[C@H](C)[C@@H](Nc1ccc(Cl)c(Br)c1)C(=O)NCCCCNC(=O)c1ccc(-c2c3nc(c(-c4c(F)cccc4F)c4ccc([nH]4)c(-c4c(F)cccc4F)c4nc(c(-c5c(F)cccc5F)c5ccc2[nH]5)C=C4)C=C3)cc1
REMARK SMILES IDX 20 1 19 2 18 3 16 4 17 5 6 7 4 8 5 9 3 10 2 11 1 12 7 13
REMARK SMILES IDX 8 15 9 16 15 17 10 18 13 19 11 20 14 21 12 22 21 23 22 24
REMARK SMILES IDX 23 25 24 26 25 28 26 29 27 30 79 31 28 32 78 33 29 34 30 35
REMARK SMILES IDX 31 36 72 37 32 38 77 39 71 40 73 41 33 42 76 43 70 44 69 45
REMARK SMILES IDX 34 47 60 48 43 49 59 50 44 51 47 52 58 53 74 54 45 55 46 56
REMARK SMILES IDX 57 58 75 59 48 60 35 61 36 62 41 63 37 64 38 65 40 66 42 67
REMARK SMILES IDX 39 68 61 69 62 70 67 71 63 72 64 73 66 74 68 75 65 76 49 77
REMARK SMILES IDX 50 78 55 79 51 80 52 81 54 82 56 83 53 84
REMARK H PARENT 18 6 7 14 23 27 73 46 47 57
REMARK Flexibility Score: inf
ROOT
ATOM      1  C   UNL     1       0.805   0.761   3.973  1.00  0.00     0.023 C 
ENDROOT
BRANCH   1   2
ATOM      2  C   UNL     1       1.551  -0.535   4.258  1.00  0.00     0.116 C 
BRANCH   2   3
ATOM      3  N   UNL     1       0.660  -1.586   4.711  1.00  0.00    -0.354 N 
ATOM      4  C   UNL     1       0.483  -2.846   4.210  1.00  0.00     0.242 C 
ATOM      5  O   UNL     1      -0.264  -3.607   4.835  1.00  0.00    -0.273 OA
ATOM      6  H   UNL     1       0.103  -1.360   5.491  1.00  0.00     0.163 HD
BRANCH   4   7
ATOM      7  C   UNL     1       1.158  -3.306   2.885  1.00  0.00     0.171 C 
BRANCH   7   8
ATOM      8  C   UNL     1       0.562  -2.501   1.681  1.00  0.00     0.018 C 
ATOM      9  C   UNL     1       1.161  -2.886   0.323  1.00  0.00     0.010 C 
BRANCH   8  10
ATOM     10  C   UNL     1      -0.990  -2.486   1.630  1.00  0.00     0.006 C 
BRANCH  10  11
ATOM     11  C   UNL     1      -1.710  -3.621   0.897  1.00  0.00    -0.003 C 
ATOM     12  C   UNL     1      -1.462  -5.009   1.456  1.00  0.00     0.004 C 
ENDBRANCH  10  11
ENDBRANCH   8  10
ENDBRANCH   7   8
BRANCH   7  13
ATOM     13  N   UNL     1       2.639  -3.193   2.923  1.00  0.00    -0.373 N 
ATOM     14  H   UNL     1       3.101  -3.102   2.058  1.00  0.00     0.161 HD
BRANCH  13  15
ATOM     15  C   UNL     1       3.433  -3.203   4.057  1.00  0.00     0.036 A 
ATOM     16  C   UNL     1       3.102  -3.886   5.229  1.00  0.00     0.027 A 
ATOM     17  C   UNL     1       4.536  -2.336   4.094  1.00  0.00     0.043 A 
ATOM     18  C   UNL     1       3.799  -3.656   6.422  1.00  0.00     0.024 A 
ATOM     19  C   UNL     1       5.227  -2.084   5.287  1.00  0.00     0.038 A 
ATOM     20  C   UNL     1       4.846  -2.736   6.460  1.00  0.00     0.055 A 
ATOM     21  Br  UNL     1       6.610  -0.783   5.234  1.00  0.00    -0.049 Br
ATOM     22  Cl  UNL     1       5.592  -2.429   7.987  1.00  0.00    -0.083 Cl
ENDBRANCH  13  15
ENDBRANCH   7  13
ENDBRANCH   4   7
ENDBRANCH   2   3
ENDBRANCH   1   2
BRANCH   1  23
ATOM     23  C   UNL     1       0.273   1.466   5.218  1.00  0.00     0.023 C 
BRANCH  23  24
ATOM     24  C   UNL     1       1.314   1.758   6.293  1.00  0.00     0.116 C 
BRANCH  24  25
ATOM     25  N   UNL     1       2.437   2.555   5.821  1.00  0.00    -0.352 N 
ATOM     26  C   UNL     1       3.110   3.553   6.489  1.00  0.00     0.251 C 
ATOM     27  H   UNL     1       2.755   2.356   4.910  1.00  0.00     0.163 HD
ATOM     28  O   UNL     1       3.981   4.211   5.929  1.00  0.00    -0.269 OA
BRANCH  26  29
ATOM     29  C   UNL     1       2.723   3.855   7.881  1.00  0.00     0.039 A 
ATOM     30  C   UNL     1       2.618   2.824   8.816  1.00  0.00     0.014 A 
ATOM     31  C   UNL     1       2.366   5.162   8.219  1.00  0.00     0.014 A 
ATOM     32  C   UNL     1       1.988   3.067  10.030  1.00  0.00     0.010 A 
ATOM     33  C   UNL     1       1.806   5.419   9.472  1.00  0.00     0.010 A 
ATOM     34  C   UNL     1       1.558   4.363  10.364  1.00  0.00    -0.014 A 
BRANCH  34  35
ATOM     35  C   UNL     1       0.825   4.580  11.637  1.00  0.00     0.031 A 
ATOM     36  C   UNL     1      -0.622   4.997  11.631  1.00  0.00     0.074 A 
ATOM     37  C   UNL     1       1.449   4.332  12.803  1.00  0.00     0.049 A 
ATOM     38  N   UNL     1      -1.425   5.207  12.644  1.00  0.00    -0.248 NA
ATOM     39  C   UNL     1      -1.251   5.210  10.317  1.00  0.00     0.031 C 
ATOM     40  C   UNL     1       2.844   3.908  12.940  1.00  0.00     0.029 A 
ATOM     41  N   UNL     1       0.985   4.372  14.092  1.00  0.00    -0.354 N 
ATOM     42  C   UNL     1      -2.641   5.593  12.095  1.00  0.00     0.074 A 
ATOM     43  C   UNL     1      -2.466   5.615  10.659  1.00  0.00     0.031 C 
ATOM     44  C   UNL     1       3.107   3.675  14.234  1.00  0.00     0.029 A 
ATOM     45  C   UNL     1       1.919   3.987  15.022  1.00  0.00     0.049 A 
ATOM     46  H   UNL     1       0.070   4.649  14.329  1.00  0.00     0.167 HD
ATOM     47  C   UNL     1      -3.802   5.891  12.728  1.00  0.00     0.037 A 
ATOM     48  C   UNL     1       1.833   3.905  16.361  1.00  0.00     0.037 A 
ATOM     49  C   UNL     1      -3.985   5.848  14.156  1.00  0.00     0.049 A 
ATOM     50  C   UNL     1       0.546   4.276  17.038  1.00  0.00     0.074 A 
ATOM     51  C   UNL     1      -5.128   6.117  14.890  1.00  0.00     0.029 A 
ATOM     52  N   UNL     1      -2.997   5.507  15.067  1.00  0.00    -0.354 N 
ATOM     53  N   UNL     1      -0.593   4.642  16.503  1.00  0.00    -0.248 NA
ATOM     54  C   UNL     1       0.540   4.236  18.506  1.00  0.00     0.031 C 
ATOM     55  C   UNL     1      -4.822   5.969  16.248  1.00  0.00     0.029 A 
ATOM     56  C   UNL     1      -3.499   5.575  16.357  1.00  0.00     0.049 A 
ATOM     57  H   UNL     1      -2.075   5.255  14.832  1.00  0.00     0.167 HD
ATOM     58  C   UNL     1      -1.455   4.865  17.568  1.00  0.00     0.074 A 
ATOM     59  C   UNL     1      -0.713   4.571  18.777  1.00  0.00     0.031 C 
ATOM     60  C   UNL     1      -2.744   5.284  17.547  1.00  0.00     0.037 A 
BRANCH  47  61
ATOM     61  C   UNL     1      -4.966   6.306  11.877  1.00  0.00     0.057 A 
ATOM     62  C   UNL     1      -5.396   7.639  11.855  1.00  0.00     0.134 A 
ATOM     63  C   UNL     1      -5.683   5.383  11.105  1.00  0.00     0.134 A 
ATOM     64  F   UNL     1      -4.757   8.573  12.576  1.00  0.00    -0.206 F 
ATOM     65  C   UNL     1      -6.499   8.039  11.098  1.00  0.00     0.040 A 
ATOM     66  C   UNL     1      -6.775   5.774  10.327  1.00  0.00     0.040 A 
ATOM     67  F   UNL     1      -5.314   4.094  11.071  1.00  0.00    -0.206 F 
ATOM     68  C   UNL     1      -7.189   7.105  10.327  1.00  0.00     0.006 A 
ENDBRANCH  47  61
BRANCH  48  69
ATOM     69  C   UNL     1       3.004   3.459  17.153  1.00  0.00     0.057 A 
ATOM     70  C   UNL     1       4.143   4.262  17.285  1.00  0.00     0.134 A 
ATOM     71  C   UNL     1       3.006   2.220  17.803  1.00  0.00     0.134 A 
ATOM     72  F   UNL     1       4.201   5.458  16.681  1.00  0.00    -0.206 F 
ATOM     73  C   UNL     1       5.248   3.845  18.026  1.00  0.00     0.040 A 
ATOM     74  C   UNL     1       4.095   1.800  18.568  1.00  0.00     0.040 A 
ATOM     75  F   UNL     1       1.935   1.417  17.729  1.00  0.00    -0.206 F 
ATOM     76  C   UNL     1       5.222   2.613  18.677  1.00  0.00     0.006 A 
ENDBRANCH  48  69
BRANCH  60  77
ATOM     77  C   UNL     1      -3.425   5.429  18.874  1.00  0.00     0.057 A 
ATOM     78  C   UNL     1      -4.379   4.495  19.295  1.00  0.00     0.134 A 
ATOM     79  C   UNL     1      -3.135   6.495  19.735  1.00  0.00     0.134 A 
ATOM     80  F   UNL     1      -4.704   3.454  18.514  1.00  0.00    -0.206 F 
ATOM     81  C   UNL     1      -5.018   4.614  20.529  1.00  0.00     0.040 A 
ATOM     82  C   UNL     1      -3.751   6.612  20.981  1.00  0.00     0.040 A 
ATOM     83  F   UNL     1      -2.216   7.412  19.395  1.00  0.00    -0.206 F 
ATOM     84  C   UNL     1      -4.699   5.671  21.380  1.00  0.00     0.006 A 
ENDBRANCH  60  77
ENDBRANCH  34  35
ENDBRANCH  26  29
ENDBRANCH  24  25
ENDBRANCH  23  24
ENDBRANCH   1  23
TORSDOF 16
