REMARK SMILES C[C@@H]([C@H]1CC=CS1)n1nccc1NC(=O)CC1(CC(=O)NCCCCNC(=O)c2ccc(-c3c4nc(c(-c5c(F)cccc5F)c5ccc([nH]5)c(-c5c(F)cccc5F)c5nc(c(-c6c(F)cccc6F)c6ccc3[nH]6)C=C5)C=C4)cc2)CCCCC1
REMARK SMILES IDX 19 1 20 2 21 3 18 5 17 6 83 7 87 8 84 9 86 10 85 11 16 12
REMARK SMILES IDX 14 13 13 14 15 16 12 17 8 18 9 19 10 20 11 21 2 22 1 23 3 24
REMARK SMILES IDX 4 25 7 26 5 27 6 28 22 29 23 30 24 31 25 32 26 33 27 34
REMARK SMILES IDX 28 36 29 37 30 38 82 39 31 40 81 41 32 42 33 43 34 44 75 45
REMARK SMILES IDX 35 46 80 47 74 48 76 49 36 50 79 51 73 52 72 53 37 55 63 56
REMARK SMILES IDX 46 57 62 58 47 59 50 60 61 61 77 62 48 63 49 64 60 66 78 67
REMARK SMILES IDX 51 68 38 69 39 70 44 71 40 72 41 73 43 74 45 75 42 76 64 77
REMARK SMILES IDX 65 78 70 79 66 80 67 81 69 82 71 83 68 84 52 85 53 86 58 87
REMARK SMILES IDX 54 88 55 89 57 90 59 91 56 92
REMARK H PARENT 21 4 13 15 26 35 76 54 50 65
REMARK Flexibility Score: inf
ROOT
ATOM      1  C   UNL     1       2.824   8.001  -1.884  1.00  0.00     0.220 C 
ATOM      2  O   UNL     1       2.189   7.857  -0.837  1.00  0.00    -0.275 OA
ATOM      3  N   UNL     1       3.170   9.265  -2.235  1.00  0.00    -0.356 N 
ATOM      4  H   UNL     1       2.854   9.960  -1.613  1.00  0.00     0.163 HD
ENDROOT
BRANCH   1   5
ATOM      5  C   UNL     1       3.196   6.779  -2.716  1.00  0.00     0.107 C 
BRANCH   5   6
ATOM      6  C   UNL     1       2.268   6.362  -3.901  1.00  0.00    -0.012 C 
ATOM      7  C   UNL     1       2.525   4.872  -4.238  1.00  0.00     0.008 C 
ATOM      8  C   UNL     1       2.596   7.109  -5.221  1.00  0.00     0.008 C 
ATOM      9  C   UNL     1       3.911   4.544  -4.789  1.00  0.00     0.001 C 
ATOM     10  C   UNL     1       3.996   6.848  -5.778  1.00  0.00     0.001 C 
ATOM     11  C   UNL     1       4.211   5.364  -6.036  1.00  0.00     0.000 C 
BRANCH   6  12
ATOM     12  C   UNL     1       0.756   6.631  -3.583  1.00  0.00     0.108 C 
BRANCH  12  13
ATOM     13  C   UNL     1       0.070   5.826  -2.492  1.00  0.00     0.226 C 
ATOM     14  N   UNL     1      -0.343   4.464  -2.652  1.00  0.00    -0.311 N 
ATOM     15  H   UNL     1      -0.638   4.004  -1.833  1.00  0.00     0.171 HD
ATOM     16  O   UNL     1      -0.185   6.273  -1.385  1.00  0.00    -0.275 OA
BRANCH  14  17
ATOM     17  C   UNL     1      -0.380   3.715  -3.811  1.00  0.00     0.131 A 
ATOM     18  N   UNL     1      -0.182   2.349  -3.912  1.00  0.00    -0.246 N 
ATOM     19  N   UNL     1      -0.019   1.953  -5.194  1.00  0.00    -0.179 NA
ATOM     20  C   UNL     1      -0.359   3.028  -5.907  1.00  0.00     0.137 A 
ATOM     21  C   UNL     1      -0.655   4.137  -5.092  1.00  0.00     0.068 A 
BRANCH  18  22
ATOM     22  C   UNL     1      -0.361   1.355  -2.858  1.00  0.00     0.120 C 
ATOM     23  C   UNL     1      -1.195   0.169  -3.372  1.00  0.00     0.034 C 
BRANCH  22  24
ATOM     24  C   UNL     1       0.899   0.867  -2.110  1.00  0.00     0.079 C 
ATOM     25  C   UNL     1       1.712  -0.258  -2.770  1.00  0.00     0.045 C 
ATOM     26  S   UNL     1       2.132   2.132  -1.615  1.00  0.00    -0.128 SA
ATOM     27  C   UNL     1       3.112  -0.169  -2.242  1.00  0.00    -0.019 C 
ATOM     28  C   UNL     1       3.436   0.992  -1.665  1.00  0.00     0.037 C 
ENDBRANCH  22  24
ENDBRANCH  18  22
ENDBRANCH  14  17
ENDBRANCH  12  13
ENDBRANCH   6  12
ENDBRANCH   5   6
ENDBRANCH   1   5
BRANCH   3  29
ATOM     29  C   UNL     1       3.923   9.774  -3.366  1.00  0.00     0.116 C 
BRANCH  29  30
ATOM     30  C   UNL     1       3.008  10.419  -4.413  1.00  0.00     0.023 C 
BRANCH  30  31
ATOM     31  C   UNL     1       2.784  11.927  -4.307  1.00  0.00     0.023 C 
BRANCH  31  32
ATOM     32  C   UNL     1       3.993  12.788  -4.645  1.00  0.00     0.116 C 
BRANCH  32  33
ATOM     33  N   UNL     1       4.498  12.585  -6.003  1.00  0.00    -0.352 N 
ATOM     34  C   UNL     1       5.786  12.819  -6.457  1.00  0.00     0.251 C 
ATOM     35  H   UNL     1       3.854  12.247  -6.666  1.00  0.00     0.163 HD
ATOM     36  O   UNL     1       6.050  12.941  -7.637  1.00  0.00    -0.269 OA
BRANCH  34  37
ATOM     37  C   UNL     1       6.837  12.902  -5.430  1.00  0.00     0.039 A 
ATOM     38  C   UNL     1       7.535  14.089  -5.215  1.00  0.00     0.014 A 
ATOM     39  C   UNL     1       6.935  11.827  -4.552  1.00  0.00     0.014 A 
ATOM     40  C   UNL     1       8.260  14.230  -4.033  1.00  0.00     0.010 A 
ATOM     41  C   UNL     1       7.548  12.023  -3.333  1.00  0.00     0.010 A 
ATOM     42  C   UNL     1       8.232  13.212  -3.064  1.00  0.00    -0.014 A 
BRANCH  42  43
ATOM     43  C   UNL     1       8.839  13.439  -1.745  1.00  0.00     0.031 A 
ATOM     44  C   UNL     1       8.544  14.741  -1.059  1.00  0.00     0.074 A 
ATOM     45  C   UNL     1       9.488  12.486  -1.041  1.00  0.00     0.049 A 
ATOM     46  N   UNL     1       9.381  15.668  -0.715  1.00  0.00    -0.248 NA
ATOM     47  C   UNL     1       7.145  15.065  -0.743  1.00  0.00     0.031 C 
ATOM     48  C   UNL     1       9.659  11.059  -1.342  1.00  0.00     0.029 A 
ATOM     49  N   UNL     1      10.075  12.606   0.183  1.00  0.00    -0.354 N 
ATOM     50  C   UNL     1       8.652  16.630  -0.013  1.00  0.00     0.074 A 
ATOM     51  C   UNL     1       7.267  16.251  -0.140  1.00  0.00     0.031 C 
ATOM     52  C   UNL     1      10.088  10.412  -0.238  1.00  0.00     0.029 A 
ATOM     53  C   UNL     1      10.419  11.401   0.768  1.00  0.00     0.049 A 
ATOM     54  H   UNL     1      10.239  13.476   0.614  1.00  0.00     0.167 HD
ATOM     55  C   UNL     1       9.253  17.591   0.747  1.00  0.00     0.037 A 
ATOM     56  C   UNL     1      10.953  11.210   1.994  1.00  0.00     0.037 A 
ATOM     57  C   UNL     1      10.652  17.712   0.440  1.00  0.00     0.049 A 
ATOM     58  C   UNL     1      11.595  12.478   2.404  1.00  0.00     0.074 A 
ATOM     59  C   UNL     1      11.382  18.048  -0.683  1.00  0.00     0.029 A 
ATOM     60  N   UNL     1      11.557  17.158   1.310  1.00  0.00    -0.354 N 
ATOM     61  N   UNL     1      12.650  12.981   1.825  1.00  0.00    -0.248 NA
ATOM     62  C   UNL     1      10.824  13.407   3.213  1.00  0.00     0.031 C 
ATOM     63  C   UNL     1      12.540  17.217  -0.627  1.00  0.00     0.029 A 
ATOM     64  C   UNL     1      12.453  16.461   0.543  1.00  0.00     0.049 A 
ATOM     65  H   UNL     1      11.561  17.244   2.290  1.00  0.00     0.167 HD
ATOM     66  C   UNL     1      12.453  14.353   1.856  1.00  0.00     0.074 A 
ATOM     67  C   UNL     1      11.375  14.557   2.819  1.00  0.00     0.031 C 
ATOM     68  C   UNL     1      12.992  15.170   0.904  1.00  0.00     0.037 A 
BRANCH  55  69
ATOM     69  C   UNL     1       8.666  18.246   1.975  1.00  0.00     0.057 A 
ATOM     70  C   UNL     1       9.308  19.363   2.549  1.00  0.00     0.134 A 
ATOM     71  C   UNL     1       7.672  17.654   2.777  1.00  0.00     0.134 A 
ATOM     72  F   UNL     1      10.284  20.010   1.893  1.00  0.00    -0.206 F 
ATOM     73  C   UNL     1       9.030  19.811   3.847  1.00  0.00     0.040 A 
ATOM     74  C   UNL     1       7.353  18.123   4.057  1.00  0.00     0.040 A 
ATOM     75  F   UNL     1       7.033  16.538   2.405  1.00  0.00    -0.206 F 
ATOM     76  C   UNL     1       8.053  19.186   4.609  1.00  0.00     0.006 A 
ENDBRANCH  55  69
BRANCH  56  77
ATOM     77  C   UNL     1      10.727  10.076   2.908  1.00  0.00     0.057 A 
ATOM     78  C   UNL     1      11.620   9.782   3.942  1.00  0.00     0.134 A 
ATOM     79  C   UNL     1       9.488   9.410   2.942  1.00  0.00     0.134 A 
ATOM     80  F   UNL     1      12.810  10.396   4.008  1.00  0.00    -0.206 F 
ATOM     81  C   UNL     1      11.293   8.889   4.970  1.00  0.00     0.040 A 
ATOM     82  C   UNL     1       9.150   8.514   3.959  1.00  0.00     0.040 A 
ATOM     83  F   UNL     1       8.536   9.673   2.034  1.00  0.00    -0.206 F 
ATOM     84  C   UNL     1      10.050   8.261   4.987  1.00  0.00     0.006 A 
ENDBRANCH  56  77
BRANCH  68  85
ATOM     85  C   UNL     1      14.021  14.596  -0.028  1.00  0.00     0.057 A 
ATOM     86  C   UNL     1      13.745  13.597  -0.973  1.00  0.00     0.134 A 
ATOM     87  C   UNL     1      15.280  15.203  -0.100  1.00  0.00     0.134 A 
ATOM     88  F   UNL     1      12.536  13.029  -1.048  1.00  0.00    -0.206 F 
ATOM     89  C   UNL     1      14.690  13.198  -1.923  1.00  0.00     0.040 A 
ATOM     90  C   UNL     1      16.222  14.835  -1.064  1.00  0.00     0.040 A 
ATOM     91  F   UNL     1      15.593  16.209   0.732  1.00  0.00    -0.206 F 
ATOM     92  C   UNL     1      15.931  13.824  -1.976  1.00  0.00     0.006 A 
ENDBRANCH  68  85
ENDBRANCH  42  43
ENDBRANCH  34  37
ENDBRANCH  32  33
ENDBRANCH  31  32
ENDBRANCH  30  31
ENDBRANCH  29  30
ENDBRANCH   3  29
TORSDOF 17
