REMARK SMILES O=C(NCCCCNC(=O)c1ccccc1-c1ccc(/C=C2/SC(=S)N(Cc3ccccc3)C2=O)o1)c1ccc(-c2c3nc(c(-c4c(F)cccc4F)c4ccc([nH]4)c(-c4c(F)cccc4F)c4nc(c(-c5c(F)cccc5F)c5ccc2[nH]5)C=C4)C=C3)cc1
REMARK SMILES IDX 6 1 5 2 4 3 3 4 1 5 2 6 37 8 38 9 90 10 39 11 89 12 40 13
REMARK SMILES IDX 41 14 42 15 83 16 43 17 88 18 82 19 84 20 44 21 87 22 81 23
REMARK SMILES IDX 80 24 45 26 71 27 54 28 70 29 55 30 58 31 69 32 85 33 56 34
REMARK SMILES IDX 57 35 68 37 86 38 59 39 46 40 47 41 52 42 48 43 49 44 51 45
REMARK SMILES IDX 53 46 50 47 72 48 73 49 78 50 74 51 75 52 77 53 79 54 76 55
REMARK SMILES IDX 60 56 61 57 66 58 62 59 63 60 65 61 67 62 64 63 7 64 8 65
REMARK SMILES IDX 9 66 10 68 11 69 12 70 16 71 13 72 15 73 14 74 17 75 18 76
REMARK SMILES IDX 36 77 19 78 20 79 21 80 22 81 23 82 34 83 24 84 26 85 35 86
REMARK SMILES IDX 25 87 27 88 28 89 29 90 33 91 30 92 32 93 31 94
REMARK H PARENT 3 7 84 25 58 36 8 67
REMARK Flexibility Score: inf
ROOT
ATOM      1  C   UNL     1       4.600   2.903  -2.574  1.00  0.00     0.023 C 
ENDROOT
BRANCH   1   2
ATOM      2  C   UNL     1       5.057   1.524  -2.099  1.00  0.00     0.023 C 
BRANCH   2   3
ATOM      3  C   UNL     1       4.727   1.183  -0.651  1.00  0.00     0.116 C 
BRANCH   3   4
ATOM      4  N   UNL     1       3.297   1.087  -0.397  1.00  0.00    -0.352 N 
ATOM      5  O   UNL     1       1.320   0.080   0.024  1.00  0.00    -0.269 OA
ATOM      6  C   UNL     1       2.544  -0.003  -0.023  1.00  0.00     0.251 C 
ATOM      7  H   UNL     1       2.793   1.925  -0.509  1.00  0.00     0.163 HD
BRANCH   6   8
ATOM      8  C   UNL     1       3.209  -1.284   0.299  1.00  0.00     0.039 A 
ATOM      9  C   UNL     1       4.326  -1.312   1.136  1.00  0.00     0.014 A 
ATOM     10  C   UNL     1       2.713  -2.472  -0.247  1.00  0.00     0.014 A 
ATOM     11  C   UNL     1       5.040  -2.494   1.292  1.00  0.00     0.010 A 
ATOM     12  C   UNL     1       3.380  -3.679  -0.010  1.00  0.00     0.010 A 
ATOM     13  C   UNL     1       4.570  -3.695   0.734  1.00  0.00    -0.014 A 
BRANCH  13  14
ATOM     14  C   UNL     1       5.308  -4.955   1.007  1.00  0.00     0.031 A 
ATOM     15  C   UNL     1       5.977  -5.731  -0.093  1.00  0.00     0.074 A 
ATOM     16  C   UNL     1       5.405  -5.376   2.284  1.00  0.00     0.049 A 
ATOM     17  N   UNL     1       6.690  -6.827  -0.010  1.00  0.00    -0.248 NA
ATOM     18  C   UNL     1       5.825  -5.219  -1.464  1.00  0.00     0.031 C 
ATOM     19  C   UNL     1       4.785  -4.715   3.436  1.00  0.00     0.029 A 
ATOM     20  N   UNL     1       6.074  -6.439   2.832  1.00  0.00    -0.354 N 
ATOM     21  C   UNL     1       7.059  -7.144  -1.312  1.00  0.00     0.074 A 
ATOM     22  C   UNL     1       6.470  -6.138  -2.171  1.00  0.00     0.031 C 
ATOM     23  C   UNL     1       5.145  -5.356   4.556  1.00  0.00     0.029 A 
ATOM     24  C   UNL     1       5.965  -6.507   4.200  1.00  0.00     0.049 A 
ATOM     25  H   UNL     1       6.583  -7.090   2.298  1.00  0.00     0.167 HD
ATOM     26  C   UNL     1       7.824  -8.175  -1.746  1.00  0.00     0.037 A 
ATOM     27  C   UNL     1       6.455  -7.405   5.073  1.00  0.00     0.037 A 
ATOM     28  C   UNL     1       8.420  -9.166  -0.885  1.00  0.00     0.049 A 
ATOM     29  C   UNL     1       7.280  -8.547   4.560  1.00  0.00     0.074 A 
ATOM     30  C   UNL     1       9.239 -10.228  -1.230  1.00  0.00     0.029 A 
ATOM     31  N   UNL     1       8.257  -9.221   0.491  1.00  0.00    -0.354 N 
ATOM     32  N   UNL     1       7.646  -8.812   3.330  1.00  0.00    -0.248 NA
ATOM     33  C   UNL     1       7.755  -9.517   5.554  1.00  0.00     0.031 C 
ATOM     34  C   UNL     1       9.537 -10.949  -0.069  1.00  0.00     0.029 A 
ATOM     35  C   UNL     1       8.942 -10.311   1.006  1.00  0.00     0.049 A 
ATOM     36  H   UNL     1       7.733  -8.580   1.024  1.00  0.00     0.167 HD
ATOM     37  C   UNL     1       8.404  -9.972   3.403  1.00  0.00     0.074 A 
ATOM     38  C   UNL     1       8.466 -10.344   4.801  1.00  0.00     0.031 C 
ATOM     39  C   UNL     1       8.990 -10.670   2.400  1.00  0.00     0.037 A 
BRANCH  26  40
ATOM     40  C   UNL     1       8.057  -8.299  -3.225  1.00  0.00     0.057 A 
ATOM     41  C   UNL     1       8.912  -7.429  -3.915  1.00  0.00     0.134 A 
ATOM     42  C   UNL     1       7.472  -9.341  -3.955  1.00  0.00     0.134 A 
ATOM     43  F   UNL     1       9.498  -6.405  -3.277  1.00  0.00    -0.206 F 
ATOM     44  C   UNL     1       9.164  -7.583  -5.280  1.00  0.00     0.040 A 
ATOM     45  C   UNL     1       7.733  -9.519  -5.315  1.00  0.00     0.040 A 
ATOM     46  F   UNL     1       6.650 -10.216  -3.355  1.00  0.00    -0.206 F 
ATOM     47  C   UNL     1       8.579  -8.636  -5.982  1.00  0.00     0.006 A 
ENDBRANCH  26  40
BRANCH  27  48
ATOM     48  C   UNL     1       6.164  -7.260   6.521  1.00  0.00     0.057 A 
ATOM     49  C   UNL     1       7.171  -6.930   7.434  1.00  0.00     0.134 A 
ATOM     50  C   UNL     1       4.870  -7.442   7.023  1.00  0.00     0.134 A 
ATOM     51  F   UNL     1       8.434  -6.759   7.014  1.00  0.00    -0.206 F 
ATOM     52  C   UNL     1       6.905  -6.799   8.797  1.00  0.00     0.040 A 
ATOM     53  C   UNL     1       4.584  -7.286   8.379  1.00  0.00     0.040 A 
ATOM     54  F   UNL     1       3.860  -7.752   6.197  1.00  0.00    -0.206 F 
ATOM     55  C   UNL     1       5.606  -6.971   9.272  1.00  0.00     0.006 A 
ENDBRANCH  27  48
BRANCH  39  56
ATOM     56  C   UNL     1       9.764 -11.894   2.790  1.00  0.00     0.057 A 
ATOM     57  C   UNL     1       9.125 -13.067   3.211  1.00  0.00     0.134 A 
ATOM     58  C   UNL     1      11.163 -11.903   2.734  1.00  0.00     0.134 A 
ATOM     59  F   UNL     1       7.787 -13.116   3.303  1.00  0.00    -0.206 F 
ATOM     60  C   UNL     1       9.851 -14.197   3.588  1.00  0.00     0.040 A 
ATOM     61  C   UNL     1      11.899 -13.035   3.084  1.00  0.00     0.040 A 
ATOM     62  F   UNL     1      11.836 -10.813   2.333  1.00  0.00    -0.206 F 
ATOM     63  C   UNL     1      11.243 -14.185   3.520  1.00  0.00     0.006 A 
ENDBRANCH  39  56
ENDBRANCH  13  14
ENDBRANCH   6   8
ENDBRANCH   3   4
ENDBRANCH   2   3
ENDBRANCH   1   2
BRANCH   1  64
ATOM     64  C   UNL     1       4.987   4.062  -1.665  1.00  0.00     0.116 C 
BRANCH  64  65
ATOM     65  N   UNL     1       6.419   4.178  -1.443  1.00  0.00    -0.352 N 
ATOM     66  C   UNL     1       7.149   5.322  -1.223  1.00  0.00     0.252 C 
ATOM     67  H   UNL     1       6.927   3.335  -1.452  1.00  0.00     0.163 HD
ATOM     68  O   UNL     1       8.357   5.262  -1.016  1.00  0.00    -0.269 OA
BRANCH  66  69
ATOM     69  C   UNL     1       6.480   6.638  -1.284  1.00  0.00     0.050 A 
ATOM     70  C   UNL     1       6.861   7.487  -2.331  1.00  0.00     0.014 A 
ATOM     71  C   UNL     1       5.493   7.026  -0.361  1.00  0.00     0.030 A 
ATOM     72  C   UNL     1       6.221   8.713  -2.496  1.00  0.00     0.001 A 
ATOM     73  C   UNL     1       4.846   8.254  -0.554  1.00  0.00     0.013 A 
ATOM     74  C   UNL     1       5.206   9.090  -1.617  1.00  0.00     0.001 A 
BRANCH  71  75
ATOM     75  C   UNL     1       5.150   6.199   0.783  1.00  0.00     0.135 A 
ATOM     76  C   UNL     1       5.893   5.597   1.772  1.00  0.00     0.051 A 
ATOM     77  O   UNL     1       3.837   5.846   0.900  1.00  0.00    -0.457 OA
ATOM     78  C   UNL     1       4.985   4.824   2.525  1.00  0.00     0.051 A 
ATOM     79  C   UNL     1       3.719   4.998   1.975  1.00  0.00     0.128 A 
BRANCH  79  80
ATOM     80  C   UNL     1       2.499   4.417   2.411  1.00  0.00     0.068 C 
ATOM     81  C   UNL     1       1.922   4.827   3.547  1.00  0.00     0.084 C 
ATOM     82  S   UNL     1       0.742   3.933   4.422  1.00  0.00    -0.054 SA
ATOM     83  C   UNL     1       2.329   6.005   4.350  1.00  0.00     0.266 C 
ATOM     84  C   UNL     1       1.155   4.753   5.936  1.00  0.00     0.148 C 
ATOM     85  N   UNL     1       2.011   5.801   5.676  1.00  0.00    -0.288 N 
ATOM     86  O   UNL     1       2.828   7.020   3.878  1.00  0.00    -0.268 OA
ATOM     87  S   UNL     1       0.545   4.255   7.405  1.00  0.00    -0.052 S 
BRANCH  85  88
ATOM     88  C   UNL     1       2.551   6.733   6.663  1.00  0.00     0.163 C 
BRANCH  88  89
ATOM     89  C   UNL     1       3.969   6.385   7.079  1.00  0.00    -0.028 A 
ATOM     90  C   UNL     1       4.248   5.986   8.394  1.00  0.00     0.005 A 
ATOM     91  C   UNL     1       5.040   6.494   6.174  1.00  0.00     0.005 A 
ATOM     92  C   UNL     1       5.561   5.712   8.790  1.00  0.00     0.000 A 
ATOM     93  C   UNL     1       6.347   6.203   6.567  1.00  0.00     0.000 A 
ATOM     94  C   UNL     1       6.608   5.817   7.877  1.00  0.00     0.000 A 
ENDBRANCH  88  89
ENDBRANCH  85  88
ENDBRANCH  79  80
ENDBRANCH  71  75
ENDBRANCH  66  69
ENDBRANCH  64  65
ENDBRANCH   1  64
TORSDOF 15
