REMARK SMILES O=C(NCCCCNC(=O)[C@H]1Cc2ccc(Cl)cc2C[N@@H+]1Cc1ccccc1Cl)c1ccc(-c2c3nc(c(-c4c(F)cccc4F)c4ccc([nH]4)c(-c4c(F)cccc4F)c4nc(c(-c5c(F)cccc5F)c5ccc2[nH]5)C=C4)C=C3)cc1
REMARK SMILES IDX 5 1 4 2 3 3 1 4 2 5 30 7 31 8 83 9 32 10 82 11 33 12 34 13
REMARK SMILES IDX 35 14 76 15 36 16 81 17 75 18 77 19 37 20 80 21 74 22 73 23
REMARK SMILES IDX 38 25 64 26 47 27 63 28 48 29 51 30 62 31 78 32 49 33 50 34
REMARK SMILES IDX 61 36 79 37 52 38 39 39 40 40 45 41 41 42 42 43 44 44 46 45
REMARK SMILES IDX 43 46 65 47 66 48 71 49 67 50 68 51 70 52 72 53 69 54 53 55
REMARK SMILES IDX 54 56 59 57 55 58 56 59 58 60 60 61 57 62 6 63 7 64 8 65
REMARK SMILES IDX 9 66 10 68 11 69 12 70 21 71 13 72 20 73 14 75 19 76 15 77
REMARK SMILES IDX 18 78 16 79 17 80 22 81 23 82 24 83 28 84 25 85 27 86 29 87
REMARK SMILES IDX 26 88
REMARK H PARENT 3 6 77 24 51 35 8 67 21 74
REMARK Flexibility Score: inf
ROOT
ATOM      1  C   UNL     1       4.899   0.103  -2.720  1.00  0.00     0.023 C 
ENDROOT
BRANCH   1   2
ATOM      2  C   UNL     1       4.568   0.281  -1.250  1.00  0.00     0.116 C 
BRANCH   2   3
ATOM      3  N   UNL     1       3.146   0.452  -1.005  1.00  0.00    -0.352 N 
ATOM      4  O   UNL     1       1.181   0.127   0.047  1.00  0.00    -0.269 OA
ATOM      5  C   UNL     1       2.394  -0.001   0.053  1.00  0.00     0.251 C 
ATOM      6  H   UNL     1       2.654   0.960  -1.690  1.00  0.00     0.163 HD
BRANCH   5   7
ATOM      7  C   UNL     1       3.067  -0.675   1.186  1.00  0.00     0.039 A 
ATOM      8  C   UNL     1       2.484  -1.824   1.724  1.00  0.00     0.014 A 
ATOM      9  C   UNL     1       4.261  -0.179   1.715  1.00  0.00     0.014 A 
ATOM     10  C   UNL     1       3.117  -2.492   2.773  1.00  0.00     0.010 A 
ATOM     11  C   UNL     1       4.939  -0.899   2.691  1.00  0.00     0.010 A 
ATOM     12  C   UNL     1       4.358  -2.043   3.254  1.00  0.00    -0.014 A 
BRANCH  12  13
ATOM     13  C   UNL     1       5.023  -2.715   4.396  1.00  0.00     0.031 A 
ATOM     14  C   UNL     1       5.224  -1.968   5.688  1.00  0.00     0.074 A 
ATOM     15  C   UNL     1       5.467  -3.979   4.268  1.00  0.00     0.049 A 
ATOM     16  N   UNL     1       5.782  -2.370   6.801  1.00  0.00    -0.248 NA
ATOM     17  C   UNL     1       4.764  -0.569   5.722  1.00  0.00     0.031 C 
ATOM     18  C   UNL     1       5.374  -4.794   3.054  1.00  0.00     0.029 A 
ATOM     19  N   UNL     1       6.077  -4.804   5.177  1.00  0.00    -0.354 N 
ATOM     20  C   UNL     1       5.758  -1.272   7.653  1.00  0.00     0.074 A 
ATOM     21  C   UNL     1       5.196  -0.169   6.907  1.00  0.00     0.031 C 
ATOM     22  C   UNL     1       5.860  -6.020   3.311  1.00  0.00     0.029 A 
ATOM     23  C   UNL     1       6.326  -6.066   4.693  1.00  0.00     0.049 A 
ATOM     24  H   UNL     1       6.314  -4.520   6.089  1.00  0.00     0.167 HD
ATOM     25  C   UNL     1       6.137  -1.195   8.951  1.00  0.00     0.037 A 
ATOM     26  C   UNL     1       6.858  -7.139   5.307  1.00  0.00     0.037 A 
ATOM     27  C   UNL     1       6.662  -2.303   9.702  1.00  0.00     0.049 A 
ATOM     28  C   UNL     1       7.276  -7.025   6.747  1.00  0.00     0.074 A 
ATOM     29  C   UNL     1       7.014  -2.353  11.039  1.00  0.00     0.029 A 
ATOM     30  N   UNL     1       6.911  -3.561   9.175  1.00  0.00    -0.354 N 
ATOM     31  N   UNL     1       7.178  -6.004   7.564  1.00  0.00    -0.248 NA
ATOM     32  C   UNL     1       7.872  -8.224   7.351  1.00  0.00     0.031 C 
ATOM     33  C   UNL     1       7.517  -3.631  11.310  1.00  0.00     0.029 A 
ATOM     34  C   UNL     1       7.434  -4.390  10.154  1.00  0.00     0.049 A 
ATOM     35  H   UNL     1       6.741  -3.826   8.242  1.00  0.00     0.167 HD
ATOM     36  C   UNL     1       7.671  -6.446   8.785  1.00  0.00     0.074 A 
ATOM     37  C   UNL     1       8.046  -7.834   8.604  1.00  0.00     0.031 C 
ATOM     38  C   UNL     1       7.803  -5.768   9.952  1.00  0.00     0.037 A 
BRANCH  25  39
ATOM     39  C   UNL     1       5.993   0.139   9.627  1.00  0.00     0.057 A 
ATOM     40  C   UNL     1       7.123   0.882   9.989  1.00  0.00     0.134 A 
ATOM     41  C   UNL     1       4.738   0.699   9.906  1.00  0.00     0.134 A 
ATOM     42  F   UNL     1       8.356   0.406   9.755  1.00  0.00    -0.206 F 
ATOM     43  C   UNL     1       7.011   2.136  10.594  1.00  0.00     0.040 A 
ATOM     44  C   UNL     1       4.612   1.965  10.482  1.00  0.00     0.040 A 
ATOM     45  F   UNL     1       3.613   0.048   9.570  1.00  0.00    -0.206 F 
ATOM     46  C   UNL     1       5.752   2.685  10.830  1.00  0.00     0.006 A 
ENDBRANCH  25  39
BRANCH  26  47
ATOM     47  C   UNL     1       6.981  -8.432   4.589  1.00  0.00     0.057 A 
ATOM     48  C   UNL     1       7.910  -8.620   3.561  1.00  0.00     0.134 A 
ATOM     49  C   UNL     1       6.188  -9.529   4.951  1.00  0.00     0.134 A 
ATOM     50  F   UNL     1       8.696  -7.608   3.163  1.00  0.00    -0.206 F 
ATOM     51  C   UNL     1       8.050  -9.853   2.920  1.00  0.00     0.040 A 
ATOM     52  C   UNL     1       6.334 -10.773   4.337  1.00  0.00     0.040 A 
ATOM     53  F   UNL     1       5.293  -9.415   5.944  1.00  0.00    -0.206 F 
ATOM     54  C   UNL     1       7.267 -10.936   3.315  1.00  0.00     0.006 A 
ENDBRANCH  26  47
BRANCH  38  55
ATOM     55  C   UNL     1       8.342  -6.538  11.122  1.00  0.00     0.057 A 
ATOM     56  C   UNL     1       7.508  -6.882  12.194  1.00  0.00     0.134 A 
ATOM     57  C   UNL     1       9.679  -6.951  11.185  1.00  0.00     0.134 A 
ATOM     58  F   UNL     1       6.219  -6.510  12.202  1.00  0.00    -0.206 F 
ATOM     59  C   UNL     1       7.982  -7.619  13.280  1.00  0.00     0.040 A 
ATOM     60  C   UNL     1      10.157  -7.715  12.251  1.00  0.00     0.040 A 
ATOM     61  F   UNL     1      10.526  -6.667  10.184  1.00  0.00    -0.206 F 
ATOM     62  C   UNL     1       9.307  -8.048  13.304  1.00  0.00     0.006 A 
ENDBRANCH  38  55
ENDBRANCH  12  13
ENDBRANCH   5   7
ENDBRANCH   2   3
ENDBRANCH   1   2
BRANCH   1  63
ATOM     63  C   UNL     1       4.479   1.270  -3.613  1.00  0.00     0.023 C 
BRANCH  63  64
ATOM     64  C   UNL     1       5.191   2.601  -3.321  1.00  0.00     0.116 C 
BRANCH  64  65
ATOM     65  N   UNL     1       6.584   2.515  -3.709  1.00  0.00    -0.351 N 
ATOM     66  C   UNL     1       7.168   2.792  -4.911  1.00  0.00     0.278 C 
ATOM     67  H   UNL     1       7.199   2.212  -3.003  1.00  0.00     0.163 HD
ATOM     68  O   UNL     1       8.253   2.245  -5.136  1.00  0.00    -0.268 OA
BRANCH  66  69
ATOM     69  C   UNL     1       6.526   3.712  -5.973  1.00  0.00     0.279 C 
ATOM     70  C   UNL     1       5.300   3.007  -6.588  1.00  0.00     0.111 C 
ATOM     71  N   UNL     1       6.239   5.083  -5.459  1.00  0.00    -0.317 N 
ATOM     72  C   UNL     1       4.375   3.895  -7.369  1.00  0.00    -0.033 A 
ATOM     73  C   UNL     1       5.635   5.913  -6.516  1.00  0.00     0.300 C 
ATOM     74  H   UNL     1       5.573   4.961  -4.697  1.00  0.00     0.349 HD
ATOM     75  C   UNL     1       3.351   3.328  -8.141  1.00  0.00     0.006 A 
ATOM     76  C   UNL     1       4.495   5.284  -7.277  1.00  0.00     0.011 A 
ATOM     77  C   UNL     1       2.487   4.143  -8.872  1.00  0.00     0.021 A 
ATOM     78  C   UNL     1       3.633   6.097  -8.030  1.00  0.00     0.030 A 
ATOM     79  C   UNL     1       2.642   5.524  -8.824  1.00  0.00     0.041 A 
ATOM     80  Cl  UNL     1       1.618   6.533  -9.769  1.00  0.00    -0.084 Cl
BRANCH  71  81
ATOM     81  C   UNL     1       7.419   5.772  -4.848  1.00  0.00     0.301 C 
BRANCH  81  82
ATOM     82  C   UNL     1       8.713   5.818  -5.654  1.00  0.00     0.025 A 
ATOM     83  C   UNL     1       8.785   6.594  -6.828  1.00  0.00     0.011 A 
ATOM     84  C   UNL     1       9.865   5.095  -5.297  1.00  0.00     0.049 A 
ATOM     85  C   UNL     1       9.863   6.491  -7.710  1.00  0.00     0.001 A 
ATOM     86  C   UNL     1      10.948   4.993  -6.181  1.00  0.00     0.021 A 
ATOM     87  Cl  UNL     1      10.066   4.378  -3.735  1.00  0.00    -0.084 Cl
ATOM     88  C   UNL     1      10.929   5.659  -7.404  1.00  0.00     0.002 A 
ENDBRANCH  81  82
ENDBRANCH  71  81
ENDBRANCH  66  69
ENDBRANCH  64  65
ENDBRANCH  63  64
ENDBRANCH   1  63
TORSDOF 13
