REMARK SMILES C[C@]1(C(=O)N2CCC(CC(=O)NCCCCNC(=O)c3ccc(-c4c5nc(c(-c6c(F)cccc6F)c6ccc([nH]6)c(-c6c(F)cccc6F)c6nc(c(-c7c(F)cccc7F)c7ccc4[nH]7)C=C6)C=C5)cc3)CC2)CCC[NH2+]1
REMARK SMILES IDX 14 1 13 2 12 3 10 4 11 5 9 7 8 8 3 9 4 10 5 11 6 12 75 13
REMARK SMILES IDX 7 14 74 15 2 16 1 17 76 18 79 19 77 20 78 21 15 24 16 25
REMARK SMILES IDX 17 26 18 27 19 29 20 30 21 31 73 32 22 33 72 34 23 35 24 36
REMARK SMILES IDX 25 37 66 38 26 39 71 40 65 41 67 42 27 43 70 44 64 45 63 46
REMARK SMILES IDX 28 48 54 49 37 50 53 51 38 52 41 53 52 54 68 55 39 56 40 57
REMARK SMILES IDX 51 59 69 60 42 61 29 62 30 63 35 64 31 65 32 66 34 67 36 68
REMARK SMILES IDX 33 69 55 70 56 71 61 72 57 73 58 74 60 75 62 76 59 77 43 78
REMARK SMILES IDX 44 79 49 80 45 81 46 82 48 83 50 84 47 85
REMARK H PARENT 12 6 79 22 79 23 17 28 67 47 41 58
REMARK Flexibility Score: inf
ROOT
ATOM      1  C   UNL     1       1.815   0.404   5.248  1.00  0.00     0.023 C 
ENDROOT
BRANCH   1   2
ATOM      2  C   UNL     1       3.042   1.321   5.167  1.00  0.00     0.116 C 
BRANCH   2   3
ATOM      3  N   UNL     1       4.286   0.587   5.345  1.00  0.00    -0.356 N 
ATOM      4  C   UNL     1       5.249   0.238   4.441  1.00  0.00     0.220 C 
ATOM      5  O   UNL     1       6.202  -0.435   4.840  1.00  0.00    -0.275 OA
ATOM      6  H   UNL     1       4.462   0.293   6.268  1.00  0.00     0.163 HD
BRANCH   4   7
ATOM      7  C   UNL     1       5.147   0.646   2.977  1.00  0.00     0.103 C 
BRANCH   7   8
ATOM      8  C   UNL     1       4.510  -0.435   2.077  1.00  0.00     0.002 C 
ATOM      9  C   UNL     1       1.271  -0.376  -0.254  1.00  0.00     0.283 C 
ATOM     10  O   UNL     1       0.862   0.647   0.296  1.00  0.00    -0.268 OA
ATOM     11  N   UNL     1       2.347  -1.094   0.246  1.00  0.00    -0.337 N 
ATOM     12  C   UNL     1       2.263  -1.586   1.597  1.00  0.00     0.120 C 
ATOM     13  C   UNL     1       3.687  -0.934  -0.287  1.00  0.00     0.120 C 
ATOM     14  C   UNL     1       3.086  -0.736   2.536  1.00  0.00     0.026 C 
ATOM     15  C   UNL     1       4.522  -0.002   0.599  1.00  0.00     0.026 C 
BRANCH   9  16
ATOM     16  C   UNL     1       0.607  -1.002  -1.513  1.00  0.00     0.173 C 
ATOM     17  C   UNL     1       1.080  -0.266  -2.769  1.00  0.00     0.090 C 
ATOM     18  C   UNL     1       0.802  -2.517  -1.592  1.00  0.00     0.084 C 
ATOM     19  N   UNL     1      -0.865  -0.917  -1.365  1.00  0.00    -0.334 N 
ATOM     20  C   UNL     1      -0.386  -3.014  -2.393  1.00  0.00     0.068 C 
ATOM     21  C   UNL     1      -1.480  -1.991  -2.135  1.00  0.00     0.261 C 
ATOM     22  H   UNL     1      -1.193  -0.016  -1.712  1.00  0.00     0.347 HD
ATOM     23  H   UNL     1      -1.119  -1.009  -0.382  1.00  0.00     0.347 HD
ENDBRANCH   9  16
ENDBRANCH   7   8
ENDBRANCH   4   7
ENDBRANCH   2   3
ENDBRANCH   1   2
BRANCH   1  24
ATOM     24  C   UNL     1       1.276   0.149   6.643  1.00  0.00     0.023 C 
BRANCH  24  25
ATOM     25  C   UNL     1       0.602   1.351   7.272  1.00  0.00     0.116 C 
BRANCH  25  26
ATOM     26  N   UNL     1      -0.557   1.828   6.527  1.00  0.00    -0.352 N 
ATOM     27  C   UNL     1      -1.807   2.162   7.000  1.00  0.00     0.251 C 
ATOM     28  H   UNL     1      -0.429   1.924   5.556  1.00  0.00     0.163 HD
ATOM     29  O   UNL     1      -2.711   2.470   6.239  1.00  0.00    -0.269 OA
BRANCH  27  30
ATOM     30  C   UNL     1      -2.046   2.089   8.454  1.00  0.00     0.039 A 
ATOM     31  C   UNL     1      -3.138   1.357   8.925  1.00  0.00     0.014 A 
ATOM     32  C   UNL     1      -1.122   2.644   9.341  1.00  0.00     0.014 A 
ATOM     33  C   UNL     1      -3.245   1.096  10.291  1.00  0.00     0.010 A 
ATOM     34  C   UNL     1      -1.169   2.289  10.680  1.00  0.00     0.010 A 
ATOM     35  C   UNL     1      -2.231   1.512  11.169  1.00  0.00    -0.014 A 
BRANCH  35  36
ATOM     36  C   UNL     1      -2.252   1.160  12.609  1.00  0.00     0.031 A 
ATOM     37  C   UNL     1      -2.281   2.257  13.636  1.00  0.00     0.074 A 
ATOM     38  C   UNL     1      -2.144  -0.128  12.989  1.00  0.00     0.049 A 
ATOM     39  N   UNL     1      -2.173   2.175  14.936  1.00  0.00    -0.248 NA
ATOM     40  C   UNL     1      -2.405   3.634  13.128  1.00  0.00     0.031 C 
ATOM     41  C   UNL     1      -2.040  -1.277  12.086  1.00  0.00     0.029 A 
ATOM     42  N   UNL     1      -2.086  -0.686  14.241  1.00  0.00    -0.354 N 
ATOM     43  C   UNL     1      -2.182   3.486  15.394  1.00  0.00     0.074 A 
ATOM     44  C   UNL     1      -2.247   4.345  14.233  1.00  0.00     0.031 C 
ATOM     45  C   UNL     1      -1.960  -2.403  12.814  1.00  0.00     0.029 A 
ATOM     46  C   UNL     1      -1.967  -2.055  14.230  1.00  0.00     0.049 A 
ATOM     47  H   UNL     1      -2.127  -0.155  15.069  1.00  0.00     0.167 HD
ATOM     48  C   UNL     1      -2.168   3.934  16.671  1.00  0.00     0.037 A 
ATOM     49  C   UNL     1      -1.868  -2.927  15.251  1.00  0.00     0.037 A 
ATOM     50  C   UNL     1      -2.161   3.075  17.823  1.00  0.00     0.049 A 
ATOM     51  C   UNL     1      -1.884  -2.407  16.661  1.00  0.00     0.074 A 
ATOM     52  C   UNL     1      -2.236   3.424  19.159  1.00  0.00     0.029 A 
ATOM     53  N   UNL     1      -2.079   1.692  17.771  1.00  0.00    -0.354 N 
ATOM     54  N   UNL     1      -1.966  -1.168  17.083  1.00  0.00    -0.248 NA
ATOM     55  C   UNL     1      -1.794  -3.404  17.737  1.00  0.00     0.031 C 
ATOM     56  C   UNL     1      -2.168   2.252  19.919  1.00  0.00     0.029 A 
ATOM     57  C   UNL     1      -2.085   1.172  19.053  1.00  0.00     0.049 A 
ATOM     58  H   UNL     1      -2.026   1.159  16.945  1.00  0.00     0.167 HD
ATOM     59  C   UNL     1      -1.959  -1.237  18.470  1.00  0.00     0.074 A 
ATOM     60  C   UNL     1      -1.879  -2.641  18.818  1.00  0.00     0.031 C 
ATOM     61  C   UNL     1      -2.011  -0.230  19.374  1.00  0.00     0.037 A 
BRANCH  48  62
ATOM     62  C   UNL     1      -2.180   5.419  16.879  1.00  0.00     0.057 A 
ATOM     63  C   UNL     1      -3.313   6.195  16.601  1.00  0.00     0.134 A 
ATOM     64  C   UNL     1      -1.050   6.080  17.376  1.00  0.00     0.134 A 
ATOM     65  F   UNL     1      -4.422   5.624  16.105  1.00  0.00    -0.206 F 
ATOM     66  C   UNL     1      -3.313   7.579  16.781  1.00  0.00     0.040 A 
ATOM     67  C   UNL     1      -1.047   7.460  17.587  1.00  0.00     0.040 A 
ATOM     68  F   UNL     1       0.068   5.397  17.666  1.00  0.00    -0.206 F 
ATOM     69  C   UNL     1      -2.179   8.214  17.282  1.00  0.00     0.006 A 
ENDBRANCH  48  62
BRANCH  49  70
ATOM     70  C   UNL     1      -1.773  -4.383  14.980  1.00  0.00     0.057 A 
ATOM     71  C   UNL     1      -2.847  -5.237  15.257  1.00  0.00     0.134 A 
ATOM     72  C   UNL     1      -0.614  -4.957  14.445  1.00  0.00     0.134 A 
ATOM     73  F   UNL     1      -3.977  -4.748  15.788  1.00  0.00    -0.206 F 
ATOM     74  C   UNL     1      -2.767  -6.612  15.028  1.00  0.00     0.040 A 
ATOM     75  C   UNL     1      -0.528  -6.327  14.190  1.00  0.00     0.040 A 
ATOM     76  F   UNL     1       0.447  -4.191  14.151  1.00  0.00    -0.206 F 
ATOM     77  C   UNL     1      -1.605  -7.159  14.488  1.00  0.00     0.006 A 
ENDBRANCH  49  70
BRANCH  61  78
ATOM     78  C   UNL     1      -2.006  -0.610  20.823  1.00  0.00     0.057 A 
ATOM     79  C   UNL     1      -0.839  -1.042  21.465  1.00  0.00     0.134 A 
ATOM     80  C   UNL     1      -3.168  -0.491  21.596  1.00  0.00     0.134 A 
ATOM     81  F   UNL     1       0.302  -1.188  20.774  1.00  0.00    -0.206 F 
ATOM     82  C   UNL     1      -0.831  -1.357  22.824  1.00  0.00     0.040 A 
ATOM     83  C   UNL     1      -3.167  -0.781  22.960  1.00  0.00     0.040 A 
ATOM     84  F   UNL     1      -4.316  -0.074  21.041  1.00  0.00    -0.206 F 
ATOM     85  C   UNL     1      -1.996  -1.218  23.577  1.00  0.00     0.006 A 
ENDBRANCH  61  78
ENDBRANCH  35  36
ENDBRANCH  27  30
ENDBRANCH  25  26
ENDBRANCH  24  25
ENDBRANCH   1  24
TORSDOF 13
