REMARK SMILES O=C(NCCCCNC(=O)[C@@H](Cc1ccccc1)[P@TB4](=O)(O)C[NH+]1CCOCC1)c1ccc(-c2c3nc(c(-c4c(F)cccc4F)c4ccc([nH]4)c(-c4c(F)cccc4F)c4nc(c(-c5c(F)cccc5F)c5ccc2[nH]5)C=C4)C=C3)cc1
REMARK SMILES IDX 6 1 5 2 4 3 3 4 1 5 2 6 29 8 30 9 82 10 31 11 81 12 32 13
REMARK SMILES IDX 33 14 34 15 75 16 35 17 80 18 74 19 76 20 36 21 79 22 73 23
REMARK SMILES IDX 72 24 37 26 63 27 46 28 62 29 47 30 50 31 61 32 77 33 48 34
REMARK SMILES IDX 49 35 60 37 78 38 51 39 38 40 39 41 44 42 40 43 41 44 43 45
REMARK SMILES IDX 45 46 42 47 64 48 65 49 70 50 66 51 67 52 69 53 71 54 68 55
REMARK SMILES IDX 52 56 53 57 58 58 54 59 55 60 57 61 59 62 56 63 7 64 8 65
REMARK SMILES IDX 9 66 10 68 11 69 12 70 13 71 14 72 18 73 15 74 17 75 16 76
REMARK SMILES IDX 19 77 20 78 21 79 22 81 23 82 24 83 28 84 25 86 27 87 26 88
REMARK H PARENT 3 7 76 25 50 36 8 67 21 80 23 85
REMARK Flexibility Score: inf
ROOT
ATOM      1  C   UNL     1       5.318   2.065  -2.359  1.00  0.00       nan C 
ENDROOT
BRANCH   1   2
ATOM      2  C   UNL     1       5.586   0.743  -1.675  1.00  0.00       nan C 
BRANCH   2   3
ATOM      3  C   UNL     1       4.893   0.624  -0.329  1.00  0.00       nan C 
BRANCH   3   4
ATOM      4  N   UNL     1       3.433   0.674  -0.408  1.00  0.00       nan N 
ATOM      5  O   UNL     1       1.316  -0.116  -0.197  1.00  0.00       nan OA
ATOM      6  C   UNL     1       2.510  -0.256   0.022  1.00  0.00       nan C 
ATOM      7  H   UNL     1       3.059   1.482  -0.826  1.00  0.00       nan HD
BRANCH   6   8
ATOM      8  C   UNL     1       3.014  -1.456   0.718  1.00  0.00       nan A 
ATOM      9  C   UNL     1       3.973  -1.301   1.715  1.00  0.00       nan A 
ATOM     10  C   UNL     1       2.655  -2.726   0.265  1.00  0.00       nan A 
ATOM     11  C   UNL     1       4.762  -2.385   2.052  1.00  0.00       inf A 
ATOM     12  C   UNL     1       3.346  -3.845   0.742  1.00  0.00       inf A 
ATOM     13  C   UNL     1       4.448  -3.678   1.594  1.00  0.00    -0.014 A 
BRANCH  13  14
ATOM     14  C   UNL     1       5.285  -4.810   2.074  1.00  0.00     0.031 A 
ATOM     15  C   UNL     1       6.043  -5.701   1.127  1.00  0.00     0.074 A 
ATOM     16  C   UNL     1       5.434  -4.955   3.406  1.00  0.00     0.049 A 
ATOM     17  N   UNL     1       6.845  -6.699   1.410  1.00  0.00    -0.248 NA
ATOM     18  C   UNL     1       5.879  -5.464  -0.316  1.00  0.00     0.031 C 
ATOM     19  C   UNL     1       4.739  -4.155   4.421  1.00  0.00     0.029 A 
ATOM     20  N   UNL     1       6.256  -5.769   4.139  1.00  0.00    -0.354 N 
ATOM     21  C   UNL     1       7.241  -7.234   0.191  1.00  0.00     0.074 A 
ATOM     22  C   UNL     1       6.593  -6.452  -0.840  1.00  0.00     0.031 C 
ATOM     23  C   UNL     1       5.251  -4.427   5.626  1.00  0.00     0.029 A 
ATOM     24  C   UNL     1       6.225  -5.500   5.487  1.00  0.00     0.049 A 
ATOM     25  H   UNL     1       6.814  -6.475   3.740  1.00  0.00     0.167 HD
ATOM     26  C   UNL     1       8.067  -8.283  -0.041  1.00  0.00     0.037 A 
ATOM     27  C   UNL     1       6.892  -6.065   6.508  1.00  0.00     0.037 A 
ATOM     28  C   UNL     1       8.741  -9.028   0.993  1.00  0.00     0.049 A 
ATOM     29  C   UNL     1       7.824  -7.198   6.216  1.00  0.00     0.074 A 
ATOM     30  C   UNL     1       9.598 -10.109   0.860  1.00  0.00     0.029 A 
ATOM     31  N   UNL     1       8.650  -8.758   2.350  1.00  0.00    -0.354 N 
ATOM     32  N   UNL     1       8.150  -7.717   5.058  1.00  0.00    -0.248 NA
ATOM     33  C   UNL     1       8.457  -7.843   7.372  1.00  0.00     0.031 C 
ATOM     34  C   UNL     1      10.004 -10.507   2.139  1.00  0.00     0.029 A 
ATOM     35  C   UNL     1       9.428  -9.653   3.065  1.00  0.00     0.049 A 
ATOM     36  H   UNL     1       8.111  -8.035   2.746  1.00  0.00     0.167 HD
ATOM     37  C   UNL     1       9.011  -8.764   5.344  1.00  0.00     0.074 A 
ATOM     38  C   UNL     1       9.194  -8.774   6.782  1.00  0.00     0.031 C 
ATOM     39  C   UNL     1       9.581  -9.652   4.496  1.00  0.00     0.037 A 
BRANCH  26  40
ATOM     40  C   UNL     1       8.278  -8.712  -1.464  1.00  0.00     0.057 A 
ATOM     41  C   UNL     1       9.103  -7.997  -2.340  1.00  0.00     0.134 A 
ATOM     42  C   UNL     1       7.706  -9.899  -1.940  1.00  0.00     0.134 A 
ATOM     43  F   UNL     1       9.672  -6.846  -1.951  1.00  0.00    -0.206 F 
ATOM     44  C   UNL     1       9.346  -8.444  -3.642  1.00  0.00     0.040 A 
ATOM     45  C   UNL     1       7.957 -10.366  -3.232  1.00  0.00     0.040 A 
ATOM     46  F   UNL     1       6.911 -10.636  -1.150  1.00  0.00    -0.206 F 
ATOM     47  C   UNL     1       8.779  -9.637  -4.088  1.00  0.00     0.006 A 
ENDBRANCH  26  40
BRANCH  27  48
ATOM     48  C   UNL     1       6.662  -5.585   7.892  1.00  0.00     0.057 A 
ATOM     49  C   UNL     1       7.661  -4.909   8.601  1.00  0.00     0.134 A 
ATOM     50  C   UNL     1       5.426  -5.763   8.527  1.00  0.00     0.134 A 
ATOM     51  F   UNL     1       8.870  -4.722   8.052  1.00  0.00    -0.206 F 
ATOM     52  C   UNL     1       7.441  -4.431   9.893  1.00  0.00     0.040 A 
ATOM     53  C   UNL     1       5.183  -5.263   9.806  1.00  0.00     0.040 A 
ATOM     54  F   UNL     1       4.425  -6.394   7.896  1.00  0.00    -0.206 F 
ATOM     55  C   UNL     1       6.195  -4.600  10.495  1.00  0.00     0.006 A 
ENDBRANCH  27  48
BRANCH  39  56
ATOM     56  C   UNL     1      10.443 -10.705   5.120  1.00  0.00     0.057 A 
ATOM     57  C   UNL     1       9.885 -11.783   5.819  1.00  0.00     0.134 A 
ATOM     58  C   UNL     1      11.838 -10.634   5.034  1.00  0.00     0.134 A 
ATOM     59  F   UNL     1       8.554 -11.893   5.949  1.00  0.00    -0.206 F 
ATOM     60  C   UNL     1      10.688 -12.742   6.436  1.00  0.00     0.040 A 
ATOM     61  C   UNL     1      12.650 -11.598   5.630  1.00  0.00     0.040 A 
ATOM     62  F   UNL     1      12.430  -9.626   4.377  1.00  0.00    -0.206 F 
ATOM     63  C   UNL     1      12.075 -12.652   6.340  1.00  0.00     0.006 A 
ENDBRANCH  39  56
ENDBRANCH  13  14
ENDBRANCH   6   8
ENDBRANCH   3   4
ENDBRANCH   2   3
ENDBRANCH   1   2
BRANCH   1  64
ATOM     64  C   UNL     1       5.847   3.265  -1.593  1.00  0.00       nan C 
BRANCH  64  65
ATOM     65  N   UNL     1       7.112   3.700  -2.125  1.00  0.00       nan N 
ATOM     66  C   UNL     1       7.463   4.939  -2.542  1.00  0.00       nan C 
ATOM     67  H   UNL     1       7.811   3.010  -2.195  1.00  0.00       nan HD
ATOM     68  O   UNL     1       8.656   5.116  -2.821  1.00  0.00       nan OA
BRANCH  66  69
ATOM     69  C   UNL     1       6.467   6.044  -2.773  1.00  0.00       nan C 
BRANCH  69  70
ATOM     70  C   UNL     1       5.642   5.861  -4.082  1.00  0.00       nan C 
BRANCH  70  71
ATOM     71  C   UNL     1       4.381   5.019  -4.069  1.00  0.00       nan A 
ATOM     72  C   UNL     1       3.241   5.380  -3.333  1.00  0.00       nan A 
ATOM     73  C   UNL     1       4.309   3.864  -4.863  1.00  0.00       nan A 
ATOM     74  C   UNL     1       2.116   4.549  -3.294  1.00  0.00       nan A 
ATOM     75  C   UNL     1       3.171   3.049  -4.850  1.00  0.00       nan A 
ATOM     76  C   UNL     1       2.085   3.377  -4.043  1.00  0.00       nan A 
ENDBRANCH  70  71
ENDBRANCH  69  70
BRANCH  69  77
ATOM     77  P   UNL     1       5.415   6.746  -1.451  1.00  0.00       nan P 
ATOM     78  O   UNL     1       6.089   5.871  -0.379  1.00  0.00       nan OA
BRANCH  77  79
ATOM     79  O   UNL     1       6.381   8.091  -1.447  1.00  0.00       nan OA
ATOM     80  H   UNL     1       7.084   7.986  -2.107  1.00  0.00       nan HD
ENDBRANCH  77  79
BRANCH  77  81
ATOM     81  C   UNL     1       4.363   7.448  -0.128  1.00  0.00       nan C 
BRANCH  81  82
ATOM     82  N   UNL     1       3.764   8.773  -0.414  1.00  0.00       nan N 
ATOM     83  C   UNL     1       4.650   9.909  -0.016  1.00  0.00       nan C 
ATOM     84  C   UNL     1       2.539   8.935   0.428  1.00  0.00       nan C 
ATOM     85  H   UNL     1       3.589   8.799  -1.418  1.00  0.00       nan HD
ATOM     86  C   UNL     1       4.919  10.029   1.499  1.00  0.00       nan C 
ATOM     87  C   UNL     1       2.821   9.044   1.943  1.00  0.00       nan C 
ATOM     88  O   UNL     1       3.697  10.137   2.237  1.00  0.00       nan OA
ENDBRANCH  81  82
ENDBRANCH  77  81
ENDBRANCH  69  77
ENDBRANCH  66  69
ENDBRANCH  64  65
ENDBRANCH   1  64
TORSDOF 17
