REMARK SMILES Cc1ccccc1[C@@H]1[NH2+][C@@H](C(=O)NCCCCNC(=O)c2ccc(-c3c4nc(c(-c5c(F)cccc5F)c5ccc([nH]5)c(-c5c(F)cccc5F)c5nc(c(-c6c(F)cccc6F)c6ccc3[nH]6)C=C5)C=C4)cc2)CC2=c3ccccc3=N[C@H]21
REMARK SMILES IDX 16 1 15 2 14 3 13 4 11 5 12 6 10 8 8 9 9 10 84 11 76 14
REMARK SMILES IDX 83 15 75 16 77 17 82 18 78 19 81 20 79 21 80 22 7 23 1 24
REMARK SMILES IDX 2 25 3 26 4 27 6 28 5 29 17 30 18 31 19 32 20 34 21 35 22 36
REMARK SMILES IDX 74 37 23 38 73 39 24 40 25 41 26 42 67 43 27 44 72 45 66 46
REMARK SMILES IDX 68 47 28 48 71 49 65 50 64 51 29 53 55 54 38 55 54 56 39 57
REMARK SMILES IDX 42 58 53 59 69 60 40 61 41 62 52 64 70 65 43 66 30 67 31 68
REMARK SMILES IDX 36 69 32 70 33 71 35 72 37 73 34 74 56 75 57 76 62 77 58 78
REMARK SMILES IDX 59 79 61 80 63 81 60 82 44 83 45 84 50 85 46 86 47 87 49 88
REMARK SMILES IDX 51 89 48 90
REMARK H PARENT 13 7 9 12 9 13 18 33 68 52 42 63
REMARK Flexibility Score: inf
ROOT
ATOM      1  C   UNL     1      -3.199   8.317  -1.018  1.00  0.00     0.023 C 
ENDROOT
BRANCH   1   2
ATOM      2  C   UNL     1      -2.954   7.222   0.017  1.00  0.00     0.023 C 
BRANCH   2   3
ATOM      3  C   UNL     1      -3.834   5.970  -0.128  1.00  0.00     0.116 C 
BRANCH   3   4
ATOM      4  N   UNL     1      -3.411   4.956  -1.087  1.00  0.00    -0.351 N 
ATOM      5  C   UNL     1      -2.408   4.023  -1.038  1.00  0.00     0.278 C 
ATOM      6  O   UNL     1      -2.596   2.978  -1.675  1.00  0.00    -0.268 OA
ATOM      7  H   UNL     1      -3.939   4.939  -1.917  1.00  0.00     0.163 HD
BRANCH   5   8
ATOM      8  C   UNL     1      -1.026   4.321  -0.394  1.00  0.00     0.277 C 
ATOM      9  C   UNL     1       0.624   2.474   0.332  1.00  0.00     0.243 C 
ATOM     10  N   UNL     1      -0.054   3.243  -0.744  1.00  0.00    -0.327 N 
ATOM     11  C   UNL     1       0.572   3.024   1.791  1.00  0.00     0.196 C 
ATOM     12  H   UNL     1      -0.560   2.567  -1.316  1.00  0.00     0.347 HD
ATOM     13  H   UNL     1       0.711   3.753  -1.185  1.00  0.00     0.347 HD
ATOM     14  C   UNL     1      -0.742   3.688   1.998  1.00  0.00    -0.024 C 
ATOM     15  N   UNL     1       0.605   1.948   2.833  1.00  0.00    -0.270 NA
ATOM     16  C   UNL     1      -1.057   4.778   1.065  1.00  0.00     0.109 C 
ATOM     17  C   UNL     1      -1.451   3.127   2.964  1.00  0.00     0.002 A 
ATOM     18  C   UNL     1      -0.525   2.098   3.458  1.00  0.00     0.066 A 
ATOM     19  C   UNL     1      -2.763   3.300   3.491  1.00  0.00     0.010 A 
ATOM     20  C   UNL     1      -0.986   1.337   4.640  1.00  0.00     0.028 A 
ATOM     21  C   UNL     1      -3.135   2.534   4.528  1.00  0.00     0.001 A 
ATOM     22  C   UNL     1      -2.218   1.575   5.127  1.00  0.00     0.002 A 
BRANCH   9  23
ATOM     23  C   UNL     1       2.089   2.209  -0.054  1.00  0.00     0.015 A 
ATOM     24  C   UNL     1       2.719   4.700  -0.317  1.00  0.00     0.045 C 
ATOM     25  C   UNL     1       3.037   3.229  -0.321  1.00  0.00    -0.042 A 
ATOM     26  C   UNL     1       4.385   2.878  -0.533  1.00  0.00     0.004 A 
ATOM     27  C   UNL     1       4.798   1.548  -0.524  1.00  0.00     0.000 A 
ATOM     28  C   UNL     1       2.530   0.868  -0.067  1.00  0.00     0.010 A 
ATOM     29  C   UNL     1       3.868   0.542  -0.303  1.00  0.00     0.001 A 
ENDBRANCH   9  23
ENDBRANCH   5   8
ENDBRANCH   3   4
ENDBRANCH   2   3
ENDBRANCH   1   2
BRANCH   1  30
ATOM     30  C   UNL     1      -4.535   9.035  -0.866  1.00  0.00     0.116 C 
BRANCH  30  31
ATOM     31  N   UNL     1      -4.519  10.231  -0.029  1.00  0.00    -0.352 N 
ATOM     32  C   UNL     1      -5.604  10.994   0.386  1.00  0.00     0.251 C 
ATOM     33  H   UNL     1      -3.633  10.533   0.279  1.00  0.00     0.163 HD
ATOM     34  O   UNL     1      -5.450  11.970   1.102  1.00  0.00    -0.269 OA
BRANCH  32  35
ATOM     35  C   UNL     1      -6.970  10.513   0.053  1.00  0.00     0.039 A 
ATOM     36  C   UNL     1      -7.853  10.282   1.110  1.00  0.00     0.014 A 
ATOM     37  C   UNL     1      -7.259  10.038  -1.224  1.00  0.00     0.014 A 
ATOM     38  C   UNL     1      -8.866   9.339   0.950  1.00  0.00     0.010 A 
ATOM     39  C   UNL     1      -8.206   9.037  -1.362  1.00  0.00     0.010 A 
ATOM     40  C   UNL     1      -8.954   8.631  -0.253  1.00  0.00    -0.014 A 
BRANCH  40  41
ATOM     41  C   UNL     1      -9.684   7.369  -0.353  1.00  0.00     0.031 A 
ATOM     42  C   UNL     1     -10.995   7.294  -1.024  1.00  0.00     0.074 A 
ATOM     43  C   UNL     1      -9.198   6.246   0.224  1.00  0.00     0.049 A 
ATOM     44  N   UNL     1     -11.975   6.567  -0.597  1.00  0.00    -0.248 NA
ATOM     45  C   UNL     1     -11.307   8.051  -2.228  1.00  0.00     0.031 C 
ATOM     46  C   UNL     1      -9.734   4.893   0.106  1.00  0.00     0.029 A 
ATOM     47  N   UNL     1      -8.227   6.150   1.223  1.00  0.00    -0.354 N 
ATOM     48  C   UNL     1     -12.929   6.544  -1.586  1.00  0.00     0.074 A 
ATOM     49  C   UNL     1     -12.498   7.537  -2.549  1.00  0.00     0.031 C 
ATOM     50  C   UNL     1      -9.311   4.167   1.151  1.00  0.00     0.029 A 
ATOM     51  C   UNL     1      -8.566   5.047   2.031  1.00  0.00     0.049 A 
ATOM     52  H   UNL     1      -7.450   6.743   1.341  1.00  0.00     0.167 HD
ATOM     53  C   UNL     1     -13.908   5.593  -1.580  1.00  0.00     0.037 A 
ATOM     54  C   UNL     1      -8.755   5.176   3.376  1.00  0.00     0.037 A 
ATOM     55  C   UNL     1     -13.766   4.663  -0.464  1.00  0.00     0.049 A 
ATOM     56  C   UNL     1     -10.146   4.814   3.840  1.00  0.00     0.074 A 
ATOM     57  C   UNL     1     -13.206   3.398  -0.380  1.00  0.00     0.029 A 
ATOM     58  N   UNL     1     -13.959   5.093   0.844  1.00  0.00    -0.354 N 
ATOM     59  N   UNL     1     -11.150   4.606   3.035  1.00  0.00    -0.248 NA
ATOM     60  C   UNL     1     -10.536   4.734   5.247  1.00  0.00     0.031 C 
ATOM     61  C   UNL     1     -13.034   3.077   0.986  1.00  0.00     0.029 A 
ATOM     62  C   UNL     1     -13.486   4.147   1.736  1.00  0.00     0.049 A 
ATOM     63  H   UNL     1     -14.373   5.949   1.099  1.00  0.00     0.167 HD
ATOM     64  C   UNL     1     -12.300   4.468   3.769  1.00  0.00     0.074 A 
ATOM     65  C   UNL     1     -11.857   4.503   5.149  1.00  0.00     0.031 C 
ATOM     66  C   UNL     1     -13.525   4.376   3.172  1.00  0.00     0.037 A 
BRANCH  53  67
ATOM     67  C   UNL     1     -14.779   5.338  -2.787  1.00  0.00     0.057 A 
ATOM     68  C   UNL     1     -15.146   4.035  -3.174  1.00  0.00     0.134 A 
ATOM     69  C   UNL     1     -15.242   6.353  -3.641  1.00  0.00     0.134 A 
ATOM     70  F   UNL     1     -14.890   2.969  -2.406  1.00  0.00    -0.206 F 
ATOM     71  C   UNL     1     -15.793   3.755  -4.383  1.00  0.00     0.040 A 
ATOM     72  C   UNL     1     -15.845   6.087  -4.879  1.00  0.00     0.040 A 
ATOM     73  F   UNL     1     -15.144   7.645  -3.296  1.00  0.00    -0.206 F 
ATOM     74  C   UNL     1     -16.104   4.779  -5.264  1.00  0.00     0.006 A 
ENDBRANCH  53  67
BRANCH  54  75
ATOM     75  C   UNL     1      -7.912   6.240   3.978  1.00  0.00     0.057 A 
ATOM     76  C   UNL     1      -6.514   6.080   3.957  1.00  0.00     0.134 A 
ATOM     77  C   UNL     1      -8.406   7.527   4.200  1.00  0.00     0.134 A 
ATOM     78  F   UNL     1      -5.975   4.868   3.747  1.00  0.00    -0.206 F 
ATOM     79  C   UNL     1      -5.648   7.172   4.023  1.00  0.00     0.040 A 
ATOM     80  C   UNL     1      -7.546   8.626   4.283  1.00  0.00     0.040 A 
ATOM     81  F   UNL     1      -9.726   7.758   4.218  1.00  0.00    -0.206 F 
ATOM     82  C   UNL     1      -6.168   8.456   4.149  1.00  0.00     0.006 A 
ENDBRANCH  54  75
BRANCH  66  83
ATOM     83  C   UNL     1     -14.852   4.399   3.883  1.00  0.00     0.057 A 
ATOM     84  C   UNL     1     -15.103   5.116   5.062  1.00  0.00     0.134 A 
ATOM     85  C   UNL     1     -15.980   3.772   3.309  1.00  0.00     0.134 A 
ATOM     86  F   UNL     1     -14.150   5.853   5.649  1.00  0.00    -0.206 F 
ATOM     87  C   UNL     1     -16.368   5.149   5.666  1.00  0.00     0.040 A 
ATOM     88  C   UNL     1     -17.256   3.839   3.876  1.00  0.00     0.040 A 
ATOM     89  F   UNL     1     -15.891   3.082   2.163  1.00  0.00    -0.206 F 
ATOM     90  C   UNL     1     -17.451   4.516   5.070  1.00  0.00     0.006 A 
ENDBRANCH  66  83
ENDBRANCH  40  41
ENDBRANCH  32  35
ENDBRANCH  30  31
ENDBRANCH   1  30
TORSDOF 12
