REMARK SMILES Cc1ccc2[nH]cc([C@@H](C(=O)NCCCCNC(=O)c3ccc(-c4c5nc(c(-c6c(F)cccc6F)c6ccc([nH]6)c(-c6c(F)cccc6F)c6nc(c(-c7c(F)cccc7F)c7ccc4[nH]7)C=C6)C=C5)cc3)[NH+]3CCN(c4cccc(Cl)c4)CC3)c2c1
REMARK SMILES IDX 14 1 13 2 12 3 10 4 11 5 9 7 8 8 1 9 2 10 3 11 88 12 4 13
REMARK SMILES IDX 87 14 5 15 6 16 7 17 74 19 75 20 86 21 76 23 85 24 77 25
REMARK SMILES IDX 78 26 79 27 84 28 80 29 82 30 81 31 83 32 15 33 16 34 17 35
REMARK SMILES IDX 18 36 19 38 20 39 21 40 73 41 22 42 72 43 23 44 24 45 25 46
REMARK SMILES IDX 66 47 26 48 71 49 65 50 67 51 27 52 70 53 64 54 63 55 28 57
REMARK SMILES IDX 54 58 37 59 53 60 38 61 41 62 52 63 68 64 39 65 40 66 51 68
REMARK SMILES IDX 69 69 42 70 29 71 30 72 35 73 31 74 32 75 34 76 36 77 33 78
REMARK SMILES IDX 55 79 56 80 61 81 57 82 58 83 60 84 62 85 59 86 43 87 44 88
REMARK SMILES IDX 49 89 45 90 46 91 48 92 50 93 47 94
REMARK H PARENT 12 6 6 18 74 22 17 37 67 56 41 67
REMARK Flexibility Score: inf
ROOT
ATOM      1  C   UNL     1      -0.841  -1.177   3.465  1.00  0.00     0.023 C 
ENDROOT
BRANCH   1   2
ATOM      2  C   UNL     1      -0.697  -2.587   2.892  1.00  0.00     0.116 C 
BRANCH   2   3
ATOM      3  N   UNL     1      -1.982  -3.176   2.580  1.00  0.00    -0.351 N 
ATOM      4  C   UNL     1      -2.663  -3.188   1.387  1.00  0.00     0.283 C 
ATOM      5  O   UNL     1      -3.777  -3.720   1.418  1.00  0.00    -0.268 OA
ATOM      6  H   UNL     1      -2.431  -3.631   3.328  1.00  0.00     0.163 HD
BRANCH   4   7
ATOM      7  C   UNL     1      -1.986  -2.613   0.094  1.00  0.00     0.307 C 
BRANCH   7   8
ATOM      8  C   UNL     1      -1.711  -1.131   0.182  1.00  0.00     0.044 A 
ATOM      9  C   UNL     1       3.383  -0.634  -0.234  1.00  0.00     0.044 C 
ATOM     10  C   UNL     1       1.984  -0.096  -0.145  1.00  0.00    -0.050 A 
ATOM     11  C   UNL     1       1.754   1.275  -0.005  1.00  0.00     0.005 A 
ATOM     12  C   UNL     1       0.896  -0.985  -0.151  1.00  0.00     0.014 A 
ATOM     13  C   UNL     1       0.462   1.783   0.164  1.00  0.00     0.027 A 
ATOM     14  C   UNL     1      -0.417  -0.503   0.051  1.00  0.00     0.009 A 
ATOM     15  C   UNL     1      -0.595   0.870   0.217  1.00  0.00     0.046 A 
ATOM     16  N   UNL     1      -1.932   1.080   0.450  1.00  0.00    -0.361 N 
ATOM     17  C   UNL     1      -2.594  -0.115   0.510  1.00  0.00     0.094 A 
ATOM     18  H   UNL     1      -2.353   1.964   0.557  1.00  0.00     0.166 HD
ENDBRANCH   7   8
BRANCH   7  19
ATOM     19  N   UNL     1      -2.681  -3.018  -1.151  1.00  0.00    -0.318 N 
ATOM     20  C   UNL     1      -4.081  -2.606  -1.344  1.00  0.00     0.284 C 
ATOM     21  C   UNL     1      -1.913  -2.807  -2.390  1.00  0.00     0.284 C 
ATOM     22  H   UNL     1      -2.738  -4.018  -0.960  1.00  0.00     0.349 HD
ATOM     23  C   UNL     1      -4.346  -1.262  -2.054  1.00  0.00     0.178 C 
ATOM     24  C   UNL     1      -2.063  -1.425  -3.070  1.00  0.00     0.178 C 
ATOM     25  N   UNL     1      -3.476  -1.048  -3.215  1.00  0.00    -0.360 N 
BRANCH  25  26
ATOM     26  C   UNL     1      -3.706   0.107  -3.962  1.00  0.00     0.038 A 
ATOM     27  C   UNL     1      -3.845   1.375  -3.375  1.00  0.00     0.026 A 
ATOM     28  C   UNL     1      -3.810   0.006  -5.352  1.00  0.00     0.046 A 
ATOM     29  C   UNL     1      -4.120   2.504  -4.150  1.00  0.00     0.004 A 
ATOM     30  C   UNL     1      -4.091   1.131  -6.126  1.00  0.00     0.043 A 
ATOM     31  C   UNL     1      -4.254   2.380  -5.530  1.00  0.00     0.020 A 
ATOM     32  Cl  UNL     1      -4.256   0.973  -7.832  1.00  0.00    -0.084 Cl
ENDBRANCH  25  26
ENDBRANCH   7  19
ENDBRANCH   4   7
ENDBRANCH   2   3
ENDBRANCH   1   2
BRANCH   1  33
ATOM     33  C   UNL     1      -1.467  -1.110   4.854  1.00  0.00     0.023 C 
BRANCH  33  34
ATOM     34  C   UNL     1      -0.720  -1.896   5.915  1.00  0.00     0.116 C 
BRANCH  34  35
ATOM     35  N   UNL     1       0.677  -1.508   6.032  1.00  0.00    -0.352 N 
ATOM     36  C   UNL     1       1.444  -1.414   7.167  1.00  0.00     0.251 C 
ATOM     37  H   UNL     1       1.131  -1.283   5.188  1.00  0.00     0.163 HD
ATOM     38  O   UNL     1       2.575  -0.955   7.123  1.00  0.00    -0.269 OA
BRANCH  36  39
ATOM     39  C   UNL     1       0.859  -1.842   8.454  1.00  0.00     0.039 A 
ATOM     40  C   UNL     1       0.963  -0.991   9.555  1.00  0.00     0.014 A 
ATOM     41  C   UNL     1       0.172  -3.054   8.553  1.00  0.00     0.014 A 
ATOM     42  C   UNL     1       0.326  -1.334  10.746  1.00  0.00     0.010 A 
ATOM     43  C   UNL     1      -0.534  -3.352   9.710  1.00  0.00     0.010 A 
ATOM     44  C   UNL     1      -0.452  -2.502  10.823  1.00  0.00    -0.014 A 
BRANCH  44  45
ATOM     45  C   UNL     1      -1.164  -2.865  12.070  1.00  0.00     0.031 A 
ATOM     46  C   UNL     1      -0.787  -4.120  12.807  1.00  0.00     0.074 A 
ATOM     47  C   UNL     1      -2.181  -2.098  12.506  1.00  0.00     0.049 A 
ATOM     48  N   UNL     1      -1.315  -4.633  13.889  1.00  0.00    -0.248 NA
ATOM     49  C   UNL     1       0.306  -4.923  12.234  1.00  0.00     0.031 C 
ATOM     50  C   UNL     1      -2.678  -0.890  11.844  1.00  0.00     0.029 A 
ATOM     51  N   UNL     1      -2.984  -2.225  13.611  1.00  0.00    -0.354 N 
ATOM     52  C   UNL     1      -0.630  -5.821  14.114  1.00  0.00     0.074 A 
ATOM     53  C   UNL     1       0.307  -5.984  13.025  1.00  0.00     0.031 C 
ATOM     54  C   UNL     1      -3.680  -0.372  12.571  1.00  0.00     0.029 A 
ATOM     55  C   UNL     1      -3.917  -1.225  13.731  1.00  0.00     0.049 A 
ATOM     56  H   UNL     1      -2.899  -2.964  14.256  1.00  0.00     0.167 HD
ATOM     57  C   UNL     1      -0.751  -6.682  15.151  1.00  0.00     0.037 A 
ATOM     58  C   UNL     1      -4.855  -1.020  14.675  1.00  0.00     0.037 A 
ATOM     59  C   UNL     1      -1.662  -6.499  16.248  1.00  0.00     0.049 A 
ATOM     60  C   UNL     1      -4.955  -1.981  15.827  1.00  0.00     0.074 A 
ATOM     61  C   UNL     1      -1.819  -7.280  17.379  1.00  0.00     0.029 A 
ATOM     62  N   UNL     1      -2.570  -5.455  16.351  1.00  0.00    -0.354 N 
ATOM     63  N   UNL     1      -4.251  -3.060  16.067  1.00  0.00    -0.248 NA
ATOM     64  C   UNL     1      -5.972  -1.687  16.846  1.00  0.00     0.031 C 
ATOM     65  C   UNL     1      -2.850  -6.730  18.149  1.00  0.00     0.029 A 
ATOM     66  C   UNL     1      -3.302  -5.581  17.520  1.00  0.00     0.049 A 
ATOM     67  H   UNL     1      -2.678  -4.733  15.691  1.00  0.00     0.167 HD
ATOM     68  C   UNL     1      -4.718  -3.558  17.277  1.00  0.00     0.074 A 
ATOM     69  C   UNL     1      -5.755  -2.653  17.727  1.00  0.00     0.031 C 
ATOM     70  C   UNL     1      -4.324  -4.663  17.955  1.00  0.00     0.037 A 
BRANCH  57  71
ATOM     71  C   UNL     1       0.134  -7.895  15.146  1.00  0.00     0.057 A 
ATOM     72  C   UNL     1       1.518  -7.800  15.350  1.00  0.00     0.134 A 
ATOM     73  C   UNL     1      -0.404  -9.173  14.955  1.00  0.00     0.134 A 
ATOM     74  F   UNL     1       2.099  -6.603  15.523  1.00  0.00    -0.206 F 
ATOM     75  C   UNL     1       2.337  -8.930  15.336  1.00  0.00     0.040 A 
ATOM     76  C   UNL     1       0.402 -10.313  14.968  1.00  0.00     0.040 A 
ATOM     77  F   UNL     1      -1.721  -9.336  14.758  1.00  0.00    -0.206 F 
ATOM     78  C   UNL     1       1.778 -10.192  15.152  1.00  0.00     0.006 A 
ENDBRANCH  57  71
BRANCH  58  79
ATOM     79  C   UNL     1      -5.748   0.163  14.592  1.00  0.00     0.057 A 
ATOM     80  C   UNL     1      -5.619   1.228  15.492  1.00  0.00     0.134 A 
ATOM     81  C   UNL     1      -6.752   0.256  13.621  1.00  0.00     0.134 A 
ATOM     82  F   UNL     1      -4.686   1.189  16.454  1.00  0.00    -0.206 F 
ATOM     83  C   UNL     1      -6.472   2.332  15.445  1.00  0.00     0.040 A 
ATOM     84  C   UNL     1      -7.596   1.365  13.547  1.00  0.00     0.040 A 
ATOM     85  F   UNL     1      -6.920  -0.727  12.724  1.00  0.00    -0.206 F 
ATOM     86  C   UNL     1      -7.462   2.404  14.467  1.00  0.00     0.006 A 
ENDBRANCH  58  79
BRANCH  70  87
ATOM     87  C   UNL     1      -4.990  -4.931  19.272  1.00  0.00     0.057 A 
ATOM     88  C   UNL     1      -6.316  -5.373  19.356  1.00  0.00     0.134 A 
ATOM     89  C   UNL     1      -4.282  -4.772  20.471  1.00  0.00     0.134 A 
ATOM     90  F   UNL     1      -7.051  -5.533  18.245  1.00  0.00    -0.206 F 
ATOM     91  C   UNL     1      -6.923  -5.623  20.587  1.00  0.00     0.040 A 
ATOM     92  C   UNL     1      -4.870  -5.045  21.706  1.00  0.00     0.040 A 
ATOM     93  F   UNL     1      -3.005  -4.361  20.460  1.00  0.00    -0.206 F 
ATOM     94  C   UNL     1      -6.197  -5.465  21.767  1.00  0.00     0.006 A 
ENDBRANCH  70  87
ENDBRANCH  44  45
ENDBRANCH  36  39
ENDBRANCH  34  35
ENDBRANCH  33  34
ENDBRANCH   1  33
TORSDOF 14
