REMARK SMILES Cc1ccc(F)c(-c2ncccc2C(=O)NCCCCNC(=O)c2ccc(-c3c4nc(c(-c5c(F)cccc5F)c5ccc([nH]5)c(-c5c(F)cccc5F)c5nc(c(-c6c(F)cccc6F)c6ccc3[nH]6)C=C5)C=C4)cc2)c1
REMARK SMILES IDX 19 1 18 2 17 3 16 4 14 5 15 6 13 8 8 9 9 10 10 11 12 12
REMARK SMILES IDX 11 13 7 14 1 15 2 16 3 17 78 18 4 19 5 20 6 21 20 22 21 23
REMARK SMILES IDX 22 24 23 26 24 27 25 28 77 29 26 30 76 31 27 32 28 33 29 34
REMARK SMILES IDX 70 35 30 36 75 37 69 38 71 39 31 40 74 41 68 42 67 43 32 45
REMARK SMILES IDX 58 46 41 47 57 48 42 49 45 50 56 51 72 52 43 53 44 54 55 56
REMARK SMILES IDX 73 57 46 58 33 59 34 60 39 61 35 62 36 63 38 64 40 65 37 66
REMARK SMILES IDX 59 67 60 68 65 69 61 70 62 71 64 72 66 73 63 74 47 75 48 76
REMARK SMILES IDX 53 77 49 78 50 79 52 80 54 81 51 82
REMARK H PARENT 16 7 21 25 71 44 45 55
REMARK Flexibility Score: inf
ROOT
ATOM      1  C   UNL     1       1.202  -6.458   4.272  1.00  0.00     0.023 C 
ENDROOT
BRANCH   1   2
ATOM      2  C   UNL     1       0.043  -6.382   3.267  1.00  0.00     0.023 C 
BRANCH   2   3
ATOM      3  C   UNL     1      -0.969  -5.274   3.562  1.00  0.00     0.116 C 
BRANCH   3   4
ATOM      4  N   UNL     1      -0.418  -3.978   3.235  1.00  0.00    -0.352 N 
ATOM      5  C   UNL     1      -0.442  -3.142   2.149  1.00  0.00     0.253 C 
ATOM      6  O   UNL     1       0.184  -2.098   2.334  1.00  0.00    -0.269 OA
ATOM      7  H   UNL     1       0.105  -3.601   3.979  1.00  0.00     0.163 HD
BRANCH   5   8
ATOM      8  C   UNL     1      -1.167  -3.395   0.855  1.00  0.00     0.066 A 
ATOM      9  C   UNL     1      -1.286  -2.377  -0.117  1.00  0.00     0.086 A 
ATOM     10  N   UNL     1      -2.039  -2.520  -1.252  1.00  0.00    -0.255 NA
ATOM     11  C   UNL     1      -2.678  -3.684  -1.458  1.00  0.00     0.112 A 
ATOM     12  C   UNL     1      -1.774  -4.617   0.536  1.00  0.00     0.018 A 
ATOM     13  C   UNL     1      -2.555  -4.761  -0.612  1.00  0.00     0.021 A 
BRANCH   9  14
ATOM     14  C   UNL     1      -0.554  -1.101  -0.112  1.00  0.00     0.037 A 
ATOM     15  C   UNL     1       3.069   0.119  -0.210  1.00  0.00     0.044 C 
ATOM     16  C   UNL     1       1.569   0.125  -0.187  1.00  0.00    -0.050 A 
ATOM     17  C   UNL     1       0.870   1.332  -0.085  1.00  0.00     0.006 A 
ATOM     18  C   UNL     1       0.850  -1.077  -0.234  1.00  0.00     0.016 A 
ATOM     19  C   UNL     1      -0.522   1.331  -0.007  1.00  0.00     0.040 A 
ATOM     20  C   UNL     1      -1.220   0.124  -0.011  1.00  0.00     0.132 A 
ATOM     21  F   UNL     1      -2.557   0.165   0.103  1.00  0.00    -0.206 F 
ENDBRANCH   9  14
ENDBRANCH   5   8
ENDBRANCH   3   4
ENDBRANCH   2   3
ENDBRANCH   1   2
BRANCH   1  22
ATOM     22  C   UNL     1       0.790  -6.630   5.733  1.00  0.00     0.116 C 
BRANCH  22  23
ATOM     23  N   UNL     1      -0.105  -7.754   5.950  1.00  0.00    -0.352 N 
ATOM     24  C   UNL     1      -0.241  -8.549   7.064  1.00  0.00     0.251 C 
ATOM     25  H   UNL     1      -0.695  -7.978   5.194  1.00  0.00     0.163 HD
ATOM     26  O   UNL     1      -0.979  -9.521   7.042  1.00  0.00    -0.269 OA
BRANCH  24  27
ATOM     27  C   UNL     1       0.546  -8.238   8.276  1.00  0.00     0.039 A 
ATOM     28  C   UNL     1       1.253  -9.272   8.894  1.00  0.00     0.014 A 
ATOM     29  C   UNL     1       0.595  -6.940   8.790  1.00  0.00     0.014 A 
ATOM     30  C   UNL     1       2.061  -8.991   9.997  1.00  0.00     0.010 A 
ATOM     31  C   UNL     1       1.449  -6.650   9.850  1.00  0.00     0.010 A 
ATOM     32  C   UNL     1       2.188  -7.673  10.463  1.00  0.00    -0.014 A 
BRANCH  32  33
ATOM     33  C   UNL     1       3.093  -7.347  11.593  1.00  0.00     0.031 A 
ATOM     34  C   UNL     1       2.529  -6.840  12.890  1.00  0.00     0.074 A 
ATOM     35  C   UNL     1       4.425  -7.452  11.429  1.00  0.00     0.049 A 
ATOM     36  N   UNL     1       3.159  -6.457  13.971  1.00  0.00    -0.248 NA
ATOM     37  C   UNL     1       1.065  -6.721  12.973  1.00  0.00     0.031 C 
ATOM     38  C   UNL     1       5.095  -7.883  10.200  1.00  0.00     0.029 A 
ATOM     39  N   UNL     1       5.455  -7.197  12.297  1.00  0.00    -0.354 N 
ATOM     40  C   UNL     1       2.171  -6.040  14.854  1.00  0.00     0.074 A 
ATOM     41  C   UNL     1       0.906  -6.166  14.165  1.00  0.00     0.031 C 
ATOM     42  C   UNL     1       6.423  -7.886  10.402  1.00  0.00     0.029 A 
ATOM     43  C   UNL     1       6.698  -7.429  11.761  1.00  0.00     0.049 A 
ATOM     44  H   UNL     1       5.317  -6.878  13.219  1.00  0.00     0.167 HD
ATOM     45  C   UNL     1       2.305  -5.613  16.133  1.00  0.00     0.037 A 
ATOM     46  C   UNL     1       7.921  -7.289  12.304  1.00  0.00     0.037 A 
ATOM     47  C   UNL     1       3.563  -5.513  16.824  1.00  0.00     0.049 A 
ATOM     48  C   UNL     1       8.043  -6.823  13.728  1.00  0.00     0.074 A 
ATOM     49  C   UNL     1       3.799  -5.147  18.138  1.00  0.00     0.029 A 
ATOM     50  N   UNL     1       4.799  -5.779  16.255  1.00  0.00    -0.354 N 
ATOM     51  N   UNL     1       7.097  -6.498  14.575  1.00  0.00    -0.248 NA
ATOM     52  C   UNL     1       9.403  -6.713  14.274  1.00  0.00     0.031 C 
ATOM     53  C   UNL     1       5.182  -5.158  18.353  1.00  0.00     0.029 A 
ATOM     54  C   UNL     1       5.803  -5.572  17.186  1.00  0.00     0.049 A 
ATOM     55  H   UNL     1       4.941  -6.073  15.326  1.00  0.00     0.167 HD
ATOM     56  C   UNL     1       7.742  -6.173  15.761  1.00  0.00     0.074 A 
ATOM     57  C   UNL     1       9.161  -6.352  15.527  1.00  0.00     0.031 C 
ATOM     58  C   UNL     1       7.209  -5.763  16.938  1.00  0.00     0.037 A 
BRANCH  45  59
ATOM     59  C   UNL     1       1.052  -5.229  16.865  1.00  0.00     0.057 A 
ATOM     60  C   UNL     1       0.109  -6.186  17.264  1.00  0.00     0.134 A 
ATOM     61  C   UNL     1       0.793  -3.893  17.192  1.00  0.00     0.134 A 
ATOM     62  F   UNL     1       0.290  -7.483  16.969  1.00  0.00    -0.206 F 
ATOM     63  C   UNL     1      -1.060  -5.824  17.935  1.00  0.00     0.040 A 
ATOM     64  C   UNL     1      -0.359  -3.521  17.887  1.00  0.00     0.040 A 
ATOM     65  F   UNL     1       1.657  -2.926  16.845  1.00  0.00    -0.206 F 
ATOM     66  C   UNL     1      -1.294  -4.488  18.254  1.00  0.00     0.006 A 
ENDBRANCH  45  59
BRANCH  46  67
ATOM     67  C   UNL     1       9.129  -7.629  11.512  1.00  0.00     0.057 A 
ATOM     68  C   UNL     1       9.885  -8.770  11.808  1.00  0.00     0.134 A 
ATOM     69  C   UNL     1       9.557  -6.829  10.447  1.00  0.00     0.134 A 
ATOM     70  F   UNL     1       9.533  -9.566  12.828  1.00  0.00    -0.206 F 
ATOM     71  C   UNL     1      11.035  -9.092  11.086  1.00  0.00     0.040 A 
ATOM     72  C   UNL     1      10.692  -7.151   9.702  1.00  0.00     0.040 A 
ATOM     73  F   UNL     1       8.871  -5.728  10.109  1.00  0.00    -0.206 F 
ATOM     74  C   UNL     1      11.439  -8.283  10.025  1.00  0.00     0.006 A 
ENDBRANCH  46  67
BRANCH  58  75
ATOM     75  C   UNL     1       8.161  -5.517  18.071  1.00  0.00     0.057 A 
ATOM     76  C   UNL     1       9.002  -4.398  18.100  1.00  0.00     0.134 A 
ATOM     77  C   UNL     1       8.210  -6.394  19.162  1.00  0.00     0.134 A 
ATOM     78  F   UNL     1       9.012  -3.528  17.079  1.00  0.00    -0.206 F 
ATOM     79  C   UNL     1       9.875  -4.171  19.165  1.00  0.00     0.040 A 
ATOM     80  C   UNL     1       9.060  -6.164  20.244  1.00  0.00     0.040 A 
ATOM     81  F   UNL     1       7.424  -7.481  19.198  1.00  0.00    -0.206 F 
ATOM     82  C   UNL     1       9.901  -5.053  20.244  1.00  0.00     0.006 A 
ENDBRANCH  58  75
ENDBRANCH  32  33
ENDBRANCH  24  27
ENDBRANCH  22  23
ENDBRANCH   1  22
TORSDOF 12
