REMARK SMILES Cn1cc(C(=O)NCCCCNC(=O)c2ccc(-c3c4nc(c(-c5c(F)cccc5F)c5ccc([nH]5)c(-c5c(F)cccc5F)c5nc(c(-c6c(F)cccc6F)c6ccc3[nH]6)C=C5)C=C4)cc2)c(C(=O)Nc2ccc(-c3nc4cc(Cl)ccc4o3)cc2)n1
REMARK SMILES IDX 9 1 8 2 7 3 5 4 6 5 4 7 1 8 2 9 3 10 89 11 69 12 70 13 71 14
REMARK SMILES IDX 72 15 73 17 74 18 88 19 75 20 87 21 76 22 77 23 78 24 86 25
REMARK SMILES IDX 79 26 85 27 80 28 84 29 81 30 83 31 82 32 10 33 11 34 12 35
REMARK SMILES IDX 13 36 14 38 15 39 16 40 68 41 17 42 67 43 18 44 19 45 20 46
REMARK SMILES IDX 61 47 21 48 66 49 60 50 62 51 22 52 65 53 59 54 58 55 23 57
REMARK SMILES IDX 49 58 32 59 48 60 33 61 36 62 47 63 63 64 34 65 35 66 46 68
REMARK SMILES IDX 64 69 37 70 24 71 25 72 30 73 26 74 27 75 29 76 31 77 28 78
REMARK SMILES IDX 50 79 51 80 56 81 52 82 53 83 55 84 57 85 54 86 38 87 39 88
REMARK SMILES IDX 44 89 40 90 41 91 43 92 45 93 42 94
REMARK H PARENT 7 6 72 16 12 37 62 56 36 67
REMARK Flexibility Score: inf
ROOT
ATOM      1  C   UNL     1       0.622  -4.409  -0.673  1.00  0.00     0.023 C 
ENDROOT
BRANCH   1   2
ATOM      2  C   UNL     1       0.534  -4.001   0.795  1.00  0.00     0.116 C 
BRANCH   2   3
ATOM      3  N   UNL     1       1.612  -3.151   1.263  1.00  0.00    -0.352 N 
ATOM      4  C   UNL     1       1.772  -1.788   1.353  1.00  0.00     0.255 C 
ATOM      5  O   UNL     1       2.695  -1.408   2.077  1.00  0.00    -0.269 OA
ATOM      6  H   UNL     1       2.394  -3.655   1.583  1.00  0.00     0.163 HD
BRANCH   4   7
ATOM      7  C   UNL     1       0.928  -0.832   0.646  1.00  0.00     0.090 A 
ATOM      8  C   UNL     1      -2.102   0.648  -0.643  1.00  0.00     0.173 C 
ATOM      9  N   UNL     1      -0.768   0.253  -0.259  1.00  0.00    -0.274 N 
ATOM     10  C   UNL     1      -0.372  -0.971   0.190  1.00  0.00     0.123 A 
ATOM     11  N   UNL     1       0.202   1.167  -0.244  1.00  0.00    -0.167 NA
ATOM     12  C   UNL     1       1.245   0.554   0.355  1.00  0.00     0.163 A 
BRANCH  12  13
ATOM     13  C   UNL     1       2.441   1.360   0.697  1.00  0.00     0.276 C 
ATOM     14  O   UNL     1       2.334   2.476   1.216  1.00  0.00    -0.267 OA
ATOM     15  N   UNL     1       3.722   0.879   0.520  1.00  0.00    -0.321 N 
ATOM     16  H   UNL     1       4.418   1.386   0.999  1.00  0.00     0.170 HD
BRANCH  15  17
ATOM     17  C   UNL     1       4.202  -0.202  -0.223  1.00  0.00     0.041 A 
ATOM     18  C   UNL     1       5.357  -0.841   0.244  1.00  0.00     0.027 A 
ATOM     19  C   UNL     1       3.566  -0.671  -1.367  1.00  0.00     0.027 A 
ATOM     20  C   UNL     1       5.785  -2.037  -0.339  1.00  0.00     0.016 A 
ATOM     21  C   UNL     1       4.016  -1.843  -1.970  1.00  0.00     0.016 A 
ATOM     22  C   UNL     1       5.092  -2.565  -1.430  1.00  0.00     0.037 A 
BRANCH  22  23
ATOM     23  C   UNL     1       5.364  -3.887  -1.971  1.00  0.00     0.227 A 
ATOM     24  N   UNL     1       4.970  -4.368  -3.134  1.00  0.00    -0.209 NA
ATOM     25  O   UNL     1       5.832  -4.830  -1.086  1.00  0.00    -0.436 OA
ATOM     26  C   UNL     1       5.109  -5.716  -2.990  1.00  0.00     0.111 A 
ATOM     27  C   UNL     1       5.638  -6.010  -1.744  1.00  0.00     0.155 A 
ATOM     28  C   UNL     1       4.744  -6.750  -3.851  1.00  0.00     0.053 A 
ATOM     29  C   UNL     1       5.854  -7.295  -1.266  1.00  0.00     0.051 A 
ATOM     30  C   UNL     1       4.910  -8.056  -3.392  1.00  0.00     0.043 A 
ATOM     31  C   UNL     1       5.461  -8.327  -2.131  1.00  0.00     0.024 A 
ATOM     32  Cl  UNL     1       4.375  -9.335  -4.410  1.00  0.00    -0.084 Cl
ENDBRANCH  22  23
ENDBRANCH  15  17
ENDBRANCH  12  13
ENDBRANCH   4   7
ENDBRANCH   2   3
ENDBRANCH   1   2
BRANCH   1  33
ATOM     33  C   UNL     1       1.774  -5.353  -1.044  1.00  0.00     0.023 C 
BRANCH  33  34
ATOM     34  C   UNL     1       1.963  -6.614  -0.196  1.00  0.00     0.116 C 
BRANCH  34  35
ATOM     35  N   UNL     1       0.785  -7.455  -0.094  1.00  0.00    -0.352 N 
ATOM     36  C   UNL     1       0.667  -8.818   0.058  1.00  0.00     0.251 C 
ATOM     37  H   UNL     1      -0.071  -6.971  -0.142  1.00  0.00     0.163 HD
ATOM     38  O   UNL     1      -0.461  -9.308   0.090  1.00  0.00    -0.269 OA
BRANCH  36  39
ATOM     39  C   UNL     1       1.848  -9.720   0.141  1.00  0.00     0.039 A 
ATOM     40  C   UNL     1       1.755 -10.983  -0.462  1.00  0.00     0.014 A 
ATOM     41  C   UNL     1       3.016  -9.386   0.828  1.00  0.00     0.014 A 
ATOM     42  C   UNL     1       2.843 -11.867  -0.447  1.00  0.00     0.010 A 
ATOM     43  C   UNL     1       4.121 -10.247   0.799  1.00  0.00     0.010 A 
ATOM     44  C   UNL     1       4.056 -11.490   0.144  1.00  0.00    -0.014 A 
BRANCH  44  45
ATOM     45  C   UNL     1       5.284 -12.332   0.041  1.00  0.00     0.031 A 
ATOM     46  C   UNL     1       5.963 -12.866   1.271  1.00  0.00     0.074 A 
ATOM     47  C   UNL     1       5.879 -12.510  -1.156  1.00  0.00     0.049 A 
ATOM     48  N   UNL     1       7.124 -13.463   1.377  1.00  0.00    -0.248 NA
ATOM     49  C   UNL     1       5.250 -12.701   2.545  1.00  0.00     0.031 C 
ATOM     50  C   UNL     1       5.354 -12.049  -2.438  1.00  0.00     0.029 A 
ATOM     51  N   UNL     1       7.091 -13.071  -1.482  1.00  0.00    -0.354 N 
ATOM     52  C   UNL     1       7.282 -13.747   2.726  1.00  0.00     0.074 A 
ATOM     53  C   UNL     1       6.121 -13.209   3.406  1.00  0.00     0.031 C 
ATOM     54  C   UNL     1       6.269 -12.260  -3.396  1.00  0.00     0.029 A 
ATOM     55  C   UNL     1       7.439 -12.889  -2.800  1.00  0.00     0.049 A 
ATOM     56  H   UNL     1       7.654 -13.556  -0.836  1.00  0.00     0.167 HD
ATOM     57  C   UNL     1       8.283 -14.423   3.340  1.00  0.00     0.037 A 
ATOM     58  C   UNL     1       8.575 -13.175  -3.462  1.00  0.00     0.037 A 
ATOM     59  C   UNL     1       9.418 -15.004   2.672  1.00  0.00     0.049 A 
ATOM     60  C   UNL     1       9.686 -13.893  -2.762  1.00  0.00     0.074 A 
ATOM     61  C   UNL     1      10.415 -15.805   3.204  1.00  0.00     0.029 A 
ATOM     62  N   UNL     1       9.711 -14.845   1.328  1.00  0.00    -0.354 N 
ATOM     63  N   UNL     1       9.777 -14.232  -1.502  1.00  0.00    -0.248 NA
ATOM     64  C   UNL     1      10.834 -14.303  -3.585  1.00  0.00     0.031 C 
ATOM     65  C   UNL     1      11.324 -16.114   2.183  1.00  0.00     0.029 A 
ATOM     66  C   UNL     1      10.880 -15.519   1.014  1.00  0.00     0.049 A 
ATOM     67  H   UNL     1       9.168 -14.328   0.689  1.00  0.00     0.167 HD
ATOM     68  C   UNL     1      10.961 -14.946  -1.389  1.00  0.00     0.074 A 
ATOM     69  C   UNL     1      11.570 -14.965  -2.703  1.00  0.00     0.031 C 
ATOM     70  C   UNL     1      11.477 -15.553  -0.294  1.00  0.00     0.037 A 
BRANCH  57  71
ATOM     71  C   UNL     1       8.174 -14.600   4.822  1.00  0.00     0.057 A 
ATOM     72  C   UNL     1       7.292 -15.532   5.382  1.00  0.00     0.134 A 
ATOM     73  C   UNL     1       8.975 -13.855   5.695  1.00  0.00     0.134 A 
ATOM     74  F   UNL     1       6.492 -16.267   4.595  1.00  0.00    -0.206 F 
ATOM     75  C   UNL     1       7.194 -15.703   6.763  1.00  0.00     0.040 A 
ATOM     76  C   UNL     1       8.899 -14.029   7.078  1.00  0.00     0.040 A 
ATOM     77  F   UNL     1       9.842 -12.949   5.219  1.00  0.00    -0.206 F 
ATOM     78  C   UNL     1       8.003 -14.953   7.615  1.00  0.00     0.006 A 
ENDBRANCH  57  71
BRANCH  58  79
ATOM     79  C   UNL     1       8.706 -12.799  -4.888  1.00  0.00     0.057 A 
ATOM     80  C   UNL     1       8.494 -13.735  -5.904  1.00  0.00     0.134 A 
ATOM     81  C   UNL     1       9.039 -11.492  -5.262  1.00  0.00     0.134 A 
ATOM     82  F   UNL     1       8.186 -15.003  -5.598  1.00  0.00    -0.206 F 
ATOM     83  C   UNL     1       8.620 -13.388  -7.250  1.00  0.00     0.040 A 
ATOM     84  C   UNL     1       9.160 -11.129  -6.604  1.00  0.00     0.040 A 
ATOM     85  F   UNL     1       9.251 -10.554  -4.327  1.00  0.00    -0.206 F 
ATOM     86  C   UNL     1       8.953 -12.081  -7.602  1.00  0.00     0.006 A 
ENDBRANCH  58  79
BRANCH  70  87
ATOM     87  C   UNL     1      12.730 -16.347  -0.485  1.00  0.00     0.057 A 
ATOM     88  C   UNL     1      13.986 -15.737  -0.570  1.00  0.00     0.134 A 
ATOM     89  C   UNL     1      12.676 -17.743  -0.574  1.00  0.00     0.134 A 
ATOM     90  F   UNL     1      14.099 -14.401  -0.511  1.00  0.00    -0.206 F 
ATOM     91  C   UNL     1      15.148 -16.490  -0.748  1.00  0.00     0.040 A 
ATOM     92  C   UNL     1      13.832 -18.508  -0.739  1.00  0.00     0.040 A 
ATOM     93  F   UNL     1      11.500 -18.385  -0.504  1.00  0.00    -0.206 F 
ATOM     94  C   UNL     1      15.073 -17.880  -0.829  1.00  0.00     0.006 A 
ENDBRANCH  70  87
ENDBRANCH  44  45
ENDBRANCH  36  39
ENDBRANCH  34  35
ENDBRANCH  33  34
ENDBRANCH   1  33
TORSDOF 14
