REMARK SMILES CC(C)[C@H](CNc1ncnc2c1CCCCC2)C(=O)NCCCCNC(=O)c1ccc(-c2c3nc(c(-c4c(F)cccc4F)c4ccc([nH]4)c(-c4c(F)cccc4F)c4nc(c(-c5c(F)cccc5F)c5ccc2[nH]5)C=C4)C=C3)cc1
REMARK SMILES IDX 18 1 19 2 20 3 4 5 2 6 1 7 3 8 5 9 6 10 7 12 8 13 12 14 9 15
REMARK SMILES IDX 11 16 10 17 13 18 14 19 15 20 16 21 17 23 21 25 22 26 23 27
REMARK SMILES IDX 24 28 25 29 26 30 27 32 28 33 29 34 81 35 30 36 80 37 31 38
REMARK SMILES IDX 32 39 33 40 74 41 34 42 79 43 73 44 75 45 35 46 78 47 72 48
REMARK SMILES IDX 71 49 36 51 62 52 45 53 61 54 46 55 49 56 60 57 76 58 47 59
REMARK SMILES IDX 48 60 59 62 77 63 50 64 37 65 38 66 43 67 39 68 40 69 42 70
REMARK SMILES IDX 44 71 41 72 63 73 64 74 69 75 65 76 66 77 68 78 70 79 67 80
REMARK SMILES IDX 51 81 52 82 57 83 53 84 54 85 56 86 58 87 55 88
REMARK H PARENT 20 4 6 11 25 31 75 50 49 61
REMARK Flexibility Score: 80.00
ROOT
ATOM      1  C   UNL     1      -1.610  -0.569  -2.836  1.00  0.00     0.225 C 
ATOM      2  O   UNL     1      -2.426  -1.476  -3.036  1.00  0.00    -0.275 OA
ATOM      3  N   UNL     1      -1.291   0.211  -3.900  1.00  0.00    -0.356 N 
ATOM      4  H   UNL     1      -1.699  -0.070  -4.751  1.00  0.00     0.163 HD
ENDROOT
BRANCH   1   5
ATOM      5  C   UNL     1      -1.038  -0.366  -1.434  1.00  0.00     0.100 C 
BRANCH   5   6
ATOM      6  C   UNL     1      -1.736   0.793  -0.642  1.00  0.00    -0.003 C 
ATOM      7  C   UNL     1      -1.357   0.759   0.845  1.00  0.00     0.008 C 
ATOM      8  C   UNL     1      -1.510   2.225  -1.136  1.00  0.00     0.008 C 
ENDBRANCH   5   6
BRANCH   5   9
ATOM      9  C   UNL     1       0.496  -0.406  -1.335  1.00  0.00     0.128 C 
BRANCH   9  10
ATOM     10  N   UNL     1       1.138  -1.451  -2.128  1.00  0.00    -0.369 N 
ATOM     11  H   UNL     1       0.790  -2.369  -2.064  1.00  0.00     0.162 HD
BRANCH  10  12
ATOM     12  C   UNL     1       2.211  -1.209  -2.964  1.00  0.00     0.132 A 
ATOM     13  N   UNL     1       2.144  -1.885  -4.126  1.00  0.00    -0.219 NA
ATOM     14  C   UNL     1       3.231  -0.293  -2.718  1.00  0.00     0.016 A 
ATOM     15  C   UNL     1       3.010  -1.537  -5.088  1.00  0.00     0.224 A 
ATOM     16  C   UNL     1       4.009   0.065  -3.820  1.00  0.00     0.049 A 
ATOM     17  N   UNL     1       3.909  -0.551  -5.014  1.00  0.00    -0.241 NA
BRANCH  14  18
ATOM     18  C   UNL     1       3.563   0.243  -1.354  1.00  0.00     0.041 C 
BRANCH  18  19
ATOM     19  C   UNL     1       4.978  -0.152  -0.919  1.00  0.00     0.005 C 
BRANCH  19  20
ATOM     20  C   UNL     1       6.081   0.761  -1.451  1.00  0.00     0.001 C 
BRANCH  20  21
ATOM     21  C   UNL     1       6.264   0.757  -2.968  1.00  0.00     0.006 CG0
ATOM     22  G   UNL     1       5.020   1.180  -3.737  1.00  0.00     0.000 G0
ENDBRANCH  20  21
ENDBRANCH  19  20
ENDBRANCH  18  19
ENDBRANCH  14  18
BRANCH  16  23
ATOM     23  C   UNL     1       5.020   1.180  -3.737  1.00  0.00     0.057 CG0
ATOM     24  G   UNL     1       6.264   0.757  -2.968  1.00  0.00     0.000 G0
ENDBRANCH  16  23
ENDBRANCH  10  12
ENDBRANCH   9  10
ENDBRANCH   5   9
ENDBRANCH   1   5
BRANCH   3  25
ATOM     25  C   UNL     1      -0.453   1.383  -3.992  1.00  0.00     0.116 C 
BRANCH  25  26
ATOM     26  C   UNL     1       0.708   1.230  -4.951  1.00  0.00     0.023 C 
BRANCH  26  27
ATOM     27  C   UNL     1       0.340   1.088  -6.411  1.00  0.00     0.023 C 
BRANCH  27  28
ATOM     28  C   UNL     1      -0.492   2.247  -6.916  1.00  0.00     0.116 C 
BRANCH  28  29
ATOM     29  N   UNL     1       0.181   3.528  -6.720  1.00  0.00    -0.352 N 
ATOM     30  C   UNL     1       0.677   4.396  -7.664  1.00  0.00     0.251 C 
ATOM     31  H   UNL     1       0.294   3.809  -5.783  1.00  0.00     0.163 HD
ATOM     32  O   UNL     1       1.418   5.313  -7.351  1.00  0.00    -0.269 OA
BRANCH  30  33
ATOM     33  C   UNL     1       0.295   4.176  -9.070  1.00  0.00     0.039 A 
ATOM     34  C   UNL     1       1.270   4.208 -10.066  1.00  0.00     0.014 A 
ATOM     35  C   UNL     1      -1.032   3.863  -9.373  1.00  0.00     0.014 A 
ATOM     36  C   UNL     1       0.917   3.859 -11.368  1.00  0.00     0.010 A 
ATOM     37  C   UNL     1      -1.346   3.384 -10.630  1.00  0.00     0.010 A 
ATOM     38  C   UNL     1      -0.385   3.411 -11.649  1.00  0.00    -0.014 A 
BRANCH  38  39
ATOM     39  C   UNL     1      -0.807   3.037 -13.016  1.00  0.00     0.031 A 
ATOM     40  C   UNL     1      -1.913   3.818 -13.671  1.00  0.00     0.074 A 
ATOM     41  C   UNL     1      -0.255   1.974 -13.627  1.00  0.00     0.049 A 
ATOM     42  N   UNL     1      -2.515   3.602 -14.810  1.00  0.00    -0.248 NA
ATOM     43  C   UNL     1      -2.440   4.977 -12.927  1.00  0.00     0.031 C 
ATOM     44  C   UNL     1       0.794   1.119 -13.067  1.00  0.00     0.029 A 
ATOM     45  N   UNL     1      -0.505   1.428 -14.860  1.00  0.00    -0.354 N 
ATOM     46  C   UNL     1      -3.495   4.581 -14.905  1.00  0.00     0.074 A 
ATOM     47  C   UNL     1      -3.466   5.341 -13.678  1.00  0.00     0.031 C 
ATOM     48  C   UNL     1       1.125   0.183 -13.970  1.00  0.00     0.029 A 
ATOM     49  C   UNL     1       0.284   0.343 -15.152  1.00  0.00     0.049 A 
ATOM     50  H   UNL     1      -1.186   1.781 -15.477  1.00  0.00     0.167 HD
ATOM     51  C   UNL     1      -4.318   4.852 -15.943  1.00  0.00     0.037 A 
ATOM     52  C   UNL     1       0.319  -0.432 -16.252  1.00  0.00     0.037 A 
ATOM     53  C   UNL     1      -4.311   4.115 -17.176  1.00  0.00     0.049 A 
ATOM     54  C   UNL     1      -0.618  -0.122 -17.387  1.00  0.00     0.074 A 
ATOM     55  C   UNL     1      -5.069   4.331 -18.311  1.00  0.00     0.029 A 
ATOM     56  N   UNL     1      -3.494   3.024 -17.436  1.00  0.00    -0.354 N 
ATOM     57  N   UNL     1      -1.509   0.836 -17.485  1.00  0.00    -0.248 NA
ATOM     58  C   UNL     1      -0.545  -0.998 -18.564  1.00  0.00     0.031 C 
ATOM     59  C   UNL     1      -4.743   3.342 -19.243  1.00  0.00     0.029 A 
ATOM     60  C   UNL     1      -3.744   2.543 -18.708  1.00  0.00     0.049 A 
ATOM     61  H   UNL     1      -2.836   2.648 -16.808  1.00  0.00     0.167 HD
ATOM     62  C   UNL     1      -2.086   0.693 -18.740  1.00  0.00     0.074 A 
ATOM     63  C   UNL     1      -1.430  -0.433 -19.374  1.00  0.00     0.031 C 
ATOM     64  C   UNL     1      -3.072   1.423 -19.317  1.00  0.00     0.037 A 
BRANCH  51  65
ATOM     65  C   UNL     1      -5.268   6.003 -15.795  1.00  0.00     0.057 A 
ATOM     66  C   UNL     1      -4.816   7.330 -15.760  1.00  0.00     0.134 A 
ATOM     67  C   UNL     1      -6.649   5.790 -15.724  1.00  0.00     0.134 A 
ATOM     68  F   UNL     1      -3.503   7.604 -15.802  1.00  0.00    -0.206 F 
ATOM     69  C   UNL     1      -5.703   8.401 -15.640  1.00  0.00     0.040 A 
ATOM     70  C   UNL     1      -7.548   6.855 -15.635  1.00  0.00     0.040 A 
ATOM     71  F   UNL     1      -7.149   4.546 -15.751  1.00  0.00    -0.206 F 
ATOM     72  C   UNL     1      -7.075   8.165 -15.589  1.00  0.00     0.006 A 
ENDBRANCH  51  65
BRANCH  52  73
ATOM     73  C   UNL     1       1.302  -1.540 -16.347  1.00  0.00     0.057 A 
ATOM     74  C   UNL     1       2.385  -1.465 -17.232  1.00  0.00     0.134 A 
ATOM     75  C   UNL     1       1.201  -2.687 -15.550  1.00  0.00     0.134 A 
ATOM     76  F   UNL     1       2.528  -0.399 -18.034  1.00  0.00    -0.206 F 
ATOM     77  C   UNL     1       3.325  -2.493 -17.329  1.00  0.00     0.040 A 
ATOM     78  C   UNL     1       2.148  -3.711 -15.619  1.00  0.00     0.040 A 
ATOM     79  F   UNL     1       0.193  -2.818 -14.677  1.00  0.00    -0.206 F 
ATOM     80  C   UNL     1       3.211  -3.618 -16.515  1.00  0.00     0.006 A 
ENDBRANCH  52  73
BRANCH  64  81
ATOM     81  C   UNL     1      -3.491   1.042 -20.706  1.00  0.00     0.057 A 
ATOM     82  C   UNL     1      -4.229  -0.120 -20.960  1.00  0.00     0.134 A 
ATOM     83  C   UNL     1      -3.215   1.886 -21.790  1.00  0.00     0.134 A 
ATOM     84  F   UNL     1      -4.518  -0.973 -19.965  1.00  0.00    -0.206 F 
ATOM     85  C   UNL     1      -4.663  -0.440 -22.247  1.00  0.00     0.040 A 
ATOM     86  C   UNL     1      -3.670   1.592 -23.076  1.00  0.00     0.040 A 
ATOM     87  F   UNL     1      -2.525   3.022 -21.612  1.00  0.00    -0.206 F 
ATOM     88  C   UNL     1      -4.392   0.424 -23.307  1.00  0.00     0.006 A 
ENDBRANCH  64  81
ENDBRANCH  38  39
ENDBRANCH  30  33
ENDBRANCH  28  29
ENDBRANCH  27  28
ENDBRANCH  26  27
ENDBRANCH  25  26
ENDBRANCH   3  25
TORSDOF 15
