REMARK SMILES O=C(NCCCCNC(=O)[C@H]1CC[C@H]2CCCC[C@@H]2[N@H+]1[C@@H]1CCCSC1)c1ccc(-c2c3nc(c(-c4c(F)cccc4F)c4ccc([nH]4)c(-c4c(F)cccc4F)c4nc(c(-c5c(F)cccc5F)c5ccc2[nH]5)C=C4)C=C3)cc1
REMARK SMILES IDX 5 1 4 2 3 3 1 4 2 5 27 7 28 8 80 9 29 10 79 11 30 12 31 13
REMARK SMILES IDX 32 14 73 15 33 16 78 17 72 18 74 19 34 20 77 21 71 22 70 23
REMARK SMILES IDX 35 25 61 26 44 27 60 28 45 29 48 30 59 31 75 32 46 33 47 34
REMARK SMILES IDX 58 36 76 37 49 38 36 39 37 40 42 41 38 42 39 43 41 44 43 45
REMARK SMILES IDX 40 46 62 47 63 48 68 49 64 50 65 51 67 52 69 53 66 54 50 55
REMARK SMILES IDX 51 56 56 57 52 58 53 59 55 60 57 61 54 62 6 63 7 64 8 65
REMARK SMILES IDX 9 66 10 68 11 69 12 70 20 71 13 72 19 73 14 75 18 76 15 77
REMARK SMILES IDX 17 78 16 79 21 80 22 81 26 82 23 83 25 84 24 85
REMARK H PARENT 3 6 74 24 48 35 8 67 20 74
REMARK Flexibility Score: inf
ROOT
ATOM      1  C   UNL     1       5.381  -1.980  -0.596  1.00  0.00     0.023 C 
ENDROOT
BRANCH   1   2
ATOM      2  C   UNL     1       4.718  -0.621  -0.495  1.00  0.00     0.116 C 
BRANCH   2   3
ATOM      3  N   UNL     1       3.262  -0.625  -0.614  1.00  0.00    -0.352 N 
ATOM      4  O   UNL     1       1.151   0.075  -0.148  1.00  0.00    -0.269 OA
ATOM      5  C   UNL     1       2.350   0.188   0.033  1.00  0.00     0.251 C 
ATOM      6  H   UNL     1       2.882  -1.290  -1.232  1.00  0.00     0.163 HD
BRANCH   5   7
ATOM      7  C   UNL     1       2.871   1.159   1.018  1.00  0.00     0.039 A 
ATOM      8  C   UNL     1       3.958   1.964   0.684  1.00  0.00     0.014 A 
ATOM      9  C   UNL     1       2.379   1.127   2.325  1.00  0.00     0.014 A 
ATOM     10  C   UNL     1       4.708   2.528   1.702  1.00  0.00     0.010 A 
ATOM     11  C   UNL     1       3.066   1.812   3.330  1.00  0.00     0.010 A 
ATOM     12  C   UNL     1       4.278   2.454   3.039  1.00  0.00    -0.014 A 
BRANCH  12  13
ATOM     13  C   UNL     1       5.136   3.047   4.097  1.00  0.00     0.031 A 
ATOM     14  C   UNL     1       5.724   2.201   5.196  1.00  0.00     0.074 A 
ATOM     15  C   UNL     1       5.455   4.352   4.006  1.00  0.00     0.049 A 
ATOM     16  N   UNL     1       6.517   2.562   6.175  1.00  0.00    -0.248 NA
ATOM     17  C   UNL     1       5.373   0.772   5.213  1.00  0.00     0.031 C 
ATOM     18  C   UNL     1       4.949   5.272   2.984  1.00  0.00     0.029 A 
ATOM     19  N   UNL     1       6.316   5.119   4.745  1.00  0.00    -0.354 N 
ATOM     20  C   UNL     1       6.713   1.426   6.950  1.00  0.00     0.074 A 
ATOM     21  C   UNL     1       5.960   0.358   6.329  1.00  0.00     0.031 C 
ATOM     22  C   UNL     1       5.581   6.447   3.099  1.00  0.00     0.029 A 
ATOM     23  C   UNL     1       6.471   6.391   4.251  1.00  0.00     0.049 A 
ATOM     24  H   UNL     1       6.778   4.791   5.550  1.00  0.00     0.167 HD
ATOM     25  C   UNL     1       7.451   1.289   8.078  1.00  0.00     0.037 A 
ATOM     26  C   UNL     1       7.240   7.406   4.680  1.00  0.00     0.037 A 
ATOM     27  C   UNL     1       8.249   2.339   8.659  1.00  0.00     0.049 A 
ATOM     28  C   UNL     1       8.083   7.214   5.903  1.00  0.00     0.074 A 
ATOM     29  C   UNL     1       9.055   2.289   9.783  1.00  0.00     0.029 A 
ATOM     30  N   UNL     1       8.354   3.623   8.148  1.00  0.00    -0.354 N 
ATOM     31  N   UNL     1       8.234   6.140   6.637  1.00  0.00    -0.248 NA
ATOM     32  C   UNL     1       8.844   8.380   6.367  1.00  0.00     0.031 C 
ATOM     33  C   UNL     1       9.630   3.552   9.966  1.00  0.00     0.029 A 
ATOM     34  C   UNL     1       9.206   4.378   8.938  1.00  0.00     0.049 A 
ATOM     35  H   UNL     1       7.891   3.951   7.343  1.00  0.00     0.167 HD
ATOM     36  C   UNL     1       9.105   6.498   7.654  1.00  0.00     0.074 A 
ATOM     37  C   UNL     1       9.471   7.882   7.424  1.00  0.00     0.031 C 
ATOM     38  C   UNL     1       9.552   5.753   8.693  1.00  0.00     0.037 A 
BRANCH  25  39
ATOM     39  C   UNL     1       7.413  -0.036   8.781  1.00  0.00     0.057 A 
ATOM     40  C   UNL     1       8.111  -1.152   8.306  1.00  0.00     0.134 A 
ATOM     41  C   UNL     1       6.705  -0.179   9.982  1.00  0.00     0.134 A 
ATOM     42  F   UNL     1       8.798  -1.086   7.155  1.00  0.00    -0.206 F 
ATOM     43  C   UNL     1       8.097  -2.368   8.994  1.00  0.00     0.040 A 
ATOM     44  C   UNL     1       6.699  -1.383  10.688  1.00  0.00     0.040 A 
ATOM     45  F   UNL     1       6.020   0.854  10.494  1.00  0.00    -0.206 F 
ATOM     46  C   UNL     1       7.394  -2.483  10.193  1.00  0.00     0.006 A 
ENDBRANCH  25  39
BRANCH  26  47
ATOM     47  C   UNL     1       7.239   8.688   3.937  1.00  0.00     0.057 A 
ATOM     48  C   UNL     1       8.345   9.077   3.173  1.00  0.00     0.134 A 
ATOM     49  C   UNL     1       6.121   9.529   3.936  1.00  0.00     0.134 A 
ATOM     50  F   UNL     1       9.449   8.317   3.147  1.00  0.00    -0.206 F 
ATOM     51  C   UNL     1       8.339  10.261   2.435  1.00  0.00     0.040 A 
ATOM     52  C   UNL     1       6.092  10.703   3.183  1.00  0.00     0.040 A 
ATOM     53  F   UNL     1       5.027   9.202   4.640  1.00  0.00    -0.206 F 
ATOM     54  C   UNL     1       7.205  11.073   2.432  1.00  0.00     0.006 A 
ENDBRANCH  26  47
BRANCH  38  55
ATOM     55  C   UNL     1      10.492   6.426   9.644  1.00  0.00     0.057 A 
ATOM     56  C   UNL     1      10.034   7.347  10.594  1.00  0.00     0.134 A 
ATOM     57  C   UNL     1      11.863   6.147   9.612  1.00  0.00     0.134 A 
ATOM     58  F   UNL     1       8.733   7.666  10.660  1.00  0.00    -0.206 F 
ATOM     59  C   UNL     1      10.914   7.987  11.466  1.00  0.00     0.040 A 
ATOM     60  C   UNL     1      12.750   6.767  10.492  1.00  0.00     0.040 A 
ATOM     61  F   UNL     1      12.359   5.271   8.726  1.00  0.00    -0.206 F 
ATOM     62  C   UNL     1      12.276   7.695  11.418  1.00  0.00     0.006 A 
ENDBRANCH  38  55
ENDBRANCH  12  13
ENDBRANCH   5   7
ENDBRANCH   2   3
ENDBRANCH   1   2
BRANCH   1  63
ATOM     63  C   UNL     1       5.027  -2.754  -1.848  1.00  0.00     0.023 C 
BRANCH  63  64
ATOM     64  C   UNL     1       5.524  -2.180  -3.185  1.00  0.00     0.116 C 
BRANCH  64  65
ATOM     65  N   UNL     1       6.765  -2.822  -3.549  1.00  0.00    -0.351 N 
ATOM     66  C   UNL     1       7.038  -4.016  -4.128  1.00  0.00     0.278 C 
ATOM     67  H   UNL     1       7.566  -2.290  -3.336  1.00  0.00     0.163 HD
ATOM     68  O   UNL     1       8.190  -4.416  -3.878  1.00  0.00    -0.268 OA
BRANCH  66  69
ATOM     69  C   UNL     1       6.187  -4.801  -5.171  1.00  0.00     0.274 C 
ATOM     70  C   UNL     1       6.659  -6.277  -5.182  1.00  0.00     0.076 C 
ATOM     71  N   UNL     1       4.710  -4.651  -5.281  1.00  0.00    -0.319 N 
ATOM     72  C   UNL     1       5.856  -7.183  -6.116  1.00  0.00     0.016 C 
ATOM     73  C   UNL     1       4.177  -5.346  -6.481  1.00  0.00     0.188 C 
ATOM     74  H   UNL     1       4.612  -3.640  -5.381  1.00  0.00     0.349 HD
ATOM     75  C   UNL     1       5.148  -6.338  -7.163  1.00  0.00     0.048 C 
ATOM     76  C   UNL     1       3.701  -4.348  -7.551  1.00  0.00     0.065 C 
ATOM     77  C   UNL     1       4.364  -7.175  -8.178  1.00  0.00     0.010 C 
ATOM     78  C   UNL     1       2.962  -5.093  -8.671  1.00  0.00     0.006 C 
ATOM     79  C   UNL     1       3.757  -6.267  -9.250  1.00  0.00     0.001 C 
BRANCH  71  80
ATOM     80  C   UNL     1       3.877  -4.912  -4.082  1.00  0.00     0.194 C 
ATOM     81  C   UNL     1       3.671  -6.356  -3.592  1.00  0.00     0.067 C 
ATOM     82  C   UNL     1       2.514  -4.177  -4.236  1.00  0.00     0.134 C 
ATOM     83  C   UNL     1       2.965  -6.404  -2.230  1.00  0.00     0.017 C 
ATOM     84  S   UNL     1       1.528  -4.090  -2.709  1.00  0.00    -0.156 SA
ATOM     85  C   UNL     1       1.552  -5.841  -2.256  1.00  0.00     0.070 C 
ENDBRANCH  71  80
ENDBRANCH  66  69
ENDBRANCH  64  65
ENDBRANCH  63  64
ENDBRANCH   1  63
TORSDOF 12
