REMARK SMILES Cc1nc(-c2ccccc2Cl)sc1C(=O)NC[C@H]1CC[C@@H](C(=O)NCCCCNC(=O)c2ccc(-c3c4nc(c(-c5c(F)cccc5F)c5ccc([nH]5)c(-c5c(F)cccc5F)c5nc(c(-c6c(F)cccc6F)c6ccc3[nH]6)C=C5)C=C4)cc2)CC1
REMARK SMILES IDX 25 1 24 2 22 3 23 4 21 6 18 7 19 8 87 9 20 10 86 11 17 12
REMARK SMILES IDX 16 13 14 14 15 15 13 17 1 18 2 19 3 20 4 21 12 22 5 23 6 24
REMARK SMILES IDX 10 25 7 26 9 27 11 28 8 29 26 30 27 31 28 32 29 33 30 34
REMARK SMILES IDX 31 36 32 37 33 38 85 39 34 40 84 41 35 42 36 43 37 44 78 45
REMARK SMILES IDX 38 46 83 47 77 48 79 49 39 50 82 51 76 52 75 53 40 55 66 56
REMARK SMILES IDX 49 57 65 58 50 59 53 60 64 61 80 62 51 63 52 64 63 66 81 67
REMARK SMILES IDX 54 68 41 69 42 70 47 71 43 72 44 73 46 74 48 75 45 76 67 77
REMARK SMILES IDX 68 78 73 79 69 80 70 81 72 82 74 83 71 84 55 85 56 86 61 87
REMARK SMILES IDX 57 88 58 89 60 90 62 91 59 92
REMARK H PARENT 24 5 16 16 29 35 79 54 53 65
REMARK Flexibility Score: inf
ROOT
ATOM      1  C   UNL     1      -6.111  -2.932   0.765  1.00  0.00     0.116 C 
ENDROOT
BRANCH   1   2
ATOM      2  N   UNL     1      -7.277  -3.098  -0.068  1.00  0.00    -0.356 N 
ATOM      3  C   UNL     1      -7.450  -3.373  -1.383  1.00  0.00     0.223 C 
ATOM      4  O   UNL     1      -8.614  -3.629  -1.717  1.00  0.00    -0.275 OA
ATOM      5  H   UNL     1      -8.125  -2.989   0.421  1.00  0.00     0.163 HD
BRANCH   3   6
ATOM      6  C   UNL     1      -6.354  -3.369  -2.463  1.00  0.00     0.078 C 
ATOM      7  C   UNL     1      -3.438  -2.984  -1.716  1.00  0.00     0.008 C 
ATOM      8  C   UNL     1      -4.098  -4.381  -1.698  1.00  0.00     0.006 C 
ATOM      9  C   UNL     1      -4.397  -1.798  -1.935  1.00  0.00     0.006 C 
ATOM     10  C   UNL     1      -5.378  -4.538  -2.506  1.00  0.00     0.014 C 
ATOM     11  C   UNL     1      -5.671  -2.038  -2.719  1.00  0.00     0.014 C 
BRANCH   7  12
ATOM     12  C   UNL     1      -2.605  -2.773  -0.416  1.00  0.00     0.119 C 
BRANCH  12  13
ATOM     13  N   UNL     1      -1.189  -2.939  -0.610  1.00  0.00    -0.351 N 
ATOM     14  C   UNL     1      -0.073  -2.167  -0.413  1.00  0.00     0.263 C 
ATOM     15  O   UNL     1       0.958  -2.853  -0.483  1.00  0.00    -0.268 OA
ATOM     16  H   UNL     1      -0.967  -3.826  -0.973  1.00  0.00     0.163 HD
BRANCH  14  17
ATOM     17  C   UNL     1      -0.026  -0.721  -0.188  1.00  0.00     0.115 A 
ATOM     18  C   UNL     1      -2.364   0.486  -0.161  1.00  0.00     0.068 C 
ATOM     19  C   UNL     1      -0.894   0.368  -0.094  1.00  0.00     0.062 A 
ATOM     20  N   UNL     1      -0.286   1.609   0.042  1.00  0.00    -0.240 NA
ATOM     21  C   UNL     1       1.016   1.512  -0.009  1.00  0.00     0.125 A 
ATOM     22  S   UNL     1       1.606  -0.081  -0.011  1.00  0.00    -0.108 S 
BRANCH  21  23
ATOM     23  C   UNL     1       1.893   2.681   0.016  1.00  0.00     0.029 A 
ATOM     24  C   UNL     1       1.744   3.583   1.086  1.00  0.00     0.013 A 
ATOM     25  C   UNL     1       2.772   3.015  -1.026  1.00  0.00     0.051 A 
ATOM     26  C   UNL     1       2.462   4.779   1.124  1.00  0.00     0.001 A 
ATOM     27  C   UNL     1       3.493   4.215  -0.982  1.00  0.00     0.021 A 
ATOM     28  Cl  UNL     1       2.965   2.039  -2.443  1.00  0.00    -0.084 Cl
ATOM     29  C   UNL     1       3.337   5.094   0.089  1.00  0.00     0.002 A 
ENDBRANCH  21  23
ENDBRANCH  14  17
ENDBRANCH  12  13
ENDBRANCH   7  12
ENDBRANCH   3   6
ENDBRANCH   1   2
BRANCH   1  30
ATOM     30  C   UNL     1      -5.926  -1.505   1.282  1.00  0.00     0.023 C 
BRANCH  30  31
ATOM     31  C   UNL     1      -6.247  -1.306   2.759  1.00  0.00     0.023 C 
BRANCH  31  32
ATOM     32  C   UNL     1      -5.430  -2.156   3.728  1.00  0.00     0.116 C 
BRANCH  32  33
ATOM     33  N   UNL     1      -3.988  -1.956   3.661  1.00  0.00    -0.352 N 
ATOM     34  C   UNL     1      -3.075  -2.057   4.692  1.00  0.00     0.251 C 
ATOM     35  H   UNL     1      -3.622  -1.721   2.777  1.00  0.00     0.163 HD
ATOM     36  O   UNL     1      -1.889  -1.825   4.506  1.00  0.00    -0.269 OA
BRANCH  34  37
ATOM     37  C   UNL     1      -3.575  -2.388   6.045  1.00  0.00     0.039 A 
ATOM     38  C   UNL     1      -3.303  -1.511   7.097  1.00  0.00     0.014 A 
ATOM     39  C   UNL     1      -4.417  -3.485   6.234  1.00  0.00     0.014 A 
ATOM     40  C   UNL     1      -3.969  -1.674   8.314  1.00  0.00     0.010 A 
ATOM     41  C   UNL     1      -5.141  -3.594   7.416  1.00  0.00     0.010 A 
ATOM     42  C   UNL     1      -4.939  -2.679   8.461  1.00  0.00    -0.014 A 
BRANCH  42  43
ATOM     43  C   UNL     1      -5.776  -2.778   9.685  1.00  0.00     0.031 A 
ATOM     44  C   UNL     1      -5.721  -4.015  10.536  1.00  0.00     0.074 A 
ATOM     45  C   UNL     1      -6.654  -1.798   9.977  1.00  0.00     0.049 A 
ATOM     46  N   UNL     1      -6.446  -4.336  11.577  1.00  0.00    -0.248 NA
ATOM     47  C   UNL     1      -4.748  -5.046  10.140  1.00  0.00     0.031 C 
ATOM     48  C   UNL     1      -6.856  -0.575   9.197  1.00  0.00     0.029 A 
ATOM     49  N   UNL     1      -7.553  -1.683  11.008  1.00  0.00    -0.354 N 
ATOM     50  C   UNL     1      -6.035  -5.611  11.943  1.00  0.00     0.074 A 
ATOM     51  C   UNL     1      -5.036  -6.026  10.982  1.00  0.00     0.031 C 
ATOM     52  C   UNL     1      -7.794   0.178   9.793  1.00  0.00     0.029 A 
ATOM     53  C   UNL     1      -8.285  -0.520  10.976  1.00  0.00     0.049 A 
ATOM     54  H   UNL     1      -7.664  -2.369  11.705  1.00  0.00     0.167 HD
ATOM     55  C   UNL     1      -6.433  -6.359  12.999  1.00  0.00     0.037 A 
ATOM     56  C   UNL     1      -9.243  -0.068  11.807  1.00  0.00     0.037 A 
ATOM     57  C   UNL     1      -7.392  -5.929  13.981  1.00  0.00     0.049 A 
ATOM     58  C   UNL     1      -9.643  -0.901  12.993  1.00  0.00     0.074 A 
ATOM     59  C   UNL     1      -7.809  -6.586  15.125  1.00  0.00     0.029 A 
ATOM     60  N   UNL     1      -8.077  -4.724  13.937  1.00  0.00    -0.354 N 
ATOM     61  N   UNL     1      -9.199  -2.078  13.362  1.00  0.00    -0.248 NA
ATOM     62  C   UNL     1     -10.673  -0.341  13.880  1.00  0.00     0.031 C 
ATOM     63  C   UNL     1      -8.767  -5.789  15.762  1.00  0.00     0.029 A 
ATOM     64  C   UNL     1      -8.921  -4.622  15.030  1.00  0.00     0.049 A 
ATOM     65  H   UNL     1      -7.979  -4.043  13.234  1.00  0.00     0.167 HD
ATOM     66  C   UNL     1      -9.873  -2.387  14.536  1.00  0.00     0.074 A 
ATOM     67  C   UNL     1     -10.749  -1.269  14.823  1.00  0.00     0.031 C 
ATOM     68  C   UNL     1      -9.776  -3.497  15.307  1.00  0.00     0.037 A 
BRANCH  55  69
ATOM     69  C   UNL     1      -5.813  -7.716  13.149  1.00  0.00     0.057 A 
ATOM     70  C   UNL     1      -4.473  -7.874  13.530  1.00  0.00     0.134 A 
ATOM     71  C   UNL     1      -6.563  -8.876  12.922  1.00  0.00     0.134 A 
ATOM     72  F   UNL     1      -3.697  -6.801  13.747  1.00  0.00    -0.206 F 
ATOM     73  C   UNL     1      -3.893  -9.138  13.650  1.00  0.00     0.040 A 
ATOM     74  C   UNL     1      -6.001 -10.146  13.064  1.00  0.00     0.040 A 
ATOM     75  F   UNL     1      -7.851  -8.795  12.559  1.00  0.00    -0.206 F 
ATOM     76  C   UNL     1      -4.660 -10.279  13.421  1.00  0.00     0.006 A 
ENDBRANCH  55  69
BRANCH  56  77
ATOM     77  C   UNL     1      -9.865   1.259  11.576  1.00  0.00     0.057 A 
ATOM     78  C   UNL     1      -9.568   2.344  12.409  1.00  0.00     0.134 A 
ATOM     79  C   UNL     1     -10.772   1.474  10.533  1.00  0.00     0.134 A 
ATOM     80  F   UNL     1      -8.719   2.193  13.436  1.00  0.00    -0.206 F 
ATOM     81  C   UNL     1     -10.164   3.592  12.225  1.00  0.00     0.040 A 
ATOM     82  C   UNL     1     -11.361   2.723  10.325  1.00  0.00     0.040 A 
ATOM     83  F   UNL     1     -11.092   0.476   9.697  1.00  0.00    -0.206 F 
ATOM     84  C   UNL     1     -11.062   3.785  11.177  1.00  0.00     0.006 A 
ENDBRANCH  56  77
BRANCH  68  85
ATOM     85  C   UNL     1     -10.609  -3.541  16.551  1.00  0.00     0.057 A 
ATOM     86  C   UNL     1     -11.989  -3.771  16.506  1.00  0.00     0.134 A 
ATOM     87  C   UNL     1     -10.016  -3.390  17.811  1.00  0.00     0.134 A 
ATOM     88  F   UNL     1     -12.617  -3.909  15.329  1.00  0.00    -0.206 F 
ATOM     89  C   UNL     1     -12.754  -3.834  17.672  1.00  0.00     0.040 A 
ATOM     90  C   UNL     1     -10.767  -3.473  18.984  1.00  0.00     0.040 A 
ATOM     91  F   UNL     1      -8.697  -3.173  17.921  1.00  0.00    -0.206 F 
ATOM     92  C   UNL     1     -12.141  -3.691  18.915  1.00  0.00     0.006 A 
ENDBRANCH  68  85
ENDBRANCH  42  43
ENDBRANCH  34  37
ENDBRANCH  32  33
ENDBRANCH  31  32
ENDBRANCH  30  31
ENDBRANCH   1  30
TORSDOF 15
