REMARK SMILES Cc1cc(CC(=O)C(=O)NCCCCNC(=O)c2ccc(-c3c4nc(c(-c5c(F)cccc5F)c5ccc([nH]5)c(-c5c(F)cccc5F)c5nc(c(-c6c(F)cccc6F)c6ccc3[nH]6)C=C5)C=C4)cc2)cc2cn[nH]c12
REMARK SMILES IDX 12 1 11 2 10 3 8 4 9 5 6 7 7 8 5 9 4 10 1 11 2 12 3 13 77 14
REMARK SMILES IDX 73 15 76 16 72 17 74 18 75 19 13 21 14 22 15 23 16 24 17 26
REMARK SMILES IDX 18 27 19 28 71 29 20 30 70 31 21 32 22 33 23 34 64 35 24 36
REMARK SMILES IDX 69 37 63 38 65 39 25 40 68 41 62 42 61 43 26 45 52 46 35 47
REMARK SMILES IDX 51 48 36 49 39 50 50 51 66 52 37 53 38 54 49 56 67 57 40 58
REMARK SMILES IDX 27 59 28 60 33 61 29 62 30 63 32 64 34 65 31 66 53 67 54 68
REMARK SMILES IDX 59 69 55 70 56 71 58 72 60 73 57 74 41 75 42 76 47 77 43 78
REMARK SMILES IDX 44 79 46 80 48 81 45 82
REMARK H PARENT 10 6 76 20 15 25 65 44 39 55
REMARK Flexibility Score: inf
ROOT
ATOM      1  C   UNL     1       4.998   7.530  -3.674  1.00  0.00     0.023 C 
ENDROOT
BRANCH   1   2
ATOM      2  C   UNL     1       3.907   6.521  -4.053  1.00  0.00     0.116 C 
BRANCH   2   3
ATOM      3  N   UNL     1       4.056   5.272  -3.327  1.00  0.00    -0.349 N 
ATOM      4  C   UNL     1       3.403   4.809  -2.206  1.00  0.00     0.287 C 
ATOM      5  O   UNL     1       3.797   3.782  -1.663  1.00  0.00    -0.266 OA
ATOM      6  H   UNL     1       4.732   4.658  -3.695  1.00  0.00     0.163 HD
BRANCH   4   7
ATOM      7  C   UNL     1       2.193   5.554  -1.617  1.00  0.00     0.224 C 
ATOM      8  O   UNL     1       1.968   6.729  -1.890  1.00  0.00    -0.288 OA
BRANCH   7   9
ATOM      9  C   UNL     1       1.368   4.802  -0.597  1.00  0.00     0.122 C 
BRANCH   9  10
ATOM     10  C   UNL     1       0.802   3.482  -1.067  1.00  0.00    -0.039 A 
ATOM     11  C   UNL     1       1.008  -0.172   0.050  1.00  0.00     0.047 C 
ATOM     12  C   UNL     1       0.621   1.041  -0.743  1.00  0.00    -0.025 A 
ATOM     13  C   UNL     1       1.116   2.305  -0.367  1.00  0.00     0.009 A 
ATOM     14  C   UNL     1      -0.220   1.026  -1.867  1.00  0.00     0.068 A 
ATOM     15  C   UNL     1      -0.561   2.170  -2.582  1.00  0.00     0.020 A 
ATOM     16  N   UNL     1      -0.871   0.002  -2.506  1.00  0.00    -0.278 N 
ATOM     17  C   UNL     1      -0.055   3.419  -2.179  1.00  0.00     0.016 A 
ATOM     18  C   UNL     1      -1.406   1.704  -3.615  1.00  0.00     0.143 A 
ATOM     19  N   UNL     1      -1.594   0.383  -3.575  1.00  0.00    -0.183 NA
ATOM     20  H   UNL     1      -0.814  -0.935  -2.208  1.00  0.00     0.190 HD
ENDBRANCH   9  10
ENDBRANCH   7   9
ENDBRANCH   4   7
ENDBRANCH   2   3
ENDBRANCH   1   2
BRANCH   1  21
ATOM     21  C   UNL     1       6.433   7.142  -4.073  1.00  0.00     0.023 C 
BRANCH  21  22
ATOM     22  C   UNL     1       6.654   6.965  -5.569  1.00  0.00     0.116 C 
BRANCH  22  23
ATOM     23  N   UNL     1       6.409   8.186  -6.332  1.00  0.00    -0.352 N 
ATOM     24  C   UNL     1       6.462   8.362  -7.703  1.00  0.00     0.251 C 
ATOM     25  H   UNL     1       6.175   8.983  -5.805  1.00  0.00     0.163 HD
ATOM     26  O   UNL     1       6.609   9.470  -8.191  1.00  0.00    -0.269 OA
BRANCH  24  27
ATOM     27  C   UNL     1       6.322   7.180  -8.573  1.00  0.00     0.039 A 
ATOM     28  C   UNL     1       7.083   7.040  -9.737  1.00  0.00     0.014 A 
ATOM     29  C   UNL     1       5.398   6.205  -8.205  1.00  0.00     0.014 A 
ATOM     30  C   UNL     1       6.945   5.878 -10.491  1.00  0.00     0.010 A 
ATOM     31  C   UNL     1       5.377   5.000  -8.854  1.00  0.00     0.010 A 
ATOM     32  C   UNL     1       6.095   4.858 -10.033  1.00  0.00    -0.014 A 
BRANCH  32  33
ATOM     33  C   UNL     1       5.986   3.595 -10.747  1.00  0.00     0.031 A 
ATOM     34  C   UNL     1       7.270   2.877 -10.931  1.00  0.00     0.074 A 
ATOM     35  C   UNL     1       4.800   3.038 -11.070  1.00  0.00     0.049 A 
ATOM     36  N   UNL     1       7.942   2.749 -12.026  1.00  0.00    -0.248 NA
ATOM     37  C   UNL     1       7.964   2.363  -9.742  1.00  0.00     0.031 C 
ATOM     38  C   UNL     1       3.450   3.496 -10.712  1.00  0.00     0.029 A 
ATOM     39  N   UNL     1       4.555   1.886 -11.755  1.00  0.00    -0.354 N 
ATOM     40  C   UNL     1       9.038   1.952 -11.712  1.00  0.00     0.074 A 
ATOM     41  C   UNL     1       9.097   1.897 -10.275  1.00  0.00     0.031 C 
ATOM     42  C   UNL     1       2.546   2.539 -11.013  1.00  0.00     0.029 A 
ATOM     43  C   UNL     1       3.224   1.489 -11.748  1.00  0.00     0.049 A 
ATOM     44  H   UNL     1       5.262   1.378 -12.215  1.00  0.00     0.167 HD
ATOM     45  C   UNL     1       9.636   1.191 -12.670  1.00  0.00     0.037 A 
ATOM     46  C   UNL     1       2.699   0.391 -12.338  1.00  0.00     0.037 A 
ATOM     47  C   UNL     1       9.198   1.589 -13.985  1.00  0.00     0.049 A 
ATOM     48  C   UNL     1       3.624  -0.004 -13.419  1.00  0.00     0.074 A 
ATOM     49  C   UNL     1       9.376   2.680 -14.808  1.00  0.00     0.029 A 
ATOM     50  N   UNL     1       8.101   0.911 -14.451  1.00  0.00    -0.354 N 
ATOM     51  N   UNL     1       3.827   0.717 -14.486  1.00  0.00    -0.248 NA
ATOM     52  C   UNL     1       4.633  -1.019 -13.154  1.00  0.00     0.031 C 
ATOM     53  C   UNL     1       8.170   2.792 -15.566  1.00  0.00     0.029 A 
ATOM     54  C   UNL     1       7.321   1.744 -15.207  1.00  0.00     0.049 A 
ATOM     55  H   UNL     1       7.903  -0.036 -14.268  1.00  0.00     0.167 HD
ATOM     56  C   UNL     1       5.171   0.551 -14.770  1.00  0.00     0.074 A 
ATOM     57  C   UNL     1       5.566  -0.646 -14.035  1.00  0.00     0.031 C 
ATOM     58  C   UNL     1       5.891   1.564 -15.335  1.00  0.00     0.037 A 
BRANCH  45  59
ATOM     59  C   UNL     1      10.222  -0.185 -12.437  1.00  0.00     0.057 A 
ATOM     60  C   UNL     1       9.877  -1.023 -11.356  1.00  0.00     0.134 A 
ATOM     61  C   UNL     1      10.893  -0.827 -13.496  1.00  0.00     0.134 A 
ATOM     62  F   UNL     1       9.173  -0.589 -10.306  1.00  0.00    -0.206 F 
ATOM     63  C   UNL     1      10.145  -2.395 -11.344  1.00  0.00     0.040 A 
ATOM     64  C   UNL     1      11.123  -2.209 -13.514  1.00  0.00     0.040 A 
ATOM     65  F   UNL     1      11.271  -0.142 -14.586  1.00  0.00    -0.206 F 
ATOM     66  C   UNL     1      10.738  -3.000 -12.440  1.00  0.00     0.006 A 
ENDBRANCH  45  59
BRANCH  46  67
ATOM     67  C   UNL     1       1.553  -0.436 -11.917  1.00  0.00     0.057 A 
ATOM     68  C   UNL     1       1.303  -0.659 -10.552  1.00  0.00     0.134 A 
ATOM     69  C   UNL     1       0.849  -1.244 -12.818  1.00  0.00     0.134 A 
ATOM     70  F   UNL     1       1.980   0.017  -9.611  1.00  0.00    -0.206 F 
ATOM     71  C   UNL     1       0.421  -1.648 -10.105  1.00  0.00     0.040 A 
ATOM     72  C   UNL     1      -0.039  -2.239 -12.384  1.00  0.00     0.040 A 
ATOM     73  F   UNL     1       1.051  -1.129 -14.138  1.00  0.00    -0.206 F 
ATOM     74  C   UNL     1      -0.244  -2.452 -11.024  1.00  0.00     0.006 A 
ENDBRANCH  46  67
BRANCH  58  75
ATOM     75  C   UNL     1       5.103   2.674 -15.969  1.00  0.00     0.057 A 
ATOM     76  C   UNL     1       5.172   2.844 -17.354  1.00  0.00     0.134 A 
ATOM     77  C   UNL     1       4.346   3.612 -15.253  1.00  0.00     0.134 A 
ATOM     78  F   UNL     1       5.920   2.015 -18.099  1.00  0.00    -0.206 F 
ATOM     79  C   UNL     1       4.505   3.886 -18.002  1.00  0.00     0.040 A 
ATOM     80  C   UNL     1       3.648   4.642 -15.890  1.00  0.00     0.040 A 
ATOM     81  F   UNL     1       4.292   3.582 -13.917  1.00  0.00    -0.206 F 
ATOM     82  C   UNL     1       3.728   4.782 -17.271  1.00  0.00     0.006 A 
ENDBRANCH  58  75
ENDBRANCH  32  33
ENDBRANCH  24  27
ENDBRANCH  22  23
ENDBRANCH  21  22
ENDBRANCH   1  21
TORSDOF 13
