REMARK SMILES CN1C(=O)C[C@@H](C(=O)NCCCCNC(=O)c2ccc(-c3c4nc(c(-c5c(F)cccc5F)c5ccc([nH]5)c(-c5c(F)cccc5F)c5nc(c(-c6c(F)cccc6F)c6ccc3[nH]6)C=C5)C=C4)cc2)C12CCN(C(=O)c1cccc3ccccc13)CC2
REMARK SMILES IDX 12 1 11 2 10 3 9 4 7 5 8 6 6 8 1 9 2 10 3 11 71 12 4 13 5 14
REMARK SMILES IDX 72 15 88 16 73 17 87 18 74 19 75 20 76 21 77 22 78 23 86 24
REMARK SMILES IDX 79 25 81 26 85 27 80 28 82 29 84 30 83 31 13 32 14 33 15 34
REMARK SMILES IDX 16 36 17 37 18 38 70 39 19 40 69 41 20 42 21 43 22 44 63 45
REMARK SMILES IDX 23 46 68 47 62 48 64 49 24 50 67 51 61 52 60 53 25 55 51 56
REMARK SMILES IDX 34 57 50 58 35 59 38 60 49 61 65 62 36 63 37 64 48 66 66 67
REMARK SMILES IDX 39 68 26 69 27 70 32 71 28 72 29 73 31 74 33 75 30 76 52 77
REMARK SMILES IDX 53 78 58 79 54 80 55 81 57 82 59 83 56 84 40 85 41 86 46 87
REMARK SMILES IDX 42 88 43 89 45 90 47 91 44 92
REMARK H PARENT 9 7 14 35 64 54 38 65
REMARK Flexibility Score: inf
ROOT
ATOM      1  C   UNL     1       2.754  -2.334  -4.329  1.00  0.00     0.023 C 
ENDROOT
BRANCH   1   2
ATOM      2  C   UNL     1       2.334  -1.425  -3.182  1.00  0.00     0.023 C 
BRANCH   2   3
ATOM      3  C   UNL     1       2.008   0.011  -3.608  1.00  0.00     0.116 C 
BRANCH   3   4
ATOM      4  N   UNL     1       0.825   0.147  -4.443  1.00  0.00    -0.356 N 
ATOM      5  C   UNL     1      -0.386   0.734  -4.253  1.00  0.00     0.226 C 
ATOM      6  O   UNL     1      -1.146   0.741  -5.230  1.00  0.00    -0.275 OA
ATOM      7  H   UNL     1       0.921  -0.273  -5.329  1.00  0.00     0.163 HD
BRANCH   5   8
ATOM      8  C   UNL     1      -0.887   1.326  -2.930  1.00  0.00     0.113 C 
ATOM      9  C   UNL     1       0.802   0.038   0.165  1.00  0.00     0.147 C 
ATOM     10  N   UNL     1       0.267   0.740  -0.987  1.00  0.00    -0.339 N 
ATOM     11  C   UNL     1       0.725   2.018  -1.305  1.00  0.00     0.223 C 
ATOM     12  C   UNL     1      -0.960   0.370  -1.715  1.00  0.00     0.058 C 
ATOM     13  O   UNL     1       1.629   2.621  -0.760  1.00  0.00    -0.275 OA
ATOM     14  C   UNL     1      -0.058   2.527  -2.483  1.00  0.00     0.116 C 
ATOM     15  C   UNL     1      -1.037  -1.111  -2.141  1.00  0.00     0.051 C 
ATOM     16  C   UNL     1      -2.180   0.660  -0.790  1.00  0.00     0.051 C 
ATOM     17  C   UNL     1      -2.373  -1.478  -2.781  1.00  0.00     0.122 C 
ATOM     18  C   UNL     1      -3.509   0.102  -1.314  1.00  0.00     0.122 C 
ATOM     19  N   UNL     1      -3.379  -1.284  -1.769  1.00  0.00    -0.338 N 
ATOM     20  C   UNL     1      -4.045  -2.311  -1.109  1.00  0.00     0.254 C 
ATOM     21  O   UNL     1      -4.656  -2.121  -0.057  1.00  0.00    -0.269 OA
BRANCH  20  22
ATOM     22  C   UNL     1      -4.193  -3.663  -1.722  1.00  0.00     0.047 A 
ATOM     23  C   UNL     1      -5.491  -3.913  -2.200  1.00  0.00     0.014 A 
ATOM     24  C   UNL     1      -3.241  -4.724  -1.629  1.00  0.00    -0.006 A 
ATOM     25  C   UNL     1      -5.894  -5.206  -2.507  1.00  0.00     0.001 A 
ATOM     26  C   UNL     1      -3.695  -6.043  -1.896  1.00  0.00    -0.018 A 
ATOM     27  C   UNL     1      -1.870  -4.586  -1.306  1.00  0.00     0.009 A 
ATOM     28  C   UNL     1      -5.016  -6.266  -2.309  1.00  0.00     0.009 A 
ATOM     29  C   UNL     1      -2.828  -7.141  -1.751  1.00  0.00     0.009 A 
ATOM     30  C   UNL     1      -0.990  -5.674  -1.286  1.00  0.00     0.001 A 
ATOM     31  C   UNL     1      -1.478  -6.957  -1.472  1.00  0.00     0.001 A 
ENDBRANCH  20  22
ENDBRANCH   5   8
ENDBRANCH   3   4
ENDBRANCH   2   3
ENDBRANCH   1   2
BRANCH   1  32
ATOM     32  C   UNL     1       3.979  -1.826  -5.069  1.00  0.00     0.116 C 
BRANCH  32  33
ATOM     33  N   UNL     1       5.101  -1.573  -4.169  1.00  0.00    -0.352 N 
ATOM     34  C   UNL     1       6.380  -2.063  -4.234  1.00  0.00     0.251 C 
ATOM     35  H   UNL     1       4.914  -0.969  -3.414  1.00  0.00     0.163 HD
ATOM     36  O   UNL     1       7.160  -1.933  -3.299  1.00  0.00    -0.269 OA
BRANCH  34  37
ATOM     37  C   UNL     1       6.779  -2.779  -5.456  1.00  0.00     0.039 A 
ATOM     38  C   UNL     1       7.339  -4.051  -5.350  1.00  0.00     0.014 A 
ATOM     39  C   UNL     1       6.479  -2.221  -6.701  1.00  0.00     0.014 A 
ATOM     40  C   UNL     1       7.520  -4.807  -6.506  1.00  0.00     0.010 A 
ATOM     41  C   UNL     1       6.562  -3.013  -7.834  1.00  0.00     0.010 A 
ATOM     42  C   UNL     1       7.082  -4.313  -7.747  1.00  0.00    -0.014 A 
BRANCH  42  43
ATOM     43  C   UNL     1       7.145  -5.138  -8.975  1.00  0.00     0.031 A 
ATOM     44  C   UNL     1       7.967  -4.670 -10.141  1.00  0.00     0.074 A 
ATOM     45  C   UNL     1       6.391  -6.251  -9.069  1.00  0.00     0.049 A 
ATOM     46  N   UNL     1       8.067  -5.184 -11.339  1.00  0.00    -0.248 NA
ATOM     47  C   UNL     1       8.754  -3.440  -9.948  1.00  0.00     0.031 C 
ATOM     48  C   UNL     1       5.508  -6.771  -8.022  1.00  0.00     0.029 A 
ATOM     49  N   UNL     1       6.232  -7.136 -10.105  1.00  0.00    -0.354 N 
ATOM     50  C   UNL     1       8.907  -4.333 -12.043  1.00  0.00     0.074 A 
ATOM     51  C   UNL     1       9.245  -3.240 -11.161  1.00  0.00     0.031 C 
ATOM     52  C   UNL     1       4.916  -7.892  -8.462  1.00  0.00     0.029 A 
ATOM     53  C   UNL     1       5.338  -8.144  -9.836  1.00  0.00     0.049 A 
ATOM     54  H   UNL     1       6.713  -7.057 -10.960  1.00  0.00     0.167 HD
ATOM     55  C   UNL     1       9.373  -4.465 -13.307  1.00  0.00     0.037 A 
ATOM     56  C   UNL     1       4.894  -9.147 -10.617  1.00  0.00     0.037 A 
ATOM     57  C   UNL     1       9.054  -5.571 -14.168  1.00  0.00     0.049 A 
ATOM     58  C   UNL     1       5.425  -9.266 -12.020  1.00  0.00     0.074 A 
ATOM     59  C   UNL     1       9.536  -5.840 -15.436  1.00  0.00     0.029 A 
ATOM     60  N   UNL     1       8.165  -6.588 -13.852  1.00  0.00    -0.354 N 
ATOM     61  N   UNL     1       6.287  -8.502 -12.646  1.00  0.00    -0.248 NA
ATOM     62  C   UNL     1       4.923 -10.388 -12.825  1.00  0.00     0.031 C 
ATOM     63  C   UNL     1       8.894  -6.987 -15.912  1.00  0.00     0.029 A 
ATOM     64  C   UNL     1       8.058  -7.468 -14.916  1.00  0.00     0.049 A 
ATOM     65  H   UNL     1       7.682  -6.672 -12.998  1.00  0.00     0.167 HD
ATOM     66  C   UNL     1       6.451  -9.064 -13.905  1.00  0.00     0.074 A 
ATOM     67  C   UNL     1       5.614 -10.245 -13.947  1.00  0.00     0.031 C 
ATOM     68  C   UNL     1       7.222  -8.640 -14.937  1.00  0.00     0.037 A 
BRANCH  55  69
ATOM     69  C   UNL     1      10.274  -3.387 -13.834  1.00  0.00     0.057 A 
ATOM     70  C   UNL     1      11.576  -3.205 -13.350  1.00  0.00     0.134 A 
ATOM     71  C   UNL     1       9.848  -2.549 -14.872  1.00  0.00     0.134 A 
ATOM     72  F   UNL     1      12.041  -3.964 -12.346  1.00  0.00    -0.206 F 
ATOM     73  C   UNL     1      12.415  -2.216 -13.865  1.00  0.00     0.040 A 
ATOM     74  C   UNL     1      10.688  -1.576 -15.416  1.00  0.00     0.040 A 
ATOM     75  F   UNL     1       8.614  -2.670 -15.383  1.00  0.00    -0.206 F 
ATOM     76  C   UNL     1      11.974  -1.404 -14.908  1.00  0.00     0.006 A 
ENDBRANCH  55  69
BRANCH  56  77
ATOM     77  C   UNL     1       3.894 -10.115 -10.099  1.00  0.00     0.057 A 
ATOM     78  C   UNL     1       4.228 -11.458  -9.882  1.00  0.00     0.134 A 
ATOM     79  C   UNL     1       2.575  -9.730  -9.829  1.00  0.00     0.134 A 
ATOM     80  F   UNL     1       5.470 -11.894 -10.138  1.00  0.00    -0.206 F 
ATOM     81  C   UNL     1       3.281 -12.387  -9.445  1.00  0.00     0.040 A 
ATOM     82  C   UNL     1       1.626 -10.641  -9.363  1.00  0.00     0.040 A 
ATOM     83  F   UNL     1       2.192  -8.457 -10.005  1.00  0.00    -0.206 F 
ATOM     84  C   UNL     1       1.976 -11.977  -9.181  1.00  0.00     0.006 A 
ENDBRANCH  56  77
BRANCH  68  85
ATOM     85  C   UNL     1       7.220  -9.474 -16.185  1.00  0.00     0.057 A 
ATOM     86  C   UNL     1       6.110  -9.529 -17.037  1.00  0.00     0.134 A 
ATOM     87  C   UNL     1       8.360 -10.196 -16.561  1.00  0.00     0.134 A 
ATOM     88  F   UNL     1       4.982  -8.871 -16.729  1.00  0.00    -0.206 F 
ATOM     89  C   UNL     1       6.125 -10.292 -18.206  1.00  0.00     0.040 A 
ATOM     90  C   UNL     1       8.399 -10.936 -17.742  1.00  0.00     0.040 A 
ATOM     91  F   UNL     1       9.462 -10.178 -15.795  1.00  0.00    -0.206 F 
ATOM     92  C   UNL     1       7.276 -10.992 -18.565  1.00  0.00     0.006 A 
ENDBRANCH  68  85
ENDBRANCH  42  43
ENDBRANCH  34  37
ENDBRANCH  32  33
ENDBRANCH   1  32
TORSDOF 12
