REMARK SMILES COc1ccc(NC(=O)c2cccn2CC(=O)NCCCCNC(=O)c2ccc(-c3c4nc(c(-c5c(F)cccc5F)c5ccc([nH]5)c(-c5c(F)cccc5F)c5nc(c(-c6c(F)cccc6F)c6ccc3[nH]6)C=C5)C=C4)cc2)cc1F
REMARK SMILES IDX 19 1 18 2 16 3 17 4 15 6 14 7 10 8 11 9 12 10 13 11 8 12
REMARK SMILES IDX 7 13 9 15 6 16 3 17 4 18 81 19 5 20 80 21 82 22 2 23 1 24
REMARK SMILES IDX 20 25 21 26 22 27 23 28 24 29 25 31 26 32 27 33 79 34 28 35
REMARK SMILES IDX 78 36 29 37 30 38 31 39 72 40 32 41 77 42 71 43 73 44 33 45
REMARK SMILES IDX 76 46 70 47 69 48 34 50 60 51 43 52 59 53 44 54 47 55 58 56
REMARK SMILES IDX 74 57 45 58 46 59 57 61 75 62 48 63 35 64 36 65 41 66 37 67
REMARK SMILES IDX 38 68 40 69 42 70 39 71 61 72 62 73 67 74 63 75 64 76 66 77
REMARK SMILES IDX 68 78 65 79 49 80 50 81 55 82 51 83 52 84 54 85 56 86 53 87
REMARK H PARENT 18 5 7 14 23 30 73 49 47 60
REMARK Flexibility Score: inf
ROOT
ATOM      1  C   UNL     1       0.651  -3.607   6.904  1.00  0.00     0.116 C 
ENDROOT
BRANCH   1   2
ATOM      2  N   UNL     1      -0.331  -4.121   7.835  1.00  0.00    -0.355 N 
ATOM      3  C   UNL     1      -1.048  -5.282   7.768  1.00  0.00     0.239 C 
ATOM      4  O   UNL     1      -1.898  -5.484   8.638  1.00  0.00    -0.273 OA
ATOM      5  H   UNL     1      -0.504  -3.558   8.623  1.00  0.00     0.163 HD
BRANCH   3   6
ATOM      6  C   UNL     1      -0.757  -6.309   6.692  1.00  0.00     0.222 C 
BRANCH   6   7
ATOM      7  N   UNL     1      -1.274  -5.963   5.371  1.00  0.00    -0.334 N 
ATOM      8  C   UNL     1      -0.565  -5.958   4.180  1.00  0.00     0.107 A 
ATOM      9  C   UNL     1      -1.510  -5.873   3.165  1.00  0.00     0.033 A 
ATOM     10  C   UNL     1      -2.767  -5.614   3.754  1.00  0.00     0.020 A 
ATOM     11  C   UNL     1      -2.592  -5.666   5.117  1.00  0.00     0.087 A 
BRANCH   8  12
ATOM     12  C   UNL     1       0.868  -6.101   4.056  1.00  0.00     0.272 C 
ATOM     13  N   UNL     1       1.633  -5.166   3.388  1.00  0.00    -0.321 N 
ATOM     14  H   UNL     1       2.566  -5.457   3.270  1.00  0.00     0.170 HD
ATOM     15  O   UNL     1       1.471  -7.041   4.577  1.00  0.00    -0.267 OA
BRANCH  13  16
ATOM     16  C   UNL     1       1.390  -3.891   2.835  1.00  0.00     0.044 A 
ATOM     17  C   UNL     1       1.112  -1.300   1.744  1.00  0.00     0.154 A 
ATOM     18  C   UNL     1       0.027  -1.929   2.331  1.00  0.00     0.052 A 
ATOM     19  C   UNL     1       2.345  -1.946   1.729  1.00  0.00     0.167 A 
ATOM     20  C   UNL     1       0.170  -3.214   2.865  1.00  0.00     0.030 A 
ATOM     21  C   UNL     1       2.486  -3.229   2.265  1.00  0.00     0.069 A 
ATOM     22  F   UNL     1       3.425  -1.342   1.214  1.00  0.00    -0.203 F 
BRANCH  17  23
ATOM     23  O   UNL     1       0.902  -0.035   1.274  1.00  0.00    -0.494 OA
ATOM     24  C   UNL     1       1.180   0.058  -0.122  1.00  0.00     0.278 C 
ENDBRANCH  17  23
ENDBRANCH  13  16
ENDBRANCH   8  12
ENDBRANCH   6   7
ENDBRANCH   3   6
ENDBRANCH   1   2
BRANCH   1  25
ATOM     25  C   UNL     1       0.078  -2.470   6.066  1.00  0.00     0.023 C 
BRANCH  25  26
ATOM     26  C   UNL     1      -0.124  -1.140   6.798  1.00  0.00     0.023 C 
BRANCH  26  27
ATOM     27  C   UNL     1       1.183  -0.479   7.231  1.00  0.00     0.116 C 
BRANCH  27  28
ATOM     28  N   UNL     1       2.032  -0.170   6.089  1.00  0.00    -0.352 N 
ATOM     29  C   UNL     1       3.317   0.314   6.062  1.00  0.00     0.251 C 
ATOM     30  H   UNL     1       1.624  -0.330   5.207  1.00  0.00     0.163 HD
ATOM     31  O   UNL     1       3.743   0.861   5.054  1.00  0.00    -0.269 OA
BRANCH  29  32
ATOM     32  C   UNL     1       4.193   0.189   7.242  1.00  0.00     0.039 A 
ATOM     33  C   UNL     1       5.011   1.275   7.579  1.00  0.00     0.014 A 
ATOM     34  C   UNL     1       4.267  -1.008   7.961  1.00  0.00     0.014 A 
ATOM     35  C   UNL     1       5.847   1.189   8.685  1.00  0.00     0.010 A 
ATOM     36  C   UNL     1       5.076  -1.089   9.085  1.00  0.00     0.010 A 
ATOM     37  C   UNL     1       5.848   0.018   9.455  1.00  0.00    -0.014 A 
BRANCH  37  38
ATOM     38  C   UNL     1       6.520   0.029  10.771  1.00  0.00     0.031 A 
ATOM     39  C   UNL     1       5.663   0.774  11.828  1.00  0.00     0.074 A 
ATOM     40  C   UNL     1       7.730  -0.610  10.832  1.00  0.00     0.049 A 
ATOM     41  N   UNL     1       6.007   1.353  12.937  1.00  0.00    -0.248 NA
ATOM     42  C   UNL     1       4.199   0.945  11.584  1.00  0.00     0.031 C 
ATOM     43  C   UNL     1       8.366  -1.315   9.695  1.00  0.00     0.029 A 
ATOM     44  N   UNL     1       8.669  -0.811  11.824  1.00  0.00    -0.354 N 
ATOM     45  C   UNL     1       4.823   1.753  13.607  1.00  0.00     0.074 A 
ATOM     46  C   UNL     1       3.757   1.583  12.671  1.00  0.00     0.031 C 
ATOM     47  C   UNL     1       9.591  -1.774  10.029  1.00  0.00     0.029 A 
ATOM     48  C   UNL     1       9.880  -1.434  11.407  1.00  0.00     0.049 A 
ATOM     49  H   UNL     1       8.512  -0.542  12.758  1.00  0.00     0.167 HD
ATOM     50  C   UNL     1       4.783   2.066  14.938  1.00  0.00     0.037 A 
ATOM     51  C   UNL     1      11.046  -1.611  12.107  1.00  0.00     0.037 A 
ATOM     52  C   UNL     1       6.095   1.992  15.482  1.00  0.00     0.049 A 
ATOM     53  C   UNL     1      10.726  -1.197  13.479  1.00  0.00     0.074 A 
ATOM     54  C   UNL     1       7.198   2.788  15.321  1.00  0.00     0.029 A 
ATOM     55  N   UNL     1       6.481   0.773  15.982  1.00  0.00    -0.354 N 
ATOM     56  N   UNL     1       9.978  -1.872  14.299  1.00  0.00    -0.248 NA
ATOM     57  C   UNL     1      11.174   0.125  13.932  1.00  0.00     0.031 C 
ATOM     58  C   UNL     1       8.246   1.853  15.230  1.00  0.00     0.029 A 
ATOM     59  C   UNL     1       7.787   0.585  15.609  1.00  0.00     0.049 A 
ATOM     60  H   UNL     1       5.926   0.153  16.508  1.00  0.00     0.167 HD
ATOM     61  C   UNL     1       9.592  -0.905  15.194  1.00  0.00     0.074 A 
ATOM     62  C   UNL     1      10.575   0.154  15.119  1.00  0.00     0.031 C 
ATOM     63  C   UNL     1       8.278  -0.767  15.504  1.00  0.00     0.037 A 
BRANCH  50  64
ATOM     64  C   UNL     1       3.658   2.213  15.929  1.00  0.00     0.057 A 
ATOM     65  C   UNL     1       2.475   1.470  15.881  1.00  0.00     0.134 A 
ATOM     66  C   UNL     1       3.930   2.849  17.166  1.00  0.00     0.134 A 
ATOM     67  F   UNL     1       2.109   0.813  14.773  1.00  0.00    -0.206 F 
ATOM     68  C   UNL     1       1.665   1.294  17.014  1.00  0.00     0.040 A 
ATOM     69  C   UNL     1       3.157   2.643  18.311  1.00  0.00     0.040 A 
ATOM     70  F   UNL     1       5.011   3.631  17.320  1.00  0.00    -0.206 F 
ATOM     71  C   UNL     1       2.028   1.842  18.242  1.00  0.00     0.006 A 
ENDBRANCH  50  64
BRANCH  51  72
ATOM     72  C   UNL     1      12.494  -1.967  11.835  1.00  0.00     0.057 A 
ATOM     73  C   UNL     1      13.485  -1.723  12.832  1.00  0.00     0.134 A 
ATOM     74  C   UNL     1      13.025  -2.427  10.628  1.00  0.00     0.134 A 
ATOM     75  F   UNL     1      13.160  -1.453  14.103  1.00  0.00    -0.206 F 
ATOM     76  C   UNL     1      14.862  -1.729  12.592  1.00  0.00     0.040 A 
ATOM     77  C   UNL     1      14.416  -2.491  10.387  1.00  0.00     0.040 A 
ATOM     78  F   UNL     1      12.238  -2.849   9.634  1.00  0.00    -0.206 F 
ATOM     79  C   UNL     1      15.337  -2.091  11.350  1.00  0.00     0.006 A 
ENDBRANCH  51  72
BRANCH  63  80
ATOM     80  C   UNL     1       7.442  -2.020  15.324  1.00  0.00     0.057 A 
ATOM     81  C   UNL     1       6.422  -2.170  14.372  1.00  0.00     0.134 A 
ATOM     82  C   UNL     1       7.731  -3.165  16.076  1.00  0.00     0.134 A 
ATOM     83  F   UNL     1       6.054  -1.153  13.597  1.00  0.00    -0.206 F 
ATOM     84  C   UNL     1       5.734  -3.375  14.168  1.00  0.00     0.040 A 
ATOM     85  C   UNL     1       7.060  -4.381  15.882  1.00  0.00     0.040 A 
ATOM     86  F   UNL     1       8.679  -3.125  17.024  1.00  0.00    -0.206 F 
ATOM     87  C   UNL     1       6.058  -4.491  14.924  1.00  0.00     0.006 A 
ENDBRANCH  63  80
ENDBRANCH  37  38
ENDBRANCH  29  32
ENDBRANCH  27  28
ENDBRANCH  26  27
ENDBRANCH  25  26
ENDBRANCH   1  25
TORSDOF 15
