REMARK SMILES COc1cccc(OC)c1[C@@H](C(=O)NCCCCNC(=O)c1ccc(-c2c3nc(c(-c4c(F)cccc4F)c4ccc([nH]4)c(-c4c(F)cccc4F)c4nc(c(-c5c(F)cccc5F)c5ccc2[nH]5)C=C4)C=C3)cc1)[N@@H+](C)Cc1c(C)n[nH]c1C
REMARK SMILES IDX 16 1 15 2 14 3 12 4 13 5 11 7 10 8 3 9 4 10 5 11 7 12 6 13
REMARK SMILES IDX 2 14 1 15 8 16 9 17 76 18 77 19 78 21 79 22 80 23 84 24
REMARK SMILES IDX 81 25 82 26 83 27 85 28 17 30 18 31 19 32 20 33 21 35 22 36
REMARK SMILES IDX 23 37 75 38 24 39 74 40 25 41 26 42 27 43 68 44 28 45 73 46
REMARK SMILES IDX 67 47 69 48 29 49 72 50 66 51 65 52 30 54 56 55 39 56 55 57
REMARK SMILES IDX 40 58 43 59 54 60 70 61 41 62 42 63 53 65 71 66 44 67 31 68
REMARK SMILES IDX 32 69 37 70 33 71 34 72 36 73 38 74 35 75 57 76 58 77 63 78
REMARK SMILES IDX 59 79 60 80 62 81 64 82 61 83 45 84 46 85 51 86 47 87 48 88
REMARK SMILES IDX 50 89 52 90 49 91
REMARK H PARENT 14 6 76 20 83 29 19 34 69 53 43 64
REMARK Flexibility Score: inf
ROOT
ATOM      1  C   UNL     1       2.031  -4.439  -1.696  1.00  0.00     0.023 C 
ENDROOT
BRANCH   1   2
ATOM      2  C   UNL     1       2.273  -3.459  -0.561  1.00  0.00     0.116 C 
BRANCH   2   3
ATOM      3  N   UNL     1       3.555  -2.807  -0.630  1.00  0.00    -0.351 N 
ATOM      4  C   UNL     1       3.939  -1.528  -0.865  1.00  0.00     0.283 C 
ATOM      5  O   UNL     1       5.029  -1.289  -0.316  1.00  0.00    -0.268 OA
ATOM      6  H   UNL     1       4.311  -3.418  -0.474  1.00  0.00     0.163 HD
BRANCH   4   7
ATOM      7  C   UNL     1       3.138  -0.401  -1.606  1.00  0.00     0.313 C 
BRANCH   7   8
ATOM      8  C   UNL     1       1.900  -0.744  -2.491  1.00  0.00     0.103 A 
ATOM      9  C   UNL     1       0.640  -0.961  -1.863  1.00  0.00     0.132 A 
ATOM     10  C   UNL     1      -0.474  -1.472  -2.548  1.00  0.00     0.047 A 
ATOM     11  C   UNL     1      -0.420  -1.670  -3.916  1.00  0.00     0.008 A 
ATOM     12  C   UNL     1       1.884  -0.881  -3.901  1.00  0.00     0.132 A 
ATOM     13  C   UNL     1       0.738  -1.322  -4.593  1.00  0.00     0.047 A 
BRANCH   9  14
ATOM     14  O   UNL     1       0.460  -0.847  -0.502  1.00  0.00    -0.496 OA
ATOM     15  C   UNL     1       0.242   0.493  -0.070  1.00  0.00     0.278 C 
ENDBRANCH   9  14
BRANCH  12  16
ATOM     16  O   UNL     1       2.909  -0.387  -4.641  1.00  0.00    -0.496 OA
ATOM     17  C   UNL     1       3.401  -1.135  -5.746  1.00  0.00     0.278 C 
ENDBRANCH  12  16
ENDBRANCH   7   8
BRANCH   7  18
ATOM     18  N   UNL     1       4.016   0.747  -2.028  1.00  0.00    -0.319 N 
ATOM     19  C   UNL     1       4.539   1.516  -0.892  1.00  0.00     0.333 C 
ATOM     20  H   UNL     1       3.295   1.244  -2.551  1.00  0.00     0.349 HD
BRANCH  18  21
ATOM     21  C   UNL     1       5.040   0.622  -3.076  1.00  0.00     0.303 C 
BRANCH  21  22
ATOM     22  C   UNL     1       6.206  -0.316  -2.921  1.00  0.00     0.050 A 
ATOM     23  C   UNL     1       7.571   0.113  -2.804  1.00  0.00     0.068 A 
ATOM     24  C   UNL     1       6.325  -1.696  -3.071  1.00  0.00     0.041 A 
ATOM     25  C   UNL     1       8.094   1.503  -2.781  1.00  0.00     0.069 C 
ATOM     26  N   UNL     1       8.434  -0.907  -2.797  1.00  0.00    -0.180 NA
ATOM     27  N   UNL     1       7.653  -1.981  -2.902  1.00  0.00    -0.282 N 
ATOM     28  C   UNL     1       5.395  -2.813  -3.354  1.00  0.00     0.066 C 
ATOM     29  H   UNL     1       8.001  -2.901  -2.861  1.00  0.00     0.190 HD
ENDBRANCH  21  22
ENDBRANCH  18  21
ENDBRANCH   7  18
ENDBRANCH   4   7
ENDBRANCH   2   3
ENDBRANCH   1   2
BRANCH   1  30
ATOM     30  C   UNL     1       2.952  -5.659  -1.669  1.00  0.00     0.023 C 
BRANCH  30  31
ATOM     31  C   UNL     1       3.065  -6.362  -0.320  1.00  0.00     0.116 C 
BRANCH  31  32
ATOM     32  N   UNL     1       1.778  -6.753   0.234  1.00  0.00    -0.352 N 
ATOM     33  C   UNL     1       1.427  -7.923   0.867  1.00  0.00     0.251 C 
ATOM     34  H   UNL     1       1.058  -6.087   0.143  1.00  0.00     0.163 HD
ATOM     35  O   UNL     1       0.270  -8.138   1.179  1.00  0.00    -0.269 OA
BRANCH  33  36
ATOM     36  C   UNL     1       2.471  -8.938   1.127  1.00  0.00     0.039 A 
ATOM     37  C   UNL     1       2.222 -10.261   0.758  1.00  0.00     0.014 A 
ATOM     38  C   UNL     1       3.696  -8.578   1.695  1.00  0.00     0.014 A 
ATOM     39  C   UNL     1       3.231 -11.214   0.896  1.00  0.00     0.010 A 
ATOM     40  C   UNL     1       4.724  -9.512   1.760  1.00  0.00     0.010 A 
ATOM     41  C   UNL     1       4.503 -10.839   1.360  1.00  0.00    -0.014 A 
BRANCH  41  42
ATOM     42  C   UNL     1       5.614 -11.820   1.426  1.00  0.00     0.031 A 
ATOM     43  C   UNL     1       6.223 -12.183   2.751  1.00  0.00     0.074 A 
ATOM     44  C   UNL     1       6.116 -12.335   0.287  1.00  0.00     0.049 A 
ATOM     45  N   UNL     1       7.237 -12.970   3.006  1.00  0.00    -0.248 NA
ATOM     46  C   UNL     1       5.631 -11.559   3.945  1.00  0.00     0.031 C 
ATOM     47  C   UNL     1       5.644 -12.023  -1.064  1.00  0.00     0.029 A 
ATOM     48  N   UNL     1       7.141 -13.223   0.083  1.00  0.00    -0.354 N 
ATOM     49  C   UNL     1       7.411 -12.927   4.384  1.00  0.00     0.074 A 
ATOM     50  C   UNL     1       6.436 -11.993   4.904  1.00  0.00     0.031 C 
ATOM     51  C   UNL     1       6.362 -12.727  -1.954  1.00  0.00     0.029 A 
ATOM     52  C   UNL     1       7.369 -13.507  -1.242  1.00  0.00     0.049 A 
ATOM     53  H   UNL     1       7.665 -13.620   0.816  1.00  0.00     0.167 HD
ATOM     54  C   UNL     1       8.287 -13.620   5.148  1.00  0.00     0.037 A 
ATOM     55  C   UNL     1       8.291 -14.301  -1.819  1.00  0.00     0.037 A 
ATOM     56  C   UNL     1       9.243 -14.563   4.629  1.00  0.00     0.049 A 
ATOM     57  C   UNL     1       9.260 -15.052  -0.949  1.00  0.00     0.074 A 
ATOM     58  C   UNL     1      10.136 -15.357   5.327  1.00  0.00     0.029 A 
ATOM     59  N   UNL     1       9.433 -14.834   3.282  1.00  0.00    -0.354 N 
ATOM     60  N   UNL     1       9.368 -15.055   0.358  1.00  0.00    -0.248 NA
ATOM     61  C   UNL     1      10.233 -15.915  -1.633  1.00  0.00     0.031 C 
ATOM     62  C   UNL     1      10.899 -16.074   4.400  1.00  0.00     0.029 A 
ATOM     63  C   UNL     1      10.446 -15.767   3.127  1.00  0.00     0.049 A 
ATOM     64  H   UNL     1       8.925 -14.424   2.546  1.00  0.00     0.167 HD
ATOM     65  C   UNL     1      10.397 -15.939   0.654  1.00  0.00     0.074 A 
ATOM     66  C   UNL     1      10.872 -16.464  -0.610  1.00  0.00     0.031 C 
ATOM     67  C   UNL     1      10.903 -16.285   1.863  1.00  0.00     0.037 A 
BRANCH  54  68
ATOM     68  C   UNL     1       8.248 -13.385   6.631  1.00  0.00     0.057 A 
ATOM     69  C   UNL     1       7.173 -13.817   7.420  1.00  0.00     0.134 A 
ATOM     70  C   UNL     1       9.311 -12.747   7.283  1.00  0.00     0.134 A 
ATOM     71  F   UNL     1       6.117 -14.424   6.857  1.00  0.00    -0.206 F 
ATOM     72  C   UNL     1       7.144 -13.598   8.798  1.00  0.00     0.040 A 
ATOM     73  C   UNL     1       9.307 -12.549   8.665  1.00  0.00     0.040 A 
ATOM     74  F   UNL     1      10.375 -12.314   6.589  1.00  0.00    -0.206 F 
ATOM     75  C   UNL     1       8.217 -12.969   9.425  1.00  0.00     0.006 A 
ENDBRANCH  54  68
BRANCH  55  76
ATOM     76  C   UNL     1       8.329 -14.444  -3.296  1.00  0.00     0.057 A 
ATOM     77  C   UNL     1       7.964 -15.646  -3.915  1.00  0.00     0.134 A 
ATOM     78  C   UNL     1       8.737 -13.391  -4.124  1.00  0.00     0.134 A 
ATOM     79  F   UNL     1       7.581 -16.697  -3.175  1.00  0.00    -0.206 F 
ATOM     80  C   UNL     1       8.022 -15.802  -5.301  1.00  0.00     0.040 A 
ATOM     81  C   UNL     1       8.775 -13.525  -5.513  1.00  0.00     0.040 A 
ATOM     82  F   UNL     1       9.091 -12.211  -3.594  1.00  0.00    -0.206 F 
ATOM     83  C   UNL     1       8.424 -14.737  -6.104  1.00  0.00     0.006 A 
ENDBRANCH  55  76
BRANCH  67  84
ATOM     84  C   UNL     1      12.003 -17.307   1.881  1.00  0.00     0.057 A 
ATOM     85  C   UNL     1      13.298 -17.010   1.440  1.00  0.00     0.134 A 
ATOM     86  C   UNL     1      11.770 -18.593   2.385  1.00  0.00     0.134 A 
ATOM     87  F   UNL     1      13.584 -15.801   0.934  1.00  0.00    -0.206 F 
ATOM     88  C   UNL     1      14.317 -17.963   1.478  1.00  0.00     0.040 A 
ATOM     89  C   UNL     1      12.787 -19.546   2.455  1.00  0.00     0.040 A 
ATOM     90  F   UNL     1      10.553 -18.940   2.833  1.00  0.00    -0.206 F 
ATOM     91  C   UNL     1      14.064 -19.233   1.994  1.00  0.00     0.006 A 
ENDBRANCH  67  84
ENDBRANCH  41  42
ENDBRANCH  33  36
ENDBRANCH  31  32
ENDBRANCH  30  31
ENDBRANCH   1  30
TORSDOF 17
