REMARK SMILES CN1C(=O)[C@@H]2CC=CC[C@]2(C(=O)NCCCCNC(=O)c2ccc(-c3c4nc(c(-c5c(F)cccc5F)c5ccc([nH]5)c(-c5c(F)cccc5F)c5nc(c(-c6c(F)cccc6F)c6ccc3[nH]6)C=C5)C=C4)cc2)[C@H]1c1ccccc1
REMARK SMILES IDX 16 1 15 2 14 3 13 4 11 5 12 6 10 8 1 9 2 10 3 11 75 12 4 13
REMARK SMILES IDX 5 14 6 15 9 16 7 17 8 18 76 19 77 20 81 21 78 22 80 23 79 24
REMARK SMILES IDX 17 25 18 26 19 27 20 29 21 30 22 31 74 32 23 33 73 34 24 35
REMARK SMILES IDX 25 36 26 37 67 38 27 39 72 40 66 41 68 42 28 43 71 44 65 45
REMARK SMILES IDX 64 46 29 48 55 49 38 50 54 51 39 52 42 53 53 54 69 55 40 56
REMARK SMILES IDX 41 57 52 59 70 60 43 61 30 62 31 63 36 64 32 65 33 66 35 67
REMARK SMILES IDX 37 68 34 69 56 70 57 71 62 72 58 73 59 74 61 75 63 76 60 77
REMARK SMILES IDX 44 78 45 79 50 80 46 81 47 82 49 83 51 84 48 85
REMARK H PARENT 13 7 18 28 68 47 42 58
REMARK Flexibility Score: inf
ROOT
ATOM      1  C   UNL     1       5.365   4.444   2.505  1.00  0.00     0.023 C 
ENDROOT
BRANCH   1   2
ATOM      2  C   UNL     1       4.292   3.956   1.537  1.00  0.00     0.023 C 
BRANCH   2   3
ATOM      3  C   UNL     1       2.909   3.691   2.124  1.00  0.00     0.116 C 
BRANCH   3   4
ATOM      4  N   UNL     1       1.813   4.644   1.942  1.00  0.00    -0.356 N 
ATOM      5  C   UNL     1       0.561   4.486   1.339  1.00  0.00     0.229 C 
ATOM      6  O   UNL     1      -0.360   5.201   1.739  1.00  0.00    -0.274 OA
ATOM      7  H   UNL     1       1.985   5.543   2.302  1.00  0.00     0.163 HD
BRANCH   5   8
ATOM      8  C   UNL     1       0.380   3.558   0.109  1.00  0.00     0.089 C 
ATOM      9  C   UNL     1       0.507  -0.127  -0.617  1.00  0.00     0.147 C 
ATOM     10  N   UNL     1       0.079   1.240  -0.403  1.00  0.00    -0.337 N 
ATOM     11  C   UNL     1      -0.982   1.865  -1.014  1.00  0.00     0.227 C 
ATOM     12  C   UNL     1       0.734   2.087   0.544  1.00  0.00     0.131 C 
ATOM     13  O   UNL     1      -1.738   1.338  -1.807  1.00  0.00    -0.275 OA
ATOM     14  C   UNL     1      -1.062   3.303  -0.479  1.00  0.00     0.101 C 
ATOM     15  C   UNL     1      -1.660   4.206  -1.558  1.00  0.00     0.041 C 
ATOM     16  C   UNL     1       1.296   4.240  -0.960  1.00  0.00     0.047 C 
ATOM     17  C   UNL     1      -0.693   5.081  -2.261  1.00  0.00    -0.030 C 
ATOM     18  C   UNL     1       0.616   5.092  -2.000  1.00  0.00    -0.030 C 
BRANCH  12  19
ATOM     19  C   UNL     1       0.347   1.690   1.992  1.00  0.00    -0.024 A 
ATOM     20  C   UNL     1      -0.891   2.020   2.568  1.00  0.00     0.006 A 
ATOM     21  C   UNL     1       1.301   1.101   2.843  1.00  0.00     0.006 A 
ATOM     22  C   UNL     1      -1.093   1.973   3.949  1.00  0.00     0.000 A 
ATOM     23  C   UNL     1       1.111   1.071   4.230  1.00  0.00     0.000 A 
ATOM     24  C   UNL     1      -0.073   1.544   4.785  1.00  0.00     0.000 A 
ENDBRANCH  12  19
ENDBRANCH   5   8
ENDBRANCH   3   4
ENDBRANCH   2   3
ENDBRANCH   1   2
BRANCH   1  25
ATOM     25  C   UNL     1       5.362   3.852   3.909  1.00  0.00     0.116 C 
BRANCH  25  26
ATOM     26  N   UNL     1       5.493   2.403   4.000  1.00  0.00    -0.352 N 
ATOM     27  C   UNL     1       6.026   1.693   5.062  1.00  0.00     0.251 C 
ATOM     28  H   UNL     1       5.171   1.879   3.232  1.00  0.00     0.163 HD
ATOM     29  O   UNL     1       6.121   0.472   5.030  1.00  0.00    -0.269 OA
BRANCH  27  30
ATOM     30  C   UNL     1       6.529   2.457   6.225  1.00  0.00     0.039 A 
ATOM     31  C   UNL     1       7.862   2.317   6.615  1.00  0.00     0.014 A 
ATOM     32  C   UNL     1       5.707   3.410   6.831  1.00  0.00     0.014 A 
ATOM     33  C   UNL     1       8.391   3.193   7.566  1.00  0.00     0.010 A 
ATOM     34  C   UNL     1       6.265   4.348   7.689  1.00  0.00     0.010 A 
ATOM     35  C   UNL     1       7.608   4.241   8.082  1.00  0.00    -0.014 A 
BRANCH  35  36
ATOM     36  C   UNL     1       8.163   5.204   9.068  1.00  0.00     0.031 A 
ATOM     37  C   UNL     1       7.559   5.293  10.445  1.00  0.00     0.074 A 
ATOM     38  C   UNL     1       9.172   6.027   8.721  1.00  0.00     0.049 A 
ATOM     39  N   UNL     1       7.892   6.066  11.447  1.00  0.00    -0.248 NA
ATOM     40  C   UNL     1       6.403   4.423  10.719  1.00  0.00     0.031 C 
ATOM     41  C   UNL     1       9.798   6.093   7.399  1.00  0.00     0.029 A 
ATOM     42  N   UNL     1       9.850   6.968   9.455  1.00  0.00    -0.354 N 
ATOM     43  C   UNL     1       6.981   5.782  12.458  1.00  0.00     0.074 A 
ATOM     44  C   UNL     1       6.034   4.832  11.922  1.00  0.00     0.031 C 
ATOM     45  C   UNL     1      10.794   6.995   7.428  1.00  0.00     0.029 A 
ATOM     46  C   UNL     1      10.858   7.591   8.759  1.00  0.00     0.049 A 
ATOM     47  H   UNL     1       9.635   7.177  10.393  1.00  0.00     0.167 HD
ATOM     48  C   UNL     1       6.955   6.240  13.732  1.00  0.00     0.037 A 
ATOM     49  C   UNL     1      11.740   8.529   9.155  1.00  0.00     0.037 A 
ATOM     50  C   UNL     1       7.913   7.168  14.271  1.00  0.00     0.049 A 
ATOM     51  C   UNL     1      11.706   9.011  10.580  1.00  0.00     0.074 A 
ATOM     52  C   UNL     1       8.013   7.652  15.563  1.00  0.00     0.029 A 
ATOM     53  N   UNL     1       8.937   7.755  13.542  1.00  0.00    -0.354 N 
ATOM     54  N   UNL     1      10.892   8.671  11.551  1.00  0.00    -0.248 NA
ATOM     55  C   UNL     1      12.726   9.994  10.969  1.00  0.00     0.031 C 
ATOM     56  C   UNL     1       9.066   8.572  15.603  1.00  0.00     0.029 A 
ATOM     57  C   UNL     1       9.663   8.611  14.352  1.00  0.00     0.049 A 
ATOM     58  H   UNL     1       9.120   7.587  12.589  1.00  0.00     0.167 HD
ATOM     59  C   UNL     1      11.325   9.367  12.673  1.00  0.00     0.074 A 
ATOM     60  C   UNL     1      12.482  10.137  12.263  1.00  0.00     0.031 C 
ATOM     61  C   UNL     1      10.816   9.366  13.931  1.00  0.00     0.037 A 
BRANCH  48  62
ATOM     62  C   UNL     1       5.853   5.735  14.621  1.00  0.00     0.057 A 
ATOM     63  C   UNL     1       5.780   4.394  15.025  1.00  0.00     0.134 A 
ATOM     64  C   UNL     1       4.851   6.599  15.078  1.00  0.00     0.134 A 
ATOM     65  F   UNL     1       6.698   3.507  14.610  1.00  0.00    -0.206 F 
ATOM     66  C   UNL     1       4.731   3.924  15.817  1.00  0.00     0.040 A 
ATOM     67  C   UNL     1       3.816   6.148  15.899  1.00  0.00     0.040 A 
ATOM     68  F   UNL     1       4.859   7.896  14.734  1.00  0.00    -0.206 F 
ATOM     69  C   UNL     1       3.748   4.804  16.261  1.00  0.00     0.006 A 
ENDBRANCH  48  62
BRANCH  49  70
ATOM     70  C   UNL     1      12.763   9.039   8.205  1.00  0.00     0.057 A 
ATOM     71  C   UNL     1      14.120   8.732   8.367  1.00  0.00     0.134 A 
ATOM     72  C   UNL     1      12.414   9.852   7.121  1.00  0.00     0.134 A 
ATOM     73  F   UNL     1      14.522   7.972   9.396  1.00  0.00    -0.206 F 
ATOM     74  C   UNL     1      15.094   9.235   7.502  1.00  0.00     0.040 A 
ATOM     75  C   UNL     1      13.373  10.339   6.231  1.00  0.00     0.040 A 
ATOM     76  F   UNL     1      11.130  10.175   6.903  1.00  0.00    -0.206 F 
ATOM     77  C   UNL     1      14.720  10.037   6.426  1.00  0.00     0.006 A 
ENDBRANCH  49  70
BRANCH  61  78
ATOM     78  C   UNL     1      11.540  10.180  14.965  1.00  0.00     0.057 A 
ATOM     79  C   UNL     1      11.550  11.581  14.943  1.00  0.00     0.134 A 
ATOM     80  C   UNL     1      12.224   9.547  16.012  1.00  0.00     0.134 A 
ATOM     81  F   UNL     1      10.922  12.251  13.964  1.00  0.00    -0.206 F 
ATOM     82  C   UNL     1      12.247  12.321  15.900  1.00  0.00     0.040 A 
ATOM     83  C   UNL     1      12.896  10.276  16.994  1.00  0.00     0.040 A 
ATOM     84  F   UNL     1      12.244   8.209  16.102  1.00  0.00    -0.206 F 
ATOM     85  C   UNL     1      12.918  11.668  16.932  1.00  0.00     0.006 A 
ENDBRANCH  61  78
ENDBRANCH  35  36
ENDBRANCH  27  30
ENDBRANCH  25  26
ENDBRANCH   1  25
TORSDOF 12
