REMARK SMILES Cc1cccnc1C(=O)NC[C@@H](CC(C)C)C(=O)NCCCCNC(=O)c1ccc(-c2c3nc(c(-c4c(F)cccc4F)c4ccc([nH]4)c(-c4c(F)cccc4F)c4nc(c(-c5c(F)cccc5F)c5ccc2[nH]5)C=C4)C=C3)cc1
REMARK SMILES IDX 21 1 20 2 19 3 17 4 18 5 12 7 11 8 10 9 8 10 9 11 7 13 1 14
REMARK SMILES IDX 2 15 3 16 4 17 6 18 5 19 13 20 14 21 15 22 16 23 22 24 23 25
REMARK SMILES IDX 24 26 25 27 26 29 27 30 28 31 80 32 29 33 79 34 30 35 31 36
REMARK SMILES IDX 32 37 73 38 33 39 78 40 72 41 74 42 34 43 77 44 71 45 70 46
REMARK SMILES IDX 35 48 61 49 44 50 60 51 45 52 48 53 59 54 75 55 46 56 47 57
REMARK SMILES IDX 58 59 76 60 49 61 36 62 37 63 42 64 38 65 39 66 41 67 43 68
REMARK SMILES IDX 40 69 62 70 63 71 68 72 64 73 65 74 67 75 69 76 66 77 50 78
REMARK SMILES IDX 51 79 56 80 52 81 53 82 55 83 57 84 54 85
REMARK H PARENT 19 6 10 12 24 28 74 47 48 58
REMARK Flexibility Score: inf
ROOT
ATOM      1  C   UNL     1       5.259   0.526  -2.768  1.00  0.00     0.023 C 
ENDROOT
BRANCH   1   2
ATOM      2  C   UNL     1       5.488  -0.426  -1.603  1.00  0.00     0.116 C 
BRANCH   2   3
ATOM      3  N   UNL     1       5.320   0.219  -0.317  1.00  0.00    -0.356 N 
ATOM      4  C   UNL     1       4.907  -0.264   0.883  1.00  0.00     0.224 C 
ATOM      5  O   UNL     1       5.068   0.475   1.859  1.00  0.00    -0.275 OA
ATOM      6  H   UNL     1       5.546   1.178  -0.312  1.00  0.00     0.163 HD
BRANCH   4   7
ATOM      7  C   UNL     1       4.280  -1.640   1.064  1.00  0.00     0.098 C 
BRANCH   7   8
ATOM      8  C   UNL     1       3.258  -2.028  -0.022  1.00  0.00     0.129 C 
BRANCH   8   9
ATOM      9  N   UNL     1       2.020  -2.552   0.521  1.00  0.00    -0.350 N 
ATOM     10  C   UNL     1       0.688  -2.223   0.442  1.00  0.00     0.270 C 
ATOM     11  O   UNL     1      -0.038  -3.196   0.703  1.00  0.00    -0.268 OA
ATOM     12  H   UNL     1       2.172  -3.341   1.090  1.00  0.00     0.163 HD
BRANCH  10  13
ATOM     13  C   UNL     1       0.009  -0.886   0.126  1.00  0.00     0.131 A 
ATOM     14  C   UNL     1       1.941   0.835   0.152  1.00  0.00     0.047 C 
ATOM     15  C   UNL     1       0.516   0.418   0.061  1.00  0.00    -0.020 A 
ATOM     16  C   UNL     1      -0.402   1.484  -0.098  1.00  0.00     0.007 A 
ATOM     17  C   UNL     1      -1.766   1.260  -0.152  1.00  0.00     0.020 A 
ATOM     18  N   UNL     1      -1.346  -1.087   0.023  1.00  0.00    -0.251 NA
ATOM     19  C   UNL     1      -2.188  -0.043  -0.091  1.00  0.00     0.112 A 
ENDBRANCH  10  13
ENDBRANCH   8   9
ENDBRANCH   7   8
BRANCH   7  20
ATOM     20  C   UNL     1       5.315  -2.741   1.413  1.00  0.00     0.018 C 
BRANCH  20  21
ATOM     21  C   UNL     1       6.483  -2.964   0.429  1.00  0.00    -0.017 C 
ATOM     22  C   UNL     1       7.683  -2.056   0.732  1.00  0.00     0.007 C 
ATOM     23  C   UNL     1       6.967  -4.417   0.473  1.00  0.00     0.007 C 
ENDBRANCH  20  21
ENDBRANCH   7  20
ENDBRANCH   4   7
ENDBRANCH   2   3
ENDBRANCH   1   2
BRANCH   1  24
ATOM     24  C   UNL     1       6.311   1.626  -2.898  1.00  0.00     0.023 C 
BRANCH  24  25
ATOM     25  C   UNL     1       7.758   1.153  -2.804  1.00  0.00     0.116 C 
BRANCH  25  26
ATOM     26  N   UNL     1       8.077   0.090  -3.749  1.00  0.00    -0.352 N 
ATOM     27  C   UNL     1       9.056   0.039  -4.710  1.00  0.00     0.251 C 
ATOM     28  H   UNL     1       7.505  -0.709  -3.689  1.00  0.00     0.163 HD
ATOM     29  O   UNL     1       9.101  -0.898  -5.500  1.00  0.00    -0.269 OA
BRANCH  27  30
ATOM     30  C   UNL     1      10.025   1.145  -4.811  1.00  0.00     0.039 A 
ATOM     31  C   UNL     1      10.236   1.743  -6.055  1.00  0.00     0.014 A 
ATOM     32  C   UNL     1      10.676   1.624  -3.672  1.00  0.00     0.014 A 
ATOM     33  C   UNL     1      11.034   2.884  -6.140  1.00  0.00     0.010 A 
ATOM     34  C   UNL     1      11.401   2.807  -3.745  1.00  0.00     0.010 A 
ATOM     35  C   UNL     1      11.581   3.452  -4.978  1.00  0.00    -0.014 A 
BRANCH  35  36
ATOM     36  C   UNL     1      12.332   4.731  -5.028  1.00  0.00     0.031 A 
ATOM     37  C   UNL     1      13.781   4.768  -4.632  1.00  0.00     0.074 A 
ATOM     38  C   UNL     1      11.690   5.869  -5.357  1.00  0.00     0.049 A 
ATOM     39  N   UNL     1      14.584   5.797  -4.533  1.00  0.00    -0.248 NA
ATOM     40  C   UNL     1      14.401   3.484  -4.270  1.00  0.00     0.031 C 
ATOM     41  C   UNL     1      10.273   5.972  -5.710  1.00  0.00     0.029 A 
ATOM     42  N   UNL     1      12.146   7.160  -5.437  1.00  0.00    -0.354 N 
ATOM     43  C   UNL     1      15.794   5.287  -4.084  1.00  0.00     0.074 A 
ATOM     44  C   UNL     1      15.605   3.868  -3.876  1.00  0.00     0.031 C 
ATOM     45  C   UNL     1       9.983   7.252  -5.995  1.00  0.00     0.029 A 
ATOM     46  C   UNL     1      11.181   8.064  -5.809  1.00  0.00     0.049 A 
ATOM     47  H   UNL     1      13.078   7.415  -5.247  1.00  0.00     0.167 HD
ATOM     48  C   UNL     1      16.966   5.937  -3.889  1.00  0.00     0.037 A 
ATOM     49  C   UNL     1      11.253   9.398  -5.976  1.00  0.00     0.037 A 
ATOM     50  C   UNL     1      17.159   7.343  -4.122  1.00  0.00     0.049 A 
ATOM     51  C   UNL     1      12.564  10.097  -5.748  1.00  0.00     0.074 A 
ATOM     52  C   UNL     1      18.323   8.084  -4.011  1.00  0.00     0.029 A 
ATOM     53  N   UNL     1      16.161   8.222  -4.514  1.00  0.00    -0.354 N 
ATOM     54  N   UNL     1      13.718   9.591  -5.387  1.00  0.00    -0.248 NA
ATOM     55  C   UNL     1      12.582  11.552  -5.953  1.00  0.00     0.031 C 
ATOM     56  C   UNL     1      18.020   9.419  -4.299  1.00  0.00     0.029 A 
ATOM     57  C   UNL     1      16.678   9.502  -4.631  1.00  0.00     0.049 A 
ATOM     58  H   UNL     1      15.224   7.973  -4.685  1.00  0.00     0.167 HD
ATOM     59  C   UNL     1      14.605  10.659  -5.350  1.00  0.00     0.074 A 
ATOM     60  C   UNL     1      13.858  11.838  -5.736  1.00  0.00     0.031 C 
ATOM     61  C   UNL     1      15.921  10.663  -5.024  1.00  0.00     0.037 A 
BRANCH  48  62
ATOM     62  C   UNL     1      18.131   5.124  -3.404  1.00  0.00     0.057 A 
ATOM     63  C   UNL     1      18.767   4.185  -4.226  1.00  0.00     0.134 A 
ATOM     64  C   UNL     1      18.636   5.298  -2.110  1.00  0.00     0.134 A 
ATOM     65  F   UNL     1      18.323   3.961  -5.472  1.00  0.00    -0.206 F 
ATOM     66  C   UNL     1      19.846   3.427  -3.769  1.00  0.00     0.040 A 
ATOM     67  C   UNL     1      19.732   4.565  -1.651  1.00  0.00     0.040 A 
ATOM     68  F   UNL     1      18.076   6.183  -1.272  1.00  0.00    -0.206 F 
ATOM     69  C   UNL     1      20.335   3.621  -2.479  1.00  0.00     0.006 A 
ENDBRANCH  48  62
BRANCH  49  70
ATOM     70  C   UNL     1      10.055  10.159  -6.408  1.00  0.00     0.057 A 
ATOM     71  C   UNL     1       9.978  10.709  -7.693  1.00  0.00     0.134 A 
ATOM     72  C   UNL     1       8.966  10.364  -5.553  1.00  0.00     0.134 A 
ATOM     73  F   UNL     1      10.998  10.562  -8.551  1.00  0.00    -0.206 F 
ATOM     74  C   UNL     1       8.871  11.451  -8.107  1.00  0.00     0.040 A 
ATOM     75  C   UNL     1       7.842  11.084  -5.961  1.00  0.00     0.040 A 
ATOM     76  F   UNL     1       8.975   9.855  -4.312  1.00  0.00    -0.206 F 
ATOM     77  C   UNL     1       7.796  11.636  -7.240  1.00  0.00     0.006 A 
ENDBRANCH  49  70
BRANCH  61  78
ATOM     78  C   UNL     1      16.643  11.975  -5.105  1.00  0.00     0.057 A 
ATOM     79  C   UNL     1      16.441  12.989  -4.160  1.00  0.00     0.134 A 
ATOM     80  C   UNL     1      17.580  12.211  -6.119  1.00  0.00     0.134 A 
ATOM     81  F   UNL     1      15.547  12.830  -3.173  1.00  0.00    -0.206 F 
ATOM     82  C   UNL     1      17.130  14.201  -4.234  1.00  0.00     0.040 A 
ATOM     83  C   UNL     1      18.293  13.408  -6.189  1.00  0.00     0.040 A 
ATOM     84  F   UNL     1      17.826  11.277  -7.051  1.00  0.00    -0.206 F 
ATOM     85  C   UNL     1      18.065  14.409  -5.247  1.00  0.00     0.006 A 
ENDBRANCH  61  78
ENDBRANCH  35  36
ENDBRANCH  27  30
ENDBRANCH  25  26
ENDBRANCH  24  25
ENDBRANCH   1  24
TORSDOF 16
