REMARK SMILES O=C(Cn1cc(NC(=O)N2CC[N@@H+]3CCC[C@@H]3C2)cn1)NCCCCNC(=O)c1ccc(-c2c3nc(c(-c4c(F)cccc4F)c4ccc([nH]4)c(-c4c(F)cccc4F)c4nc(c(-c5c(F)cccc5F)c5ccc2[nH]5)C=C4)C=C3)cc1
REMARK SMILES IDX 23 1 22 2 21 3 1 4 2 5 3 7 4 8 5 9 20 10 6 11 19 12 7 13
REMARK SMILES IDX 8 14 9 16 10 17 11 18 18 19 12 20 17 21 13 22 16 23 14 24
REMARK SMILES IDX 15 26 24 27 25 28 26 29 27 30 28 32 29 33 30 34 82 35 31 36
REMARK SMILES IDX 81 37 32 38 33 39 34 40 75 41 35 42 80 43 74 44 76 45 36 46
REMARK SMILES IDX 79 47 73 48 72 49 37 51 63 52 46 53 62 54 47 55 50 56 61 57
REMARK SMILES IDX 77 58 48 59 49 60 60 62 78 63 51 64 38 65 39 66 44 67 40 68
REMARK SMILES IDX 41 69 43 70 45 71 42 72 64 73 65 74 70 75 66 76 67 77 69 78
REMARK SMILES IDX 71 79 68 80 52 81 53 82 58 83 54 84 55 85 57 86 59 87 56 88
REMARK H PARENT 21 6 7 15 13 25 26 31 76 50 50 61
REMARK Flexibility Score: inf
ROOT
ATOM      1  C   UNL     1       2.481  -3.449  -1.299  1.00  0.00     0.023 C 
ENDROOT
BRANCH   1   2
ATOM      2  C   UNL     1       2.055  -2.528  -0.155  1.00  0.00     0.116 C 
BRANCH   2   3
ATOM      3  N   UNL     1       2.641  -1.206  -0.249  1.00  0.00    -0.354 N 
ATOM      4  O   UNL     1       0.710  -0.100  -0.832  1.00  0.00    -0.273 OA
ATOM      5  C   UNL     1       1.900  -0.070  -0.529  1.00  0.00     0.241 C 
ATOM      6  H   UNL     1       3.611  -1.111  -0.108  1.00  0.00     0.163 HD
BRANCH   5   7
ATOM      7  C   UNL     1       2.686   1.227  -0.536  1.00  0.00     0.244 C 
BRANCH   7   8
ATOM      8  N   UNL     1       3.264   1.585   0.748  1.00  0.00    -0.261 N 
ATOM      9  C   UNL     1       3.864   2.782   1.047  1.00  0.00     0.135 A 
ATOM     10  N   UNL     1       3.415   0.660   1.715  1.00  0.00    -0.179 NA
ATOM     11  C   UNL     1       4.474   2.606   2.262  1.00  0.00     0.081 A 
ATOM     12  C   UNL     1       4.072   1.313   2.669  1.00  0.00     0.161 A 
BRANCH  11  13
ATOM     13  N   UNL     1       5.289   3.534   2.881  1.00  0.00    -0.305 N 
ATOM     14  C   UNL     1       6.109   3.262   3.939  1.00  0.00     0.322 C 
ATOM     15  H   UNL     1       5.279   4.455   2.534  1.00  0.00     0.171 HD
ATOM     16  O   UNL     1       6.407   4.131   4.755  1.00  0.00    -0.248 OA
BRANCH  14  17
ATOM     17  N   UNL     1       6.540   1.969   4.046  1.00  0.00    -0.313 N 
ATOM     18  C   UNL     1       7.332   1.309   2.999  1.00  0.00     0.183 C 
ATOM     19  C   UNL     1       6.446   1.317   5.323  1.00  0.00     0.186 C 
ATOM     20  C   UNL     1       7.677  -0.137   3.353  1.00  0.00     0.284 C 
ATOM     21  C   UNL     1       7.742   0.620   5.705  1.00  0.00     0.204 C 
ATOM     22  N   UNL     1       8.336  -0.240   4.660  1.00  0.00    -0.330 N 
ATOM     23  C   UNL     1       7.438  -0.237   6.902  1.00  0.00     0.073 C 
ATOM     24  C   UNL     1       8.334  -1.618   5.101  1.00  0.00     0.262 C 
ATOM     25  H   UNL     1       9.290   0.096   4.523  1.00  0.00     0.348 HD
ATOM     26  C   UNL     1       7.727  -1.634   6.463  1.00  0.00     0.068 C 
ENDBRANCH  14  17
ENDBRANCH  11  13
ENDBRANCH   7   8
ENDBRANCH   5   7
ENDBRANCH   2   3
ENDBRANCH   1   2
BRANCH   1  27
ATOM     27  C   UNL     1       3.989  -3.726  -1.405  1.00  0.00     0.023 C 
BRANCH  27  28
ATOM     28  C   UNL     1       4.610  -4.431  -0.198  1.00  0.00     0.116 C 
BRANCH  28  29
ATOM     29  N   UNL     1       4.164  -5.809  -0.067  1.00  0.00    -0.352 N 
ATOM     30  C   UNL     1       4.589  -6.782   0.814  1.00  0.00     0.251 C 
ATOM     31  H   UNL     1       3.460  -6.087  -0.696  1.00  0.00     0.163 HD
ATOM     32  O   UNL     1       4.420  -7.959   0.532  1.00  0.00    -0.269 OA
BRANCH  30  33
ATOM     33  C   UNL     1       5.253  -6.427   2.092  1.00  0.00     0.039 A 
ATOM     34  C   UNL     1       6.269  -7.261   2.578  1.00  0.00     0.014 A 
ATOM     35  C   UNL     1       4.835  -5.333   2.854  1.00  0.00     0.014 A 
ATOM     36  C   UNL     1       6.899  -6.959   3.787  1.00  0.00     0.010 A 
ATOM     37  C   UNL     1       5.498  -4.999   4.033  1.00  0.00     0.010 A 
ATOM     38  C   UNL     1       6.537  -5.805   4.507  1.00  0.00    -0.014 A 
BRANCH  38  39
ATOM     39  C   UNL     1       7.475  -5.291   5.537  1.00  0.00     0.031 A 
ATOM     40  C   UNL     1       8.838  -5.011   4.936  1.00  0.00     0.074 A 
ATOM     41  C   UNL     1       7.092  -4.876   6.780  1.00  0.00     0.049 A 
ATOM     42  N   UNL     1      10.008  -5.257   5.423  1.00  0.00    -0.248 NA
ATOM     43  C   UNL     1       8.909  -4.444   3.562  1.00  0.00     0.031 C 
ATOM     44  C   UNL     1       5.705  -4.788   7.259  1.00  0.00     0.029 A 
ATOM     45  N   UNL     1       7.778  -4.288   7.829  1.00  0.00    -0.354 N 
ATOM     46  C   UNL     1      10.940  -4.696   4.538  1.00  0.00     0.074 A 
ATOM     47  C   UNL     1      10.220  -4.318   3.359  1.00  0.00     0.031 C 
ATOM     48  C   UNL     1       5.636  -3.971   8.337  1.00  0.00     0.029 A 
ATOM     49  C   UNL     1       6.972  -3.546   8.727  1.00  0.00     0.049 A 
ATOM     50  H   UNL     1       8.752  -4.380   7.942  1.00  0.00     0.167 HD
ATOM     51  C   UNL     1      12.194  -4.381   4.962  1.00  0.00     0.037 A 
ATOM     52  C   UNL     1       7.378  -2.560   9.596  1.00  0.00     0.037 A 
ATOM     53  C   UNL     1      12.492  -5.088   6.177  1.00  0.00     0.049 A 
ATOM     54  C   UNL     1       8.847  -2.710   9.813  1.00  0.00     0.074 A 
ATOM     55  C   UNL     1      12.859  -6.376   6.498  1.00  0.00     0.029 A 
ATOM     56  N   UNL     1      12.032  -4.487   7.317  1.00  0.00    -0.354 N 
ATOM     57  N   UNL     1       9.370  -3.756  10.379  1.00  0.00    -0.248 NA
ATOM     58  C   UNL     1       9.829  -1.802   9.208  1.00  0.00     0.031 C 
ATOM     59  C   UNL     1      12.452  -6.582   7.846  1.00  0.00     0.029 A 
ATOM     60  C   UNL     1      11.892  -5.404   8.327  1.00  0.00     0.049 A 
ATOM     61  H   UNL     1      11.829  -3.527   7.401  1.00  0.00     0.167 HD
ATOM     62  C   UNL     1      10.600  -3.882   9.772  1.00  0.00     0.074 A 
ATOM     63  C   UNL     1      10.912  -2.580   9.220  1.00  0.00     0.031 C 
ATOM     64  C   UNL     1      11.066  -5.120   9.467  1.00  0.00     0.037 A 
BRANCH  51  65
ATOM     65  C   UNL     1      12.996  -3.159   4.557  1.00  0.00     0.057 A 
ATOM     66  C   UNL     1      14.283  -2.980   5.107  1.00  0.00     0.134 A 
ATOM     67  C   UNL     1      12.463  -2.016   3.928  1.00  0.00     0.134 A 
ATOM     68  F   UNL     1      14.921  -3.993   5.715  1.00  0.00    -0.206 F 
ATOM     69  C   UNL     1      14.938  -1.741   5.125  1.00  0.00     0.040 A 
ATOM     70  C   UNL     1      13.125  -0.780   3.909  1.00  0.00     0.040 A 
ATOM     71  F   UNL     1      11.247  -2.006   3.371  1.00  0.00    -0.206 F 
ATOM     72  C   UNL     1      14.350  -0.630   4.540  1.00  0.00     0.006 A 
ENDBRANCH  51  65
BRANCH  52  73
ATOM     73  C   UNL     1       6.694  -1.304  10.095  1.00  0.00     0.057 A 
ATOM     74  C   UNL     1       7.403  -0.395  10.917  1.00  0.00     0.134 A 
ATOM     75  C   UNL     1       5.496  -0.788   9.571  1.00  0.00     0.134 A 
ATOM     76  F   UNL     1       8.536  -0.764  11.533  1.00  0.00    -0.206 F 
ATOM     77  C   UNL     1       7.038   0.952  11.073  1.00  0.00     0.040 A 
ATOM     78  C   UNL     1       5.107   0.555   9.738  1.00  0.00     0.040 A 
ATOM     79  F   UNL     1       4.713  -1.513   8.764  1.00  0.00    -0.206 F 
ATOM     80  C   UNL     1       5.900   1.441  10.453  1.00  0.00     0.006 A 
ENDBRANCH  52  73
BRANCH  64  81
ATOM     81  C   UNL     1      10.532  -6.228  10.312  1.00  0.00     0.057 A 
ATOM     82  C   UNL     1       9.198  -6.658  10.321  1.00  0.00     0.134 A 
ATOM     83  C   UNL     1      11.406  -6.848  11.203  1.00  0.00     0.134 A 
ATOM     84  F   UNL     1       8.307  -6.178   9.450  1.00  0.00    -0.206 F 
ATOM     85  C   UNL     1       8.735  -7.606  11.231  1.00  0.00     0.040 A 
ATOM     86  C   UNL     1      10.969  -7.831  12.088  1.00  0.00     0.040 A 
ATOM     87  F   UNL     1      12.703  -6.504  11.226  1.00  0.00    -0.206 F 
ATOM     88  C   UNL     1       9.624  -8.197  12.120  1.00  0.00     0.006 A 
ENDBRANCH  64  81
ENDBRANCH  38  39
ENDBRANCH  30  33
ENDBRANCH  28  29
ENDBRANCH  27  28
ENDBRANCH   1  27
TORSDOF 14
