REMARK SMILES Cc1ccc(S(=O)(=O)Nc2cccc(F)c2C(=O)NCCCCNC(=O)c2ccc(-c3c4nc(c(-c5c(F)cccc5F)c5ccc([nH]5)c(-c5c(F)cccc5F)c5nc(c(-c6c(F)cccc6F)c6ccc3[nH]6)C=C5)C=C4)cc2)cc1Cl
REMARK SMILES IDX 21 1 20 2 19 3 17 4 18 5 16 7 10 8 11 9 12 10 14 11 13 12
REMARK SMILES IDX 15 13 9 14 6 16 7 17 8 18 5 19 1 20 2 21 3 22 82 23 4 24
REMARK SMILES IDX 81 25 83 26 22 27 23 28 24 29 25 30 26 32 27 33 28 34 80 35
REMARK SMILES IDX 29 36 79 37 30 38 31 39 32 40 73 41 33 42 78 43 72 44 74 45
REMARK SMILES IDX 34 46 77 47 71 48 70 49 35 51 61 52 44 53 60 54 45 55 48 56
REMARK SMILES IDX 59 57 75 58 46 59 47 60 58 62 76 63 49 64 36 65 37 66 42 67
REMARK SMILES IDX 38 68 39 69 41 70 43 71 40 72 62 73 63 74 68 75 64 76 65 77
REMARK SMILES IDX 67 78 69 79 66 80 50 81 51 82 56 83 52 84 53 85 55 86 57 87
REMARK SMILES IDX 54 88
REMARK H PARENT 19 6 9 15 24 31 74 50 48 61
REMARK Flexibility Score: inf
ROOT
ATOM      1  C   UNL     1      -9.952   0.318   1.887  1.00  0.00     0.023 C 
ENDROOT
BRANCH   1   2
ATOM      2  C   UNL     1      -8.475   0.623   2.101  1.00  0.00     0.116 C 
BRANCH   2   3
ATOM      3  N   UNL     1      -7.637  -0.544   2.314  1.00  0.00    -0.352 N 
ATOM      4  C   UNL     1      -6.420  -0.903   1.783  1.00  0.00     0.256 C 
ATOM      5  O   UNL     1      -5.895  -1.930   2.220  1.00  0.00    -0.269 OA
ATOM      6  H   UNL     1      -8.007  -1.195   2.953  1.00  0.00     0.163 HD
BRANCH   4   7
ATOM      7  C   UNL     1      -5.759  -0.191   0.655  1.00  0.00     0.099 A 
ATOM      8  C   UNL     1      -4.987  -0.921  -0.282  1.00  0.00     0.065 A 
ATOM      9  C   UNL     1      -4.548  -0.308  -1.462  1.00  0.00     0.028 A 
ATOM     10  C   UNL     1      -4.713   1.066  -1.634  1.00  0.00     0.005 A 
ATOM     11  C   UNL     1      -5.780   1.195   0.525  1.00  0.00     0.138 A 
ATOM     12  C   UNL     1      -5.279   1.824  -0.613  1.00  0.00     0.040 A 
ATOM     13  F   UNL     1      -6.199   1.978   1.530  1.00  0.00    -0.206 F 
BRANCH   8  14
ATOM     14  N   UNL     1      -4.558  -2.252   0.037  1.00  0.00    -0.279 N 
ATOM     15  H   UNL     1      -5.234  -2.912   0.315  1.00  0.00     0.180 HD
BRANCH  14  16
ATOM     16  S   UNL     1      -2.939  -2.735  -0.043  1.00  0.00     0.261 S 
ATOM     17  O   UNL     1      -2.705  -3.147  -1.420  1.00  0.00    -0.201 OA
ATOM     18  O   UNL     1      -2.731  -3.647   1.049  1.00  0.00    -0.201 OA
BRANCH  16  19
ATOM     19  C   UNL     1      -1.843  -1.352   0.238  1.00  0.00     0.089 A 
ATOM     20  C   UNL     1       0.727   2.118   0.172  1.00  0.00     0.046 C 
ATOM     21  C   UNL     1      -0.128   0.882   0.222  1.00  0.00    -0.032 A 
ATOM     22  C   UNL     1      -1.377   0.935   0.862  1.00  0.00     0.006 A 
ATOM     23  C   UNL     1       0.295  -0.344  -0.310  1.00  0.00     0.045 A 
ATOM     24  C   UNL     1      -2.214  -0.188   0.906  1.00  0.00     0.022 A 
ATOM     25  C   UNL     1      -0.565  -1.443  -0.329  1.00  0.00     0.043 A 
ATOM     26  Cl  UNL     1       1.877  -0.550  -0.971  1.00  0.00    -0.084 Cl
ENDBRANCH  16  19
ENDBRANCH  14  16
ENDBRANCH   8  14
ENDBRANCH   4   7
ENDBRANCH   2   3
ENDBRANCH   1   2
BRANCH   1  27
ATOM     27  C   UNL     1     -10.685  -0.403   3.013  1.00  0.00     0.023 C 
BRANCH  27  28
ATOM     28  C   UNL     1     -10.516   0.167   4.415  1.00  0.00     0.116 C 
BRANCH  28  29
ATOM     29  N   UNL     1     -10.854   1.576   4.530  1.00  0.00    -0.352 N 
ATOM     30  C   UNL     1     -11.633   2.229   5.455  1.00  0.00     0.251 C 
ATOM     31  H   UNL     1     -10.462   2.154   3.835  1.00  0.00     0.163 HD
ATOM     32  O   UNL     1     -11.837   3.434   5.332  1.00  0.00    -0.269 OA
BRANCH  30  33
ATOM     33  C   UNL     1     -12.263   1.492   6.575  1.00  0.00     0.039 A 
ATOM     34  C   UNL     1     -13.586   1.795   6.915  1.00  0.00     0.014 A 
ATOM     35  C   UNL     1     -11.568   0.520   7.298  1.00  0.00     0.014 A 
ATOM     36  C   UNL     1     -14.227   1.081   7.930  1.00  0.00     0.010 A 
ATOM     37  C   UNL     1     -12.233  -0.248   8.251  1.00  0.00     0.010 A 
ATOM     38  C   UNL     1     -13.566   0.031   8.585  1.00  0.00    -0.014 A 
BRANCH  38  39
ATOM     39  C   UNL     1     -14.244  -0.765   9.641  1.00  0.00     0.031 A 
ATOM     40  C   UNL     1     -13.731  -0.735  11.055  1.00  0.00     0.074 A 
ATOM     41  C   UNL     1     -15.288  -1.554   9.323  1.00  0.00     0.049 A 
ATOM     42  N   UNL     1     -14.157  -1.392  12.104  1.00  0.00    -0.248 NA
ATOM     43  C   UNL     1     -12.565   0.123  11.320  1.00  0.00     0.031 C 
ATOM     44  C   UNL     1     -15.848  -1.717   7.980  1.00  0.00     0.029 A 
ATOM     45  N   UNL     1     -16.065  -2.369  10.108  1.00  0.00    -0.354 N 
ATOM     46  C   UNL     1     -13.301  -1.044  13.141  1.00  0.00     0.074 A 
ATOM     47  C   UNL     1     -12.299  -0.162  12.585  1.00  0.00     0.031 C 
ATOM     48  C   UNL     1     -16.898  -2.552   8.041  1.00  0.00     0.029 A 
ATOM     49  C   UNL     1     -17.069  -3.004   9.419  1.00  0.00     0.049 A 
ATOM     50  H   UNL     1     -15.915  -2.489  11.074  1.00  0.00     0.167 HD
ATOM     51  C   UNL     1     -13.360  -1.403  14.445  1.00  0.00     0.037 A 
ATOM     52  C   UNL     1     -18.027  -3.846   9.850  1.00  0.00     0.037 A 
ATOM     53  C   UNL     1     -14.381  -2.245  15.007  1.00  0.00     0.049 A 
ATOM     54  C   UNL     1     -18.101  -4.197  11.309  1.00  0.00     0.074 A 
ATOM     55  C   UNL     1     -14.559  -2.620  16.327  1.00  0.00     0.029 A 
ATOM     56  N   UNL     1     -15.405  -2.835  14.281  1.00  0.00    -0.354 N 
ATOM     57  N   UNL     1     -17.317  -3.817  12.289  1.00  0.00    -0.248 NA
ATOM     58  C   UNL     1     -19.200  -5.080  11.726  1.00  0.00     0.031 C 
ATOM     59  C   UNL     1     -15.674  -3.461  16.396  1.00  0.00     0.029 A 
ATOM     60  C   UNL     1     -16.215  -3.576  15.126  1.00  0.00     0.049 A 
ATOM     61  H   UNL     1     -15.536  -2.742  13.310  1.00  0.00     0.167 HD
ATOM     62  C   UNL     1     -17.841  -4.391  13.440  1.00  0.00     0.074 A 
ATOM     63  C   UNL     1     -19.015  -5.138  13.039  1.00  0.00     0.031 C 
ATOM     64  C   UNL     1     -17.388  -4.303  14.714  1.00  0.00     0.037 A 
BRANCH  51  65
ATOM     65  C   UNL     1     -12.295  -0.869  15.358  1.00  0.00     0.057 A 
ATOM     66  C   UNL     1     -11.327  -1.719  15.905  1.00  0.00     0.134 A 
ATOM     67  C   UNL     1     -12.250   0.483  15.724  1.00  0.00     0.134 A 
ATOM     68  F   UNL     1     -11.316  -3.026  15.601  1.00  0.00    -0.206 F 
ATOM     69  C   UNL     1     -10.352  -1.244  16.785  1.00  0.00     0.040 A 
ATOM     70  C   UNL     1     -11.264   0.975  16.581  1.00  0.00     0.040 A 
ATOM     71  F   UNL     1     -13.141   1.353  15.224  1.00  0.00    -0.206 F 
ATOM     72  C   UNL     1     -10.316   0.108  17.120  1.00  0.00     0.006 A 
ENDBRANCH  51  65
BRANCH  52  73
ATOM     73  C   UNL     1     -19.033  -4.364   8.889  1.00  0.00     0.057 A 
ATOM     74  C   UNL     1     -18.703  -5.326   7.927  1.00  0.00     0.134 A 
ATOM     75  C   UNL     1     -20.345  -3.877   8.894  1.00  0.00     0.134 A 
ATOM     76  F   UNL     1     -17.459  -5.823   7.866  1.00  0.00    -0.206 F 
ATOM     77  C   UNL     1     -19.639  -5.776   6.995  1.00  0.00     0.040 A 
ATOM     78  C   UNL     1     -21.297  -4.333   7.980  1.00  0.00     0.040 A 
ATOM     79  F   UNL     1     -20.723  -2.966   9.802  1.00  0.00    -0.206 F 
ATOM     80  C   UNL     1     -20.942  -5.280   7.022  1.00  0.00     0.006 A 
ENDBRANCH  52  73
BRANCH  64  81
ATOM     81  C   UNL     1     -18.178  -5.001  15.781  1.00  0.00     0.057 A 
ATOM     82  C   UNL     1     -18.921  -4.264  16.712  1.00  0.00     0.134 A 
ATOM     83  C   UNL     1     -18.148  -6.393  15.931  1.00  0.00     0.134 A 
ATOM     84  F   UNL     1     -18.982  -2.926  16.629  1.00  0.00    -0.206 F 
ATOM     85  C   UNL     1     -19.597  -4.886  17.762  1.00  0.00     0.040 A 
ATOM     86  C   UNL     1     -18.839  -7.028  16.964  1.00  0.00     0.040 A 
ATOM     87  F   UNL     1     -17.462  -7.155  15.066  1.00  0.00    -0.206 F 
ATOM     88  C   UNL     1     -19.559  -6.273  17.888  1.00  0.00     0.006 A 
ENDBRANCH  64  81
ENDBRANCH  38  39
ENDBRANCH  30  33
ENDBRANCH  28  29
ENDBRANCH  27  28
ENDBRANCH   1  27
TORSDOF 14
