REMARK SMILES Cc1cccc(NC(=O)[C@H]2CCCCC[C@@H]2[NH3+])c1C(=O)NCCCCNC(=O)c1ccc(-c2c3nc(c(-c4c(F)cccc4F)c4ccc([nH]4)c(-c4c(F)cccc4F)c4nc(c(-c5c(F)cccc5F)c5ccc2[nH]5)C=C4)C=C3)cc1
REMARK SMILES IDX 22 1 21 2 19 3 20 4 18 6 1 7 2 8 3 9 4 10 6 11 5 12 7 13
REMARK SMILES IDX 8 14 9 16 10 17 11 18 12 19 13 20 16 22 15 23 14 24 17 26
REMARK SMILES IDX 23 30 24 31 25 32 26 33 27 34 28 36 29 37 30 38 82 39 31 40
REMARK SMILES IDX 81 41 32 42 33 43 34 44 75 45 35 46 80 47 74 48 76 49 36 50
REMARK SMILES IDX 79 51 73 52 72 53 37 55 63 56 46 57 62 58 47 59 50 60 61 61
REMARK SMILES IDX 77 62 48 63 49 64 60 66 78 67 51 68 38 69 39 70 44 71 40 72
REMARK SMILES IDX 41 73 43 74 45 75 42 76 64 77 65 78 70 79 66 80 67 81 69 82
REMARK SMILES IDX 71 83 68 84 52 85 53 86 58 87 54 88 55 89 57 90 59 91 56 92
REMARK H PARENT 21 5 7 15 17 27 17 28 17 29 26 35 76 54 50 65
REMARK Flexibility Score: 90.00
ROOT
ATOM      1  C   UNL     1      -6.757   6.898   4.030  1.00  0.00     0.116 C 
ENDROOT
BRANCH   1   2
ATOM      2  N   UNL     1      -6.872   5.490   3.708  1.00  0.00    -0.352 N 
ATOM      3  C   UNL     1      -6.482   4.665   2.685  1.00  0.00     0.253 C 
ATOM      4  O   UNL     1      -6.956   3.526   2.776  1.00  0.00    -0.269 OA
ATOM      5  H   UNL     1      -7.358   4.996   4.407  1.00  0.00     0.163 HD
BRANCH   3   6
ATOM      6  C   UNL     1      -5.489   4.942   1.574  1.00  0.00     0.066 A 
ATOM      7  C   UNL     1      -6.280   7.341   0.932  1.00  0.00     0.045 C 
ATOM      8  C   UNL     1      -5.359   6.165   0.861  1.00  0.00    -0.036 A 
ATOM      9  C   UNL     1      -4.354   6.308  -0.116  1.00  0.00     0.004 A 
ATOM     10  C   UNL     1      -3.551   5.247  -0.478  1.00  0.00     0.002 A 
ATOM     11  C   UNL     1      -4.693   3.816   1.130  1.00  0.00     0.054 A 
ATOM     12  C   UNL     1      -3.735   4.014   0.128  1.00  0.00     0.027 A 
BRANCH  11  13
ATOM     13  N   UNL     1      -4.883   2.532   1.718  1.00  0.00    -0.325 N 
ATOM     14  C   UNL     1      -4.527   1.238   1.454  1.00  0.00     0.233 C 
ATOM     15  H   UNL     1      -5.417   2.593   2.543  1.00  0.00     0.169 HD
ATOM     16  O   UNL     1      -4.792   0.413   2.337  1.00  0.00    -0.274 OA
BRANCH  14  17
ATOM     17  C   UNL     1      -3.895   0.779   0.131  1.00  0.00     0.137 C 
BRANCH  17  18
ATOM     18  C   UNL     1      -3.234  -0.616   0.207  1.00  0.00     0.020 C 
BRANCH  18  19
ATOM     19  C   UNL     1      -4.146  -1.825   0.394  1.00  0.00     0.001 C 
BRANCH  19  20
ATOM     20  C   UNL     1      -4.718  -2.413  -0.888  1.00  0.00     0.000 CG0
ATOM     21  G   UNL     1      -5.323  -1.436  -1.887  1.00  0.00     0.000 G0
ENDBRANCH  19  20
ENDBRANCH  18  19
ENDBRANCH  17  18
BRANCH  17  22
ATOM     22  C   UNL     1      -4.875   0.991  -1.045  1.00  0.00     0.193 C 
BRANCH  22  23
ATOM     23  C   UNL     1      -5.889  -0.145  -1.296  1.00  0.00     0.066 C 
BRANCH  23  24
ATOM     24  C   UNL     1      -5.323  -1.436  -1.887  1.00  0.00     0.006 CG0
ATOM     25  G   UNL     1      -4.718  -2.413  -0.888  1.00  0.00     0.000 G0
ENDBRANCH  23  24
ENDBRANCH  22  23
BRANCH  22  26
ATOM     26  N   UNL     1      -4.128   1.315  -2.275  1.00  0.00    -0.354 N 
ATOM     27  H   UNL     1      -3.553   0.516  -2.543  1.00  0.00     0.344 HD
ATOM     28  H   UNL     1      -3.530   2.124  -2.107  1.00  0.00     0.344 HD
ATOM     29  H   UNL     1      -4.785   1.528  -3.026  1.00  0.00     0.344 HD
ENDBRANCH  22  26
ENDBRANCH  17  22
ENDBRANCH  14  17
ENDBRANCH  11  13
ENDBRANCH   3   6
ENDBRANCH   1   2
BRANCH   1  30
ATOM     30  C   UNL     1      -8.006   7.653   3.535  1.00  0.00     0.023 C 
BRANCH  30  31
ATOM     31  C   UNL     1      -9.253   7.500   4.404  1.00  0.00     0.023 C 
BRANCH  31  32
ATOM     32  C   UNL     1      -9.287   8.481   5.560  1.00  0.00     0.116 C 
BRANCH  32  33
ATOM     33  N   UNL     1      -9.742   9.825   5.208  1.00  0.00    -0.352 N 
ATOM     34  C   UNL     1      -9.732  10.983   5.970  1.00  0.00     0.251 C 
ATOM     35  H   UNL     1     -10.107   9.921   4.299  1.00  0.00     0.163 HD
ATOM     36  O   UNL     1     -10.200  12.023   5.512  1.00  0.00    -0.269 OA
BRANCH  34  37
ATOM     37  C   UNL     1      -9.005  11.005   7.264  1.00  0.00     0.039 A 
ATOM     38  C   UNL     1      -8.118  12.066   7.483  1.00  0.00     0.014 A 
ATOM     39  C   UNL     1      -8.937   9.867   8.057  1.00  0.00     0.014 A 
ATOM     40  C   UNL     1      -6.976  11.845   8.244  1.00  0.00     0.010 A 
ATOM     41  C   UNL     1      -7.741   9.592   8.685  1.00  0.00     0.010 A 
ATOM     42  C   UNL     1      -6.726  10.554   8.701  1.00  0.00    -0.014 A 
BRANCH  42  43
ATOM     43  C   UNL     1      -5.389  10.078   9.042  1.00  0.00     0.031 A 
ATOM     44  C   UNL     1      -5.071   9.667  10.423  1.00  0.00     0.074 A 
ATOM     45  C   UNL     1      -4.482   9.903   8.053  1.00  0.00     0.049 A 
ATOM     46  N   UNL     1      -3.877   9.570  10.901  1.00  0.00    -0.248 NA
ATOM     47  C   UNL     1      -6.105   9.388  11.409  1.00  0.00     0.031 C 
ATOM     48  C   UNL     1      -3.228   9.158   8.119  1.00  0.00     0.029 A 
ATOM     49  N   UNL     1      -4.434  10.555   6.811  1.00  0.00    -0.354 N 
ATOM     50  C   UNL     1      -3.962   8.946  12.127  1.00  0.00     0.074 A 
ATOM     51  C   UNL     1      -5.372   8.948  12.434  1.00  0.00     0.031 C 
ATOM     52  C   UNL     1      -2.416   9.589   7.141  1.00  0.00     0.029 A 
ATOM     53  C   UNL     1      -3.065  10.726   6.511  1.00  0.00     0.049 A 
ATOM     54  H   UNL     1      -5.200  10.836   6.261  1.00  0.00     0.167 HD
ATOM     55  C   UNL     1      -2.838   8.380  12.657  1.00  0.00     0.037 A 
ATOM     56  C   UNL     1      -2.516  11.970   6.400  1.00  0.00     0.037 A 
ATOM     57  C   UNL     1      -1.656   8.743  11.866  1.00  0.00     0.049 A 
ATOM     58  C   UNL     1      -1.427  12.255   7.410  1.00  0.00     0.074 A 
ATOM     59  C   UNL     1      -0.918   8.068  10.907  1.00  0.00     0.029 A 
ATOM     60  N   UNL     1      -1.263  10.077  11.792  1.00  0.00    -0.354 N 
ATOM     61  N   UNL     1      -1.224  11.537   8.481  1.00  0.00    -0.248 NA
ATOM     62  C   UNL     1      -0.507  13.386   7.318  1.00  0.00     0.031 C 
ATOM     63  C   UNL     1      -0.136   9.018  10.202  1.00  0.00     0.029 A 
ATOM     64  C   UNL     1      -0.377  10.267  10.748  1.00  0.00     0.049 A 
ATOM     65  H   UNL     1      -1.573  10.787  12.399  1.00  0.00     0.167 HD
ATOM     66  C   UNL     1      -0.223  12.101   9.229  1.00  0.00     0.074 A 
ATOM     67  C   UNL     1       0.214  13.240   8.444  1.00  0.00     0.031 C 
ATOM     68  C   UNL     1       0.143  11.593  10.442  1.00  0.00     0.037 A 
BRANCH  55  69
ATOM     69  C   UNL     1      -2.839   7.255  13.685  1.00  0.00     0.057 A 
ATOM     70  C   UNL     1      -1.730   6.390  13.800  1.00  0.00     0.134 A 
ATOM     71  C   UNL     1      -3.913   6.898  14.521  1.00  0.00     0.134 A 
ATOM     72  F   UNL     1      -0.572   6.641  13.176  1.00  0.00    -0.206 F 
ATOM     73  C   UNL     1      -1.744   5.214  14.566  1.00  0.00     0.040 A 
ATOM     74  C   UNL     1      -3.957   5.707  15.264  1.00  0.00     0.040 A 
ATOM     75  F   UNL     1      -4.955   7.705  14.728  1.00  0.00    -0.206 F 
ATOM     76  C   UNL     1      -2.876   4.847  15.273  1.00  0.00     0.006 A 
ENDBRANCH  55  69
BRANCH  56  77
ATOM     77  C   UNL     1      -3.457  12.979   5.848  1.00  0.00     0.057 A 
ATOM     78  C   UNL     1      -3.889  12.834   4.518  1.00  0.00     0.134 A 
ATOM     79  C   UNL     1      -4.210  13.817   6.674  1.00  0.00     0.134 A 
ATOM     80  F   UNL     1      -3.210  12.043   3.671  1.00  0.00    -0.206 F 
ATOM     81  C   UNL     1      -5.081  13.402   4.061  1.00  0.00     0.040 A 
ATOM     82  C   UNL     1      -5.402  14.400   6.224  1.00  0.00     0.040 A 
ATOM     83  F   UNL     1      -3.877  13.985   7.962  1.00  0.00    -0.206 F 
ATOM     84  C   UNL     1      -5.860  14.161   4.929  1.00  0.00     0.006 A 
ENDBRANCH  56  77
BRANCH  68  85
ATOM     85  C   UNL     1       1.071  12.256  11.427  1.00  0.00     0.057 A 
ATOM     86  C   UNL     1       1.189  13.644  11.587  1.00  0.00     0.134 A 
ATOM     87  C   UNL     1       1.777  11.479  12.372  1.00  0.00     0.134 A 
ATOM     88  F   UNL     1       0.494  14.498  10.824  1.00  0.00    -0.206 F 
ATOM     89  C   UNL     1       1.990  14.219  12.584  1.00  0.00     0.040 A 
ATOM     90  C   UNL     1       2.536  12.041  13.402  1.00  0.00     0.040 A 
ATOM     91  F   UNL     1       1.740  10.138  12.348  1.00  0.00    -0.206 F 
ATOM     92  C   UNL     1       2.655  13.418  13.504  1.00  0.00     0.006 A 
ENDBRANCH  68  85
ENDBRANCH  42  43
ENDBRANCH  34  37
ENDBRANCH  32  33
ENDBRANCH  31  32
ENDBRANCH  30  31
ENDBRANCH   1  30
TORSDOF 14
