REMARK SMILES NS(=O)(=O)c1ccc(-n2nc(C(=O)NCCCCNC(=O)c3ccc(-c4c5nc(c(-c6c(F)cccc6F)c6ccc([nH]6)c(-c6c(F)cccc6F)c6nc(c(-c7c(F)cccc7F)c7ccc4[nH]7)C=C6)C=C5)cc3)c(Cl)c2-c2ccc(Cl)cc2)cc1
REMARK SMILES IDX 16 1 15 2 14 3 12 4 13 5 11 7 9 8 10 9 78 10 76 11 77 12
REMARK SMILES IDX 8 13 5 14 6 15 87 16 7 17 86 18 2 19 3 20 4 21 1 22 79 25
REMARK SMILES IDX 80 26 85 27 81 28 84 29 82 30 83 31 17 32 18 33 19 34 20 35
REMARK SMILES IDX 21 37 22 38 23 39 75 40 24 41 74 42 25 43 26 44 27 45 68 46
REMARK SMILES IDX 28 47 73 48 67 49 69 50 29 51 72 52 66 53 65 54 30 56 56 57
REMARK SMILES IDX 39 58 55 59 40 60 43 61 54 62 70 63 41 64 42 65 53 67 71 68
REMARK SMILES IDX 44 69 31 70 32 71 37 72 33 73 34 74 36 75 38 76 35 77 57 78
REMARK SMILES IDX 58 79 63 80 59 81 60 82 62 83 64 84 61 85 45 86 46 87 51 88
REMARK SMILES IDX 47 89 48 90 50 91 52 92 49 93
REMARK H PARENT 14 6 1 23 1 24 19 36 69 55 43 66
REMARK Flexibility Score: inf
ROOT
ATOM      1  C   UNL     1       6.317  -0.328 -11.249  1.00  0.00     0.023 C 
ENDROOT
BRANCH   1   2
ATOM      2  C   UNL     1       4.866   0.182 -11.186  1.00  0.00     0.116 C 
BRANCH   2   3
ATOM      3  N   UNL     1       3.912  -0.913 -11.089  1.00  0.00    -0.351 N 
ATOM      4  C   UNL     1       3.187  -1.461 -10.046  1.00  0.00     0.273 C 
ATOM      5  O   UNL     1       2.394  -2.348 -10.382  1.00  0.00    -0.267 OA
ATOM      6  H   UNL     1       3.747  -1.359 -11.951  1.00  0.00     0.163 HD
BRANCH   4   7
ATOM      7  C   UNL     1       3.273  -0.991  -8.644  1.00  0.00     0.169 A 
ATOM      8  N   UNL     1       2.564  -0.591  -6.638  1.00  0.00    -0.231 N 
ATOM      9  N   UNL     1       2.234  -1.210  -7.797  1.00  0.00    -0.160 NA
ATOM     10  C   UNL     1       3.760   0.087  -6.741  1.00  0.00     0.094 A 
ATOM     11  C   UNL     1       4.321  -0.398  -7.907  1.00  0.00     0.100 A 
ATOM     12  Cl  UNL     1       5.990  -0.323  -8.210  1.00  0.00    -0.079 Cl
BRANCH   8  13
ATOM     13  C   UNL     1       1.840  -0.811  -5.439  1.00  0.00     0.065 A 
ATOM     14  C   UNL     1       0.862  -1.275  -2.875  1.00  0.00     0.082 A 
ATOM     15  C   UNL     1       1.153  -2.360  -3.712  1.00  0.00     0.024 A 
ATOM     16  C   UNL     1       1.013   0.038  -3.330  1.00  0.00     0.024 A 
ATOM     17  C   UNL     1       1.614  -2.128  -5.013  1.00  0.00     0.030 A 
ATOM     18  C   UNL     1       1.524   0.271  -4.608  1.00  0.00     0.030 A 
BRANCH  14  19
ATOM     19  S   UNL     1       0.404  -1.576  -1.192  1.00  0.00     0.238 S 
ATOM     20  O   UNL     1       1.088  -2.754  -0.723  1.00  0.00    -0.207 OA
ATOM     21  O   UNL     1      -1.025  -1.389  -1.065  1.00  0.00    -0.207 OA
BRANCH  19  22
ATOM     22  N   UNL     1       1.116  -0.299  -0.355  1.00  0.00    -0.225 NA
ATOM     23  H   UNL     1       0.906  -0.385   0.639  1.00  0.00     0.137 HD
ATOM     24  H   UNL     1       0.747   0.585  -0.706  1.00  0.00     0.137 HD
ENDBRANCH  19  22
ENDBRANCH  14  19
ENDBRANCH   8  13
BRANCH  10  25
ATOM     25  C   UNL     1       4.477   0.836  -5.717  1.00  0.00     0.002 A 
ATOM     26  C   UNL     1       4.701   2.204  -5.931  1.00  0.00     0.012 A 
ATOM     27  C   UNL     1       5.189   0.159  -4.720  1.00  0.00     0.012 A 
ATOM     28  C   UNL     1       5.681   2.874  -5.200  1.00  0.00     0.021 A 
ATOM     29  C   UNL     1       6.170   0.832  -3.991  1.00  0.00     0.021 A 
ATOM     30  C   UNL     1       6.427   2.178  -4.251  1.00  0.00     0.041 A 
ATOM     31  Cl  UNL     1       7.717   2.971  -3.436  1.00  0.00    -0.084 Cl
ENDBRANCH  10  25
ENDBRANCH   4   7
ENDBRANCH   2   3
ENDBRANCH   1   2
BRANCH   1  32
ATOM     32  C   UNL     1       6.895  -0.644 -12.629  1.00  0.00     0.023 C 
BRANCH  32  33
ATOM     33  C   UNL     1       7.163   0.578 -13.494  1.00  0.00     0.116 C 
BRANCH  33  34
ATOM     34  N   UNL     1       8.164   1.488 -12.932  1.00  0.00    -0.352 N 
ATOM     35  C   UNL     1       8.519   2.737 -13.407  1.00  0.00     0.251 C 
ATOM     36  H   UNL     1       8.635   1.175 -12.126  1.00  0.00     0.163 HD
ATOM     37  O   UNL     1       9.599   3.245 -13.135  1.00  0.00    -0.269 OA
BRANCH  35  38
ATOM     38  C   UNL     1       7.548   3.458 -14.247  1.00  0.00     0.039 A 
ATOM     39  C   UNL     1       7.931   4.084 -15.435  1.00  0.00     0.014 A 
ATOM     40  C   UNL     1       6.215   3.428 -13.845  1.00  0.00     0.014 A 
ATOM     41  C   UNL     1       6.938   4.598 -16.267  1.00  0.00     0.010 A 
ATOM     42  C   UNL     1       5.234   3.799 -14.730  1.00  0.00     0.010 A 
ATOM     43  C   UNL     1       5.587   4.423 -15.922  1.00  0.00    -0.014 A 
BRANCH  43  44
ATOM     44  C   UNL     1       4.526   4.739 -16.876  1.00  0.00     0.031 A 
ATOM     45  C   UNL     1       4.692   4.074 -18.199  1.00  0.00     0.074 A 
ATOM     46  C   UNL     1       3.384   5.376 -16.529  1.00  0.00     0.049 A 
ATOM     47  N   UNL     1       4.944   4.635 -19.334  1.00  0.00    -0.248 NA
ATOM     48  C   UNL     1       4.743   2.601 -18.245  1.00  0.00     0.031 C 
ATOM     49  C   UNL     1       2.962   5.805 -15.190  1.00  0.00     0.029 A 
ATOM     50  N   UNL     1       2.299   5.691 -17.292  1.00  0.00    -0.354 N 
ATOM     51  C   UNL     1       4.945   3.609 -20.276  1.00  0.00     0.074 A 
ATOM     52  C   UNL     1       5.023   2.381 -19.531  1.00  0.00     0.031 C 
ATOM     53  C   UNL     1       1.643   6.100 -15.197  1.00  0.00     0.029 A 
ATOM     54  C   UNL     1       1.167   6.056 -16.566  1.00  0.00     0.049 A 
ATOM     55  H   UNL     1       2.315   5.664 -18.276  1.00  0.00     0.167 HD
ATOM     56  C   UNL     1       4.590   3.854 -21.567  1.00  0.00     0.037 A 
ATOM     57  C   UNL     1      -0.077   6.298 -17.052  1.00  0.00     0.037 A 
ATOM     58  C   UNL     1       4.638   5.269 -21.849  1.00  0.00     0.049 A 
ATOM     59  C   UNL     1       0.069   6.572 -18.499  1.00  0.00     0.074 A 
ATOM     60  C   UNL     1       5.614   6.245 -21.819  1.00  0.00     0.029 A 
ATOM     61  N   UNL     1       3.438   5.934 -21.854  1.00  0.00    -0.354 N 
ATOM     62  N   UNL     1       0.654   7.631 -18.982  1.00  0.00    -0.248 NA
ATOM     63  C   UNL     1      -0.055   5.451 -19.415  1.00  0.00     0.031 C 
ATOM     64  C   UNL     1       4.951   7.418 -21.348  1.00  0.00     0.029 A 
ATOM     65  C   UNL     1       3.596   7.120 -21.191  1.00  0.00     0.049 A 
ATOM     66  H   UNL     1       2.604   5.612 -22.265  1.00  0.00     0.167 HD
ATOM     67  C   UNL     1       1.370   7.163 -20.072  1.00  0.00     0.074 A 
ATOM     68  C   UNL     1       0.803   5.846 -20.358  1.00  0.00     0.031 C 
ATOM     69  C   UNL     1       2.540   7.762 -20.441  1.00  0.00     0.037 A 
BRANCH  56  70
ATOM     70  C   UNL     1       3.776   2.905 -22.424  1.00  0.00     0.057 A 
ATOM     71  C   UNL     1       3.518   3.252 -23.765  1.00  0.00     0.134 A 
ATOM     72  C   UNL     1       2.982   1.853 -21.922  1.00  0.00     0.134 A 
ATOM     73  F   UNL     1       4.195   4.244 -24.362  1.00  0.00    -0.206 F 
ATOM     74  C   UNL     1       2.491   2.661 -24.512  1.00  0.00     0.040 A 
ATOM     75  C   UNL     1       1.988   1.222 -22.677  1.00  0.00     0.040 A 
ATOM     76  F   UNL     1       3.044   1.442 -20.651  1.00  0.00    -0.206 F 
ATOM     77  C   UNL     1       1.714   1.649 -23.965  1.00  0.00     0.006 A 
ENDBRANCH  56  70
BRANCH  57  78
ATOM     78  C   UNL     1      -1.405   6.056 -16.441  1.00  0.00     0.057 A 
ATOM     79  C   UNL     1      -2.566   6.635 -16.976  1.00  0.00     0.134 A 
ATOM     80  C   UNL     1      -1.606   5.016 -15.518  1.00  0.00     0.134 A 
ATOM     81  F   UNL     1      -2.480   7.611 -17.892  1.00  0.00    -0.206 F 
ATOM     82  C   UNL     1      -3.850   6.181 -16.645  1.00  0.00     0.040 A 
ATOM     83  C   UNL     1      -2.883   4.555 -15.175  1.00  0.00     0.040 A 
ATOM     84  F   UNL     1      -0.568   4.349 -14.992  1.00  0.00    -0.206 F 
ATOM     85  C   UNL     1      -4.011   5.126 -15.753  1.00  0.00     0.006 A 
ENDBRANCH  57  78
BRANCH  69  86
ATOM     86  C   UNL     1       2.849   9.113 -19.852  1.00  0.00     0.057 A 
ATOM     87  C   UNL     1       3.066   9.364 -18.488  1.00  0.00     0.134 A 
ATOM     88  C   UNL     1       3.060  10.182 -20.730  1.00  0.00     0.134 A 
ATOM     89  F   UNL     1       2.977   8.388 -17.577  1.00  0.00    -0.206 F 
ATOM     90  C   UNL     1       3.436  10.630 -18.020  1.00  0.00     0.040 A 
ATOM     91  C   UNL     1       3.464  11.441 -20.280  1.00  0.00     0.040 A 
ATOM     92  F   UNL     1       2.919  10.006 -22.053  1.00  0.00    -0.206 F 
ATOM     93  C   UNL     1       3.643  11.671 -18.919  1.00  0.00     0.006 A 
ENDBRANCH  69  86
ENDBRANCH  43  44
ENDBRANCH  35  38
ENDBRANCH  33  34
ENDBRANCH  32  33
ENDBRANCH   1  32
TORSDOF 15
