REMARK SMILES O=C(NCCCCNC(=O)[C@H]1CCCCN1c1cc(-c2ccccc2)nc(-c2cccc(Cl)c2)n1)c1ccc(-c2c3nc(c(-c4c(F)cccc4F)c4ccc([nH]4)c(-c4c(F)cccc4F)c4nc(c(-c5c(F)cccc5F)c5ccc2[nH]5)C=C4)C=C3)cc1
REMARK SMILES IDX 5 1 4 2 3 3 1 4 2 5 36 7 37 8 89 9 38 10 88 11 39 12 40 13
REMARK SMILES IDX 41 14 82 15 42 16 87 17 81 18 83 19 43 20 86 21 80 22 79 23
REMARK SMILES IDX 44 25 70 26 53 27 69 28 54 29 57 30 68 31 84 32 55 33 56 34
REMARK SMILES IDX 67 36 85 37 58 38 45 39 46 40 51 41 47 42 48 43 50 44 52 45
REMARK SMILES IDX 49 46 71 47 72 48 77 49 73 50 74 51 76 52 78 53 75 54 59 55
REMARK SMILES IDX 60 56 65 57 61 58 62 59 64 60 66 61 63 62 6 63 7 64 8 65
REMARK SMILES IDX 9 66 10 68 11 69 12 70 16 71 13 72 15 73 14 74 17 75 18 76
REMARK SMILES IDX 35 77 19 78 27 79 26 80 20 81 21 82 25 83 22 84 24 85 23 86
REMARK SMILES IDX 28 87 29 88 34 89 30 90 32 91 31 92 33 93
REMARK H PARENT 3 6 83 24 57 35 8 67
REMARK Flexibility Score: inf
ROOT
ATOM      1  C   UNL     1      10.564  -2.407  -6.050  1.00  0.00     0.023 C 
ENDROOT
BRANCH   1   2
ATOM      2  C   UNL     1      10.303  -1.058  -6.711  1.00  0.00     0.116 C 
BRANCH   2   3
ATOM      3  N   UNL     1      10.609   0.076  -5.853  1.00  0.00    -0.352 N 
ATOM      4  O   UNL     1      11.577   2.022  -5.245  1.00  0.00    -0.269 OA
ATOM      5  C   UNL     1      11.334   1.210  -6.134  1.00  0.00     0.251 C 
ATOM      6  H   UNL     1      10.244   0.023  -4.939  1.00  0.00     0.163 HD
BRANCH   5   7
ATOM      7  C   UNL     1      11.858   1.434  -7.499  1.00  0.00     0.039 A 
ATOM      8  C   UNL     1      11.051   1.232  -8.620  1.00  0.00     0.014 A 
ATOM      9  C   UNL     1      13.189   1.833  -7.657  1.00  0.00     0.014 A 
ATOM     10  C   UNL     1      11.617   1.266  -9.891  1.00  0.00     0.010 A 
ATOM     11  C   UNL     1      13.734   1.947  -8.940  1.00  0.00     0.010 A 
ATOM     12  C   UNL     1      12.966   1.617 -10.066  1.00  0.00    -0.014 A 
BRANCH  12  13
ATOM     13  C   UNL     1      13.540   1.635 -11.437  1.00  0.00     0.031 A 
ATOM     14  C   UNL     1      14.617   0.664 -11.841  1.00  0.00     0.074 A 
ATOM     15  C   UNL     1      13.044   2.502 -12.341  1.00  0.00     0.049 A 
ATOM     16  N   UNL     1      15.181   0.500 -13.012  1.00  0.00    -0.248 NA
ATOM     17  C   UNL     1      15.137  -0.233 -10.798  1.00  0.00     0.031 C 
ATOM     18  C   UNL     1      12.011   3.503 -12.068  1.00  0.00     0.029 A 
ATOM     19  N   UNL     1      13.321   2.663 -13.674  1.00  0.00    -0.354 N 
ATOM     20  C   UNL     1      16.134  -0.496 -12.842  1.00  0.00     0.074 A 
ATOM     21  C   UNL     1      16.090  -0.886 -11.449  1.00  0.00     0.031 C 
ATOM     22  C   UNL     1      11.699   4.133 -13.210  1.00  0.00     0.029 A 
ATOM     23  C   UNL     1      12.542   3.617 -14.282  1.00  0.00     0.049 A 
ATOM     24  H   UNL     1      14.010   2.146 -14.149  1.00  0.00     0.167 HD
ATOM     25  C   UNL     1      16.965  -1.043 -13.763  1.00  0.00     0.037 A 
ATOM     26  C   UNL     1      12.509   4.031 -15.562  1.00  0.00     0.037 A 
ATOM     27  C   UNL     1      16.988  -0.678 -15.157  1.00  0.00     0.049 A 
ATOM     28  C   UNL     1      13.430   3.400 -16.564  1.00  0.00     0.074 A 
ATOM     29  C   UNL     1      17.764  -1.208 -16.174  1.00  0.00     0.029 A 
ATOM     30  N   UNL     1      16.198   0.307 -15.729  1.00  0.00    -0.354 N 
ATOM     31  N   UNL     1      14.299   2.434 -16.393  1.00  0.00    -0.248 NA
ATOM     32  C   UNL     1      13.366   3.919 -17.937  1.00  0.00     0.031 C 
ATOM     33  C   UNL     1      17.467  -0.519 -17.356  1.00  0.00     0.029 A 
ATOM     34  C   UNL     1      16.479   0.412 -17.082  1.00  0.00     0.049 A 
ATOM     35  H   UNL     1      15.535   0.851 -15.246  1.00  0.00     0.167 HD
ATOM     36  C   UNL     1      14.872   2.215 -17.638  1.00  0.00     0.074 A 
ATOM     37  C   UNL     1      14.239   3.138 -18.558  1.00  0.00     0.031 C 
ATOM     38  C   UNL     1      15.837   1.331 -17.986  1.00  0.00     0.037 A 
BRANCH  25  39
ATOM     39  C   UNL     1      17.933  -2.089 -13.292  1.00  0.00     0.057 A 
ATOM     40  C   UNL     1      17.521  -3.387 -12.965  1.00  0.00     0.134 A 
ATOM     41  C   UNL     1      19.302  -1.805 -13.210  1.00  0.00     0.134 A 
ATOM     42  F   UNL     1      16.223  -3.720 -13.012  1.00  0.00    -0.206 F 
ATOM     43  C   UNL     1      18.435  -4.360 -12.554  1.00  0.00     0.040 A 
ATOM     44  C   UNL     1      20.228  -2.775 -12.821  1.00  0.00     0.040 A 
ATOM     45  F   UNL     1      19.764  -0.583 -13.516  1.00  0.00    -0.206 F 
ATOM     46  C   UNL     1      19.794  -4.056 -12.487  1.00  0.00     0.006 A 
ENDBRANCH  25  39
BRANCH  26  47
ATOM     47  C   UNL     1      11.550   5.087 -15.969  1.00  0.00     0.057 A 
ATOM     48  C   UNL     1      10.443   4.786 -16.771  1.00  0.00     0.134 A 
ATOM     49  C   UNL     1      11.709   6.415 -15.558  1.00  0.00     0.134 A 
ATOM     50  F   UNL     1      10.248   3.533 -17.209  1.00  0.00    -0.206 F 
ATOM     51  C   UNL     1       9.535   5.771 -17.160  1.00  0.00     0.040 A 
ATOM     52  C   UNL     1      10.796   7.405 -15.919  1.00  0.00     0.040 A 
ATOM     53  F   UNL     1      12.746   6.763 -14.782  1.00  0.00    -0.206 F 
ATOM     54  C   UNL     1       9.707   7.085 -16.727  1.00  0.00     0.006 A 
ENDBRANCH  26  47
BRANCH  38  55
ATOM     55  C   UNL     1      16.241   1.301 -19.430  1.00  0.00     0.057 A 
ATOM     56  C   UNL     1      17.021   2.316 -19.998  1.00  0.00     0.134 A 
ATOM     57  C   UNL     1      15.857   0.237 -20.255  1.00  0.00     0.134 A 
ATOM     58  F   UNL     1      17.407   3.369 -19.263  1.00  0.00    -0.206 F 
ATOM     59  C   UNL     1      17.383   2.286 -21.346  1.00  0.00     0.040 A 
ATOM     60  C   UNL     1      16.233   0.185 -21.598  1.00  0.00     0.040 A 
ATOM     61  F   UNL     1      15.115  -0.769 -19.769  1.00  0.00    -0.206 F 
ATOM     62  C   UNL     1      16.992   1.215 -22.148  1.00  0.00     0.006 A 
ENDBRANCH  38  55
ENDBRANCH  12  13
ENDBRANCH   5   7
ENDBRANCH   2   3
ENDBRANCH   1   2
BRANCH   1  63
ATOM     63  C   UNL     1       9.750  -2.700  -4.787  1.00  0.00     0.023 C 
BRANCH  63  64
ATOM     64  C   UNL     1       8.242  -2.497  -4.923  1.00  0.00     0.116 C 
BRANCH  64  65
ATOM     65  N   UNL     1       7.681  -3.302  -5.991  1.00  0.00    -0.354 N 
ATOM     66  C   UNL     1       6.804  -4.346  -5.963  1.00  0.00     0.242 C 
ATOM     67  H   UNL     1       7.987  -3.052  -6.892  1.00  0.00     0.163 HD
ATOM     68  O   UNL     1       6.530  -4.855  -7.056  1.00  0.00    -0.273 OA
BRANCH  66  69
ATOM     69  C   UNL     1       6.194  -4.851  -4.631  1.00  0.00     0.173 C 
ATOM     70  C   UNL     1       4.667  -4.723  -4.657  1.00  0.00     0.035 C 
ATOM     71  N   UNL     1       6.604  -6.243  -4.388  1.00  0.00    -0.344 N 
ATOM     72  C   UNL     1       3.982  -5.800  -5.496  1.00  0.00     0.004 C 
ATOM     73  C   UNL     1       5.985  -7.310  -5.166  1.00  0.00     0.119 C 
ATOM     74  C   UNL     1       4.462  -7.192  -5.099  1.00  0.00     0.022 C 
BRANCH  71  75
ATOM     75  C   UNL     1       7.284  -6.539  -3.225  1.00  0.00     0.133 A 
ATOM     76  C   UNL     1       8.394  -7.359  -3.264  1.00  0.00     0.076 A 
ATOM     77  N   UNL     1       6.880  -5.973  -2.079  1.00  0.00    -0.211 NA
ATOM     78  C   UNL     1       9.092  -7.548  -2.087  1.00  0.00     0.076 A 
ATOM     79  C   UNL     1       7.588  -6.247  -0.969  1.00  0.00     0.162 A 
ATOM     80  N   UNL     1       8.695  -7.005  -0.921  1.00  0.00    -0.228 NA
BRANCH  78  81
ATOM     81  C   UNL     1      10.336  -8.325  -2.041  1.00  0.00     0.000 A 
ATOM     82  C   UNL     1      10.466  -9.431  -1.186  1.00  0.00     0.010 A 
ATOM     83  C   UNL     1      11.436  -7.977  -2.846  1.00  0.00     0.010 A 
ATOM     84  C   UNL     1      11.647 -10.177  -1.150  1.00  0.00     0.001 A 
ATOM     85  C   UNL     1      12.621  -8.716  -2.803  1.00  0.00     0.001 A 
ATOM     86  C   UNL     1      12.723  -9.818  -1.959  1.00  0.00     0.000 A 
ENDBRANCH  78  81
BRANCH  79  87
ATOM     87  C   UNL     1       7.121  -5.658   0.288  1.00  0.00     0.021 A 
ATOM     88  C   UNL     1       5.777  -5.779   0.687  1.00  0.00     0.012 A 
ATOM     89  C   UNL     1       8.001  -4.954   1.127  1.00  0.00     0.032 A 
ATOM     90  C   UNL     1       5.326  -5.221   1.887  1.00  0.00     0.002 A 
ATOM     91  C   UNL     1       7.543  -4.381   2.314  1.00  0.00     0.041 A 
ATOM     92  C   UNL     1       6.211  -4.515   2.699  1.00  0.00     0.020 A 
ATOM     93  Cl  UNL     1       8.631  -3.489   3.306  1.00  0.00    -0.084 Cl
ENDBRANCH  79  87
ENDBRANCH  71  75
ENDBRANCH  66  69
ENDBRANCH  64  65
ENDBRANCH  63  64
ENDBRANCH   1  63
TORSDOF 14
