REMARK SMILES C[C@@H](C(=O)NCCCCNC(=O)c1ccc(-c2c3nc(c(-c4c(F)cccc4F)c4ccc([nH]4)c(-c4c(F)cccc4F)c4nc(c(-c5c(F)cccc5F)c5ccc2[nH]5)C=C4)C=C3)cc1)[C@H]1CCOC2(CCCCC2)C1
REMARK SMILES IDX 8 1 7 2 6 3 5 4 3 5 4 6 2 8 1 9 67 10 68 11 77 12 69 13
REMARK SMILES IDX 71 14 70 15 72 16 76 17 73 18 75 19 74 20 9 21 10 22 11 23
REMARK SMILES IDX 12 25 13 26 14 27 66 28 15 29 65 30 16 31 17 32 18 33 59 34
REMARK SMILES IDX 19 35 64 36 58 37 60 38 20 39 63 40 57 41 56 42 21 44 47 45
REMARK SMILES IDX 30 46 46 47 31 48 34 49 45 50 61 51 32 52 33 53 44 55 62 56
REMARK SMILES IDX 35 57 22 58 23 59 28 60 24 61 25 62 27 63 29 64 26 65 48 66
REMARK SMILES IDX 49 67 54 68 50 69 51 70 53 71 55 72 52 73 36 74 37 75 42 76
REMARK SMILES IDX 38 77 39 78 41 79 43 80 40 81
REMARK H PARENT 5 7 10 24 60 43 34 54
REMARK Flexibility Score: inf
ROOT
ATOM      1  C   UNL     1      -4.355   3.184  -3.693  1.00  0.00     0.023 C 
ENDROOT
BRANCH   1   2
ATOM      2  C   UNL     1      -3.546   1.922  -4.000  1.00  0.00     0.023 C 
BRANCH   2   3
ATOM      3  C   UNL     1      -2.167   1.850  -3.335  1.00  0.00     0.116 C 
BRANCH   3   4
ATOM      4  N   UNL     1      -2.278   1.882  -1.892  1.00  0.00    -0.356 N 
ATOM      5  C   UNL     1      -2.229   0.880  -0.970  1.00  0.00     0.223 C 
ATOM      6  O   UNL     1      -2.580   1.196   0.166  1.00  0.00    -0.275 OA
ATOM      7  H   UNL     1      -2.412   2.780  -1.513  1.00  0.00     0.163 HD
BRANCH   5   8
ATOM      8  C   UNL     1      -1.794  -0.541  -1.379  1.00  0.00     0.078 C 
ATOM      9  C   UNL     1      -2.928  -1.206  -2.170  1.00  0.00     0.018 C 
BRANCH   8  10
ATOM     10  C   UNL     1      -1.210  -1.458  -0.232  1.00  0.00     0.006 C 
ATOM     11  C   UNL     1      -1.671  -1.144   1.199  1.00  0.00     0.033 C 
ATOM     12  C   UNL     1      -1.451  -2.961  -0.499  1.00  0.00     0.040 C 
ATOM     13  C   UNL     1      -1.123  -2.131   2.219  1.00  0.00     0.161 C 
ATOM     14  C   UNL     1      -0.940  -3.905   0.602  1.00  0.00     0.069 C 
ATOM     15  O   UNL     1      -1.435  -3.474   1.876  1.00  0.00    -0.375 OA
ATOM     16  C   UNL     1       0.598  -4.022   0.591  1.00  0.00     0.035 C 
ATOM     17  C   UNL     1      -1.548  -5.308   0.363  1.00  0.00     0.035 C 
ATOM     18  C   UNL     1       1.100  -5.037   1.619  1.00  0.00     0.003 C 
ATOM     19  C   UNL     1      -1.052  -6.338   1.377  1.00  0.00     0.003 C 
ATOM     20  C   UNL     1       0.470  -6.410   1.403  1.00  0.00     0.000 C 
ENDBRANCH   8  10
ENDBRANCH   5   8
ENDBRANCH   3   4
ENDBRANCH   2   3
ENDBRANCH   1   2
BRANCH   1  21
ATOM     21  C   UNL     1      -3.656   4.498  -4.012  1.00  0.00     0.116 C 
BRANCH  21  22
ATOM     22  N   UNL     1      -3.198   4.569  -5.389  1.00  0.00    -0.352 N 
ATOM     23  C   UNL     1      -3.245   5.616  -6.271  1.00  0.00     0.251 C 
ATOM     24  H   UNL     1      -2.795   3.743  -5.740  1.00  0.00     0.163 HD
ATOM     25  O   UNL     1      -2.919   5.435  -7.445  1.00  0.00    -0.269 OA
BRANCH  23  26
ATOM     26  C   UNL     1      -3.715   6.946  -5.834  1.00  0.00     0.039 A 
ATOM     27  C   UNL     1      -4.563   7.660  -6.685  1.00  0.00     0.014 A 
ATOM     28  C   UNL     1      -3.322   7.500  -4.612  1.00  0.00     0.014 A 
ATOM     29  C   UNL     1      -5.056   8.902  -6.287  1.00  0.00     0.010 A 
ATOM     30  C   UNL     1      -3.873   8.706  -4.184  1.00  0.00     0.010 A 
ATOM     31  C   UNL     1      -4.741   9.422  -5.021  1.00  0.00    -0.014 A 
BRANCH  31  32
ATOM     32  C   UNL     1      -5.330  10.707  -4.572  1.00  0.00     0.031 A 
ATOM     33  C   UNL     1      -4.462  11.911  -4.340  1.00  0.00     0.074 A 
ATOM     34  C   UNL     1      -6.658  10.779  -4.356  1.00  0.00     0.049 A 
ATOM     35  N   UNL     1      -4.810  13.122  -3.985  1.00  0.00    -0.248 NA
ATOM     36  C   UNL     1      -3.011  11.728  -4.504  1.00  0.00     0.031 C 
ATOM     37  C   UNL     1      -7.597   9.661  -4.479  1.00  0.00     0.029 A 
ATOM     38  N   UNL     1      -7.450  11.839  -3.994  1.00  0.00    -0.354 N 
ATOM     39  C   UNL     1      -3.628  13.844  -3.891  1.00  0.00     0.074 A 
ATOM     40  C   UNL     1      -2.547  12.921  -4.162  1.00  0.00     0.031 C 
ATOM     41  C   UNL     1      -8.840  10.101  -4.228  1.00  0.00     0.029 A 
ATOM     42  C   UNL     1      -8.784  11.524  -3.906  1.00  0.00     0.049 A 
ATOM     43  H   UNL     1      -7.096  12.740  -3.814  1.00  0.00     0.167 HD
ATOM     44  C   UNL     1      -3.459  15.163  -3.633  1.00  0.00     0.037 A 
ATOM     45  C   UNL     1      -9.844  12.297  -3.607  1.00  0.00     0.037 A 
ATOM     46  C   UNL     1      -4.536  16.083  -3.372  1.00  0.00     0.049 A 
ATOM     47  C   UNL     1      -9.631  13.761  -3.346  1.00  0.00     0.074 A 
ATOM     48  C   UNL     1      -4.471  17.445  -3.135  1.00  0.00     0.029 A 
ATOM     49  N   UNL     1      -5.876  15.731  -3.315  1.00  0.00    -0.354 N 
ATOM     50  N   UNL     1      -8.513  14.445  -3.333  1.00  0.00    -0.248 NA
ATOM     51  C   UNL     1     -10.831  14.565  -3.075  1.00  0.00     0.031 C 
ATOM     52  C   UNL     1      -5.769  17.912  -2.901  1.00  0.00     0.029 A 
ATOM     53  C   UNL     1      -6.647  16.848  -3.035  1.00  0.00     0.049 A 
ATOM     54  H   UNL     1      -6.228  14.822  -3.452  1.00  0.00     0.167 HD
ATOM     55  C   UNL     1      -8.874  15.759  -3.068  1.00  0.00     0.074 A 
ATOM     56  C   UNL     1     -10.318  15.781  -2.959  1.00  0.00     0.031 C 
ATOM     57  C   UNL     1      -8.083  16.850  -2.922  1.00  0.00     0.037 A 
BRANCH  44  58
ATOM     58  C   UNL     1      -2.055  15.693  -3.639  1.00  0.00     0.057 A 
ATOM     59  C   UNL     1      -1.325  15.820  -4.829  1.00  0.00     0.134 A 
ATOM     60  C   UNL     1      -1.438  16.118  -2.456  1.00  0.00     0.134 A 
ATOM     61  F   UNL     1      -1.853  15.420  -5.996  1.00  0.00    -0.206 F 
ATOM     62  C   UNL     1      -0.026  16.331  -4.840  1.00  0.00     0.040 A 
ATOM     63  C   UNL     1      -0.148  16.654  -2.457  1.00  0.00     0.040 A 
ATOM     64  F   UNL     1      -2.081  16.029  -1.282  1.00  0.00    -0.206 F 
ATOM     65  C   UNL     1       0.563  16.756  -3.651  1.00  0.00     0.006 A 
ENDBRANCH  44  58
BRANCH  45  66
ATOM     66  C   UNL     1     -11.206  11.708  -3.569  1.00  0.00     0.057 A 
ATOM     67  C   UNL     1     -12.159  12.021  -4.545  1.00  0.00     0.134 A 
ATOM     68  C   UNL     1     -11.590  10.828  -2.551  1.00  0.00     0.134 A 
ATOM     69  F   UNL     1     -11.855  12.871  -5.537  1.00  0.00    -0.206 F 
ATOM     70  C   UNL     1     -13.453  11.502  -4.496  1.00  0.00     0.040 A 
ATOM     71  C   UNL     1     -12.872  10.280  -2.504  1.00  0.00     0.040 A 
ATOM     72  F   UNL     1     -10.719  10.481  -1.592  1.00  0.00    -0.206 F 
ATOM     73  C   UNL     1     -13.811  10.624  -3.474  1.00  0.00     0.006 A 
ENDBRANCH  45  66
BRANCH  57  74
ATOM     74  C   UNL     1      -8.772  18.153  -2.643  1.00  0.00     0.057 A 
ATOM     75  C   UNL     1      -9.377  18.417  -1.407  1.00  0.00     0.134 A 
ATOM     76  C   UNL     1      -8.827  19.157  -3.619  1.00  0.00     0.134 A 
ATOM     77  F   UNL     1      -9.370  17.492  -0.436  1.00  0.00    -0.206 F 
ATOM     78  C   UNL     1     -10.043  19.619  -1.164  1.00  0.00     0.040 A 
ATOM     79  C   UNL     1      -9.467  20.373  -3.377  1.00  0.00     0.040 A 
ATOM     80  F   UNL     1      -8.259  18.972  -4.820  1.00  0.00    -0.206 F 
ATOM     81  C   UNL     1     -10.086  20.603  -2.150  1.00  0.00     0.006 A 
ENDBRANCH  57  74
ENDBRANCH  31  32
ENDBRANCH  23  26
ENDBRANCH  21  22
ENDBRANCH   1  21
TORSDOF 12
