REMARK SMILES CC(C)C[C@H](NC(=O)[C@@H](NC(=O)[C@H](C)NC(=O)CNC(=O)OCc1ccccc1)C(C)C)C(=O)NCCCCNC(=O)c1ccc(-c2c3nc(c(-c4c(F)cccc4F)c4ccc([nH]4)c(-c4c(F)cccc4F)c4nc(c(-c5c(F)cccc5F)c5ccc2[nH]5)C=C4)C=C3)cc1
REMARK SMILES IDX 6 1 7 2 8 3 5 5 4 6 2 7 1 8 3 9 33 10 34 11 35 12 36 14
REMARK SMILES IDX 37 15 38 16 39 17 40 18 41 19 42 21 43 22 44 23 96 24 45 25
REMARK SMILES IDX 95 26 46 27 47 28 48 29 89 30 49 31 94 32 88 33 90 34 50 35
REMARK SMILES IDX 93 36 87 37 86 38 51 40 77 41 60 42 76 43 61 44 64 45 75 46
REMARK SMILES IDX 91 47 62 48 63 49 74 51 92 52 65 53 52 54 53 55 58 56 54 57
REMARK SMILES IDX 55 58 57 59 59 60 56 61 78 62 79 63 84 64 80 65 81 66 83 67
REMARK SMILES IDX 85 68 82 69 66 70 67 71 72 72 68 73 69 74 71 75 73 76 70 77
REMARK SMILES IDX 9 78 10 79 11 80 12 82 13 83 14 84 15 85 16 86 17 88 18 89
REMARK SMILES IDX 19 90 20 91 21 93 22 94 23 95 24 96 25 97 29 98 26 99 28 100
REMARK SMILES IDX 27 101 30 102 31 103 32 104
REMARK H PARENT 6 4 35 13 40 20 90 39 64 50 10 81 15 87 19 92
REMARK Flexibility Score: inf
ROOT
ATOM      1  N   UNL     1      -2.047   3.253   2.430  1.00  0.00    -0.343 N 
ATOM      2  C   UNL     1      -1.267   2.163   2.647  1.00  0.00     0.243 C 
ATOM      3  O   UNL     1      -1.162   1.808   3.828  1.00  0.00    -0.273 OA
ATOM      4  H   UNL     1      -2.346   3.701   3.254  1.00  0.00     0.164 HD
ENDROOT
BRANCH   1   5
ATOM      5  C   UNL     1      -2.526   3.890   1.201  1.00  0.00     0.171 C 
BRANCH   5   6
ATOM      6  C   UNL     1      -3.940   3.386   0.842  1.00  0.00     0.038 C 
BRANCH   6   7
ATOM      7  C   UNL     1      -4.429   3.770  -0.569  1.00  0.00    -0.015 C 
ATOM      8  C   UNL     1      -3.730   2.940  -1.638  1.00  0.00     0.007 C 
ATOM      9  C   UNL     1      -5.940   3.558  -0.689  1.00  0.00     0.007 C 
ENDBRANCH   6   7
ENDBRANCH   5   6
BRANCH   5  10
ATOM     10  C   UNL     1      -2.457   5.422   1.335  1.00  0.00     0.242 C 
ATOM     11  O   UNL     1      -1.744   6.085   0.576  1.00  0.00    -0.273 OA
ATOM     12  N   UNL     1      -3.184   6.119   2.240  1.00  0.00    -0.354 N 
ATOM     13  H   UNL     1      -3.063   7.095   2.185  1.00  0.00     0.163 HD
BRANCH  12  14
ATOM     14  C   UNL     1      -4.106   5.698   3.274  1.00  0.00     0.116 C 
BRANCH  14  15
ATOM     15  C   UNL     1      -3.731   6.300   4.624  1.00  0.00     0.023 C 
BRANCH  15  16
ATOM     16  C   UNL     1      -3.714   7.830   4.665  1.00  0.00     0.023 C 
BRANCH  16  17
ATOM     17  C   UNL     1      -4.944   8.513   4.078  1.00  0.00     0.116 C 
BRANCH  17  18
ATOM     18  N   UNL     1      -6.189   8.045   4.665  1.00  0.00    -0.352 N 
ATOM     19  C   UNL     1      -7.261   8.775   5.110  1.00  0.00     0.251 C 
ATOM     20  H   UNL     1      -6.274   7.068   4.754  1.00  0.00     0.163 HD
ATOM     21  O   UNL     1      -8.199   8.221   5.674  1.00  0.00    -0.269 OA
BRANCH  19  22
ATOM     22  C   UNL     1      -7.257  10.239   4.940  1.00  0.00     0.039 A 
ATOM     23  C   UNL     1      -7.503  11.042   6.056  1.00  0.00     0.014 A 
ATOM     24  C   UNL     1      -6.972  10.813   3.698  1.00  0.00     0.014 A 
ATOM     25  C   UNL     1      -7.399  12.428   5.941  1.00  0.00     0.010 A 
ATOM     26  C   UNL     1      -6.804  12.190   3.600  1.00  0.00     0.010 A 
ATOM     27  C   UNL     1      -7.015  13.008   4.721  1.00  0.00    -0.014 A 
BRANCH  27  28
ATOM     28  C   UNL     1      -6.830  14.474   4.599  1.00  0.00     0.031 A 
ATOM     29  C   UNL     1      -7.741  15.274   3.712  1.00  0.00     0.074 A 
ATOM     30  C   UNL     1      -5.805  15.071   5.236  1.00  0.00     0.049 A 
ATOM     31  N   UNL     1      -7.699  16.548   3.420  1.00  0.00    -0.248 NA
ATOM     32  C   UNL     1      -8.826  14.538   3.045  1.00  0.00     0.031 C 
ATOM     33  C   UNL     1      -4.823  14.392   6.084  1.00  0.00     0.029 A 
ATOM     34  N   UNL     1      -5.412  16.385   5.260  1.00  0.00    -0.354 N 
ATOM     35  C   UNL     1      -8.739  16.762   2.525  1.00  0.00     0.074 A 
ATOM     36  C   UNL     1      -9.363  15.480   2.283  1.00  0.00     0.031 C 
ATOM     37  C   UNL     1      -3.952  15.297   6.559  1.00  0.00     0.029 A 
ATOM     38  C   UNL     1      -4.295  16.611   6.026  1.00  0.00     0.049 A 
ATOM     39  H   UNL     1      -5.885  17.098   4.774  1.00  0.00     0.167 HD
ATOM     40  C   UNL     1      -9.151  17.928   1.972  1.00  0.00     0.037 A 
ATOM     41  C   UNL     1      -3.621  17.752   6.267  1.00  0.00     0.037 A 
ATOM     42  C   UNL     1      -8.547  19.206   2.238  1.00  0.00     0.049 A 
ATOM     43  C   UNL     1      -4.108  19.034   5.653  1.00  0.00     0.074 A 
ATOM     44  C   UNL     1      -8.926  20.453   1.772  1.00  0.00     0.029 A 
ATOM     45  N   UNL     1      -7.437  19.400   3.045  1.00  0.00    -0.354 N 
ATOM     46  N   UNL     1      -5.130  19.233   4.857  1.00  0.00    -0.248 NA
ATOM     47  C   UNL     1      -3.352  20.253   5.977  1.00  0.00     0.031 C 
ATOM     48  C   UNL     1      -8.026  21.398   2.274  1.00  0.00     0.029 A 
ATOM     49  C   UNL     1      -7.109  20.745   3.082  1.00  0.00     0.049 A 
ATOM     50  H   UNL     1      -6.953  18.687   3.522  1.00  0.00     0.167 HD
ATOM     51  C   UNL     1      -5.156  20.598   4.604  1.00  0.00     0.074 A 
ATOM     52  C   UNL     1      -4.055  21.181   5.343  1.00  0.00     0.031 C 
ATOM     53  C   UNL     1      -6.014  21.305   3.830  1.00  0.00     0.037 A 
BRANCH  40  54
ATOM     54  C   UNL     1     -10.319  17.869   1.033  1.00  0.00     0.057 A 
ATOM     55  C   UNL     1     -11.620  17.625   1.492  1.00  0.00     0.134 A 
ATOM     56  C   UNL     1     -10.146  18.082  -0.340  1.00  0.00     0.134 A 
ATOM     57  F   UNL     1     -11.851  17.398   2.794  1.00  0.00    -0.206 F 
ATOM     58  C   UNL     1     -12.705  17.571   0.615  1.00  0.00     0.040 A 
ATOM     59  C   UNL     1     -11.226  18.055  -1.223  1.00  0.00     0.040 A 
ATOM     60  F   UNL     1      -8.927  18.323  -0.844  1.00  0.00    -0.206 F 
ATOM     61  C   UNL     1     -12.510  17.793  -0.747  1.00  0.00     0.006 A 
ENDBRANCH  40  54
BRANCH  41  62
ATOM     62  C   UNL     1      -2.430  17.738   7.151  1.00  0.00     0.057 A 
ATOM     63  C   UNL     1      -2.475  18.304   8.430  1.00  0.00     0.134 A 
ATOM     64  C   UNL     1      -1.220  17.166   6.739  1.00  0.00     0.134 A 
ATOM     65  F   UNL     1      -3.601  18.881   8.872  1.00  0.00    -0.206 F 
ATOM     66  C   UNL     1      -1.355  18.319   9.263  1.00  0.00     0.040 A 
ATOM     67  C   UNL     1      -0.099  17.154   7.570  1.00  0.00     0.040 A 
ATOM     68  F   UNL     1      -1.116  16.601   5.527  1.00  0.00    -0.206 F 
ATOM     69  C   UNL     1      -0.163  17.738   8.834  1.00  0.00     0.006 A 
ENDBRANCH  41  62
BRANCH  53  70
ATOM     70  C   UNL     1      -5.813  22.790   3.768  1.00  0.00     0.057 A 
ATOM     71  C   UNL     1      -4.764  23.362   3.038  1.00  0.00     0.134 A 
ATOM     72  C   UNL     1      -6.704  23.656   4.413  1.00  0.00     0.134 A 
ATOM     73  F   UNL     1      -3.870  22.584   2.410  1.00  0.00    -0.206 F 
ATOM     74  C   UNL     1      -4.597  24.745   2.968  1.00  0.00     0.040 A 
ATOM     75  C   UNL     1      -6.561  25.041   4.332  1.00  0.00     0.040 A 
ATOM     76  F   UNL     1      -7.734  23.170   5.122  1.00  0.00    -0.206 F 
ATOM     77  C   UNL     1      -5.502  25.589   3.611  1.00  0.00     0.006 A 
ENDBRANCH  53  70
ENDBRANCH  27  28
ENDBRANCH  19  22
ENDBRANCH  17  18
ENDBRANCH  16  17
ENDBRANCH  15  16
ENDBRANCH  14  15
ENDBRANCH  12  14
ENDBRANCH   5  10
ENDBRANCH   1   5
BRANCH   2  78
ATOM     78  C   UNL     1      -0.403   1.481   1.547  1.00  0.00     0.174 C 
BRANCH  78  79
ATOM     79  N   UNL     1      -1.111   1.462   0.246  1.00  0.00    -0.342 N 
ATOM     80  C   UNL     1      -0.700   1.332  -1.045  1.00  0.00     0.242 C 
ATOM     81  H   UNL     1      -2.086   1.566   0.335  1.00  0.00     0.164 HD
ATOM     82  O   UNL     1      -1.273   0.431  -1.675  1.00  0.00    -0.273 OA
BRANCH  80  83
ATOM     83  C   UNL     1       0.093   2.430  -1.829  1.00  0.00     0.168 C 
ATOM     84  C   UNL     1       0.856   1.766  -2.978  1.00  0.00     0.041 C 
BRANCH  83  85
ATOM     85  N   UNL     1       0.998   3.333  -1.135  1.00  0.00    -0.343 N 
ATOM     86  C   UNL     1       0.985   4.695  -1.022  1.00  0.00     0.240 C 
ATOM     87  H   UNL     1       1.743   2.890  -0.669  1.00  0.00     0.164 HD
ATOM     88  O   UNL     1       1.908   5.225  -0.399  1.00  0.00    -0.273 OA
BRANCH  86  89
ATOM     89  C   UNL     1      -0.070   5.525  -1.748  1.00  0.00     0.219 C 
BRANCH  89  90
ATOM     90  N   UNL     1       0.259   5.499  -3.159  1.00  0.00    -0.312 N 
ATOM     91  C   UNL     1      -0.571   5.089  -4.152  1.00  0.00     0.407 C 
ATOM     92  H   UNL     1       1.159   5.803  -3.419  1.00  0.00     0.167 HD
ATOM     93  O   UNL     1      -0.124   4.731  -5.235  1.00  0.00    -0.225 OA
BRANCH  91  94
ATOM     94  O   UNL     1      -1.874   5.085  -3.784  1.00  0.00    -0.445 OA
BRANCH  94  95
ATOM     95  C   UNL     1      -2.795   4.566  -4.751  1.00  0.00     0.270 C 
BRANCH  95  96
ATOM     96  C   UNL     1      -3.006   5.495  -5.917  1.00  0.00    -0.011 A 
ATOM     97  C   UNL     1      -3.718   6.691  -5.765  1.00  0.00     0.007 A 
ATOM     98  C   UNL     1      -2.455   5.180  -7.166  1.00  0.00     0.007 A 
ATOM     99  C   UNL     1      -3.875   7.556  -6.848  1.00  0.00     0.000 A 
ATOM    100  C   UNL     1      -2.604   6.049  -8.244  1.00  0.00     0.000 A 
ATOM    101  C   UNL     1      -3.315   7.236  -8.086  1.00  0.00     0.000 A 
ENDBRANCH  95  96
ENDBRANCH  94  95
ENDBRANCH  91  94
ENDBRANCH  89  90
ENDBRANCH  86  89
ENDBRANCH  83  85
ENDBRANCH  80  83
ENDBRANCH  78  79
BRANCH  78 102
ATOM    102  C   UNL     1       1.068   1.945   1.579  1.00  0.00     0.015 C 
ATOM    103  C   UNL     1       1.656   2.141   2.984  1.00  0.00     0.010 C 
ATOM    104  C   UNL     1       1.976   0.941   0.850  1.00  0.00     0.010 C 
ENDBRANCH  78 102
ENDBRANCH   2  78
TORSDOF 24
