REMARK SMILES C/C(=N\Nc1ccncc1[N+](=O)[O-])C(=O)NCCCCNC(=O)c1ccc(-c2c3nc(c(-c4c(F)cccc4F)c4ccc([nH]4)c(-c4c(F)cccc4F)c4nc(c(-c5c(F)cccc5F)c5ccc2[nH]5)C=C4)C=C3)cc1
REMARK SMILES IDX 18 1 17 2 16 3 14 4 15 5 2 7 1 8 3 9 4 10 5 12 6 13 10 14
REMARK SMILES IDX 7 15 9 16 8 17 11 18 12 19 13 20 19 21 20 22 21 23 22 24
REMARK SMILES IDX 23 26 24 27 25 28 77 29 26 30 76 31 27 32 28 33 29 34 70 35
REMARK SMILES IDX 30 36 75 37 69 38 71 39 31 40 74 41 68 42 67 43 32 45 58 46
REMARK SMILES IDX 41 47 57 48 42 49 45 50 56 51 72 52 43 53 44 54 55 56 73 57
REMARK SMILES IDX 46 58 33 59 34 60 39 61 35 62 36 63 38 64 40 65 37 66 59 67
REMARK SMILES IDX 60 68 65 69 61 70 62 71 64 72 66 73 63 74 47 75 48 76 53 77
REMARK SMILES IDX 49 78 50 79 52 80 54 81 51 82
REMARK H PARENT 16 6 4 11 21 25 71 44 45 55
REMARK Flexibility Score: inf
ROOT
ATOM      1  C   UNL     1      -1.760   3.471  -3.074  1.00  0.00     0.023 C 
ENDROOT
BRANCH   1   2
ATOM      2  C   UNL     1      -0.347   2.891  -3.159  1.00  0.00     0.116 C 
BRANCH   2   3
ATOM      3  N   UNL     1       0.407   3.242  -1.968  1.00  0.00    -0.351 N 
ATOM      4  C   UNL     1       0.738   2.464  -0.887  1.00  0.00     0.267 C 
ATOM      5  O   UNL     1       1.211   2.964   0.127  1.00  0.00    -0.268 OA
ATOM      6  H   UNL     1       0.728   4.172  -1.932  1.00  0.00     0.163 HD
BRANCH   4   7
ATOM      7  C   UNL     1       0.666   0.948  -0.991  1.00  0.00     0.122 C 
ATOM      8  C   UNL     1       1.883   0.249  -0.436  1.00  0.00     0.075 C 
ATOM      9  N   UNL     1      -0.400   0.400  -1.509  1.00  0.00    -0.175 NA
BRANCH   9  10
ATOM     10  N   UNL     1      -0.394  -0.914  -1.833  1.00  0.00    -0.271 N 
ATOM     11  H   UNL     1      -0.549  -1.143  -2.777  1.00  0.00     0.190 HD
BRANCH  10  12
ATOM     12  C   UNL     1      -0.186  -1.982  -0.942  1.00  0.00     0.137 A 
ATOM     13  C   UNL     1      -0.438  -1.832   0.426  1.00  0.00     0.055 A 
ATOM     14  C   UNL     1       0.446  -3.168  -1.357  1.00  0.00     0.312 A 
ATOM     15  C   UNL     1      -0.017  -2.818   1.304  1.00  0.00     0.113 A 
ATOM     16  C   UNL     1       0.852  -4.093  -0.408  1.00  0.00     0.198 A 
ATOM     17  N   UNL     1       0.635  -3.937   0.919  1.00  0.00    -0.257 NA
BRANCH  14  18
ATOM     18  N   UNL     1       0.741  -3.435  -2.757  1.00  0.00     0.066 N 
ATOM     19  O   UNL     1       1.636  -4.253  -3.013  1.00  0.00    -0.258 OA
ATOM     20  O   UNL     1       0.070  -2.840  -3.616  1.00  0.00    -0.258 OA
ENDBRANCH  14  18
ENDBRANCH  10  12
ENDBRANCH   9  10
ENDBRANCH   4   7
ENDBRANCH   2   3
ENDBRANCH   1   2
BRANCH   1  21
ATOM     21  C   UNL     1      -1.801   5.004  -3.103  1.00  0.00     0.023 C 
BRANCH  21  22
ATOM     22  C   UNL     1      -1.138   5.640  -4.320  1.00  0.00     0.116 C 
BRANCH  22  23
ATOM     23  N   UNL     1      -1.744   5.220  -5.573  1.00  0.00    -0.352 N 
ATOM     24  C   UNL     1      -2.102   5.985  -6.658  1.00  0.00     0.251 C 
ATOM     25  H   UNL     1      -1.922   4.255  -5.656  1.00  0.00     0.163 HD
ATOM     26  O   UNL     1      -2.740   5.496  -7.578  1.00  0.00    -0.269 OA
BRANCH  24  27
ATOM     27  C   UNL     1      -1.736   7.417  -6.685  1.00  0.00     0.039 A 
ATOM     28  C   UNL     1      -2.712   8.355  -7.027  1.00  0.00     0.014 A 
ATOM     29  C   UNL     1      -0.443   7.832  -6.353  1.00  0.00     0.014 A 
ATOM     30  C   UNL     1      -2.409   9.716  -6.974  1.00  0.00     0.010 A 
ATOM     31  C   UNL     1      -0.165   9.189  -6.226  1.00  0.00     0.010 A 
ATOM     32  C   UNL     1      -1.144  10.145  -6.537  1.00  0.00    -0.014 A 
BRANCH  32  33
ATOM     33  C   UNL     1      -0.829  11.590  -6.399  1.00  0.00     0.031 A 
ATOM     34  C   UNL     1       0.247  12.213  -7.245  1.00  0.00     0.074 A 
ATOM     35  C   UNL     1      -1.470  12.327  -5.471  1.00  0.00     0.049 A 
ATOM     36  N   UNL     1       0.707  13.438  -7.227  1.00  0.00    -0.248 NA
ATOM     37  C   UNL     1       0.912  11.336  -8.222  1.00  0.00     0.031 C 
ATOM     38  C   UNL     1      -2.500  11.829  -4.558  1.00  0.00     0.029 A 
ATOM     39  N   UNL     1      -1.341  13.652  -5.136  1.00  0.00    -0.354 N 
ATOM     40  C   UNL     1       1.720  13.475  -8.177  1.00  0.00     0.074 A 
ATOM     41  C   UNL     1       1.847  12.137  -8.711  1.00  0.00     0.031 C 
ATOM     42  C   UNL     1      -2.927  12.840  -3.784  1.00  0.00     0.029 A 
ATOM     43  C   UNL     1      -2.174  14.046  -4.116  1.00  0.00     0.049 A 
ATOM     44  H   UNL     1      -0.712  14.262  -5.583  1.00  0.00     0.167 HD
ATOM     45  C   UNL     1       2.460  14.533  -8.585  1.00  0.00     0.037 A 
ATOM     46  C   UNL     1      -2.309  15.241  -3.511  1.00  0.00     0.037 A 
ATOM     47  C   UNL     1       2.317  15.867  -8.065  1.00  0.00     0.049 A 
ATOM     48  C   UNL     1      -1.461  16.396  -3.970  1.00  0.00     0.074 A 
ATOM     49  C   UNL     1       2.979  17.019  -8.454  1.00  0.00     0.029 A 
ATOM     50  N   UNL     1       1.457  16.228  -7.039  1.00  0.00    -0.354 N 
ATOM     51  N   UNL     1      -0.558  16.433  -4.920  1.00  0.00    -0.248 NA
ATOM     52  C   UNL     1      -1.656  17.677  -3.276  1.00  0.00     0.031 C 
ATOM     53  C   UNL     1       2.558  18.066  -7.629  1.00  0.00     0.029 A 
ATOM     54  C   UNL     1       1.591  17.579  -6.763  1.00  0.00     0.049 A 
ATOM     55  H   UNL     1       0.842  15.615  -6.575  1.00  0.00     0.167 HD
ATOM     56  C   UNL     1      -0.099  17.744  -4.957  1.00  0.00     0.074 A 
ATOM     57  C   UNL     1      -0.835  18.473  -3.946  1.00  0.00     0.031 C 
ATOM     58  C   UNL     1       0.847  18.294  -5.758  1.00  0.00     0.037 A 
BRANCH  45  59
ATOM     59  C   UNL     1       3.490  14.288  -9.650  1.00  0.00     0.057 A 
ATOM     60  C   UNL     1       3.132  13.989 -10.972  1.00  0.00     0.134 A 
ATOM     61  C   UNL     1       4.857  14.387  -9.359  1.00  0.00     0.134 A 
ATOM     62  F   UNL     1       1.841  13.868 -11.316  1.00  0.00    -0.206 F 
ATOM     63  C   UNL     1       4.095  13.769 -11.958  1.00  0.00     0.040 A 
ATOM     64  C   UNL     1       5.829  14.199 -10.344  1.00  0.00     0.040 A 
ATOM     65  F   UNL     1       5.271  14.677  -8.117  1.00  0.00    -0.206 F 
ATOM     66  C   UNL     1       5.448  13.881 -11.646  1.00  0.00     0.006 A 
ENDBRANCH  45  59
BRANCH  46  67
ATOM     67  C   UNL     1      -3.296  15.415  -2.415  1.00  0.00     0.057 A 
ATOM     68  C   UNL     1      -4.436  16.210  -2.588  1.00  0.00     0.134 A 
ATOM     69  C   UNL     1      -3.118  14.809  -1.166  1.00  0.00     0.134 A 
ATOM     70  F   UNL     1      -4.653  16.832  -3.756  1.00  0.00    -0.206 F 
ATOM     71  C   UNL     1      -5.350  16.414  -1.554  1.00  0.00     0.040 A 
ATOM     72  C   UNL     1      -4.039  14.982  -0.131  1.00  0.00     0.040 A 
ATOM     73  F   UNL     1      -2.051  14.029  -0.936  1.00  0.00    -0.206 F 
ATOM     74  C   UNL     1      -5.154  15.795  -0.321  1.00  0.00     0.006 A 
ENDBRANCH  46  67
BRANCH  58  75
ATOM     75  C   UNL     1       1.115  19.763  -5.598  1.00  0.00     0.057 A 
ATOM     76  C   UNL     1       1.774  20.279  -4.475  1.00  0.00     0.134 A 
ATOM     77  C   UNL     1       0.744  20.667  -6.602  1.00  0.00     0.134 A 
ATOM     78  F   UNL     1       2.145  19.469  -3.472  1.00  0.00    -0.206 F 
ATOM     79  C   UNL     1       2.034  21.644  -4.346  1.00  0.00     0.040 A 
ATOM     80  C   UNL     1       1.025  22.030  -6.498  1.00  0.00     0.040 A 
ATOM     81  F   UNL     1       0.118  20.238  -7.708  1.00  0.00    -0.206 F 
ATOM     82  C   UNL     1       1.666  22.523  -5.363  1.00  0.00     0.006 A 
ENDBRANCH  58  75
ENDBRANCH  32  33
ENDBRANCH  24  27
ENDBRANCH  22  23
ENDBRANCH  21  22
ENDBRANCH   1  21
TORSDOF 14
