REMARK SMILES CC1(C)[C@@H](CCc2ccccc2)CC[C@]1(C)C(=O)NCCCCNC(=O)c1ccc(-c2c3nc(c(-c4c(F)cccc4F)c4ccc([nH]4)c(-c4c(F)cccc4F)c4nc(c(-c5c(F)cccc5F)c5ccc2[nH]5)C=C4)C=C3)cc1
REMARK SMILES IDX 21 1 20 2 19 3 17 4 18 5 15 7 1 8 2 9 3 10 4 11 13 12 14 13
REMARK SMILES IDX 16 14 5 15 6 16 7 17 8 18 12 19 9 20 11 21 10 22 22 23 23 24
REMARK SMILES IDX 24 25 25 26 26 28 27 29 28 30 80 31 29 32 79 33 30 34 31 35
REMARK SMILES IDX 32 36 73 37 33 38 78 39 72 40 74 41 34 42 77 43 71 44 70 45
REMARK SMILES IDX 35 47 61 48 44 49 60 50 45 51 48 52 59 53 75 54 46 55 47 56
REMARK SMILES IDX 58 58 76 59 49 60 36 61 37 62 42 63 38 64 39 65 41 66 43 67
REMARK SMILES IDX 40 68 62 69 63 70 68 71 64 72 65 73 67 74 69 75 66 76 50 77
REMARK SMILES IDX 51 78 56 79 52 80 53 81 55 82 57 83 54 84
REMARK H PARENT 19 6 24 27 74 46 48 57
REMARK Flexibility Score: inf
ROOT
ATOM      1  C   UNL     1      -0.638   1.859  -2.228  1.00  0.00     0.023 C 
ENDROOT
BRANCH   1   2
ATOM      2  C   UNL     1      -1.419   1.049  -1.196  1.00  0.00     0.116 C 
BRANCH   2   3
ATOM      3  N   UNL     1      -1.980  -0.143  -1.794  1.00  0.00    -0.356 N 
ATOM      4  C   UNL     1      -1.707  -1.466  -1.617  1.00  0.00     0.226 C 
ATOM      5  O   UNL     1      -2.341  -2.244  -2.335  1.00  0.00    -0.274 OA
ATOM      6  H   UNL     1      -2.691   0.035  -2.451  1.00  0.00     0.163 HD
BRANCH   4   7
ATOM      7  C   UNL     1      -0.722  -1.971  -0.533  1.00  0.00     0.052 C 
ATOM      8  C   UNL     1       1.442  -0.331  -0.634  1.00  0.00     0.012 C 
ATOM      9  C   UNL     1       0.810  -1.708  -0.803  1.00  0.00    -0.018 C 
ATOM     10  C   UNL     1       1.112  -2.065  -2.304  1.00  0.00     0.012 C 
ATOM     11  C   UNL     1       1.526  -2.734   0.130  1.00  0.00    -0.004 C 
ATOM     12  C   UNL     1       0.682  -4.007  -0.100  1.00  0.00     0.005 C 
ATOM     13  C   UNL     1      -0.735  -3.542  -0.482  1.00  0.00     0.017 C 
ATOM     14  C   UNL     1      -1.320  -1.531   0.808  1.00  0.00     0.022 C 
BRANCH  11  15
ATOM     15  C   UNL     1       1.726  -2.534   1.676  1.00  0.00     0.009 C 
BRANCH  15  16
ATOM     16  C   UNL     1       2.049  -1.177   2.360  1.00  0.00     0.036 C 
BRANCH  16  17
ATOM     17  C   UNL     1       0.868  -0.430   2.961  1.00  0.00    -0.048 A 
ATOM     18  C   UNL     1      -0.043  -1.083   3.808  1.00  0.00     0.004 A 
ATOM     19  C   UNL     1       0.637   0.924   2.670  1.00  0.00     0.004 A 
ATOM     20  C   UNL     1      -1.228  -0.457   4.207  1.00  0.00     0.000 A 
ATOM     21  C   UNL     1      -0.547   1.553   3.072  1.00  0.00     0.000 A 
ATOM     22  C   UNL     1      -1.494   0.852   3.814  1.00  0.00     0.000 A 
ENDBRANCH  16  17
ENDBRANCH  15  16
ENDBRANCH  11  15
ENDBRANCH   4   7
ENDBRANCH   2   3
ENDBRANCH   1   2
BRANCH   1  23
ATOM     23  C   UNL     1      -1.508   2.788  -3.059  1.00  0.00     0.023 C 
BRANCH  23  24
ATOM     24  C   UNL     1      -2.180   3.887  -2.252  1.00  0.00     0.116 C 
BRANCH  24  25
ATOM     25  N   UNL     1      -1.237   4.784  -1.594  1.00  0.00    -0.352 N 
ATOM     26  C   UNL     1      -1.248   6.161  -1.577  1.00  0.00     0.251 C 
ATOM     27  H   UNL     1      -0.502   4.352  -1.102  1.00  0.00     0.163 HD
ATOM     28  O   UNL     1      -0.338   6.799  -1.073  1.00  0.00    -0.269 OA
BRANCH  26  29
ATOM     29  C   UNL     1      -2.380   6.845  -2.230  1.00  0.00     0.039 A 
ATOM     30  C   UNL     1      -2.121   7.749  -3.260  1.00  0.00     0.014 A 
ATOM     31  C   UNL     1      -3.688   6.470  -1.912  1.00  0.00     0.014 A 
ATOM     32  C   UNL     1      -3.181   8.211  -4.040  1.00  0.00     0.010 A 
ATOM     33  C   UNL     1      -4.725   6.853  -2.749  1.00  0.00     0.010 A 
ATOM     34  C   UNL     1      -4.482   7.725  -3.822  1.00  0.00    -0.014 A 
BRANCH  34  35
ATOM     35  C   UNL     1      -5.609   8.109  -4.706  1.00  0.00     0.031 A 
ATOM     36  C   UNL     1      -6.785   8.847  -4.135  1.00  0.00     0.074 A 
ATOM     37  C   UNL     1      -5.612   7.723  -5.997  1.00  0.00     0.049 A 
ATOM     38  N   UNL     1      -7.901   9.203  -4.717  1.00  0.00    -0.248 NA
ATOM     39  C   UNL     1      -6.712   9.198  -2.708  1.00  0.00     0.031 C 
ATOM     40  C   UNL     1      -4.556   6.951  -6.656  1.00  0.00     0.029 A 
ATOM     41  N   UNL     1      -6.543   7.922  -6.985  1.00  0.00    -0.354 N 
ATOM     42  C   UNL     1      -8.666   9.800  -3.724  1.00  0.00     0.074 A 
ATOM     43  C   UNL     1      -7.918   9.697  -2.491  1.00  0.00     0.031 C 
ATOM     44  C   UNL     1      -4.881   6.776  -7.947  1.00  0.00     0.029 A 
ATOM     45  C   UNL     1      -6.183   7.386  -8.198  1.00  0.00     0.049 A 
ATOM     46  H   UNL     1      -7.389   8.403  -6.839  1.00  0.00     0.167 HD
ATOM     47  C   UNL     1      -9.871  10.408  -3.835  1.00  0.00     0.037 A 
ATOM     48  C   UNL     1      -6.831   7.390  -9.378  1.00  0.00     0.037 A 
ATOM     49  C   UNL     1     -10.599  10.533  -5.068  1.00  0.00     0.049 A 
ATOM     50  C   UNL     1      -8.171   8.063  -9.477  1.00  0.00     0.074 A 
ATOM     51  C   UNL     1     -11.794  11.189  -5.303  1.00  0.00     0.029 A 
ATOM     52  N   UNL     1     -10.198   9.984  -6.278  1.00  0.00    -0.354 N 
ATOM     53  N   UNL     1      -8.852   8.690  -8.548  1.00  0.00    -0.248 NA
ATOM     54  C   UNL     1      -8.832   8.031 -10.789  1.00  0.00     0.031 C 
ATOM     55  C   UNL     1     -12.137  11.002  -6.646  1.00  0.00     0.029 A 
ATOM     56  C   UNL     1     -11.134  10.267  -7.258  1.00  0.00     0.049 A 
ATOM     57  H   UNL     1      -9.370   9.470  -6.418  1.00  0.00     0.167 HD
ATOM     58  C   UNL     1     -10.007   9.148  -9.166  1.00  0.00     0.074 A 
ATOM     59  C   UNL     1      -9.929   8.737 -10.554  1.00  0.00     0.031 C 
ATOM     60  C   UNL     1     -11.039   9.849  -8.634  1.00  0.00     0.037 A 
BRANCH  47  61
ATOM     61  C   UNL     1     -10.461  10.983  -2.580  1.00  0.00     0.057 A 
ATOM     62  C   UNL     1      -9.899  12.097  -1.942  1.00  0.00     0.134 A 
ATOM     63  C   UNL     1     -11.598  10.411  -1.996  1.00  0.00     0.134 A 
ATOM     64  F   UNL     1      -8.799  12.683  -2.440  1.00  0.00    -0.206 F 
ATOM     65  C   UNL     1     -10.419  12.595  -0.746  1.00  0.00     0.040 A 
ATOM     66  C   UNL     1     -12.146  10.918  -0.817  1.00  0.00     0.040 A 
ATOM     67  F   UNL     1     -12.189   9.345  -2.557  1.00  0.00    -0.206 F 
ATOM     68  C   UNL     1     -11.550  12.007  -0.183  1.00  0.00     0.006 A 
ENDBRANCH  47  61
BRANCH  48  69
ATOM     69  C   UNL     1      -6.200   6.772 -10.570  1.00  0.00     0.057 A 
ATOM     70  C   UNL     1      -5.701   7.568 -11.608  1.00  0.00     0.134 A 
ATOM     71  C   UNL     1      -6.067   5.385 -10.699  1.00  0.00     0.134 A 
ATOM     72  F   UNL     1      -5.815   8.903 -11.549  1.00  0.00    -0.206 F 
ATOM     73  C   UNL     1      -5.102   7.007 -12.737  1.00  0.00     0.040 A 
ATOM     74  C   UNL     1      -5.452   4.811 -11.813  1.00  0.00     0.040 A 
ATOM     75  F   UNL     1      -6.519   4.569  -9.736  1.00  0.00    -0.206 F 
ATOM     76  C   UNL     1      -4.971   5.623 -12.839  1.00  0.00     0.006 A 
ENDBRANCH  48  69
BRANCH  60  77
ATOM     77  C   UNL     1     -12.153  10.238  -9.560  1.00  0.00     0.057 A 
ATOM     78  C   UNL     1     -13.081   9.302 -10.032  1.00  0.00     0.134 A 
ATOM     79  C   UNL     1     -12.323  11.573  -9.948  1.00  0.00     0.134 A 
ATOM     80  F   UNL     1     -12.964   8.006  -9.709  1.00  0.00    -0.206 F 
ATOM     81  C   UNL     1     -14.131   9.678 -10.872  1.00  0.00     0.040 A 
ATOM     82  C   UNL     1     -13.383  11.965 -10.766  1.00  0.00     0.040 A 
ATOM     83  F   UNL     1     -11.473  12.520  -9.524  1.00  0.00    -0.206 F 
ATOM     84  C   UNL     1     -14.288  11.015 -11.235  1.00  0.00     0.006 A 
ENDBRANCH  60  77
ENDBRANCH  34  35
ENDBRANCH  26  29
ENDBRANCH  24  25
ENDBRANCH  23  24
ENDBRANCH   1  23
TORSDOF 14
