REMARK SMILES CC(C)(C)OC(=O)N[C@@H](C(=O)NCCCCNC(=O)c1ccc(-c2c3nc(c(-c4c(F)cccc4F)c4ccc([nH]4)c(-c4c(F)cccc4F)c4nc(c(-c5c(F)cccc5F)c5ccc2[nH]5)C=C4)C=C3)cc1)c1ccc([N+](=O)[O-])cc1
REMARK SMILES IDX 14 1 13 2 12 3 10 4 11 5 9 7 8 8 6 9 7 10 5 12 2 13 1 14
REMARK SMILES IDX 3 15 4 16 74 17 75 18 82 19 76 20 81 21 77 22 78 23 79 24
REMARK SMILES IDX 80 25 15 26 16 27 17 28 18 29 19 31 20 32 21 33 73 34 22 35
REMARK SMILES IDX 72 36 23 37 24 38 25 39 66 40 26 41 71 42 65 43 67 44 27 45
REMARK SMILES IDX 70 46 64 47 63 48 28 50 54 51 37 52 53 53 38 54 41 55 52 56
REMARK SMILES IDX 68 57 39 58 40 59 51 61 69 62 42 63 29 64 30 65 35 66 31 67
REMARK SMILES IDX 32 68 34 69 36 70 33 71 55 72 56 73 61 74 57 75 58 76 60 77
REMARK SMILES IDX 62 78 59 79 43 80 44 81 49 82 45 83 46 84 48 85 50 86 47 87
REMARK H PARENT 12 6 8 11 17 30 67 49 41 60
REMARK Flexibility Score: inf
ROOT
ATOM      1  C   UNL     1       3.609  -1.471  -4.464  1.00  0.00     0.023 C 
ENDROOT
BRANCH   1   2
ATOM      2  C   UNL     1       3.897  -0.158  -3.738  1.00  0.00     0.116 C 
BRANCH   2   3
ATOM      3  N   UNL     1       4.111   0.919  -4.680  1.00  0.00    -0.354 N 
ATOM      4  C   UNL     1       3.250   1.908  -5.072  1.00  0.00     0.247 C 
ATOM      5  O   UNL     1       3.645   2.649  -5.977  1.00  0.00    -0.272 OA
ATOM      6  H   UNL     1       5.001   0.943  -5.099  1.00  0.00     0.163 HD
BRANCH   4   7
ATOM      7  C   UNL     1       1.877   2.091  -4.350  1.00  0.00     0.205 C 
BRANCH   7   8
ATOM      8  N   UNL     1       1.046   0.926  -4.638  1.00  0.00    -0.306 N 
ATOM      9  C   UNL     1       0.471   0.072  -3.749  1.00  0.00     0.408 C 
ATOM     10  O   UNL     1      -0.199  -0.874  -4.138  1.00  0.00    -0.225 OA
ATOM     11  H   UNL     1       0.881   0.736  -5.590  1.00  0.00     0.168 HD
BRANCH   9  12
ATOM     12  O   UNL     1       0.770   0.356  -2.460  1.00  0.00    -0.444 OA
BRANCH  12  13
ATOM     13  C   UNL     1       0.367  -0.537  -1.386  1.00  0.00     0.106 C 
ATOM     14  C   UNL     1       0.969   0.076  -0.111  1.00  0.00     0.056 C 
ATOM     15  C   UNL     1       0.960  -1.942  -1.560  1.00  0.00     0.056 C 
ATOM     16  C   UNL     1      -1.157  -0.575  -1.243  1.00  0.00     0.056 C 
ENDBRANCH  12  13
ENDBRANCH   9  12
ENDBRANCH   7   8
BRANCH   7  17
ATOM     17  C   UNL     1       1.184   3.401  -4.745  1.00  0.00    -0.016 A 
ATOM     18  C   UNL     1       1.855   4.625  -4.541  1.00  0.00     0.013 A 
ATOM     19  C   UNL     1      -0.105   3.439  -5.309  1.00  0.00     0.013 A 
ATOM     20  C   UNL     1       1.281   5.840  -4.926  1.00  0.00     0.086 A 
ATOM     21  C   UNL     1      -0.690   4.650  -5.692  1.00  0.00     0.086 A 
ATOM     22  C   UNL     1       0.009   5.847  -5.507  1.00  0.00     0.269 A 
BRANCH  22  23
ATOM     23  N   UNL     1      -0.596   7.116  -5.926  1.00  0.00     0.062 N 
ATOM     24  O   UNL     1       0.051   8.156  -5.731  1.00  0.00    -0.258 OA
ATOM     25  O   UNL     1      -1.719   7.076  -6.448  1.00  0.00    -0.258 OA
ENDBRANCH  22  23
ENDBRANCH   7  17
ENDBRANCH   4   7
ENDBRANCH   2   3
ENDBRANCH   1   2
BRANCH   1  26
ATOM     26  C   UNL     1       4.824  -2.059  -5.186  1.00  0.00     0.023 C 
BRANCH  26  27
ATOM     27  C   UNL     1       6.038  -2.304  -4.298  1.00  0.00     0.116 C 
BRANCH  27  28
ATOM     28  N   UNL     1       5.760  -3.203  -3.189  1.00  0.00    -0.352 N 
ATOM     29  C   UNL     1       6.544  -4.215  -2.691  1.00  0.00     0.251 C 
ATOM     30  H   UNL     1       4.896  -3.069  -2.736  1.00  0.00     0.163 HD
ATOM     31  O   UNL     1       6.108  -4.976  -1.834  1.00  0.00    -0.269 OA
BRANCH  29  32
ATOM     32  C   UNL     1       7.908  -4.399  -3.226  1.00  0.00     0.039 A 
ATOM     33  C   UNL     1       8.311  -5.675  -3.624  1.00  0.00     0.014 A 
ATOM     34  C   UNL     1       8.767  -3.306  -3.372  1.00  0.00     0.014 A 
ATOM     35  C   UNL     1       9.555  -5.843  -4.233  1.00  0.00     0.010 A 
ATOM     36  C   UNL     1       9.970  -3.463  -4.051  1.00  0.00     0.010 A 
ATOM     37  C   UNL     1      10.378  -4.733  -4.487  1.00  0.00    -0.014 A 
BRANCH  37  38
ATOM     38  C   UNL     1      11.663  -4.881  -5.214  1.00  0.00     0.031 A 
ATOM     39  C   UNL     1      12.960  -4.537  -4.537  1.00  0.00     0.074 A 
ATOM     40  C   UNL     1      11.658  -5.260  -6.507  1.00  0.00     0.049 A 
ATOM     41  N   UNL     1      14.175  -4.548  -5.023  1.00  0.00    -0.248 NA
ATOM     42  C   UNL     1      12.878  -4.096  -3.136  1.00  0.00     0.031 C 
ATOM     43  C   UNL     1      10.462  -5.570  -7.292  1.00  0.00     0.029 A 
ATOM     44  N   UNL     1      12.691  -5.439  -7.391  1.00  0.00    -0.354 N 
ATOM     45  C   UNL     1      14.997  -4.104  -3.994  1.00  0.00     0.074 A 
ATOM     46  C   UNL     1      14.136  -3.774  -2.880  1.00  0.00     0.031 C 
ATOM     47  C   UNL     1      10.831  -5.925  -8.533  1.00  0.00     0.029 A 
ATOM     48  C   UNL     1      12.283  -5.827  -8.644  1.00  0.00     0.049 A 
ATOM     49  H   UNL     1      13.636  -5.303  -7.151  1.00  0.00     0.167 HD
ATOM     50  C   UNL     1      16.347  -4.003  -3.973  1.00  0.00     0.037 A 
ATOM     51  C   UNL     1      12.997  -6.069  -9.760  1.00  0.00     0.037 A 
ATOM     52  C   UNL     1      17.200  -4.345  -5.082  1.00  0.00     0.049 A 
ATOM     53  C   UNL     1      14.493  -5.935  -9.718  1.00  0.00     0.074 A 
ATOM     54  C   UNL     1      18.582  -4.339  -5.139  1.00  0.00     0.029 A 
ATOM     55  N   UNL     1      16.750  -4.744  -6.332  1.00  0.00    -0.354 N 
ATOM     56  N   UNL     1      15.265  -5.590  -8.715  1.00  0.00    -0.248 NA
ATOM     57  C   UNL     1      15.220  -6.231 -10.960  1.00  0.00     0.031 C 
ATOM     58  C   UNL     1      18.967  -4.674  -6.441  1.00  0.00     0.029 A 
ATOM     59  C   UNL     1      17.827  -4.954  -7.178  1.00  0.00     0.049 A 
ATOM     60  H   UNL     1      15.805  -4.861  -6.581  1.00  0.00     0.167 HD
ATOM     61  C   UNL     1      16.567  -5.654  -9.196  1.00  0.00     0.074 A 
ATOM     62  C   UNL     1      16.480  -6.085 -10.576  1.00  0.00     0.031 C 
ATOM     63  C   UNL     1      17.728  -5.382  -8.552  1.00  0.00     0.037 A 
BRANCH  50  64
ATOM     64  C   UNL     1      16.981  -3.491  -2.710  1.00  0.00     0.057 A 
ATOM     65  C   UNL     1      16.962  -4.227  -1.517  1.00  0.00     0.134 A 
ATOM     66  C   UNL     1      17.635  -2.253  -2.691  1.00  0.00     0.134 A 
ATOM     67  F   UNL     1      16.343  -5.417  -1.461  1.00  0.00    -0.206 F 
ATOM     68  C   UNL     1      17.535  -3.734  -0.343  1.00  0.00     0.040 A 
ATOM     69  C   UNL     1      18.241  -1.764  -1.532  1.00  0.00     0.040 A 
ATOM     70  F   UNL     1      17.699  -1.498  -3.797  1.00  0.00    -0.206 F 
ATOM     71  C   UNL     1      18.183  -2.501  -0.351  1.00  0.00     0.006 A 
ENDBRANCH  50  64
BRANCH  51  72
ATOM     72  C   UNL     1      12.301  -6.480 -11.006  1.00  0.00     0.057 A 
ATOM     73  C   UNL     1      12.428  -7.780 -11.510  1.00  0.00     0.134 A 
ATOM     74  C   UNL     1      11.486  -5.590 -11.717  1.00  0.00     0.134 A 
ATOM     75  F   UNL     1      13.209  -8.673 -10.884  1.00  0.00    -0.206 F 
ATOM     76  C   UNL     1      11.784  -8.176 -12.683  1.00  0.00     0.040 A 
ATOM     77  C   UNL     1      10.814  -5.981 -12.876  1.00  0.00     0.040 A 
ATOM     78  F   UNL     1      11.315  -4.333 -11.281  1.00  0.00    -0.206 F 
ATOM     79  C   UNL     1      10.967  -7.276 -13.366  1.00  0.00     0.006 A 
ENDBRANCH  51  72
BRANCH  63  80
ATOM     80  C   UNL     1      19.005  -5.574  -9.320  1.00  0.00     0.057 A 
ATOM     81  C   UNL     1      19.380  -4.718 -10.364  1.00  0.00     0.134 A 
ATOM     82  C   UNL     1      19.890  -6.606  -8.982  1.00  0.00     0.134 A 
ATOM     83  F   UNL     1      18.573  -3.717 -10.746  1.00  0.00    -0.206 F 
ATOM     84  C   UNL     1      20.578  -4.898 -11.059  1.00  0.00     0.040 A 
ATOM     85  C   UNL     1      21.103  -6.777  -9.649  1.00  0.00     0.040 A 
ATOM     86  F   UNL     1      19.597  -7.457  -7.986  1.00  0.00    -0.206 F 
ATOM     87  C   UNL     1      21.447  -5.925 -10.697  1.00  0.00     0.006 A 
ENDBRANCH  63  80
ENDBRANCH  37  38
ENDBRANCH  29  32
ENDBRANCH  27  28
ENDBRANCH  26  27
ENDBRANCH   1  26
TORSDOF 16
