REMARK SMILES NS(=O)(=O)c1ccc(C#Cc2cc(Cl)cc3c2O[C@H](C(F)(F)F)C(C(=O)NCCCCNC(=O)c2ccc(-c4c5nc(c(-c6c(F)cccc6F)c6ccc([nH]6)c(-c6c(F)cccc6F)c6nc(c(-c7c(F)cccc7F)c7ccc4[nH]7)C=C6)C=C5)cc2)=C3)cc1
REMARK SMILES IDX 28 1 27 2 25 3 26 4 24 6 11 7 12 8 17 9 13 10 16 11 18 12
REMARK SMILES IDX 14 13 15 14 89 15 19 16 10 17 9 18 8 19 5 20 6 21 91 22 7 23
REMARK SMILES IDX 90 24 2 25 3 26 4 27 1 28 20 31 21 32 22 33 23 34 29 35
REMARK SMILES IDX 30 36 31 37 32 38 33 39 34 41 35 42 36 43 88 44 37 45 87 46
REMARK SMILES IDX 38 47 39 48 40 49 81 50 41 51 86 52 80 53 82 54 42 55 85 56
REMARK SMILES IDX 79 57 78 58 43 60 69 61 52 62 68 63 53 64 56 65 67 66 83 67
REMARK SMILES IDX 54 68 55 69 66 71 84 72 57 73 44 74 45 75 50 76 46 77 47 78
REMARK SMILES IDX 49 79 51 80 48 81 70 82 71 83 76 84 72 85 73 86 75 87 77 88
REMARK SMILES IDX 74 89 58 90 59 91 64 92 60 93 61 94 63 95 65 96 62 97
REMARK H PARENT 27 5 1 29 1 30 32 40 82 59 56 70
REMARK Flexibility Score: inf
ROOT
ATOM      1  C   UNL     1       5.134   7.690   9.604  1.00  0.00     0.116 C 
ENDROOT
BRANCH   1   2
ATOM      2  N   UNL     1       5.781   7.121  10.775  1.00  0.00    -0.352 N 
ATOM      3  C   UNL     1       6.101   5.881  11.223  1.00  0.00     0.251 C 
ATOM      4  O   UNL     1       6.712   5.840  12.294  1.00  0.00    -0.270 OA
ATOM      5  H   UNL     1       6.060   7.819  11.410  1.00  0.00     0.163 HD
BRANCH   3   6
ATOM      6  C   UNL     1       5.759   4.611  10.517  1.00  0.00     0.067 C 
ATOM      7  C   UNL     1       4.516   1.014   8.730  1.00  0.00     0.069 A 
ATOM      8  C   UNL     1       4.889  -0.205   9.292  1.00  0.00     0.041 A 
ATOM      9  C   UNL     1       4.917   2.208   9.344  1.00  0.00     0.143 A 
ATOM     10  C   UNL     1       5.647  -0.218  10.464  1.00  0.00     0.043 A 
ATOM     11  C   UNL     1       5.667   2.198  10.525  1.00  0.00     0.020 A 
ATOM     12  O   UNL     1       4.500   3.369   8.762  1.00  0.00    -0.474 OA
ATOM     13  Cl  UNL     1       6.100  -1.725  11.162  1.00  0.00    -0.084 Cl
ATOM     14  C   UNL     1       6.034   0.973  11.086  1.00  0.00     0.032 A 
ATOM     15  C   UNL     1       6.002   3.463  11.175  1.00  0.00     0.025 C 
ATOM     16  C   UNL     1       5.197   4.578   9.129  1.00  0.00     0.314 C 
BRANCH   7  17
ATOM     17  C   UNL     1       3.735   1.046   7.528  1.00  0.00    -0.058 C 
ATOM     18  C   UNL     1       3.103   1.128   6.505  1.00  0.00    -0.062 C 
BRANCH  18  19
ATOM     19  C   UNL     1       2.404   1.226   5.262  1.00  0.00     0.025 A 
ATOM     20  C   UNL     1       1.191   1.380   2.754  1.00  0.00     0.082 A 
ATOM     21  C   UNL     1       1.555   2.554   3.421  1.00  0.00     0.023 A 
ATOM     22  C   UNL     1       1.400   0.131   3.346  1.00  0.00     0.023 A 
ATOM     23  C   UNL     1       2.159   2.474   4.679  1.00  0.00     0.018 A 
ATOM     24  C   UNL     1       2.009   0.059   4.602  1.00  0.00     0.018 A 
BRANCH  20  25
ATOM     25  S   UNL     1       0.564   1.485   1.104  1.00  0.00     0.238 S 
ATOM     26  O   UNL     1       1.133   2.646   0.460  1.00  0.00    -0.207 OA
ATOM     27  O   UNL     1      -0.854   1.220   1.131  1.00  0.00    -0.207 OA
BRANCH  25  28
ATOM     28  N   UNL     1       1.276   0.171   0.332  1.00  0.00    -0.225 NA
ATOM     29  H   UNL     1       0.973   0.142  -0.641  1.00  0.00     0.137 HD
ATOM     30  H   UNL     1       0.997  -0.691   0.800  1.00  0.00     0.137 HD
ENDBRANCH  25  28
ENDBRANCH  20  25
ENDBRANCH  18  19
ENDBRANCH   7  17
BRANCH  16  31
ATOM     31  C   UNL     1       6.256   4.908   8.059  1.00  0.00     0.429 C 
ATOM     32  F   UNL     1       5.659   5.257   6.893  1.00  0.00    -0.167 F 
ATOM     33  F   UNL     1       7.045   5.952   8.409  1.00  0.00    -0.167 F 
ATOM     34  F   UNL     1       7.078   3.866   7.803  1.00  0.00    -0.167 F 
ENDBRANCH  16  31
ENDBRANCH   3   6
ENDBRANCH   1   2
BRANCH   1  35
ATOM     35  C   UNL     1       3.776   8.300   9.933  1.00  0.00     0.023 C 
BRANCH  35  36
ATOM     36  C   UNL     1       3.865   9.748  10.398  1.00  0.00     0.023 C 
BRANCH  36  37
ATOM     37  C   UNL     1       4.585  10.680   9.432  1.00  0.00     0.116 C 
BRANCH  37  38
ATOM     38  N   UNL     1       4.022  10.707   8.085  1.00  0.00    -0.352 N 
ATOM     39  C   UNL     1       3.921  11.793   7.240  1.00  0.00     0.251 C 
ATOM     40  H   UNL     1       3.675   9.852   7.740  1.00  0.00     0.163 HD
ATOM     41  O   UNL     1       3.329  11.717   6.172  1.00  0.00    -0.269 OA
BRANCH  39  42
ATOM     42  C   UNL     1       4.505  13.071   7.696  1.00  0.00     0.039 A 
ATOM     43  C   UNL     1       5.799  13.076   8.212  1.00  0.00     0.014 A 
ATOM     44  C   UNL     1       3.698  14.207   7.779  1.00  0.00     0.014 A 
ATOM     45  C   UNL     1       6.188  14.120   9.035  1.00  0.00     0.010 A 
ATOM     46  C   UNL     1       4.155  15.316   8.496  1.00  0.00     0.010 A 
ATOM     47  C   UNL     1       5.368  15.251   9.201  1.00  0.00    -0.014 A 
BRANCH  47  48
ATOM     48  C   UNL     1       5.796  16.310  10.158  1.00  0.00     0.031 A 
ATOM     49  C   UNL     1       4.954  16.667  11.359  1.00  0.00     0.074 A 
ATOM     50  C   UNL     1       7.005  16.884   9.998  1.00  0.00     0.049 A 
ATOM     51  N   UNL     1       5.215  17.509  12.331  1.00  0.00    -0.248 NA
ATOM     52  C   UNL     1       3.647  16.003  11.486  1.00  0.00     0.031 C 
ATOM     53  C   UNL     1       7.925  16.618   8.889  1.00  0.00     0.029 A 
ATOM     54  N   UNL     1       7.686  17.774  10.786  1.00  0.00    -0.354 N 
ATOM     55  C   UNL     1       4.106  17.484  13.170  1.00  0.00     0.074 A 
ATOM     56  C   UNL     1       3.147  16.585  12.566  1.00  0.00     0.031 C 
ATOM     57  C   UNL     1       9.075  17.269   9.106  1.00  0.00     0.029 A 
ATOM     58  C   UNL     1       8.945  18.064  10.320  1.00  0.00     0.049 A 
ATOM     59  H   UNL     1       7.309  18.168  11.606  1.00  0.00     0.167 HD
ATOM     60  C   UNL     1       3.906  18.136  14.343  1.00  0.00     0.037 A 
ATOM     61  C   UNL     1       9.887  18.892  10.804  1.00  0.00     0.037 A 
ATOM     62  C   UNL     1       4.858  19.037  14.944  1.00  0.00     0.049 A 
ATOM     63  C   UNL     1       9.606  19.658  12.065  1.00  0.00     0.074 A 
ATOM     64  C   UNL     1       4.750  19.744  16.130  1.00  0.00     0.029 A 
ATOM     65  N   UNL     1       6.091  19.366  14.399  1.00  0.00    -0.354 N 
ATOM     66  N   UNL     1       8.559  19.611  12.852  1.00  0.00    -0.248 NA
ATOM     67  C   UNL     1      10.648  20.594  12.503  1.00  0.00     0.031 C 
ATOM     68  C   UNL     1       5.888  20.548  16.269  1.00  0.00     0.029 A 
ATOM     69  C   UNL     1       6.741  20.283  15.211  1.00  0.00     0.049 A 
ATOM     70  H   UNL     1       6.451  19.001  13.558  1.00  0.00     0.167 HD
ATOM     71  C   UNL     1       8.830  20.487  13.896  1.00  0.00     0.074 A 
ATOM     72  C   UNL     1      10.154  21.023  13.654  1.00  0.00     0.031 C 
ATOM     73  C   UNL     1       8.055  20.819  14.959  1.00  0.00     0.037 A 
BRANCH  60  74
ATOM     74  C   UNL     1       2.588  17.918  15.038  1.00  0.00     0.057 A 
ATOM     75  C   UNL     1       1.659  18.961  15.152  1.00  0.00     0.134 A 
ATOM     76  C   UNL     1       2.235  16.682  15.599  1.00  0.00     0.134 A 
ATOM     77  F   UNL     1       1.933  20.175  14.651  1.00  0.00    -0.206 F 
ATOM     78  C   UNL     1       0.429  18.782  15.788  1.00  0.00     0.040 A 
ATOM     79  C   UNL     1       0.993  16.481  16.206  1.00  0.00     0.040 A 
ATOM     80  F   UNL     1       3.071  15.635  15.520  1.00  0.00    -0.206 F 
ATOM     81  C   UNL     1       0.087  17.535  16.305  1.00  0.00     0.006 A 
ENDBRANCH  60  74
BRANCH  61  82
ATOM     82  C   UNL     1      11.178  19.064  10.088  1.00  0.00     0.057 A 
ATOM     83  C   UNL     1      11.234  19.657   8.821  1.00  0.00     0.134 A 
ATOM     84  C   UNL     1      12.390  18.685  10.676  1.00  0.00     0.134 A 
ATOM     85  F   UNL     1      10.108  20.033   8.197  1.00  0.00    -0.206 F 
ATOM     86  C   UNL     1      12.447  19.873   8.167  1.00  0.00     0.040 A 
ATOM     87  C   UNL     1      13.614  18.930  10.050  1.00  0.00     0.040 A 
ATOM     88  F   UNL     1      12.405  18.125  11.895  1.00  0.00    -0.206 F 
ATOM     89  C   UNL     1      13.643  19.524   8.790  1.00  0.00     0.006 A 
ENDBRANCH  61  82
BRANCH  73  90
ATOM     90  C   UNL     1       8.656  21.767  15.961  1.00  0.00     0.057 A 
ATOM     91  C   UNL     1       8.982  21.322  17.250  1.00  0.00     0.134 A 
ATOM     92  C   UNL     1       8.953  23.101  15.649  1.00  0.00     0.134 A 
ATOM     93  F   UNL     1       8.713  20.063  17.626  1.00  0.00    -0.206 F 
ATOM     94  C   UNL     1       9.602  22.159  18.178  1.00  0.00     0.040 A 
ATOM     95  C   UNL     1       9.612  23.935  16.555  1.00  0.00     0.040 A 
ATOM     96  F   UNL     1       8.677  23.592  14.431  1.00  0.00    -0.206 F 
ATOM     97  C   UNL     1       9.938  23.464  17.824  1.00  0.00     0.006 A 
ENDBRANCH  73  90
ENDBRANCH  47  48
ENDBRANCH  39  42
ENDBRANCH  37  38
ENDBRANCH  36  37
ENDBRANCH  35  36
ENDBRANCH   1  35
TORSDOF 16
