REMARK SMILES CC1(C)[C@H]2CC[C@]1(C)[C@H](NC(=O)CCC(=O)NCCCCNC(=O)c1ccc(-c3c4nc(c(-c5c(F)cccc5F)c5ccc([nH]5)c(-c5c(F)cccc5F)c5nc(c(-c6c(F)cccc6F)c6ccc3[nH]6)C=C5)C=C4)cc1)C2
REMARK SMILES IDX 19 1 18 2 17 3 15 4 16 5 14 7 13 8 11 9 10 10 12 12 9 13
REMARK SMILES IDX 1 14 2 15 3 16 4 17 7 18 5 19 79 20 6 21 8 22 20 23 21 24
REMARK SMILES IDX 22 25 23 26 24 28 25 29 26 30 78 31 27 32 77 33 28 34 29 35
REMARK SMILES IDX 30 36 71 37 31 38 76 39 70 40 72 41 32 42 75 43 69 44 68 45
REMARK SMILES IDX 33 47 59 48 42 49 58 50 43 51 46 52 57 53 73 54 44 55 45 56
REMARK SMILES IDX 56 58 74 59 47 60 34 61 35 62 40 63 36 64 37 65 39 66 41 67
REMARK SMILES IDX 38 68 60 69 61 70 66 71 62 72 63 73 65 74 67 75 64 76 48 77
REMARK SMILES IDX 49 78 54 79 50 80 51 81 53 82 55 83 52 84
REMARK H PARENT 17 6 10 11 22 27 72 46 46 57
REMARK Flexibility Score: inf
ROOT
ATOM      1  C   UNL     1      -2.547  -2.813   2.285  1.00  0.00     0.023 C 
ENDROOT
BRANCH   1   2
ATOM      2  C   UNL     1      -3.261  -1.583   2.842  1.00  0.00     0.116 C 
BRANCH   2   3
ATOM      3  N   UNL     1      -2.411  -0.412   2.842  1.00  0.00    -0.356 N 
ATOM      4  C   UNL     1      -2.615   0.788   2.242  1.00  0.00     0.220 C 
ATOM      5  O   UNL     1      -1.816   1.695   2.475  1.00  0.00    -0.275 OA
ATOM      6  H   UNL     1      -1.569  -0.498   3.346  1.00  0.00     0.163 HD
BRANCH   4   7
ATOM      7  C   UNL     1      -3.823   1.013   1.368  1.00  0.00     0.110 C 
BRANCH   7   8
ATOM      8  C   UNL     1      -3.856   0.436  -0.038  1.00  0.00     0.110 C 
BRANCH   8   9
ATOM      9  C   UNL     1      -3.215  -0.891  -0.359  1.00  0.00     0.220 C 
ATOM     10  N   UNL     1      -1.896  -1.037  -0.645  1.00  0.00    -0.353 N 
ATOM     11  H   UNL     1      -1.708  -1.796  -1.243  1.00  0.00     0.163 HD
ATOM     12  O   UNL     1      -3.923  -1.900  -0.451  1.00  0.00    -0.275 OA
BRANCH  10  13
ATOM     13  C   UNL     1      -0.697  -0.302  -0.249  1.00  0.00     0.088 C 
ATOM     14  C   UNL     1       2.828   0.498  -1.737  1.00  0.00     0.012 C 
ATOM     15  C   UNL     1       1.547   0.475  -0.881  1.00  0.00    -0.025 C 
ATOM     16  C   UNL     1       1.998   0.713   0.577  1.00  0.00     0.012 C 
ATOM     17  C   UNL     1       0.477   1.459  -1.407  1.00  0.00    -0.003 C 
ATOM     18  C   UNL     1       0.583  -0.739  -1.073  1.00  0.00    -0.007 C 
ATOM     19  C   UNL     1       0.063   0.877  -2.780  1.00  0.00     0.005 C 
ATOM     20  C   UNL     1      -0.710   1.222  -0.466  1.00  0.00     0.029 C 
ATOM     21  C   UNL     1       0.227  -0.637  -2.580  1.00  0.00     0.010 C 
ATOM     22  C   UNL     1       1.148  -2.096  -0.686  1.00  0.00     0.014 C 
ENDBRANCH  10  13
ENDBRANCH   8   9
ENDBRANCH   7   8
ENDBRANCH   4   7
ENDBRANCH   2   3
ENDBRANCH   1   2
BRANCH   1  23
ATOM     23  C   UNL     1      -1.340  -3.283   3.082  1.00  0.00     0.023 C 
BRANCH  23  24
ATOM     24  C   UNL     1      -1.618  -3.520   4.553  1.00  0.00     0.116 C 
BRANCH  24  25
ATOM     25  N   UNL     1      -2.818  -4.309   4.798  1.00  0.00    -0.352 N 
ATOM     26  C   UNL     1      -3.013  -5.319   5.708  1.00  0.00     0.251 C 
ATOM     27  H   UNL     1      -3.595  -4.087   4.235  1.00  0.00     0.163 HD
ATOM     28  O   UNL     1      -4.062  -5.943   5.749  1.00  0.00    -0.269 OA
BRANCH  26  29
ATOM     29  C   UNL     1      -1.896  -5.662   6.603  1.00  0.00     0.039 A 
ATOM     30  C   UNL     1      -1.455  -6.984   6.654  1.00  0.00     0.014 A 
ATOM     31  C   UNL     1      -1.222  -4.647   7.285  1.00  0.00     0.014 A 
ATOM     32  C   UNL     1      -0.277  -7.280   7.337  1.00  0.00     0.010 A 
ATOM     33  C   UNL     1       0.003  -4.925   7.865  1.00  0.00     0.010 A 
ATOM     34  C   UNL     1       0.480  -6.244   7.907  1.00  0.00    -0.014 A 
BRANCH  34  35
ATOM     35  C   UNL     1       1.761  -6.502   8.602  1.00  0.00     0.031 A 
ATOM     36  C   UNL     1       1.884  -6.131  10.052  1.00  0.00     0.074 A 
ATOM     37  C   UNL     1       2.824  -6.961   7.917  1.00  0.00     0.049 A 
ATOM     38  N   UNL     1       2.947  -6.092  10.811  1.00  0.00    -0.248 NA
ATOM     39  C   UNL     1       0.649  -5.687  10.721  1.00  0.00     0.031 C 
ATOM     40  C   UNL     1       2.837  -7.308   6.494  1.00  0.00     0.029 A 
ATOM     41  N   UNL     1       4.107  -7.205   8.330  1.00  0.00    -0.354 N 
ATOM     42  C   UNL     1       2.517  -5.569  12.024  1.00  0.00     0.074 A 
ATOM     43  C   UNL     1       1.114  -5.252  11.880  1.00  0.00     0.031 C 
ATOM     44  C   UNL     1       4.058  -7.761   6.164  1.00  0.00     0.029 A 
ATOM     45  C   UNL     1       4.921  -7.694   7.338  1.00  0.00     0.049 A 
ATOM     46  H   UNL     1       4.417  -7.044   9.251  1.00  0.00     0.167 HD
ATOM     47  C   UNL     1       3.223  -5.394  13.165  1.00  0.00     0.037 A 
ATOM     48  C   UNL     1       6.218  -8.049   7.382  1.00  0.00     0.037 A 
ATOM     49  C   UNL     1       4.598  -5.782  13.318  1.00  0.00     0.049 A 
ATOM     50  C   UNL     1       6.970  -7.900   8.674  1.00  0.00     0.074 A 
ATOM     51  C   UNL     1       5.393  -5.725  14.447  1.00  0.00     0.029 A 
ATOM     52  N   UNL     1       5.376  -6.321  12.303  1.00  0.00    -0.354 N 
ATOM     53  N   UNL     1       6.548  -7.437   9.826  1.00  0.00    -0.248 NA
ATOM     54  C   UNL     1       8.377  -8.321   8.672  1.00  0.00     0.031 C 
ATOM     55  C   UNL     1       6.660  -6.216  14.110  1.00  0.00     0.029 A 
ATOM     56  C   UNL     1       6.643  -6.603  12.779  1.00  0.00     0.049 A 
ATOM     57  H   UNL     1       5.071  -6.479  11.380  1.00  0.00     0.167 HD
ATOM     58  C   UNL     1       7.626  -7.537  10.694  1.00  0.00     0.074 A 
ATOM     59  C   UNL     1       8.721  -8.109   9.935  1.00  0.00     0.031 C 
ATOM     60  C   UNL     1       7.706  -7.188  12.002  1.00  0.00     0.037 A 
BRANCH  47  61
ATOM     61  C   UNL     1       2.501  -4.767  14.321  1.00  0.00     0.057 A 
ATOM     62  C   UNL     1       1.474  -5.435  15.002  1.00  0.00     0.134 A 
ATOM     63  C   UNL     1       2.810  -3.466  14.734  1.00  0.00     0.134 A 
ATOM     64  F   UNL     1       1.115  -6.676  14.642  1.00  0.00    -0.206 F 
ATOM     65  C   UNL     1       0.748  -4.814  16.020  1.00  0.00     0.040 A 
ATOM     66  C   UNL     1       2.111  -2.845  15.771  1.00  0.00     0.040 A 
ATOM     67  F   UNL     1       3.783  -2.770  14.127  1.00  0.00    -0.206 F 
ATOM     68  C   UNL     1       1.068  -3.515  16.408  1.00  0.00     0.006 A 
ENDBRANCH  47  61
BRANCH  48  69
ATOM     69  C   UNL     1       6.864  -8.638   6.185  1.00  0.00     0.057 A 
ATOM     70  C   UNL     1       7.139 -10.010   6.130  1.00  0.00     0.134 A 
ATOM     71  C   UNL     1       7.203  -7.866   5.069  1.00  0.00     0.134 A 
ATOM     72  F   UNL     1       6.849 -10.797   7.176  1.00  0.00    -0.206 F 
ATOM     73  C   UNL     1       7.738 -10.592   5.013  1.00  0.00     0.040 A 
ATOM     74  C   UNL     1       7.787  -8.438   3.937  1.00  0.00     0.040 A 
ATOM     75  F   UNL     1       6.956  -6.548   5.057  1.00  0.00    -0.206 F 
ATOM     76  C   UNL     1       8.059  -9.805   3.909  1.00  0.00     0.006 A 
ENDBRANCH  48  69
BRANCH  60  77
ATOM     77  C   UNL     1       9.004  -7.456  12.699  1.00  0.00     0.057 A 
ATOM     78  C   UNL     1      10.126  -6.644  12.502  1.00  0.00     0.134 A 
ATOM     79  C   UNL     1       9.113  -8.512  13.612  1.00  0.00     0.134 A 
ATOM     80  F   UNL     1      10.085  -5.627  11.629  1.00  0.00    -0.206 F 
ATOM     81  C   UNL     1      11.321  -6.883  13.182  1.00  0.00     0.040 A 
ATOM     82  C   UNL     1      10.296  -8.747  14.312  1.00  0.00     0.040 A 
ATOM     83  F   UNL     1       8.069  -9.320  13.847  1.00  0.00    -0.206 F 
ATOM     84  C   UNL     1      11.405  -7.933  14.095  1.00  0.00     0.006 A 
ENDBRANCH  60  77
ENDBRANCH  34  35
ENDBRANCH  26  29
ENDBRANCH  24  25
ENDBRANCH  23  24
ENDBRANCH   1  23
TORSDOF 14
