REMARK SMILES Cc1cccc(-n2ncc(C(=O)Nc3cccc(C(=O)NCCCCNC(=O)c4ccc(-c5c6nc(c(-c7c(F)cccc7F)c7ccc([nH]7)c(-c7c(F)cccc7F)c7nc(c(-c8c(F)cccc8F)c8ccc5[nH]8)C=C7)C=C6)cc4)c3C)c2C)c1
REMARK SMILES IDX 23 1 22 2 21 3 19 4 20 5 18 7 14 8 15 9 83 10 16 11 84 12
REMARK SMILES IDX 17 13 13 14 11 15 12 16 10 18 7 19 8 20 85 21 9 22 86 23
REMARK SMILES IDX 6 24 1 25 2 26 3 27 87 28 4 29 5 30 24 31 25 32 26 33 27 34
REMARK SMILES IDX 28 36 29 37 30 38 82 39 31 40 81 41 32 42 33 43 34 44 75 45
REMARK SMILES IDX 35 46 80 47 74 48 76 49 36 50 79 51 73 52 72 53 37 55 63 56
REMARK SMILES IDX 46 57 62 58 47 59 50 60 61 61 77 62 48 63 49 64 60 66 78 67
REMARK SMILES IDX 51 68 38 69 39 70 44 71 40 72 41 73 43 74 45 75 42 76 64 77
REMARK SMILES IDX 65 78 70 79 66 80 67 81 69 82 71 83 68 84 52 85 53 86 58 87
REMARK SMILES IDX 54 88 55 89 57 90 59 91 56 92
REMARK H PARENT 21 6 13 17 26 35 76 54 50 65
REMARK Flexibility Score: inf
ROOT
ATOM      1  C   UNL     1      -2.821  10.213  -5.191  1.00  0.00     0.023 C 
ENDROOT
BRANCH   1   2
ATOM      2  C   UNL     1      -1.707   9.536  -4.395  1.00  0.00     0.116 C 
BRANCH   2   3
ATOM      3  N   UNL     1      -1.677   9.893  -2.983  1.00  0.00    -0.352 N 
ATOM      4  C   UNL     1      -2.115   9.356  -1.795  1.00  0.00     0.251 C 
ATOM      5  O   UNL     1      -1.743   9.969  -0.791  1.00  0.00    -0.269 OA
ATOM      6  H   UNL     1      -1.219  10.753  -2.841  1.00  0.00     0.163 HD
BRANCH   4   7
ATOM      7  C   UNL     1      -2.962   8.120  -1.634  1.00  0.00     0.044 A 
ATOM      8  C   UNL     1      -4.202   6.560  -0.227  1.00  0.00     0.045 A 
ATOM      9  C   UNL     1      -4.327   5.670  -1.296  1.00  0.00     0.026 A 
ATOM     10  C   UNL     1      -3.657   7.854  -0.415  1.00  0.00    -0.015 A 
ATOM     11  C   UNL     1      -3.705   5.949  -2.494  1.00  0.00     0.003 A 
ATOM     12  C   UNL     1      -3.688   8.836   0.734  1.00  0.00     0.047 C 
ATOM     13  C   UNL     1      -2.964   7.121  -2.618  1.00  0.00     0.014 A 
BRANCH   8  14
ATOM     14  N   UNL     1      -4.512   6.092   1.063  1.00  0.00    -0.322 N 
ATOM     15  C   UNL     1      -4.185   4.860   1.613  1.00  0.00     0.259 C 
ATOM     16  O   UNL     1      -4.786   4.497   2.624  1.00  0.00    -0.269 OA
ATOM     17  H   UNL     1      -5.017   6.708   1.642  1.00  0.00     0.170 HD
BRANCH  15  18
ATOM     18  C   UNL     1      -3.075   4.077   1.053  1.00  0.00     0.081 A 
ATOM     19  N   UNL     1      -1.667   2.417   0.527  1.00  0.00    -0.237 N 
ATOM     20  N   UNL     1      -1.104   3.536   0.009  1.00  0.00    -0.175 NA
ATOM     21  C   UNL     1      -2.795   2.729   1.281  1.00  0.00     0.054 A 
ATOM     22  C   UNL     1      -1.952   4.512   0.314  1.00  0.00     0.149 A 
ATOM     23  C   UNL     1      -3.445   1.805   2.250  1.00  0.00     0.068 C 
BRANCH  19  24
ATOM     24  C   UNL     1      -1.039   1.162   0.291  1.00  0.00     0.065 A 
ATOM     25  C   UNL     1       2.520  -0.115  -0.208  1.00  0.00     0.044 C 
ATOM     26  C   UNL     1       1.025  -0.081  -0.079  1.00  0.00    -0.049 A 
ATOM     27  C   UNL     1       0.292  -1.272  -0.061  1.00  0.00     0.003 A 
ATOM     28  C   UNL     1       0.349   1.136   0.067  1.00  0.00     0.031 A 
ATOM     29  C   UNL     1      -1.094  -1.248   0.099  1.00  0.00     0.002 A 
ATOM     30  C   UNL     1      -1.762  -0.034   0.278  1.00  0.00     0.028 A 
ENDBRANCH  19  24
ENDBRANCH  15  18
ENDBRANCH   8  14
ENDBRANCH   4   7
ENDBRANCH   2   3
ENDBRANCH   1   2
BRANCH   1  31
ATOM     31  C   UNL     1      -2.605  11.702  -5.465  1.00  0.00     0.023 C 
BRANCH  31  32
ATOM     32  C   UNL     1      -1.345  12.045  -6.256  1.00  0.00     0.116 C 
BRANCH  32  33
ATOM     33  N   UNL     1      -1.380  11.716  -7.674  1.00  0.00    -0.352 N 
ATOM     34  C   UNL     1      -0.352  11.724  -8.611  1.00  0.00     0.251 C 
ATOM     35  H   UNL     1      -2.261  11.447  -8.021  1.00  0.00     0.163 HD
ATOM     36  O   UNL     1      -0.589  11.465  -9.776  1.00  0.00    -0.269 OA
BRANCH  34  37
ATOM     37  C   UNL     1       1.059  11.905  -8.163  1.00  0.00     0.039 A 
ATOM     38  C   UNL     1       2.028  11.051  -8.708  1.00  0.00     0.014 A 
ATOM     39  C   UNL     1       1.387  12.724  -7.089  1.00  0.00     0.014 A 
ATOM     40  C   UNL     1       3.202  10.808  -7.998  1.00  0.00     0.010 A 
ATOM     41  C   UNL     1       2.499  12.412  -6.330  1.00  0.00     0.010 A 
ATOM     42  C   UNL     1       3.356  11.389  -6.743  1.00  0.00    -0.014 A 
BRANCH  42  43
ATOM     43  C   UNL     1       4.269  10.871  -5.731  1.00  0.00     0.031 A 
ATOM     44  C   UNL     1       5.478  11.618  -5.338  1.00  0.00     0.074 A 
ATOM     45  C   UNL     1       3.930   9.742  -5.063  1.00  0.00     0.049 A 
ATOM     46  N   UNL     1       6.437  11.104  -4.646  1.00  0.00    -0.248 NA
ATOM     47  C   UNL     1       5.745  12.995  -5.751  1.00  0.00     0.031 C 
ATOM     48  C   UNL     1       4.505   9.229  -3.821  1.00  0.00     0.029 A 
ATOM     49  N   UNL     1       3.126   8.689  -5.528  1.00  0.00    -0.354 N 
ATOM     50  C   UNL     1       7.252  12.131  -4.250  1.00  0.00     0.074 A 
ATOM     51  C   UNL     1       6.877  13.246  -5.082  1.00  0.00     0.031 C 
ATOM     52  C   UNL     1       4.311   7.903  -3.772  1.00  0.00     0.029 A 
ATOM     53  C   UNL     1       3.740   7.506  -5.046  1.00  0.00     0.049 A 
ATOM     54  H   UNL     1       2.309   8.757  -6.074  1.00  0.00     0.167 HD
ATOM     55  C   UNL     1       8.049  11.950  -3.161  1.00  0.00     0.037 A 
ATOM     56  C   UNL     1       4.293   6.605  -5.909  1.00  0.00     0.037 A 
ATOM     57  C   UNL     1       8.178  10.532  -2.821  1.00  0.00     0.049 A 
ATOM     58  C   UNL     1       5.787   6.396  -5.744  1.00  0.00     0.074 A 
ATOM     59  C   UNL     1       7.762   9.714  -1.786  1.00  0.00     0.029 A 
ATOM     60  N   UNL     1       8.682   9.684  -3.794  1.00  0.00    -0.354 N 
ATOM     61  N   UNL     1       6.529   7.019  -4.870  1.00  0.00    -0.248 NA
ATOM     62  C   UNL     1       6.578   5.534  -6.626  1.00  0.00     0.031 C 
ATOM     63  C   UNL     1       7.947   8.356  -2.200  1.00  0.00     0.029 A 
ATOM     64  C   UNL     1       8.511   8.358  -3.464  1.00  0.00     0.049 A 
ATOM     65  H   UNL     1       9.112   9.994  -4.624  1.00  0.00     0.167 HD
ATOM     66  C   UNL     1       7.847   6.740  -5.114  1.00  0.00     0.074 A 
ATOM     67  C   UNL     1       7.830   5.788  -6.208  1.00  0.00     0.031 C 
ATOM     68  C   UNL     1       8.868   7.350  -4.450  1.00  0.00     0.037 A 
BRANCH  55  69
ATOM     69  C   UNL     1       8.625  13.067  -2.324  1.00  0.00     0.057 A 
ATOM     70  C   UNL     1       9.569  12.786  -1.318  1.00  0.00     0.134 A 
ATOM     71  C   UNL     1       8.205  14.413  -2.366  1.00  0.00     0.134 A 
ATOM     72  F   UNL     1      10.043  11.545  -1.133  1.00  0.00    -0.206 F 
ATOM     73  C   UNL     1      10.055  13.762  -0.436  1.00  0.00     0.040 A 
ATOM     74  C   UNL     1       8.727  15.408  -1.530  1.00  0.00     0.040 A 
ATOM     75  F   UNL     1       7.220  14.834  -3.168  1.00  0.00    -0.206 F 
ATOM     76  C   UNL     1       9.647  15.083  -0.549  1.00  0.00     0.006 A 
ENDBRANCH  55  69
BRANCH  56  77
ATOM     77  C   UNL     1       3.554   6.519  -7.196  1.00  0.00     0.057 A 
ATOM     78  C   UNL     1       2.216   6.084  -7.177  1.00  0.00     0.134 A 
ATOM     79  C   UNL     1       3.990   7.186  -8.344  1.00  0.00     0.134 A 
ATOM     80  F   UNL     1       1.731   5.439  -6.104  1.00  0.00    -0.206 F 
ATOM     81  C   UNL     1       1.322   6.403  -8.200  1.00  0.00     0.040 A 
ATOM     82  C   UNL     1       3.106   7.495  -9.384  1.00  0.00     0.040 A 
ATOM     83  F   UNL     1       5.243   7.655  -8.427  1.00  0.00    -0.206 F 
ATOM     84  C   UNL     1       1.761   7.142  -9.294  1.00  0.00     0.006 A 
ENDBRANCH  56  77
BRANCH  68  85
ATOM     85  C   UNL     1      10.310   7.049  -4.729  1.00  0.00     0.057 A 
ATOM     86  C   UNL     1      10.809   5.740  -4.725  1.00  0.00     0.134 A 
ATOM     87  C   UNL     1      11.262   8.073  -4.886  1.00  0.00     0.134 A 
ATOM     88  F   UNL     1       9.988   4.692  -4.560  1.00  0.00    -0.206 F 
ATOM     89  C   UNL     1      12.174   5.465  -4.875  1.00  0.00     0.040 A 
ATOM     90  C   UNL     1      12.631   7.814  -4.992  1.00  0.00     0.040 A 
ATOM     91  F   UNL     1      10.896   9.361  -4.964  1.00  0.00    -0.206 F 
ATOM     92  C   UNL     1      13.091   6.505  -4.990  1.00  0.00     0.006 A 
ENDBRANCH  68  85
ENDBRANCH  42  43
ENDBRANCH  34  37
ENDBRANCH  32  33
ENDBRANCH  31  32
ENDBRANCH   1  31
TORSDOF 14
