REMARK SMILES Nc1cccc(CC(=O)N2CC(C(=O)NCCCCNC(=O)c3ccc(-c4c5nc(c(-c6c(F)cccc6F)c6ccc([nH]6)c(-c6c(F)cccc6F)c6nc(c(-c7c(F)cccc7F)c7ccc4[nH]7)C=C6)C=C5)cc3)C2)c1
REMARK SMILES IDX 17 1 16 2 15 3 13 4 14 5 12 7 8 8 9 9 10 10 11 11 77 12 7 13
REMARK SMILES IDX 6 14 2 15 3 16 78 17 4 18 5 19 1 20 18 23 19 24 20 25 21 26
REMARK SMILES IDX 22 28 23 29 24 30 76 31 25 32 75 33 26 34 27 35 28 36 69 37
REMARK SMILES IDX 29 38 74 39 68 40 70 41 30 42 73 43 67 44 66 45 31 47 57 48
REMARK SMILES IDX 40 49 56 50 41 51 44 52 55 53 71 54 42 55 43 56 54 58 72 59
REMARK SMILES IDX 45 60 32 61 33 62 38 63 34 64 35 65 37 66 39 67 36 68 58 69
REMARK SMILES IDX 59 70 64 71 60 72 61 73 63 74 65 75 62 76 46 77 47 78 52 79
REMARK SMILES IDX 48 80 49 81 51 82 53 83 50 84
REMARK H PARENT 15 6 1 21 1 22 20 27 70 46 44 57
REMARK Flexibility Score: inf
ROOT
ATOM      1  C   UNL     1       1.916   3.341  -4.402  1.00  0.00     0.023 C 
ENDROOT
BRANCH   1   2
ATOM      2  C   UNL     1       0.518   3.855  -4.744  1.00  0.00     0.116 C 
BRANCH   2   3
ATOM      3  N   UNL     1      -0.101   3.053  -5.779  1.00  0.00    -0.356 N 
ATOM      4  C   UNL     1      -1.161   2.182  -5.737  1.00  0.00     0.226 C 
ATOM      5  O   UNL     1      -1.427   1.619  -6.810  1.00  0.00    -0.275 OA
ATOM      6  H   UNL     1       0.311   3.149  -6.668  1.00  0.00     0.163 HD
BRANCH   4   7
ATOM      7  C   UNL     1      -1.978   1.928  -4.471  1.00  0.00     0.117 C 
ATOM      8  C   UNL     1      -2.731   2.842  -1.288  1.00  0.00     0.227 C 
ATOM      9  O   UNL     1      -3.745   3.533  -1.141  1.00  0.00    -0.275 OA
ATOM     10  N   UNL     1      -2.275   2.551  -2.537  1.00  0.00    -0.341 N 
ATOM     11  C   UNL     1      -2.738   3.079  -3.810  1.00  0.00     0.134 C 
ATOM     12  C   UNL     1      -1.327   1.623  -3.116  1.00  0.00     0.134 C 
BRANCH   8  13
ATOM     13  C   UNL     1      -1.904   2.470  -0.071  1.00  0.00     0.135 C 
BRANCH  13  14
ATOM     14  C   UNL     1      -1.167   1.157  -0.063  1.00  0.00    -0.037 A 
ATOM     15  C   UNL     1       0.955  -0.056  -0.022  1.00  0.00     0.032 A 
ATOM     16  C   UNL     1       0.244  -1.257  -0.025  1.00  0.00     0.025 A 
ATOM     17  C   UNL     1       0.239   1.142  -0.071  1.00  0.00     0.029 A 
ATOM     18  C   UNL     1      -1.153  -1.261  -0.002  1.00  0.00     0.002 A 
ATOM     19  C   UNL     1      -1.858  -0.058  -0.012  1.00  0.00     0.004 A 
BRANCH  15  20
ATOM     20  N   UNL     1       2.338  -0.051  -0.113  1.00  0.00    -0.399 N 
ATOM     21  H   UNL     1       2.837  -0.900  -0.078  1.00  0.00     0.156 HD
ATOM     22  H   UNL     1       2.822   0.800  -0.212  1.00  0.00     0.156 HD
ENDBRANCH  15  20
ENDBRANCH  13  14
ENDBRANCH   8  13
ENDBRANCH   4   7
ENDBRANCH   2   3
ENDBRANCH   1   2
BRANCH   1  23
ATOM     23  C   UNL     1       2.940   3.479  -5.532  1.00  0.00     0.023 C 
BRANCH  23  24
ATOM     24  C   UNL     1       3.111   4.889  -6.088  1.00  0.00     0.116 C 
BRANCH  24  25
ATOM     25  N   UNL     1       3.511   5.854  -5.075  1.00  0.00    -0.352 N 
ATOM     26  C   UNL     1       4.499   6.808  -5.129  1.00  0.00     0.251 C 
ATOM     27  H   UNL     1       3.003   5.819  -4.233  1.00  0.00     0.163 HD
ATOM     28  O   UNL     1       4.792   7.449  -4.124  1.00  0.00    -0.269 OA
BRANCH  26  29
ATOM     29  C   UNL     1       5.233   7.035  -6.391  1.00  0.00     0.039 A 
ATOM     30  C   UNL     1       6.627   7.123  -6.355  1.00  0.00     0.014 A 
ATOM     31  C   UNL     1       4.553   7.141  -7.608  1.00  0.00     0.014 A 
ATOM     32  C   UNL     1       7.343   7.242  -7.547  1.00  0.00     0.010 A 
ATOM     33  C   UNL     1       5.271   7.182  -8.799  1.00  0.00     0.010 A 
ATOM     34  C   UNL     1       6.674   7.231  -8.782  1.00  0.00    -0.014 A 
BRANCH  34  35
ATOM     35  C   UNL     1       7.423   7.260 -10.064  1.00  0.00     0.031 A 
ATOM     36  C   UNL     1       7.257   8.416 -11.011  1.00  0.00     0.074 A 
ATOM     37  C   UNL     1       8.203   6.215 -10.405  1.00  0.00     0.049 A 
ATOM     38  N   UNL     1       7.770   8.589 -12.204  1.00  0.00    -0.248 NA
ATOM     39  C   UNL     1       6.379   9.512 -10.572  1.00  0.00     0.031 C 
ATOM     40  C   UNL     1       8.413   5.014  -9.595  1.00  0.00     0.029 A 
ATOM     41  N   UNL     1       8.958   5.992 -11.530  1.00  0.00    -0.354 N 
ATOM     42  C   UNL     1       7.272   9.803 -12.657  1.00  0.00     0.074 A 
ATOM     43  C   UNL     1       6.370  10.296 -11.639  1.00  0.00     0.031 C 
ATOM     44  C   UNL     1       9.261   4.193 -10.236  1.00  0.00     0.029 A 
ATOM     45  C   UNL     1       9.621   4.788 -11.519  1.00  0.00     0.049 A 
ATOM     46  H   UNL     1       9.019   6.633 -12.274  1.00  0.00     0.167 HD
ATOM     47  C   UNL     1       7.559  10.462 -13.805  1.00  0.00     0.037 A 
ATOM     48  C   UNL     1      10.421   4.223 -12.443  1.00  0.00     0.037 A 
ATOM     49  C   UNL     1       8.469   9.977 -14.810  1.00  0.00     0.049 A 
ATOM     50  C   UNL     1      10.702   4.963 -13.722  1.00  0.00     0.074 A 
ATOM     51  C   UNL     1       8.861  10.592 -15.986  1.00  0.00     0.029 A 
ATOM     52  N   UNL     1       9.125   8.757 -14.759  1.00  0.00    -0.354 N 
ATOM     53  N   UNL     1      10.275   6.141 -14.108  1.00  0.00    -0.248 NA
ATOM     54  C   UNL     1      11.581   4.295 -14.693  1.00  0.00     0.031 C 
ATOM     55  C   UNL     1       9.717   9.723 -16.670  1.00  0.00     0.029 A 
ATOM     56  C   UNL     1       9.902   8.590 -15.894  1.00  0.00     0.049 A 
ATOM     57  H   UNL     1       9.050   8.105 -14.025  1.00  0.00     0.167 HD
ATOM     58  C   UNL     1      10.858   6.369 -15.348  1.00  0.00     0.074 A 
ATOM     59  C   UNL     1      11.680   5.214 -15.643  1.00  0.00     0.031 C 
ATOM     60  C   UNL     1      10.725   7.440 -16.169  1.00  0.00     0.037 A 
BRANCH  47  61
ATOM     61  C   UNL     1       6.884  11.784 -14.031  1.00  0.00     0.057 A 
ATOM     62  C   UNL     1       7.202  12.915 -13.266  1.00  0.00     0.134 A 
ATOM     63  C   UNL     1       5.932  11.940 -15.046  1.00  0.00     0.134 A 
ATOM     64  F   UNL     1       8.097  12.833 -12.270  1.00  0.00    -0.206 F 
ATOM     65  C   UNL     1       6.576  14.144 -13.483  1.00  0.00     0.040 A 
ATOM     66  C   UNL     1       5.321  13.171 -15.292  1.00  0.00     0.040 A 
ATOM     67  F   UNL     1       5.585  10.901 -15.821  1.00  0.00    -0.206 F 
ATOM     68  C   UNL     1       5.637  14.275 -14.504  1.00  0.00     0.006 A 
ENDBRANCH  47  61
BRANCH  48  69
ATOM     69  C   UNL     1      11.034   2.894 -12.190  1.00  0.00     0.057 A 
ATOM     70  C   UNL     1      12.414   2.761 -11.996  1.00  0.00     0.134 A 
ATOM     71  C   UNL     1      10.264   1.725 -12.158  1.00  0.00     0.134 A 
ATOM     72  F   UNL     1      13.208   3.841 -12.034  1.00  0.00    -0.206 F 
ATOM     73  C   UNL     1      13.010   1.513 -11.805  1.00  0.00     0.040 A 
ATOM     74  C   UNL     1      10.843   0.473 -11.940  1.00  0.00     0.040 A 
ATOM     75  F   UNL     1       8.935   1.784 -12.328  1.00  0.00    -0.206 F 
ATOM     76  C   UNL     1      12.222   0.364 -11.773  1.00  0.00     0.006 A 
ENDBRANCH  48  69
BRANCH  60  77
ATOM     77  C   UNL     1      11.520   7.434 -17.442  1.00  0.00     0.057 A 
ATOM     78  C   UNL     1      11.202   6.587 -18.512  1.00  0.00     0.134 A 
ATOM     79  C   UNL     1      12.596   8.315 -17.613  1.00  0.00     0.134 A 
ATOM     80  F   UNL     1      10.192   5.710 -18.409  1.00  0.00    -0.206 F 
ATOM     81  C   UNL     1      11.941   6.600 -19.696  1.00  0.00     0.040 A 
ATOM     82  C   UNL     1      13.323   8.358 -18.803  1.00  0.00     0.040 A 
ATOM     83  F   UNL     1      12.948   9.159 -16.632  1.00  0.00    -0.206 F 
ATOM     84  C   UNL     1      13.000   7.493 -19.847  1.00  0.00     0.006 A 
ENDBRANCH  60  77
ENDBRANCH  34  35
ENDBRANCH  26  29
ENDBRANCH  24  25
ENDBRANCH  23  24
ENDBRANCH   1  23
TORSDOF 14
