REMARK SMILES COc1ccc(C)cc1Nc1nc(OCC(=O)NCCCCNC(=O)c2ccc(-c3c4nc(c(-c5c(F)cccc5F)c5ccc([nH]5)c(-c5c(F)cccc5F)c5nc(c(-c6c(F)cccc6F)c6ccc3[nH]6)C=C5)C=C4)cc2)cc(C(C)(C)C)n1
REMARK SMILES IDX 19 1 18 2 16 3 17 4 15 6 14 7 13 8 11 9 12 10 86 11 81 12
REMARK SMILES IDX 80 13 10 14 9 16 3 17 4 18 5 19 8 20 6 21 7 22 2 23 1 24
REMARK SMILES IDX 82 25 83 26 84 27 85 28 20 29 21 30 22 31 23 32 24 33 25 35
REMARK SMILES IDX 26 36 27 37 79 38 28 39 78 40 29 41 30 42 31 43 72 44 32 45
REMARK SMILES IDX 77 46 71 47 73 48 33 49 76 50 70 51 69 52 34 54 60 55 43 56
REMARK SMILES IDX 59 57 44 58 47 59 58 60 74 61 45 62 46 63 57 65 75 66 48 67
REMARK SMILES IDX 35 68 36 69 41 70 37 71 38 72 40 73 42 74 39 75 61 76 62 77
REMARK SMILES IDX 67 78 63 79 64 80 66 81 68 82 65 83 49 84 50 85 55 86 51 87
REMARK SMILES IDX 52 88 54 89 56 90 53 91
REMARK H PARENT 18 5 10 15 23 34 73 53 47 64
REMARK Flexibility Score: inf
ROOT
ATOM      1  C   UNL     1      -5.491  -1.251  -6.152  1.00  0.00     0.116 C 
ENDROOT
BRANCH   1   2
ATOM      2  N   UNL     1      -5.837  -2.655  -6.289  1.00  0.00    -0.353 N 
ATOM      3  C   UNL     1      -6.462  -3.482  -5.404  1.00  0.00     0.258 C 
ATOM      4  O   UNL     1      -6.672  -4.650  -5.740  1.00  0.00    -0.271 OA
ATOM      5  H   UNL     1      -5.583  -3.069  -7.146  1.00  0.00     0.163 HD
BRANCH   3   6
ATOM      6  C   UNL     1      -6.908  -2.964  -4.029  1.00  0.00     0.331 C 
BRANCH   6   7
ATOM      7  O   UNL     1      -5.917  -2.504  -3.131  1.00  0.00    -0.467 OA
BRANCH   7   8
ATOM      8  C   UNL     1      -4.901  -3.358  -2.806  1.00  0.00     0.218 A 
ATOM      9  C   UNL     1      -2.732  -3.415  -2.095  1.00  0.00     0.230 A 
ATOM     10  N   UNL     1      -3.846  -2.708  -2.295  1.00  0.00    -0.177 NA
ATOM     11  N   UNL     1      -2.644  -4.734  -2.326  1.00  0.00    -0.217 NA
ATOM     12  C   UNL     1      -3.737  -5.398  -2.755  1.00  0.00     0.055 A 
ATOM     13  C   UNL     1      -4.914  -4.721  -3.002  1.00  0.00     0.093 A 
BRANCH   9  14
ATOM     14  N   UNL     1      -1.625  -2.709  -1.650  1.00  0.00    -0.321 N 
ATOM     15  H   UNL     1      -1.816  -2.042  -0.952  1.00  0.00     0.170 HD
BRANCH  14  16
ATOM     16  C   UNL     1      -0.275  -2.791  -2.031  1.00  0.00     0.084 A 
ATOM     17  C   UNL     1       0.696  -2.064  -1.315  1.00  0.00     0.142 A 
ATOM     18  C   UNL     1       2.044  -2.133  -1.681  1.00  0.00     0.049 A 
ATOM     19  C   UNL     1       2.433  -2.887  -2.790  1.00  0.00     0.007 A 
ATOM     20  C   UNL     1       0.144  -3.572  -3.117  1.00  0.00     0.033 A 
ATOM     21  C   UNL     1       1.485  -3.605  -3.522  1.00  0.00    -0.049 A 
ATOM     22  C   UNL     1       1.866  -4.390  -4.742  1.00  0.00     0.044 C 
BRANCH  17  23
ATOM     23  O   UNL     1       0.248  -1.339  -0.235  1.00  0.00    -0.495 OA
ATOM     24  C   UNL     1       0.857  -0.059  -0.096  1.00  0.00     0.278 C 
ENDBRANCH  17  23
ENDBRANCH  14  16
ENDBRANCH   9  14
BRANCH  12  25
ATOM     25  C   UNL     1      -3.580  -6.911  -2.939  1.00  0.00     0.004 C 
ATOM     26  C   UNL     1      -2.309  -7.196  -3.767  1.00  0.00     0.017 C 
ATOM     27  C   UNL     1      -3.432  -7.562  -1.550  1.00  0.00     0.017 C 
ATOM     28  C   UNL     1      -4.765  -7.584  -3.663  1.00  0.00     0.017 C 
ENDBRANCH  12  25
ENDBRANCH   7   8
ENDBRANCH   6   7
ENDBRANCH   3   6
ENDBRANCH   1   2
BRANCH   1  29
ATOM     29  C   UNL     1      -4.012  -1.014  -5.821  1.00  0.00     0.023 C 
BRANCH  29  30
ATOM     30  C   UNL     1      -3.004  -1.675  -6.766  1.00  0.00     0.023 C 
BRANCH  30  31
ATOM     31  C   UNL     1      -3.000  -1.131  -8.191  1.00  0.00     0.116 C 
BRANCH  31  32
ATOM     32  N   UNL     1      -2.065  -0.036  -8.423  1.00  0.00    -0.352 N 
ATOM     33  C   UNL     1      -1.883   0.720  -9.581  1.00  0.00     0.251 C 
ATOM     34  H   UNL     1      -1.486   0.200  -7.663  1.00  0.00     0.163 HD
ATOM     35  O   UNL     1      -1.085   1.626  -9.622  1.00  0.00    -0.269 OA
BRANCH  33  36
ATOM     36  C   UNL     1      -2.791   0.461 -10.729  1.00  0.00     0.039 A 
ATOM     37  C   UNL     1      -3.544   1.532 -11.220  1.00  0.00     0.014 A 
ATOM     38  C   UNL     1      -3.063  -0.842 -11.134  1.00  0.00     0.014 A 
ATOM     39  C   UNL     1      -4.735   1.268 -11.893  1.00  0.00     0.010 A 
ATOM     40  C   UNL     1      -4.285  -1.109 -11.724  1.00  0.00     0.010 A 
ATOM     41  C   UNL     1      -5.157  -0.056 -12.025  1.00  0.00    -0.014 A 
BRANCH  41  42
ATOM     42  C   UNL     1      -6.543  -0.420 -12.305  1.00  0.00     0.031 A 
ATOM     43  C   UNL     1      -6.950  -0.965 -13.613  1.00  0.00     0.074 A 
ATOM     44  C   UNL     1      -7.464  -0.330 -11.318  1.00  0.00     0.049 A 
ATOM     45  N   UNL     1      -8.161  -0.942 -14.059  1.00  0.00    -0.248 NA
ATOM     46  C   UNL     1      -6.004  -1.561 -14.545  1.00  0.00     0.031 C 
ATOM     47  C   UNL     1      -8.814  -0.889 -11.307  1.00  0.00     0.029 A 
ATOM     48  N   UNL     1      -7.428   0.505 -10.194  1.00  0.00    -0.354 N 
ATOM     49  C   UNL     1      -8.216  -1.743 -15.173  1.00  0.00     0.074 A 
ATOM     50  C   UNL     1      -6.835  -2.057 -15.468  1.00  0.00     0.031 C 
ATOM     51  C   UNL     1      -9.567  -0.180 -10.454  1.00  0.00     0.029 A 
ATOM     52  C   UNL     1      -8.761   0.933  -9.990  1.00  0.00     0.049 A 
ATOM     53  H   UNL     1      -6.638   0.745  -9.657  1.00  0.00     0.167 HD
ATOM     54  C   UNL     1      -9.430  -2.149 -15.649  1.00  0.00     0.037 A 
ATOM     55  C   UNL     1      -9.095   2.252 -10.094  1.00  0.00     0.037 A 
ATOM     56  C   UNL     1     -10.540  -1.549 -14.907  1.00  0.00     0.049 A 
ATOM     57  C   UNL     1     -10.099   2.572 -11.183  1.00  0.00     0.074 A 
ATOM     58  C   UNL     1     -11.414  -1.991 -13.925  1.00  0.00     0.029 A 
ATOM     59  N   UNL     1     -10.710  -0.178 -14.966  1.00  0.00    -0.354 N 
ATOM     60  N   UNL     1     -10.635   1.692 -11.982  1.00  0.00    -0.248 NA
ATOM     61  C   UNL     1     -10.496   3.941 -11.523  1.00  0.00     0.031 C 
ATOM     62  C   UNL     1     -12.126  -0.867 -13.415  1.00  0.00     0.029 A 
ATOM     63  C   UNL     1     -11.678   0.257 -14.082  1.00  0.00     0.049 A 
ATOM     64  H   UNL     1     -10.203   0.416 -15.565  1.00  0.00     0.167 HD
ATOM     65  C   UNL     1     -11.356   2.338 -12.953  1.00  0.00     0.074 A 
ATOM     66  C   UNL     1     -11.248   3.744 -12.618  1.00  0.00     0.031 C 
ATOM     67  C   UNL     1     -11.945   1.682 -13.996  1.00  0.00     0.037 A 
BRANCH  54  68
ATOM     68  C   UNL     1      -9.601  -3.275 -16.643  1.00  0.00     0.057 A 
ATOM     69  C   UNL     1     -10.740  -4.103 -16.618  1.00  0.00     0.134 A 
ATOM     70  C   UNL     1      -8.658  -3.626 -17.624  1.00  0.00     0.134 A 
ATOM     71  F   UNL     1     -11.791  -3.836 -15.832  1.00  0.00    -0.206 F 
ATOM     72  C   UNL     1     -10.863  -5.258 -17.401  1.00  0.00     0.040 A 
ATOM     73  C   UNL     1      -8.736  -4.810 -18.372  1.00  0.00     0.040 A 
ATOM     74  F   UNL     1      -7.647  -2.808 -17.946  1.00  0.00    -0.206 F 
ATOM     75  C   UNL     1      -9.837  -5.643 -18.248  1.00  0.00     0.006 A 
ENDBRANCH  54  68
BRANCH  55  76
ATOM     76  C   UNL     1      -7.999   3.151  -9.643  1.00  0.00     0.057 A 
ATOM     77  C   UNL     1      -7.575   3.071  -8.303  1.00  0.00     0.134 A 
ATOM     78  C   UNL     1      -7.138   3.773 -10.549  1.00  0.00     0.134 A 
ATOM     79  F   UNL     1      -8.354   2.482  -7.382  1.00  0.00    -0.206 F 
ATOM     80  C   UNL     1      -6.298   3.475  -7.910  1.00  0.00     0.040 A 
ATOM     81  C   UNL     1      -5.864   4.201 -10.161  1.00  0.00     0.040 A 
ATOM     82  F   UNL     1      -7.461   3.867 -11.847  1.00  0.00    -0.206 F 
ATOM     83  C   UNL     1      -5.425   4.012  -8.851  1.00  0.00     0.006 A 
ENDBRANCH  55  76
BRANCH  67  84
ATOM     84  C   UNL     1     -12.787   2.355 -15.049  1.00  0.00     0.057 A 
ATOM     85  C   UNL     1     -13.715   3.363 -14.749  1.00  0.00     0.134 A 
ATOM     86  C   UNL     1     -12.775   1.928 -16.393  1.00  0.00     0.134 A 
ATOM     87  F   UNL     1     -13.893   3.789 -13.490  1.00  0.00    -0.206 F 
ATOM     88  C   UNL     1     -14.524   3.954 -15.729  1.00  0.00     0.040 A 
ATOM     89  C   UNL     1     -13.610   2.477 -17.370  1.00  0.00     0.040 A 
ATOM     90  F   UNL     1     -11.942   0.971 -16.823  1.00  0.00    -0.206 F 
ATOM     91  C   UNL     1     -14.477   3.507 -17.044  1.00  0.00     0.006 A 
ENDBRANCH  67  84
ENDBRANCH  41  42
ENDBRANCH  33  36
ENDBRANCH  31  32
ENDBRANCH  30  31
ENDBRANCH  29  30
ENDBRANCH   1  29
TORSDOF 17
