REMARK SMILES CS(=O)(=O)NCCCCCC(=O)NCCCCNC(=O)c1ccc(-c2c3nc(c(-c4c(F)cccc4F)c4ccc([nH]4)c(-c4c(F)cccc4F)c4nc(c(-c5c(F)cccc5F)c5ccc2[nH]5)C=C4)C=C3)cc1
REMARK SMILES IDX 11 1 12 2 13 3 10 5 9 6 8 7 7 8 6 9 5 10 2 12 1 13 3 14 4 15
REMARK SMILES IDX 14 16 15 17 16 18 17 19 18 20 19 21 20 23 21 24 22 25 74 26
REMARK SMILES IDX 23 27 73 28 24 29 25 30 26 31 67 32 27 33 72 34 66 35 68 36
REMARK SMILES IDX 28 37 71 38 65 39 64 40 29 42 55 43 38 44 54 45 39 46 42 47
REMARK SMILES IDX 53 48 69 49 40 50 41 51 52 53 70 54 43 55 30 56 31 57 36 58
REMARK SMILES IDX 32 59 33 60 35 61 37 62 34 63 56 64 57 65 62 66 58 67 59 68
REMARK SMILES IDX 61 69 63 70 60 71 44 72 45 73 50 74 46 75 47 76 49 77 51 78
REMARK SMILES IDX 48 79
REMARK H PARENT 13 4 5 11 18 22 68 41 42 52
REMARK Flexibility Score: inf
ROOT
ATOM      1  C   UNL     1       4.864  -4.195   4.971  1.00  0.00     0.219 C 
ATOM      2  O   UNL     1       5.233  -5.081   5.744  1.00  0.00    -0.275 OA
ATOM      3  N   UNL     1       4.757  -2.925   5.449  1.00  0.00    -0.356 N 
ATOM      4  H   UNL     1       5.067  -2.796   6.374  1.00  0.00     0.163 HD
ENDROOT
BRANCH   1   5
ATOM      5  C   UNL     1       4.585  -4.499   3.511  1.00  0.00     0.100 C 
BRANCH   5   6
ATOM      6  C   UNL     1       3.135  -4.864   3.177  1.00  0.00     0.010 C 
BRANCH   6   7
ATOM      7  C   UNL     1       2.162  -3.729   2.833  1.00  0.00     0.002 C 
BRANCH   7   8
ATOM      8  C   UNL     1       2.641  -2.745   1.759  1.00  0.00     0.016 C 
BRANCH   8   9
ATOM      9  C   UNL     1       1.856  -2.804   0.459  1.00  0.00     0.098 C 
BRANCH   9  10
ATOM     10  N   UNL     1       0.441  -2.450   0.589  1.00  0.00    -0.215 NA
ATOM     11  H   UNL     1       0.022  -2.627  -0.324  1.00  0.00     0.140 HD
BRANCH  10  12
ATOM     12  S   UNL     1      -0.081  -0.927   1.048  1.00  0.00     0.208 S 
ATOM     13  C   UNL     1       0.641   0.135  -0.187  1.00  0.00     0.176 C 
ATOM     14  O   UNL     1       0.502  -0.616   2.336  1.00  0.00    -0.213 OA
ATOM     15  O   UNL     1      -1.514  -0.941   0.867  1.00  0.00    -0.213 OA
ENDBRANCH  10  12
ENDBRANCH   9  10
ENDBRANCH   8   9
ENDBRANCH   7   8
ENDBRANCH   6   7
ENDBRANCH   5   6
ENDBRANCH   1   5
BRANCH   3  16
ATOM     16  C   UNL     1       4.253  -1.738   4.794  1.00  0.00     0.116 C 
BRANCH  16  17
ATOM     17  C   UNL     1       2.854  -1.390   5.303  1.00  0.00     0.023 C 
BRANCH  17  18
ATOM     18  C   UNL     1       2.828  -0.509   6.541  1.00  0.00     0.023 C 
BRANCH  18  19
ATOM     19  C   UNL     1       3.401   0.879   6.327  1.00  0.00     0.116 C 
BRANCH  19  20
ATOM     20  N   UNL     1       2.678   1.682   5.351  1.00  0.00    -0.352 N 
ATOM     21  C   UNL     1       2.452   3.040   5.385  1.00  0.00     0.251 C 
ATOM     22  H   UNL     1       2.307   1.198   4.578  1.00  0.00     0.163 HD
ATOM     23  O   UNL     1       1.772   3.593   4.529  1.00  0.00    -0.269 OA
BRANCH  21  24
ATOM     24  C   UNL     1       3.008   3.817   6.512  1.00  0.00     0.039 A 
ATOM     25  C   UNL     1       2.162   4.657   7.237  1.00  0.00     0.014 A 
ATOM     26  C   UNL     1       4.336   3.636   6.907  1.00  0.00     0.014 A 
ATOM     27  C   UNL     1       2.639   5.274   8.394  1.00  0.00     0.010 A 
ATOM     28  C   UNL     1       4.767   4.152   8.121  1.00  0.00     0.010 A 
ATOM     29  C   UNL     1       3.935   5.000   8.864  1.00  0.00    -0.014 A 
BRANCH  29  30
ATOM     30  C   UNL     1       4.453   5.637  10.102  1.00  0.00     0.031 A 
ATOM     31  C   UNL     1       5.665   6.529  10.030  1.00  0.00     0.074 A 
ATOM     32  C   UNL     1       3.862   5.389  11.287  1.00  0.00     0.049 A 
ATOM     33  N   UNL     1       6.278   7.171  10.992  1.00  0.00    -0.248 NA
ATOM     34  C   UNL     1       6.293   6.698   8.708  1.00  0.00     0.031 C 
ATOM     35  C   UNL     1       2.725   4.490  11.499  1.00  0.00     0.029 A 
ATOM     36  N   UNL     1       4.136   5.875  12.541  1.00  0.00    -0.354 N 
ATOM     37  C   UNL     1       7.363   7.800  10.393  1.00  0.00     0.074 A 
ATOM     38  C   UNL     1       7.372   7.403   9.005  1.00  0.00     0.031 C 
ATOM     39  C   UNL     1       2.375   4.521  12.796  1.00  0.00     0.029 A 
ATOM     40  C   UNL     1       3.281   5.413  13.512  1.00  0.00     0.049 A 
ATOM     41  H   UNL     1       4.876   6.498  12.727  1.00  0.00     0.167 HD
ATOM     42  C   UNL     1       8.252   8.660  10.940  1.00  0.00     0.037 A 
ATOM     43  C   UNL     1       3.233   5.683  14.831  1.00  0.00     0.037 A 
ATOM     44  C   UNL     1       8.220   9.080  12.315  1.00  0.00     0.049 A 
ATOM     45  C   UNL     1       4.223   6.658  15.410  1.00  0.00     0.074 A 
ATOM     46  C   UNL     1       9.037   9.994  12.957  1.00  0.00     0.029 A 
ATOM     47  N   UNL     1       7.321   8.611  13.261  1.00  0.00    -0.354 N 
ATOM     48  N   UNL     1       5.194   7.308  14.815  1.00  0.00    -0.248 NA
ATOM     49  C   UNL     1       4.096   6.952  16.844  1.00  0.00     0.031 C 
ATOM     50  C   UNL     1       8.666  10.038  14.304  1.00  0.00     0.029 A 
ATOM     51  C   UNL     1       7.575   9.203  14.487  1.00  0.00     0.049 A 
ATOM     52  H   UNL     1       6.608   7.955  13.087  1.00  0.00     0.167 HD
ATOM     53  C   UNL     1       5.767   8.115  15.790  1.00  0.00     0.074 A 
ATOM     54  C   UNL     1       5.022   7.885  17.010  1.00  0.00     0.031 C 
ATOM     55  C   UNL     1       6.815   8.970  15.688  1.00  0.00     0.037 A 
BRANCH  42  56
ATOM     56  C   UNL     1       9.328   9.210  10.047  1.00  0.00     0.057 A 
ATOM     57  C   UNL     1       9.043  10.101   9.003  1.00  0.00     0.134 A 
ATOM     58  C   UNL     1      10.671   8.870  10.255  1.00  0.00     0.134 A 
ATOM     59  F   UNL     1       7.777  10.456   8.737  1.00  0.00    -0.206 F 
ATOM     60  C   UNL     1      10.051  10.613   8.183  1.00  0.00     0.040 A 
ATOM     61  C   UNL     1      11.690   9.400   9.462  1.00  0.00     0.040 A 
ATOM     62  F   UNL     1      11.016   8.023  11.237  1.00  0.00    -0.206 F 
ATOM     63  C   UNL     1      11.380  10.270   8.418  1.00  0.00     0.006 A 
ENDBRANCH  42  56
BRANCH  43  64
ATOM     64  C   UNL     1       2.200   5.050  15.692  1.00  0.00     0.057 A 
ATOM     65  C   UNL     1       1.180   5.808  16.282  1.00  0.00     0.134 A 
ATOM     66  C   UNL     1       2.225   3.679  15.975  1.00  0.00     0.134 A 
ATOM     67  F   UNL     1       1.109   7.130  16.065  1.00  0.00    -0.206 F 
ATOM     68  C   UNL     1       0.247   5.234  17.148  1.00  0.00     0.040 A 
ATOM     69  C   UNL     1       1.280   3.086  16.813  1.00  0.00     0.040 A 
ATOM     70  F   UNL     1       3.169   2.894  15.434  1.00  0.00    -0.206 F 
ATOM     71  C   UNL     1       0.294   3.868  17.413  1.00  0.00     0.006 A 
ENDBRANCH  43  64
BRANCH  55  72
ATOM     72  C   UNL     1       7.174   9.762  16.913  1.00  0.00     0.057 A 
ATOM     73  C   UNL     1       7.728   9.167  18.053  1.00  0.00     0.134 A 
ATOM     74  C   UNL     1       6.973  11.149  16.942  1.00  0.00     0.134 A 
ATOM     75  F   UNL     1       7.940   7.843  18.095  1.00  0.00    -0.206 F 
ATOM     76  C   UNL     1       8.024   9.914  19.195  1.00  0.00     0.040 A 
ATOM     77  C   UNL     1       7.299  11.911  18.064  1.00  0.00     0.040 A 
ATOM     78  F   UNL     1       6.462  11.787  15.878  1.00  0.00    -0.206 F 
ATOM     79  C   UNL     1       7.814  11.291  19.200  1.00  0.00     0.006 A 
ENDBRANCH  55  72
ENDBRANCH  29  30
ENDBRANCH  21  24
ENDBRANCH  19  20
ENDBRANCH  18  19
ENDBRANCH  17  18
ENDBRANCH  16  17
ENDBRANCH   3  16
TORSDOF 17
