REMARK SMILES C[C@@H]1CCC[C@H]1NC(=O)c1csc(/C=C/C(=O)NCCCCNC(=O)c2ccc(-c3c4nc(c(-c5c(F)cccc5F)c5ccc([nH]5)c(-c5c(F)cccc5F)c5nc(c(-c6c(F)cccc6F)c6ccc3[nH]6)C=C5)C=C4)cc2)c1
REMARK SMILES IDX 20 1 19 2 18 3 16 4 17 5 15 7 14 8 13 9 10 10 11 11 80 12
REMARK SMILES IDX 12 13 8 14 7 15 9 17 6 18 1 19 2 20 3 21 4 22 5 23 21 24
REMARK SMILES IDX 22 25 23 26 24 27 25 29 26 30 27 31 79 32 28 33 78 34 29 35
REMARK SMILES IDX 30 36 31 37 72 38 32 39 77 40 71 41 73 42 33 43 76 44 70 45
REMARK SMILES IDX 69 46 34 48 60 49 43 50 59 51 44 52 47 53 58 54 74 55 45 56
REMARK SMILES IDX 46 57 57 59 75 60 48 61 35 62 36 63 41 64 37 65 38 66 40 67
REMARK SMILES IDX 42 68 39 69 61 70 62 71 67 72 63 73 64 74 66 75 68 76 65 77
REMARK SMILES IDX 49 78 50 79 55 80 51 81 52 82 54 83 56 84 53 85
REMARK H PARENT 18 6 7 16 23 28 73 47 47 58
REMARK Flexibility Score: inf
ROOT
ATOM      1  C   UNL     1       5.086   6.929   4.645  1.00  0.00     0.023 C 
ENDROOT
BRANCH   1   2
ATOM      2  C   UNL     1       4.015   7.950   4.256  1.00  0.00     0.116 C 
BRANCH   2   3
ATOM      3  N   UNL     1       4.415   8.685   3.070  1.00  0.00    -0.353 N 
ATOM      4  C   UNL     1       3.969   8.614   1.786  1.00  0.00     0.244 C 
ATOM      5  O   UNL     1       4.422   9.386   0.944  1.00  0.00    -0.270 OA
ATOM      6  H   UNL     1       5.130   9.346   3.219  1.00  0.00     0.163 HD
BRANCH   4   7
ATOM      7  C   UNL     1       2.872   7.694   1.415  1.00  0.00     0.072 C 
ATOM      8  C   UNL     1       2.823   6.408   1.786  1.00  0.00     0.024 C 
BRANCH   8   9
ATOM      9  C   UNL     1       1.718   5.554   1.514  1.00  0.00     0.028 A 
ATOM     10  C   UNL     1       0.175   3.785   1.764  1.00  0.00     0.051 A 
ATOM     11  C   UNL     1      -0.205   4.325   0.551  1.00  0.00     0.079 A 
ATOM     12  C   UNL     1       1.247   4.544   2.334  1.00  0.00     0.033 A 
ATOM     13  S   UNL     1       0.791   5.627   0.070  1.00  0.00    -0.144 S 
BRANCH  10  14
ATOM     14  C   UNL     1      -0.451   2.646   2.419  1.00  0.00     0.252 C 
ATOM     15  N   UNL     1      -0.584   1.469   1.727  1.00  0.00    -0.349 N 
ATOM     16  H   UNL     1      -1.082   0.761   2.197  1.00  0.00     0.164 HD
ATOM     17  O   UNL     1      -0.807   2.693   3.593  1.00  0.00    -0.269 OA
BRANCH  15  18
ATOM     18  C   UNL     1      -0.098   1.109   0.398  1.00  0.00     0.085 C 
ATOM     19  C   UNL     1       1.776  -0.148  -0.751  1.00  0.00     0.010 C 
ATOM     20  C   UNL     1       0.836  -0.108   0.455  1.00  0.00     0.008 C 
ATOM     21  C   UNL     1      -0.130  -1.291   0.461  1.00  0.00     0.005 C 
ATOM     22  C   UNL     1      -1.302  -0.863  -0.416  1.00  0.00     0.002 C 
ATOM     23  C   UNL     1      -1.266   0.665  -0.484  1.00  0.00     0.025 C 
ENDBRANCH  15  18
ENDBRANCH  10  14
ENDBRANCH   8   9
ENDBRANCH   4   7
ENDBRANCH   2   3
ENDBRANCH   1   2
BRANCH   1  24
ATOM     24  C   UNL     1       6.302   7.540   5.346  1.00  0.00     0.023 C 
BRANCH  24  25
ATOM     25  C   UNL     1       5.996   8.231   6.669  1.00  0.00     0.116 C 
BRANCH  25  26
ATOM     26  N   UNL     1       5.375   7.351   7.647  1.00  0.00    -0.352 N 
ATOM     27  C   UNL     1       5.531   7.352   9.012  1.00  0.00     0.251 C 
ATOM     28  H   UNL     1       4.764   6.669   7.285  1.00  0.00     0.163 HD
ATOM     29  O   UNL     1       5.030   6.469   9.699  1.00  0.00    -0.269 OA
BRANCH  27  30
ATOM     30  C   UNL     1       6.347   8.411   9.640  1.00  0.00     0.039 A 
ATOM     31  C   UNL     1       7.335   8.049  10.556  1.00  0.00     0.014 A 
ATOM     32  C   UNL     1       6.158   9.751   9.292  1.00  0.00     0.014 A 
ATOM     33  C   UNL     1       8.176   9.030  11.084  1.00  0.00     0.010 A 
ATOM     34  C   UNL     1       7.048  10.713   9.753  1.00  0.00     0.010 A 
ATOM     35  C   UNL     1       8.059  10.365  10.662  1.00  0.00    -0.014 A 
BRANCH  35  36
ATOM     36  C   UNL     1       8.964  11.419  11.182  1.00  0.00     0.031 A 
ATOM     37  C   UNL     1       8.401  12.556  11.989  1.00  0.00     0.074 A 
ATOM     38  C   UNL     1      10.276  11.387  10.881  1.00  0.00     0.049 A 
ATOM     39  N   UNL     1       9.010  13.607  12.478  1.00  0.00    -0.248 NA
ATOM     40  C   UNL     1       6.953  12.524  12.255  1.00  0.00     0.031 C 
ATOM     41  C   UNL     1      10.935  10.362  10.070  1.00  0.00     0.029 A 
ATOM     42  N   UNL     1      11.291  12.246  11.218  1.00  0.00    -0.354 N 
ATOM     43  C   UNL     1       8.020  14.362  13.094  1.00  0.00     0.074 A 
ATOM     44  C   UNL     1       6.763  13.686  12.860  1.00  0.00     0.031 C 
ATOM     45  C   UNL     1      12.248  10.635   9.998  1.00  0.00     0.029 A 
ATOM     46  C   UNL     1      12.517  11.873  10.724  1.00  0.00     0.049 A 
ATOM     47  H   UNL     1      11.153  13.054  11.764  1.00  0.00     0.167 HD
ATOM     48  C   UNL     1       8.149  15.501  13.816  1.00  0.00     0.037 A 
ATOM     49  C   UNL     1      13.720  12.465  10.842  1.00  0.00     0.037 A 
ATOM     50  C   UNL     1       9.404  16.160  14.063  1.00  0.00     0.049 A 
ATOM     51  C   UNL     1      13.837  13.736  11.638  1.00  0.00     0.074 A 
ATOM     52  C   UNL     1       9.650  17.294  14.816  1.00  0.00     0.029 A 
ATOM     53  N   UNL     1      10.627  15.741  13.558  1.00  0.00    -0.354 N 
ATOM     54  N   UNL     1      12.903  14.408  12.267  1.00  0.00    -0.248 NA
ATOM     55  C   UNL     1      15.178  14.325  11.748  1.00  0.00     0.031 C 
ATOM     56  C   UNL     1      11.015  17.588  14.730  1.00  0.00     0.029 A 
ATOM     57  C   UNL     1      11.629  16.604  13.971  1.00  0.00     0.049 A 
ATOM     58  H   UNL     1      10.762  14.948  12.991  1.00  0.00     0.167 HD
ATOM     59  C   UNL     1      13.549  15.474  12.881  1.00  0.00     0.074 A 
ATOM     60  C   UNL     1      14.955  15.354  12.554  1.00  0.00     0.031 C 
ATOM     61  C   UNL     1      13.026  16.460  13.651  1.00  0.00     0.037 A 
BRANCH  48  62
ATOM     62  C   UNL     1       6.895  16.098  14.389  1.00  0.00     0.057 A 
ATOM     63  C   UNL     1       6.176  15.466  15.414  1.00  0.00     0.134 A 
ATOM     64  C   UNL     1       6.405  17.323  13.920  1.00  0.00     0.134 A 
ATOM     65  F   UNL     1       6.582  14.283  15.900  1.00  0.00    -0.206 F 
ATOM     66  C   UNL     1       4.998  16.012  15.925  1.00  0.00     0.040 A 
ATOM     67  C   UNL     1       5.246  17.895  14.446  1.00  0.00     0.040 A 
ATOM     68  F   UNL     1       7.046  17.986  12.946  1.00  0.00    -0.206 F 
ATOM     69  C   UNL     1       4.533  17.235  15.445  1.00  0.00     0.006 A 
ENDBRANCH  48  62
BRANCH  49  70
ATOM     70  C   UNL     1      14.920  11.844  10.225  1.00  0.00     0.057 A 
ATOM     71  C   UNL     1      15.927  11.280  11.017  1.00  0.00     0.134 A 
ATOM     72  C   UNL     1      15.097  11.808   8.837  1.00  0.00     0.134 A 
ATOM     73  F   UNL     1      15.823  11.299  12.354  1.00  0.00    -0.206 F 
ATOM     74  C   UNL     1      17.077  10.723  10.454  1.00  0.00     0.040 A 
ATOM     75  C   UNL     1      16.229  11.231   8.259  1.00  0.00     0.040 A 
ATOM     76  F   UNL     1      14.165  12.323   8.021  1.00  0.00    -0.206 F 
ATOM     77  C   UNL     1      17.227  10.694   9.069  1.00  0.00     0.006 A 
ENDBRANCH  49  70
BRANCH  61  78
ATOM     78  C   UNL     1      13.985  17.453  14.242  1.00  0.00     0.057 A 
ATOM     79  C   UNL     1      14.638  18.416  13.463  1.00  0.00     0.134 A 
ATOM     80  C   UNL     1      14.229  17.464  15.622  1.00  0.00     0.134 A 
ATOM     81  F   UNL     1      14.457  18.453  12.134  1.00  0.00    -0.206 F 
ATOM     82  C   UNL     1      15.521  19.337  14.031  1.00  0.00     0.040 A 
ATOM     83  C   UNL     1      15.086  18.398  16.205  1.00  0.00     0.040 A 
ATOM     84  F   UNL     1      13.629  16.575  16.428  1.00  0.00    -0.206 F 
ATOM     85  C   UNL     1      15.741  19.334  15.407  1.00  0.00     0.006 A 
ENDBRANCH  61  78
ENDBRANCH  35  36
ENDBRANCH  27  30
ENDBRANCH  25  26
ENDBRANCH  24  25
ENDBRANCH   1  24
TORSDOF 14
