REMARK SMILES COC(=O)c1ccc(C)c2c1[C@H]1C=CC[C@H]1[C@@H](c1ccc(C(=O)NCCCCNC(=O)c3ccc(-c4c5nc(c(-c6c(F)cccc6F)c6ccc([nH]6)c(-c6c(F)cccc6F)c6nc(c(-c7c(F)cccc7F)c7ccc4[nH]7)C=C6)C=C5)cc3)cc1)N2
REMARK SMILES IDX 26 1 25 2 24 3 22 4 23 5 21 7 18 8 19 9 87 10 20 11 86 12
REMARK SMILES IDX 17 13 5 14 6 15 11 16 7 17 10 18 12 19 8 20 88 21 13 22
REMARK SMILES IDX 16 23 9 24 14 26 15 27 3 28 4 29 2 30 1 31 27 32 28 33 29 34
REMARK SMILES IDX 30 35 31 37 32 38 33 39 85 40 34 41 84 42 35 43 36 44 37 45
REMARK SMILES IDX 78 46 38 47 83 48 77 49 79 50 39 51 82 52 76 53 75 54 40 56
REMARK SMILES IDX 66 57 49 58 65 59 50 60 53 61 64 62 80 63 51 64 52 65 63 67
REMARK SMILES IDX 81 68 54 69 41 70 42 71 47 72 43 73 44 74 46 75 48 76 45 77
REMARK SMILES IDX 67 78 68 79 73 80 69 81 70 82 72 83 74 84 71 85 55 86 56 87
REMARK SMILES IDX 61 88 57 89 58 90 60 91 62 92 59 93
REMARK H PARENT 24 6 88 25 29 36 79 55 53 66
REMARK Flexibility Score: inf
ROOT
ATOM      1  C   UNL     1       7.190   2.043   7.733  1.00  0.00     0.023 C 
ENDROOT
BRANCH   1   2
ATOM      2  C   UNL     1       5.869   2.120   8.501  1.00  0.00     0.116 C 
BRANCH   2   3
ATOM      3  N   UNL     1       4.846   2.699   7.665  1.00  0.00    -0.352 N 
ATOM      4  C   UNL     1       3.930   2.122   6.830  1.00  0.00     0.251 C 
ATOM      5  O   UNL     1       3.192   2.881   6.200  1.00  0.00    -0.269 OA
ATOM      6  H   UNL     1       4.800   3.682   7.701  1.00  0.00     0.163 HD
BRANCH   4   7
ATOM      7  C   UNL     1       3.760   0.649   6.683  1.00  0.00     0.039 A 
ATOM      8  C   UNL     1       3.233  -2.105   6.157  1.00  0.00    -0.025 A 
ATOM      9  C   UNL     1       2.245  -1.118   6.012  1.00  0.00     0.006 A 
ATOM     10  C   UNL     1       4.474  -1.685   6.649  1.00  0.00     0.006 A 
ATOM     11  C   UNL     1       2.501   0.230   6.262  1.00  0.00     0.014 A 
ATOM     12  C   UNL     1       4.743  -0.327   6.873  1.00  0.00     0.014 A 
BRANCH   8  13
ATOM     13  C   UNL     1       3.052  -3.564   5.710  1.00  0.00     0.114 C 
ATOM     14  C   UNL     1       0.246  -2.566   2.720  1.00  0.00     0.065 A 
ATOM     15  C   UNL     1      -1.088  -2.391   3.099  1.00  0.00     0.016 A 
ATOM     16  C   UNL     1       1.178  -3.162   3.597  1.00  0.00    -0.003 A 
ATOM     17  C   UNL     1      -1.515  -2.813   4.352  1.00  0.00     0.006 A 
ATOM     18  C   UNL     1       0.734  -3.592   4.879  1.00  0.00     0.042 A 
ATOM     19  C   UNL     1       2.634  -3.336   3.200  1.00  0.00     0.050 C 
ATOM     20  C   UNL     1      -0.618  -3.407   5.255  1.00  0.00    -0.028 A 
ATOM     21  N   UNL     1       1.669  -3.999   5.827  1.00  0.00    -0.377 N 
ATOM     22  C   UNL     1       3.424  -2.090   2.872  1.00  0.00    -0.023 C 
ATOM     23  C   UNL     1       3.532  -3.958   4.291  1.00  0.00     0.031 C 
ATOM     24  C   UNL     1      -1.155  -3.714   6.630  1.00  0.00     0.046 C 
ATOM     25  H   UNL     1       1.395  -4.579   6.574  1.00  0.00     0.161 HD
ATOM     26  C   UNL     1       4.704  -2.197   3.252  1.00  0.00    -0.030 C 
ATOM     27  C   UNL     1       4.954  -3.501   3.933  1.00  0.00     0.034 C 
BRANCH  14  28
ATOM     28  C   UNL     1       0.651  -2.073   1.383  1.00  0.00     0.338 C 
ATOM     29  O   UNL     1       1.210  -2.736   0.537  1.00  0.00    -0.246 OA
BRANCH  28  30
ATOM     30  O   UNL     1       0.360  -0.746   1.328  1.00  0.00    -0.465 OA
ATOM     31  C   UNL     1       0.843  -0.095   0.153  1.00  0.00     0.282 C 
ENDBRANCH  28  30
ENDBRANCH  14  28
ENDBRANCH   8  13
ENDBRANCH   4   7
ENDBRANCH   2   3
ENDBRANCH   1   2
BRANCH   1  32
ATOM     32  C   UNL     1       7.876   3.396   7.542  1.00  0.00     0.023 C 
BRANCH  32  33
ATOM     33  C   UNL     1       8.157   4.144   8.835  1.00  0.00     0.116 C 
BRANCH  33  34
ATOM     34  N   UNL     1       8.898   3.353   9.808  1.00  0.00    -0.352 N 
ATOM     35  C   UNL     1       9.699   3.829  10.816  1.00  0.00     0.251 C 
ATOM     36  H   UNL     1       8.816   2.375   9.734  1.00  0.00     0.163 HD
ATOM     37  O   UNL     1      10.329   3.081  11.551  1.00  0.00    -0.269 OA
BRANCH  35  38
ATOM     38  C   UNL     1       9.805   5.289  10.945  1.00  0.00     0.039 A 
ATOM     39  C   UNL     1      11.016   5.900  10.618  1.00  0.00     0.014 A 
ATOM     40  C   UNL     1       8.657   6.037  11.218  1.00  0.00     0.014 A 
ATOM     41  C   UNL     1      11.062   7.286  10.512  1.00  0.00     0.010 A 
ATOM     42  C   UNL     1       8.694   7.416  11.057  1.00  0.00     0.010 A 
ATOM     43  C   UNL     1       9.896   8.047  10.701  1.00  0.00    -0.014 A 
BRANCH  43  44
ATOM     44  C   UNL     1       9.932   9.516  10.538  1.00  0.00     0.031 A 
ATOM     45  C   UNL     1       9.806  10.397  11.744  1.00  0.00     0.074 A 
ATOM     46  C   UNL     1      10.058  10.047   9.308  1.00  0.00     0.049 A 
ATOM     47  N   UNL     1       9.860  11.701  11.822  1.00  0.00    -0.248 NA
ATOM     48  C   UNL     1       9.570   9.724  13.031  1.00  0.00     0.031 C 
ATOM     49  C   UNL     1      10.135   9.287   8.058  1.00  0.00     0.029 A 
ATOM     50  N   UNL     1      10.145  11.355   8.909  1.00  0.00    -0.354 N 
ATOM     51  C   UNL     1       9.683  12.002  13.165  1.00  0.00     0.074 A 
ATOM     52  C   UNL     1       9.445  10.753  13.855  1.00  0.00     0.031 C 
ATOM     53  C   UNL     1      10.286  10.144   7.033  1.00  0.00     0.029 A 
ATOM     54  C   UNL     1      10.301  11.507   7.553  1.00  0.00     0.049 A 
ATOM     55  H   UNL     1      10.100  12.114   9.534  1.00  0.00     0.167 HD
ATOM     56  C   UNL     1       9.748  13.209  13.775  1.00  0.00     0.037 A 
ATOM     57  C   UNL     1      10.454  12.626   6.821  1.00  0.00     0.037 A 
ATOM     58  C   UNL     1       9.978  14.449  13.086  1.00  0.00     0.049 A 
ATOM     59  C   UNL     1      10.491  13.957   7.521  1.00  0.00     0.074 A 
ATOM     60  C   UNL     1      10.090  15.724  13.611  1.00  0.00     0.029 A 
ATOM     61  N   UNL     1      10.124  14.567  11.711  1.00  0.00    -0.354 N 
ATOM     62  N   UNL     1      10.404  14.222   8.802  1.00  0.00    -0.248 NA
ATOM     63  C   UNL     1      10.661  15.142   6.670  1.00  0.00     0.031 C 
ATOM     64  C   UNL     1      10.272  16.618  12.550  1.00  0.00     0.029 A 
ATOM     65  C   UNL     1      10.310  15.895  11.368  1.00  0.00     0.049 A 
ATOM     66  H   UNL     1      10.100  13.817  11.074  1.00  0.00     0.167 HD
ATOM     67  C   UNL     1      10.538  15.600   8.914  1.00  0.00     0.074 A 
ATOM     68  C   UNL     1      10.732  16.110   7.572  1.00  0.00     0.031 C 
ATOM     69  C   UNL     1      10.501  16.377  10.024  1.00  0.00     0.037 A 
BRANCH  56  70
ATOM     70  C   UNL     1       9.579  13.224  15.265  1.00  0.00     0.057 A 
ATOM     71  C   UNL     1       8.423  13.745  15.855  1.00  0.00     0.134 A 
ATOM     72  C   UNL     1      10.569  12.714  16.117  1.00  0.00     0.134 A 
ATOM     73  F   UNL     1       7.437  14.247  15.097  1.00  0.00    -0.206 F 
ATOM     74  C   UNL     1       8.255  13.755  17.241  1.00  0.00     0.040 A 
ATOM     75  C   UNL     1      10.402  12.695  17.502  1.00  0.00     0.040 A 
ATOM     76  F   UNL     1      11.693  12.181  15.611  1.00  0.00    -0.206 F 
ATOM     77  C   UNL     1       9.243  13.222  18.068  1.00  0.00     0.006 A 
ENDBRANCH  56  70
BRANCH  57  78
ATOM     78  C   UNL     1      10.622  12.549   5.348  1.00  0.00     0.057 A 
ATOM     79  C   UNL     1       9.555  12.219   4.506  1.00  0.00     0.134 A 
ATOM     80  C   UNL     1      11.849  12.856   4.748  1.00  0.00     0.134 A 
ATOM     81  F   UNL     1       8.356  11.910   5.020  1.00  0.00    -0.206 F 
ATOM     82  C   UNL     1       9.699  12.208   3.117  1.00  0.00     0.040 A 
ATOM     83  C   UNL     1      12.001  12.871   3.361  1.00  0.00     0.040 A 
ATOM     84  F   UNL     1      12.903  13.199   5.503  1.00  0.00    -0.206 F 
ATOM     85  C   UNL     1      10.922  12.545   2.541  1.00  0.00     0.006 A 
ENDBRANCH  57  78
BRANCH  69  86
ATOM     86  C   UNL     1      10.704  17.850   9.822  1.00  0.00     0.057 A 
ATOM     87  C   UNL     1      11.895  18.467  10.221  1.00  0.00     0.134 A 
ATOM     88  C   UNL     1       9.722  18.654   9.230  1.00  0.00     0.134 A 
ATOM     89  F   UNL     1      12.872  17.754  10.801  1.00  0.00    -0.206 F 
ATOM     90  C   UNL     1      12.107  19.833  10.030  1.00  0.00     0.040 A 
ATOM     91  C   UNL     1       9.933  20.016   9.009  1.00  0.00     0.040 A 
ATOM     92  F   UNL     1       8.565  18.119   8.811  1.00  0.00    -0.206 F 
ATOM     93  C   UNL     1      11.128  20.609   9.412  1.00  0.00     0.006 A 
ENDBRANCH  69  86
ENDBRANCH  43  44
ENDBRANCH  35  38
ENDBRANCH  33  34
ENDBRANCH  32  33
ENDBRANCH   1  32
TORSDOF 14
