REMARK SMILES O=C(NCCCCNC(=O)c1ccc(-c2c3nc(c(-c4c(F)cccc4F)c4ccc([nH]4)c(-c4c(F)cccc4F)c4nc(c(-c5c(F)cccc5F)c5ccc2[nH]5)C=C4)C=C3)cc1)C1=Cc2c(Cl)cc(Cl)cc2O[C@@H]1C(F)(F)F
REMARK SMILES IDX 6 1 5 2 4 3 3 4 1 5 2 6 65 8 66 9 76 10 67 11 75 12 68 13
REMARK SMILES IDX 74 14 69 15 70 16 73 17 71 18 72 19 77 20 78 21 79 22 80 23
REMARK SMILES IDX 7 24 8 25 9 26 10 28 11 29 12 30 64 31 13 32 63 33 14 34
REMARK SMILES IDX 15 35 16 36 57 37 17 38 62 39 56 40 58 41 18 42 61 43 55 44
REMARK SMILES IDX 54 45 19 47 45 48 28 49 44 50 29 51 32 52 43 53 59 54 30 55
REMARK SMILES IDX 31 56 42 58 60 59 33 60 20 61 21 62 26 63 22 64 23 65 25 66
REMARK SMILES IDX 27 67 24 68 46 69 47 70 52 71 48 72 49 73 51 74 53 75 50 76
REMARK SMILES IDX 34 77 35 78 40 79 36 80 37 81 39 82 41 83 38 84
REMARK H PARENT 3 7 8 27 58 46 32 57
REMARK Flexibility Score: inf
ROOT
ATOM      1  C   UNL     1       3.887  -0.627  -4.362  1.00  0.00     0.023 C 
ENDROOT
BRANCH   1   2
ATOM      2  C   UNL     1       4.160  -1.256  -2.998  1.00  0.00     0.023 C 
BRANCH   2   3
ATOM      3  C   UNL     1       3.733  -0.420  -1.793  1.00  0.00     0.116 C 
BRANCH   3   4
ATOM      4  N   UNL     1       2.516  -0.882  -1.127  1.00  0.00    -0.352 N 
ATOM      5  O   UNL     1       1.014  -1.024   0.565  1.00  0.00    -0.270 OA
ATOM      6  C   UNL     1       2.164  -0.807   0.204  1.00  0.00     0.251 C 
ATOM      7  H   UNL     1       1.851  -1.309  -1.715  1.00  0.00     0.163 HD
BRANCH   6   8
ATOM      8  C   UNL     1       3.171  -0.303   1.164  1.00  0.00     0.067 C 
ATOM      9  C   UNL     1       4.331  -0.945   1.365  1.00  0.00     0.027 C 
ATOM     10  C   UNL     1       2.986   1.095   1.665  1.00  0.00     0.314 C 
ATOM     11  C   UNL     1       5.495  -0.053   1.125  1.00  0.00     0.036 A 
ATOM     12  O   UNL     1       4.061   1.952   1.221  1.00  0.00    -0.475 OA
ATOM     13  C   UNL     1       6.721  -0.573   0.657  1.00  0.00     0.053 A 
ATOM     14  C   UNL     1       5.264   1.335   0.966  1.00  0.00     0.130 A 
ATOM     15  Cl  UNL     1       7.070  -2.271   0.662  1.00  0.00    -0.083 Cl
ATOM     16  C   UNL     1       7.651   0.254   0.016  1.00  0.00     0.042 A 
ATOM     17  C   UNL     1       6.208   2.160   0.352  1.00  0.00     0.067 A 
ATOM     18  C   UNL     1       7.385   1.610  -0.140  1.00  0.00     0.046 A 
ATOM     19  Cl  UNL     1       8.481   2.602  -1.017  1.00  0.00    -0.084 Cl
BRANCH  10  20
ATOM     20  C   UNL     1       2.852   1.127   3.200  1.00  0.00     0.429 C 
ATOM     21  F   UNL     1       2.574   2.379   3.639  1.00  0.00    -0.167 F 
ATOM     22  F   UNL     1       1.853   0.326   3.638  1.00  0.00    -0.167 F 
ATOM     23  F   UNL     1       3.987   0.732   3.826  1.00  0.00    -0.167 F 
ENDBRANCH  10  20
ENDBRANCH   6   8
ENDBRANCH   3   4
ENDBRANCH   2   3
ENDBRANCH   1   2
BRANCH   1  24
ATOM     24  C   UNL     1       4.484   0.759  -4.606  1.00  0.00     0.116 C 
BRANCH  24  25
ATOM     25  N   UNL     1       5.933   0.837  -4.467  1.00  0.00    -0.352 N 
ATOM     26  C   UNL     1       6.856   1.408  -5.318  1.00  0.00     0.251 C 
ATOM     27  H   UNL     1       6.304   0.426  -3.653  1.00  0.00     0.163 HD
ATOM     28  O   UNL     1       8.057   1.347  -5.071  1.00  0.00    -0.269 OA
BRANCH  26  29
ATOM     29  C   UNL     1       6.390   2.038  -6.572  1.00  0.00     0.039 A 
ATOM     30  C   UNL     1       6.929   1.601  -7.784  1.00  0.00     0.014 A 
ATOM     31  C   UNL     1       5.345   2.964  -6.554  1.00  0.00     0.014 A 
ATOM     32  C   UNL     1       6.327   1.989  -8.983  1.00  0.00     0.010 A 
ATOM     33  C   UNL     1       4.697   3.283  -7.743  1.00  0.00     0.010 A 
ATOM     34  C   UNL     1       5.161   2.772  -8.966  1.00  0.00    -0.014 A 
BRANCH  34  35
ATOM     35  C   UNL     1       4.373   3.012 -10.202  1.00  0.00     0.031 A 
ATOM     36  C   UNL     1       4.170   4.409 -10.713  1.00  0.00     0.074 A 
ATOM     37  C   UNL     1       3.757   1.976 -10.807  1.00  0.00     0.049 A 
ATOM     38  N   UNL     1       3.432   4.824 -11.711  1.00  0.00    -0.248 NA
ATOM     39  C   UNL     1       4.862   5.485  -9.987  1.00  0.00     0.031 C 
ATOM     40  C   UNL     1       3.821   0.578 -10.372  1.00  0.00     0.029 A 
ATOM     41  N   UNL     1       2.942   1.939 -11.911  1.00  0.00    -0.354 N 
ATOM     42  C   UNL     1       3.554   6.207 -11.719  1.00  0.00     0.074 A 
ATOM     43  C   UNL     1       4.399   6.564 -10.599  1.00  0.00     0.031 C 
ATOM     44  C   UNL     1       3.101  -0.180 -11.214  1.00  0.00     0.029 A 
ATOM     45  C   UNL     1       2.493   0.678 -12.225  1.00  0.00     0.049 A 
ATOM     46  H   UNL     1       2.701   2.740 -12.430  1.00  0.00     0.167 HD
ATOM     47  C   UNL     1       3.030   7.098 -12.594  1.00  0.00     0.037 A 
ATOM     48  C   UNL     1       1.679   0.261 -13.213  1.00  0.00     0.037 A 
ATOM     49  C   UNL     1       2.217   6.739 -13.726  1.00  0.00     0.049 A 
ATOM     50  C   UNL     1       1.124   1.266 -14.182  1.00  0.00     0.074 A 
ATOM     51  C   UNL     1       1.692   7.563 -14.707  1.00  0.00     0.029 A 
ATOM     52  N   UNL     1       1.814   5.447 -14.030  1.00  0.00    -0.354 N 
ATOM     53  N   UNL     1       1.303   2.564 -14.215  1.00  0.00    -0.248 NA
ATOM     54  C   UNL     1       0.257   0.750 -15.251  1.00  0.00     0.031 C 
ATOM     55  C   UNL     1       0.946   6.772 -15.588  1.00  0.00     0.029 A 
ATOM     56  C   UNL     1       1.035   5.453 -15.175  1.00  0.00     0.049 A 
ATOM     57  H   UNL     1       2.047   4.646 -13.508  1.00  0.00     0.167 HD
ATOM     58  C   UNL     1       0.592   3.017 -15.319  1.00  0.00     0.074 A 
ATOM     59  C   UNL     1      -0.011   1.853 -15.935  1.00  0.00     0.031 C 
ATOM     60  C   UNL     1       0.451   4.284 -15.779  1.00  0.00     0.037 A 
BRANCH  47  61
ATOM     61  C   UNL     1       3.332   8.548 -12.362  1.00  0.00     0.057 A 
ATOM     62  C   UNL     1       4.610   9.078 -12.586  1.00  0.00     0.134 A 
ATOM     63  C   UNL     1       2.333   9.429 -11.930  1.00  0.00     0.134 A 
ATOM     64  F   UNL     1       5.614   8.284 -12.987  1.00  0.00    -0.206 F 
ATOM     65  C   UNL     1       4.890  10.427 -12.362  1.00  0.00     0.040 A 
ATOM     66  C   UNL     1       2.595  10.784 -11.726  1.00  0.00     0.040 A 
ATOM     67  F   UNL     1       1.087   8.987 -11.701  1.00  0.00    -0.206 F 
ATOM     68  C   UNL     1       3.879  11.285 -11.936  1.00  0.00     0.006 A 
ENDBRANCH  47  61
BRANCH  48  69
ATOM     69  C   UNL     1       1.362  -1.182 -13.357  1.00  0.00     0.057 A 
ATOM     70  C   UNL     1       1.899  -1.934 -14.409  1.00  0.00     0.134 A 
ATOM     71  C   UNL     1       0.516  -1.843 -12.458  1.00  0.00     0.134 A 
ATOM     72  F   UNL     1       2.701  -1.352 -15.312  1.00  0.00    -0.206 F 
ATOM     73  C   UNL     1       1.595  -3.286 -14.572  1.00  0.00     0.040 A 
ATOM     74  C   UNL     1       0.220  -3.200 -12.597  1.00  0.00     0.040 A 
ATOM     75  F   UNL     1      -0.024  -1.179 -11.425  1.00  0.00    -0.206 F 
ATOM     76  C   UNL     1       0.756  -3.924 -13.661  1.00  0.00     0.006 A 
ENDBRANCH  48  69
BRANCH  60  77
ATOM     77  C   UNL     1      -0.362   4.473 -17.023  1.00  0.00     0.057 A 
ATOM     78  C   UNL     1      -1.760   4.391 -17.009  1.00  0.00     0.134 A 
ATOM     79  C   UNL     1       0.259   4.783 -18.239  1.00  0.00     0.134 A 
ATOM     80  F   UNL     1      -2.411   4.082 -15.877  1.00  0.00    -0.206 F 
ATOM     81  C   UNL     1      -2.512   4.597 -18.166  1.00  0.00     0.040 A 
ATOM     82  C   UNL     1      -0.484   5.013 -19.398  1.00  0.00     0.040 A 
ATOM     83  F   UNL     1       1.594   4.882 -18.317  1.00  0.00    -0.206 F 
ATOM     84  C   UNL     1      -1.874   4.917 -19.363  1.00  0.00     0.006 A 
ENDBRANCH  60  77
ENDBRANCH  34  35
ENDBRANCH  26  29
ENDBRANCH  24  25
ENDBRANCH   1  24
TORSDOF 12
