REMARK SMILES CN(C)C(=O)c1ccc(NC[C@@H]2CC[C@@H](C(=O)NCCCCNC(=O)c3ccc(-c4c5nc(c(-c6c(F)cccc6F)c6ccc([nH]6)c(-c6c(F)cccc6F)c6nc(c(-c7c(F)cccc7F)c7ccc4[nH]7)C=C6)C=C5)cc3)O2)nn1
REMARK SMILES IDX 19 1 18 2 16 3 17 4 15 6 12 7 13 8 80 9 14 10 11 11 10 12
REMARK SMILES IDX 9 14 6 15 7 16 82 17 8 18 81 19 4 20 1 21 2 22 3 23 5 24
REMARK SMILES IDX 20 25 21 26 22 27 23 28 24 29 25 31 26 32 27 33 79 34 28 35
REMARK SMILES IDX 78 36 29 37 30 38 31 39 72 40 32 41 77 42 71 43 73 44 33 45
REMARK SMILES IDX 76 46 70 47 69 48 34 50 60 51 43 52 59 53 44 54 47 55 58 56
REMARK SMILES IDX 74 57 45 58 46 59 57 61 75 62 48 63 35 64 36 65 41 66 37 67
REMARK SMILES IDX 38 68 40 69 42 70 39 71 61 72 62 73 67 74 63 75 64 76 66 77
REMARK SMILES IDX 68 78 65 79 49 80 50 81 55 82 51 83 52 84 54 85 56 86 53 87
REMARK H PARENT 18 5 10 13 23 30 73 49 47 60
REMARK Flexibility Score: inf
ROOT
ATOM      1  C   UNL     1       3.565   1.925   9.659  1.00  0.00     0.116 C 
ENDROOT
BRANCH   1   2
ATOM      2  N   UNL     1       3.266   3.338   9.801  1.00  0.00    -0.354 N 
ATOM      3  C   UNL     1       2.242   4.092   9.314  1.00  0.00     0.249 C 
ATOM      4  O   UNL     1       2.258   5.298   9.589  1.00  0.00    -0.272 OA
ATOM      5  H   UNL     1       3.917   3.838  10.343  1.00  0.00     0.163 HD
BRANCH   3   6
ATOM      6  C   UNL     1       1.087   3.501   8.465  1.00  0.00     0.207 C 
ATOM      7  C   UNL     1      -0.017   1.572   9.095  1.00  0.00     0.138 C 
ATOM      8  C   UNL     1      -1.090   2.636   9.018  1.00  0.00     0.037 C 
ATOM      9  O   UNL     1       1.030   2.092   8.264  1.00  0.00    -0.363 OA
ATOM     10  C   UNL     1      -0.257   3.898   9.095  1.00  0.00     0.045 C 
BRANCH   7  11
ATOM     11  C   UNL     1      -0.417   0.139   8.713  1.00  0.00     0.146 C 
BRANCH  11  12
ATOM     12  N   UNL     1      -1.287   0.053   7.550  1.00  0.00    -0.366 N 
ATOM     13  H   UNL     1      -2.264   0.078   7.673  1.00  0.00     0.162 HD
BRANCH  12  14
ATOM     14  C   UNL     1      -0.763  -0.063   6.273  1.00  0.00     0.148 A 
ATOM     15  C   UNL     1       0.208  -0.438   3.736  1.00  0.00     0.151 A 
ATOM     16  C   UNL     1      -1.162  -0.389   3.916  1.00  0.00     0.040 A 
ATOM     17  N   UNL     1       1.066  -0.329   4.769  1.00  0.00    -0.143 NA
ATOM     18  C   UNL     1      -1.647  -0.200   5.207  1.00  0.00     0.051 A 
ATOM     19  N   UNL     1       0.565  -0.143   6.045  1.00  0.00    -0.132 NA
BRANCH  15  20
ATOM     20  C   UNL     1       0.790  -0.672   2.390  1.00  0.00     0.273 C 
ATOM     21  C   UNL     1       0.907  -0.132   0.012  1.00  0.00     0.146 C 
ATOM     22  N   UNL     1       0.467   0.211   1.353  1.00  0.00    -0.343 N 
ATOM     23  C   UNL     1      -0.162   1.510   1.538  1.00  0.00     0.146 C 
ATOM     24  O   UNL     1       1.497  -1.664   2.218  1.00  0.00    -0.267 OA
ENDBRANCH  15  20
ENDBRANCH  12  14
ENDBRANCH  11  12
ENDBRANCH   7  11
ENDBRANCH   3   6
ENDBRANCH   1   2
BRANCH   1  25
ATOM     25  C   UNL     1       4.588   1.659   8.560  1.00  0.00     0.023 C 
BRANCH  25  26
ATOM     26  C   UNL     1       6.018   2.079   8.915  1.00  0.00     0.023 C 
BRANCH  26  27
ATOM     27  C   UNL     1       6.568   1.510  10.221  1.00  0.00     0.116 C 
BRANCH  27  28
ATOM     28  N   UNL     1       6.500   0.059  10.305  1.00  0.00    -0.352 N 
ATOM     29  C   UNL     1       7.398  -0.813  10.876  1.00  0.00     0.251 C 
ATOM     30  H   UNL     1       5.704  -0.355   9.898  1.00  0.00     0.163 HD
ATOM     31  O   UNL     1       7.231  -2.022  10.804  1.00  0.00    -0.269 OA
BRANCH  29  32
ATOM     32  C   UNL     1       8.599  -0.271  11.545  1.00  0.00     0.039 A 
ATOM     33  C   UNL     1       9.853  -0.759  11.172  1.00  0.00     0.014 A 
ATOM     34  C   UNL     1       8.487   0.745  12.498  1.00  0.00     0.014 A 
ATOM     35  C   UNL     1      11.005  -0.171  11.697  1.00  0.00     0.010 A 
ATOM     36  C   UNL     1       9.636   1.371  12.971  1.00  0.00     0.010 A 
ATOM     37  C   UNL     1      10.905   0.927  12.567  1.00  0.00    -0.014 A 
BRANCH  37  38
ATOM     38  C   UNL     1      12.112   1.640  13.054  1.00  0.00     0.031 A 
ATOM     39  C   UNL     1      12.445   1.643  14.518  1.00  0.00     0.074 A 
ATOM     40  C   UNL     1      12.857   2.355  12.189  1.00  0.00     0.049 A 
ATOM     41  N   UNL     1      13.387   2.294  15.151  1.00  0.00    -0.248 NA
ATOM     42  C   UNL     1      11.585   0.830  15.392  1.00  0.00     0.031 C 
ATOM     43  C   UNL     1      12.610   2.471  10.751  1.00  0.00     0.029 A 
ATOM     44  N   UNL     1      13.966   3.137  12.399  1.00  0.00    -0.354 N 
ATOM     45  C   UNL     1      13.221   1.986  16.494  1.00  0.00     0.074 A 
ATOM     46  C   UNL     1      12.061   1.127  16.592  1.00  0.00     0.031 C 
ATOM     47  C   UNL     1      13.547   3.263  10.206  1.00  0.00     0.029 A 
ATOM     48  C   UNL     1      14.437   3.742  11.259  1.00  0.00     0.049 A 
ATOM     49  H   UNL     1      14.383   3.253  13.283  1.00  0.00     0.167 HD
ATOM     50  C   UNL     1      13.979   2.370  17.549  1.00  0.00     0.037 A 
ATOM     51  C   UNL     1      15.464   4.595  11.085  1.00  0.00     0.037 A 
ATOM     52  C   UNL     1      15.150   3.199  17.446  1.00  0.00     0.049 A 
ATOM     53  C   UNL     1      16.293   5.001  12.271  1.00  0.00     0.074 A 
ATOM     54  C   UNL     1      16.023   3.586  18.447  1.00  0.00     0.029 A 
ATOM     55  N   UNL     1      15.613   3.767  16.269  1.00  0.00    -0.354 N 
ATOM     56  N   UNL     1      16.163   4.652  13.528  1.00  0.00    -0.248 NA
ATOM     57  C   UNL     1      17.413   5.918  12.015  1.00  0.00     0.031 C 
ATOM     58  C   UNL     1      16.994   4.419  17.883  1.00  0.00     0.029 A 
ATOM     59  C   UNL     1      16.749   4.518  16.522  1.00  0.00     0.049 A 
ATOM     60  H   UNL     1      15.196   3.654  15.384  1.00  0.00     0.167 HD
ATOM     61  C   UNL     1      17.197   5.282  14.207  1.00  0.00     0.074 A 
ATOM     62  C   UNL     1      17.952   6.028  13.221  1.00  0.00     0.031 C 
ATOM     63  C   UNL     1      17.495   5.246  15.528  1.00  0.00     0.037 A 
BRANCH  50  64
ATOM     64  C   UNL     1      13.563   1.891  18.908  1.00  0.00     0.057 A 
ATOM     65  C   UNL     1      13.704   0.551  19.293  1.00  0.00     0.134 A 
ATOM     66  C   UNL     1      13.044   2.784  19.854  1.00  0.00     0.134 A 
ATOM     67  F   UNL     1      14.182  -0.357  18.430  1.00  0.00    -0.206 F 
ATOM     68  C   UNL     1      13.319   0.112  20.561  1.00  0.00     0.040 A 
ATOM     69  C   UNL     1      12.681   2.362  21.134  1.00  0.00     0.040 A 
ATOM     70  F   UNL     1      12.889   4.082  19.553  1.00  0.00    -0.206 F 
ATOM     71  C   UNL     1      12.812   1.020  21.488  1.00  0.00     0.006 A 
ENDBRANCH  50  64
BRANCH  51  72
ATOM     72  C   UNL     1      15.781   5.108   9.729  1.00  0.00     0.057 A 
ATOM     73  C   UNL     1      16.926   4.680   9.047  1.00  0.00     0.134 A 
ATOM     74  C   UNL     1      14.954   6.036   9.085  1.00  0.00     0.134 A 
ATOM     75  F   UNL     1      17.766   3.807   9.621  1.00  0.00    -0.206 F 
ATOM     76  C   UNL     1      17.248   5.170   7.780  1.00  0.00     0.040 A 
ATOM     77  C   UNL     1      15.252   6.517   7.809  1.00  0.00     0.040 A 
ATOM     78  F   UNL     1      13.839   6.480   9.683  1.00  0.00    -0.206 F 
ATOM     79  C   UNL     1      16.406   6.088   7.155  1.00  0.00     0.006 A 
ENDBRANCH  51  72
BRANCH  63  80
ATOM     80  C   UNL     1      18.705   6.005  15.981  1.00  0.00     0.057 A 
ATOM     81  C   UNL     1      18.708   7.402  16.075  1.00  0.00     0.134 A 
ATOM     82  C   UNL     1      19.866   5.326  16.375  1.00  0.00     0.134 A 
ATOM     83  F   UNL     1      17.632   8.111  15.701  1.00  0.00    -0.206 F 
ATOM     84  C   UNL     1      19.828   8.099  16.530  1.00  0.00     0.040 A 
ATOM     85  C   UNL     1      20.983   6.010  16.853  1.00  0.00     0.040 A 
ATOM     86  F   UNL     1      19.924   3.987  16.315  1.00  0.00    -0.206 F 
ATOM     87  C   UNL     1      20.968   7.401  16.929  1.00  0.00     0.006 A 
ENDBRANCH  63  80
ENDBRANCH  37  38
ENDBRANCH  29  32
ENDBRANCH  27  28
ENDBRANCH  26  27
ENDBRANCH  25  26
ENDBRANCH   1  25
TORSDOF 15
