REMARK SMILES O=C(CCC(=O)Nc1ccc2nc(-c3ccccc3)oc2c1)NCCCCNC(=O)c1ccc(-c2c3nc(c(-c4c(F)cccc4F)c4ccc([nH]4)c(-c4c(F)cccc4F)c4nc(c(-c5c(F)cccc5F)c5ccc2[nH]5)C=C4)C=C3)cc1
REMARK SMILES IDX 24 1 23 2 1 3 2 4 3 6 4 7 5 8 6 9 7 10 8 12 9 13 22 14 10 15
REMARK SMILES IDX 21 16 11 17 20 18 12 19 13 20 14 21 15 22 19 23 16 24 18 25
REMARK SMILES IDX 17 26 25 27 26 28 27 29 28 30 29 31 30 33 31 34 32 35 84 36
REMARK SMILES IDX 33 37 83 38 34 39 35 40 36 41 77 42 37 43 82 44 76 45 78 46
REMARK SMILES IDX 38 47 81 48 75 49 74 50 39 52 65 53 48 54 64 55 49 56 52 57
REMARK SMILES IDX 63 58 79 59 50 60 51 61 62 63 80 64 53 65 40 66 41 67 46 68
REMARK SMILES IDX 42 69 43 70 45 71 47 72 44 73 66 74 67 75 72 76 68 77 69 78
REMARK SMILES IDX 71 79 73 80 70 81 54 82 55 83 60 84 56 85 57 86 59 87 61 88
REMARK SMILES IDX 58 89
REMARK H PARENT 23 5 7 11 28 32 78 51 52 62
REMARK Flexibility Score: inf
ROOT
ATOM      1  C   UNL     1       2.401   2.187  -1.043  1.00  0.00     0.116 C 
ENDROOT
BRANCH   1   2
ATOM      2  N   UNL     1       3.306   1.464  -0.167  1.00  0.00    -0.356 N 
ATOM      3  O   UNL     1       1.707   0.804   1.349  1.00  0.00    -0.275 OA
ATOM      4  C   UNL     1       2.851   0.735   0.910  1.00  0.00     0.220 C 
ATOM      5  H   UNL     1       4.274   1.495  -0.348  1.00  0.00     0.163 HD
BRANCH   4   6
ATOM      6  C   UNL     1       3.858  -0.241   1.484  1.00  0.00     0.110 C 
BRANCH   6   7
ATOM      7  C   UNL     1       4.024  -1.531   0.679  1.00  0.00     0.110 C 
BRANCH   7   8
ATOM      8  C   UNL     1       4.504  -1.315  -0.737  1.00  0.00     0.224 C 
ATOM      9  O   UNL     1       5.698  -1.051  -0.929  1.00  0.00    -0.275 OA
ATOM     10  N   UNL     1       3.705  -1.352  -1.840  1.00  0.00    -0.326 N 
ATOM     11  H   UNL     1       4.213  -1.466  -2.675  1.00  0.00     0.169 HD
BRANCH  10  12
ATOM     12  C   UNL     1       2.313  -1.264  -2.057  1.00  0.00     0.045 A 
ATOM     13  C   UNL     1       1.359  -1.213  -1.036  1.00  0.00     0.028 A 
ATOM     14  C   UNL     1       1.905  -1.079  -3.397  1.00  0.00     0.075 A 
ATOM     15  C   UNL     1       0.038  -0.809  -1.265  1.00  0.00     0.034 A 
ATOM     16  C   UNL     1       0.571  -0.727  -3.595  1.00  0.00     0.157 A 
ATOM     17  C   UNL     1      -0.341  -0.536  -2.572  1.00  0.00     0.110 A 
ATOM     18  O   UNL     1      -0.090  -0.507  -4.776  1.00  0.00    -0.436 OA
ATOM     19  N   UNL     1      -1.532  -0.111  -3.065  1.00  0.00    -0.209 NA
ATOM     20  C   UNL     1      -1.359  -0.171  -4.369  1.00  0.00     0.227 A 
BRANCH  20  21
ATOM     21  C   UNL     1      -2.410  -0.110  -5.364  1.00  0.00     0.037 A 
ATOM     22  C   UNL     1      -3.279   0.989  -5.396  1.00  0.00     0.014 A 
ATOM     23  C   UNL     1      -2.709  -1.248  -6.122  1.00  0.00     0.014 A 
ATOM     24  C   UNL     1      -4.450   0.936  -6.151  1.00  0.00     0.001 A 
ATOM     25  C   UNL     1      -3.890  -1.306  -6.861  1.00  0.00     0.001 A 
ATOM     26  C   UNL     1      -4.764  -0.219  -6.867  1.00  0.00     0.000 A 
ENDBRANCH  20  21
ENDBRANCH  10  12
ENDBRANCH   7   8
ENDBRANCH   6   7
ENDBRANCH   4   6
ENDBRANCH   1   2
BRANCH   1  27
ATOM     27  C   UNL     1       2.903   3.564  -1.466  1.00  0.00     0.023 C 
BRANCH  27  28
ATOM     28  C   UNL     1       4.299   3.591  -2.092  1.00  0.00     0.023 C 
BRANCH  28  29
ATOM     29  C   UNL     1       4.488   2.705  -3.321  1.00  0.00     0.116 C 
BRANCH  29  30
ATOM     30  N   UNL     1       3.856   3.247  -4.516  1.00  0.00    -0.352 N 
ATOM     31  C   UNL     1       4.422   3.807  -5.638  1.00  0.00     0.251 C 
ATOM     32  H   UNL     1       2.873   3.205  -4.522  1.00  0.00     0.163 HD
ATOM     33  O   UNL     1       3.705   4.355  -6.477  1.00  0.00    -0.269 OA
BRANCH  31  34
ATOM     34  C   UNL     1       5.889   3.789  -5.837  1.00  0.00     0.039 A 
ATOM     35  C   UNL     1       6.530   4.960  -6.253  1.00  0.00     0.014 A 
ATOM     36  C   UNL     1       6.636   2.628  -5.625  1.00  0.00     0.014 A 
ATOM     37  C   UNL     1       7.923   4.990  -6.365  1.00  0.00     0.010 A 
ATOM     38  C   UNL     1       8.029   2.682  -5.655  1.00  0.00     0.010 A 
ATOM     39  C   UNL     1       8.690   3.865  -6.018  1.00  0.00    -0.014 A 
BRANCH  39  40
ATOM     40  C   UNL     1      10.178   3.916  -6.005  1.00  0.00     0.031 A 
ATOM     41  C   UNL     1      10.982   3.022  -6.911  1.00  0.00     0.074 A 
ATOM     42  C   UNL     1      10.811   4.716  -5.124  1.00  0.00     0.049 A 
ATOM     43  N   UNL     1      12.281   2.871  -6.983  1.00  0.00    -0.248 NA
ATOM     44  C   UNL     1      10.226   2.169  -7.840  1.00  0.00     0.031 C 
ATOM     45  C   UNL     1      10.155   5.596  -4.156  1.00  0.00     0.029 A 
ATOM     46  N   UNL     1      12.151   4.910  -4.890  1.00  0.00    -0.354 N 
ATOM     47  C   UNL     1      12.496   1.901  -7.955  1.00  0.00     0.074 A 
ATOM     48  C   UNL     1      11.193   1.459  -8.403  1.00  0.00     0.031 C 
ATOM     49  C   UNL     1      11.090   6.248  -3.447  1.00  0.00     0.029 A 
ATOM     50  C   UNL     1      12.412   5.803  -3.879  1.00  0.00     0.049 A 
ATOM     51  H   UNL     1      12.858   4.451  -5.399  1.00  0.00     0.167 HD
ATOM     52  C   UNL     1      13.670   1.437  -8.447  1.00  0.00     0.037 A 
ATOM     53  C   UNL     1      13.581   6.211  -3.349  1.00  0.00     0.037 A 
ATOM     54  C   UNL     1      14.968   1.886  -8.012  1.00  0.00     0.049 A 
ATOM     55  C   UNL     1      14.871   5.668  -3.899  1.00  0.00     0.074 A 
ATOM     56  C   UNL     1      16.213   1.511  -8.486  1.00  0.00     0.029 A 
ATOM     57  N   UNL     1      15.188   2.805  -6.997  1.00  0.00    -0.354 N 
ATOM     58  N   UNL     1      15.058   4.801  -4.864  1.00  0.00    -0.248 NA
ATOM     59  C   UNL     1      16.113   6.166  -3.292  1.00  0.00     0.031 C 
ATOM     60  C   UNL     1      17.188   2.166  -7.727  1.00  0.00     0.029 A 
ATOM     61  C   UNL     1      16.549   2.992  -6.816  1.00  0.00     0.049 A 
ATOM     62  H   UNL     1      14.482   3.258  -6.481  1.00  0.00     0.167 HD
ATOM     63  C   UNL     1      16.435   4.671  -4.998  1.00  0.00     0.074 A 
ATOM     64  C   UNL     1      17.035   5.561  -4.027  1.00  0.00     0.031 C 
ATOM     65  C   UNL     1      17.137   3.886  -5.851  1.00  0.00     0.037 A 
BRANCH  52  66
ATOM     66  C   UNL     1      13.605   0.388  -9.521  1.00  0.00     0.057 A 
ATOM     67  C   UNL     1      13.145   0.682 -10.812  1.00  0.00     0.134 A 
ATOM     68  C   UNL     1      14.041  -0.920  -9.274  1.00  0.00     0.134 A 
ATOM     69  F   UNL     1      12.703   1.912 -11.113  1.00  0.00    -0.206 F 
ATOM     70  C   UNL     1      13.094  -0.294 -11.809  1.00  0.00     0.040 A 
ATOM     71  C   UNL     1      14.023  -1.896 -10.272  1.00  0.00     0.040 A 
ATOM     72  F   UNL     1      14.502  -1.268  -8.064  1.00  0.00    -0.206 F 
ATOM     73  C   UNL     1      13.541  -1.586 -11.542  1.00  0.00     0.006 A 
ENDBRANCH  52  66
BRANCH  53  74
ATOM     74  C   UNL     1      13.590   7.198  -2.238  1.00  0.00     0.057 A 
ATOM     75  C   UNL     1      14.068   8.500  -2.431  1.00  0.00     0.134 A 
ATOM     76  C   UNL     1      13.135   6.862  -0.957  1.00  0.00     0.134 A 
ATOM     77  F   UNL     1      14.537   8.876  -3.630  1.00  0.00    -0.206 F 
ATOM     78  C   UNL     1      14.115   9.425  -1.386  1.00  0.00     0.040 A 
ATOM     79  C   UNL     1      13.149   7.785   0.089  1.00  0.00     0.040 A 
ATOM     80  F   UNL     1      12.657   5.634  -0.709  1.00  0.00    -0.206 F 
ATOM     81  C   UNL     1      13.649   9.069  -0.122  1.00  0.00     0.006 A 
ENDBRANCH  53  74
BRANCH  65  82
ATOM     82  C   UNL     1      18.635   3.981  -5.800  1.00  0.00     0.057 A 
ATOM     83  C   UNL     1      19.376   3.466  -4.729  1.00  0.00     0.134 A 
ATOM     84  C   UNL     1      19.347   4.563  -6.857  1.00  0.00     0.134 A 
ATOM     85  F   UNL     1      18.756   2.907  -3.679  1.00  0.00    -0.206 F 
ATOM     86  C   UNL     1      20.770   3.547  -4.700  1.00  0.00     0.040 A 
ATOM     87  C   UNL     1      20.741   4.625  -6.853  1.00  0.00     0.040 A 
ATOM     88  F   UNL     1      18.701   5.068  -7.918  1.00  0.00    -0.206 F 
ATOM     89  C   UNL     1      21.456   4.122  -5.768  1.00  0.00     0.006 A 
ENDBRANCH  65  82
ENDBRANCH  39  40
ENDBRANCH  31  34
ENDBRANCH  29  30
ENDBRANCH  28  29
ENDBRANCH  27  28
ENDBRANCH   1  27
TORSDOF 15
