REMARK SMILES O=C(NCCCCNC(=O)[C@H](CCSc1ccccc1)Cc1ccccc1Br)c1ccc(-c2c3nc(c(-c4c(F)cccc4F)c4ccc([nH]4)c(-c4c(F)cccc4F)c4nc(c(-c5c(F)cccc5F)c5ccc2[nH]5)C=C4)C=C3)cc1
REMARK SMILES IDX 6 1 5 2 4 3 3 4 1 5 2 6 29 8 30 9 82 10 31 11 81 12 32 13
REMARK SMILES IDX 33 14 34 15 75 16 35 17 80 18 74 19 76 20 36 21 79 22 73 23
REMARK SMILES IDX 72 24 37 26 63 27 46 28 62 29 47 30 50 31 61 32 77 33 48 34
REMARK SMILES IDX 49 35 60 37 78 38 51 39 38 40 39 41 44 42 40 43 41 44 43 45
REMARK SMILES IDX 45 46 42 47 64 48 65 49 70 50 66 51 67 52 69 53 71 54 68 55
REMARK SMILES IDX 52 56 53 57 58 58 54 59 55 60 57 61 59 62 56 63 7 64 8 65
REMARK SMILES IDX 9 66 10 68 11 69 21 70 22 71 23 72 27 73 24 74 26 75 28 76
REMARK SMILES IDX 25 77 12 78 13 79 14 80 15 81 16 82 20 83 17 84 19 85 18 86
REMARK H PARENT 3 7 76 25 50 36 8 67
REMARK Flexibility Score: inf
ROOT
ATOM      1  C   UNL     1       5.515   6.240  -9.044  1.00  0.00     0.023 C 
ENDROOT
BRANCH   1   2
ATOM      2  C   UNL     1       4.521   5.533  -9.970  1.00  0.00     0.023 C 
BRANCH   2   3
ATOM      3  C   UNL     1       3.057   5.701  -9.586  1.00  0.00     0.116 C 
BRANCH   3   4
ATOM      4  N   UNL     1       2.573   7.051  -9.826  1.00  0.00    -0.352 N 
ATOM      5  O   UNL     1       1.492   8.703 -10.917  1.00  0.00    -0.269 OA
ATOM      6  C   UNL     1       1.633   7.501 -10.726  1.00  0.00     0.251 C 
ATOM      7  H   UNL     1       2.978   7.748  -9.260  1.00  0.00     0.163 HD
BRANCH   6   8
ATOM      8  C   UNL     1       0.800   6.534 -11.477  1.00  0.00     0.039 A 
ATOM      9  C   UNL     1       0.232   5.432 -10.836  1.00  0.00     0.014 A 
ATOM     10  C   UNL     1       0.557   6.749 -12.838  1.00  0.00     0.014 A 
ATOM     11  C   UNL     1      -0.447   4.473 -11.578  1.00  0.00     0.010 A 
ATOM     12  C   UNL     1      -0.209   5.832 -13.566  1.00  0.00     0.010 A 
ATOM     13  C   UNL     1      -0.695   4.670 -12.948  1.00  0.00    -0.014 A 
BRANCH  13  14
ATOM     14  C   UNL     1      -1.535   3.680 -13.672  1.00  0.00     0.031 A 
ATOM     15  C   UNL     1      -0.985   2.848 -14.797  1.00  0.00     0.074 A 
ATOM     16  C   UNL     1      -2.806   3.500 -13.262  1.00  0.00     0.049 A 
ATOM     17  N   UNL     1      -1.573   1.895 -15.477  1.00  0.00    -0.248 NA
ATOM     18  C   UNL     1       0.396   3.121 -15.222  1.00  0.00     0.031 C 
ATOM     19  C   UNL     1      -3.465   4.271 -12.204  1.00  0.00     0.029 A 
ATOM     20  N   UNL     1      -3.762   2.601 -13.659  1.00  0.00    -0.354 N 
ATOM     21  C   UNL     1      -0.640   1.458 -16.410  1.00  0.00     0.074 A 
ATOM     22  C   UNL     1       0.542   2.274 -16.233  1.00  0.00     0.031 C 
ATOM     23  C   UNL     1      -4.693   3.776 -11.997  1.00  0.00     0.029 A 
ATOM     24  C   UNL     1      -4.931   2.694 -12.944  1.00  0.00     0.049 A 
ATOM     25  H   UNL     1      -3.624   1.952 -14.386  1.00  0.00     0.167 HD
ATOM     26  C   UNL     1      -0.757   0.460 -17.320  1.00  0.00     0.037 A 
ATOM     27  C   UNL     1      -6.076   1.994 -13.042  1.00  0.00     0.037 A 
ATOM     28  C   UNL     1      -1.935  -0.353 -17.492  1.00  0.00     0.049 A 
ATOM     29  C   UNL     1      -6.174   0.896 -14.059  1.00  0.00     0.074 A 
ATOM     30  C   UNL     1      -2.143  -1.395 -18.381  1.00  0.00     0.029 A 
ATOM     31  N   UNL     1      -3.105  -0.217 -16.761  1.00  0.00    -0.354 N 
ATOM     32  N   UNL     1      -5.271   0.478 -14.912  1.00  0.00    -0.248 NA
ATOM     33  C   UNL     1      -7.449   0.170 -14.125  1.00  0.00     0.031 C 
ATOM     34  C   UNL     1      -3.450  -1.865 -18.211  1.00  0.00     0.029 A 
ATOM     35  C   UNL     1      -4.042  -1.147 -17.186  1.00  0.00     0.049 A 
ATOM     36  H   UNL     1      -3.250   0.442 -16.044  1.00  0.00     0.167 HD
ATOM     37  C   UNL     1      -5.866  -0.560 -15.614  1.00  0.00     0.074 A 
ATOM     38  C   UNL     1      -7.194  -0.733 -15.061  1.00  0.00     0.031 C 
ATOM     39  C   UNL     1      -5.362  -1.299 -16.632  1.00  0.00     0.037 A 
BRANCH  26  40
ATOM     40  C   UNL     1       0.423   0.185 -18.207  1.00  0.00     0.057 A 
ATOM     41  C   UNL     1       1.580  -0.438 -17.721  1.00  0.00     0.134 A 
ATOM     42  C   UNL     1       0.380   0.485 -19.575  1.00  0.00     0.134 A 
ATOM     43  F   UNL     1       1.691  -0.743 -16.419  1.00  0.00    -0.206 F 
ATOM     44  C   UNL     1       2.656  -0.739 -18.559  1.00  0.00     0.040 A 
ATOM     45  C   UNL     1       1.439   0.169 -20.427  1.00  0.00     0.040 A 
ATOM     46  F   UNL     1      -0.701   1.074 -20.108  1.00  0.00    -0.206 F 
ATOM     47  C   UNL     1       2.583  -0.442 -19.919  1.00  0.00     0.006 A 
ENDBRANCH  26  40
BRANCH  27  48
ATOM     48  C   UNL     1      -7.220   2.322 -12.156  1.00  0.00     0.057 A 
ATOM     49  C   UNL     1      -7.641   1.442 -11.153  1.00  0.00     0.134 A 
ATOM     50  C   UNL     1      -7.917   3.529 -12.291  1.00  0.00     0.134 A 
ATOM     51  F   UNL     1      -7.023   0.264 -10.986  1.00  0.00    -0.206 F 
ATOM     52  C   UNL     1      -8.726   1.742 -10.328  1.00  0.00     0.040 A 
ATOM     53  C   UNL     1      -8.984   3.855 -11.455  1.00  0.00     0.040 A 
ATOM     54  F   UNL     1      -7.555   4.419 -13.227  1.00  0.00    -0.206 F 
ATOM     55  C   UNL     1      -9.397   2.955 -10.475  1.00  0.00     0.006 A 
ENDBRANCH  27  48
BRANCH  39  56
ATOM     56  C   UNL     1      -6.255  -2.363 -17.198  1.00  0.00     0.057 A 
ATOM     57  C   UNL     1      -7.373  -2.046 -17.981  1.00  0.00     0.134 A 
ATOM     58  C   UNL     1      -5.997  -3.718 -16.957  1.00  0.00     0.134 A 
ATOM     59  F   UNL     1      -7.684  -0.766 -18.235  1.00  0.00    -0.206 F 
ATOM     60  C   UNL     1      -8.221  -3.038 -18.476  1.00  0.00     0.040 A 
ATOM     61  C   UNL     1      -6.823  -4.719 -17.468  1.00  0.00     0.040 A 
ATOM     62  F   UNL     1      -4.938  -4.089 -16.220  1.00  0.00    -0.206 F 
ATOM     63  C   UNL     1      -7.944  -4.380 -18.222  1.00  0.00     0.006 A 
ENDBRANCH  39  56
ENDBRANCH  13  14
ENDBRANCH   6   8
ENDBRANCH   3   4
ENDBRANCH   2   3
ENDBRANCH   1   2
BRANCH   1  64
ATOM     64  C   UNL     1       5.469   5.792  -7.582  1.00  0.00     0.116 C 
BRANCH  64  65
ATOM     65  N   UNL     1       5.763   4.388  -7.443  1.00  0.00    -0.356 N 
ATOM     66  C   UNL     1       6.419   3.700  -6.486  1.00  0.00     0.223 C 
ATOM     67  H   UNL     1       5.425   3.830  -8.180  1.00  0.00     0.163 HD
ATOM     68  O   UNL     1       6.900   2.628  -6.875  1.00  0.00    -0.275 OA
BRANCH  66  69
ATOM     69  C   UNL     1       6.693   4.217  -5.065  1.00  0.00     0.083 C 
BRANCH  69  70
ATOM     70  C   UNL     1       5.655   5.158  -4.388  1.00  0.00     0.050 C 
BRANCH  70  71
ATOM     71  C   UNL     1       6.269   6.265  -3.528  1.00  0.00    -0.033 A 
ATOM     72  C   UNL     1       7.022   5.903  -2.393  1.00  0.00     0.005 A 
ATOM     73  C   UNL     1       6.107   7.643  -3.769  1.00  0.00     0.021 A 
ATOM     74  C   UNL     1       7.660   6.854  -1.591  1.00  0.00     0.000 A 
ATOM     75  C   UNL     1       6.746   8.597  -2.961  1.00  0.00     0.016 A 
ATOM     76  Br  UNL     1       4.979   8.352  -5.124  1.00  0.00    -0.051 Br
ATOM     77  C   UNL     1       7.535   8.203  -1.884  1.00  0.00     0.001 A 
ENDBRANCH  70  71
ENDBRANCH  69  70
BRANCH  69  78
ATOM     78  C   UNL     1       7.056   2.976  -4.184  1.00  0.00     0.025 C 
BRANCH  78  79
ATOM     79  C   UNL     1       5.907   2.118  -3.619  1.00  0.00     0.076 C 
BRANCH  79  80
ATOM     80  S   UNL     1       5.338   0.709  -4.640  1.00  0.00    -0.126 SA
BRANCH  80  81
ATOM     81  C   UNL     1       4.210   1.437  -5.816  1.00  0.00     0.007 A 
ATOM     82  C   UNL     1       3.231   2.374  -5.476  1.00  0.00     0.015 A 
ATOM     83  C   UNL     1       4.284   0.995  -7.145  1.00  0.00     0.015 A 
ATOM     84  C   UNL     1       2.365   2.880  -6.454  1.00  0.00     0.001 A 
ATOM     85  C   UNL     1       3.423   1.500  -8.122  1.00  0.00     0.001 A 
ATOM     86  C   UNL     1       2.462   2.443  -7.775  1.00  0.00     0.000 A 
ENDBRANCH  80  81
ENDBRANCH  79  80
ENDBRANCH  78  79
ENDBRANCH  69  78
ENDBRANCH  66  69
ENDBRANCH  64  65
ENDBRANCH   1  64
TORSDOF 17
