REMARK SMILES N#Cc1cccnc1N1CC[NH+]([C@@H](C(=O)NCCCCNC(=O)c2ccc(-c3c4nc(c(-c5c(F)cccc5F)c5ccc([nH]5)c(-c5c(F)cccc5F)c5nc(c(-c6c(F)cccc6F)c6ccc3[nH]6)C=C5)C=C4)cc2)c2c[nH]c3cc(CO)ccc23)CC1
REMARK SMILES IDX 18 1 17 2 16 3 14 4 15 5 13 7 12 8 9 9 10 10 90 11 11 12
REMARK SMILES IDX 89 13 8 15 3 16 4 17 5 18 7 19 6 20 2 21 1 22 78 23 79 24
REMARK SMILES IDX 88 25 80 26 81 27 87 28 82 30 86 31 83 32 84 33 85 34 19 36
REMARK SMILES IDX 20 37 21 38 22 39 23 41 24 42 25 43 77 44 26 45 76 46 27 47
REMARK SMILES IDX 28 48 29 49 70 50 30 51 75 52 69 53 71 54 31 55 74 56 68 57
REMARK SMILES IDX 67 58 32 60 58 61 41 62 57 63 42 64 45 65 56 66 72 67 43 68
REMARK SMILES IDX 44 69 55 71 73 72 46 73 33 74 34 75 39 76 35 77 36 78 38 79
REMARK SMILES IDX 40 80 37 81 59 82 60 83 65 84 61 85 62 86 64 87 66 88 63 89
REMARK SMILES IDX 47 90 48 91 53 92 49 93 50 94 52 95 54 96 51 97
REMARK H PARENT 16 6 12 14 80 29 85 35 21 40 71 59 45 70
REMARK Flexibility Score: inf
ROOT
ATOM      1  C   UNL     1       2.169  -3.379   3.104  1.00  0.00     0.023 C 
ENDROOT
BRANCH   1   2
ATOM      2  C   UNL     1       1.380  -4.676   2.762  1.00  0.00     0.116 C 
BRANCH   2   3
ATOM      3  N   UNL     1       0.110  -4.505   2.056  1.00  0.00    -0.351 N 
ATOM      4  C   UNL     1      -0.395  -4.802   0.810  1.00  0.00     0.283 C 
ATOM      5  O   UNL     1      -1.606  -4.568   0.716  1.00  0.00    -0.268 OA
ATOM      6  H   UNL     1      -0.561  -4.061   2.623  1.00  0.00     0.163 HD
BRANCH   4   7
ATOM      7  C   UNL     1       0.445  -5.413  -0.352  1.00  0.00     0.307 C 
BRANCH   7   8
ATOM      8  N   UNL     1       1.431  -4.497  -1.067  1.00  0.00    -0.318 N 
ATOM      9  N   UNL     1       0.668  -1.618  -1.061  1.00  0.00    -0.344 N 
ATOM     10  C   UNL     1       0.014  -2.586  -1.952  1.00  0.00     0.179 C 
ATOM     11  C   UNL     1       1.337  -2.227   0.102  1.00  0.00     0.179 C 
ATOM     12  C   UNL     1       1.001  -3.722  -2.251  1.00  0.00     0.284 C 
ATOM     13  C   UNL     1       2.135  -3.517  -0.243  1.00  0.00     0.284 C 
ATOM     14  H   UNL     1       2.025  -5.269  -1.368  1.00  0.00     0.349 HD
BRANCH   9  15
ATOM     15  C   UNL     1      -0.108  -0.496  -0.738  1.00  0.00     0.146 A 
ATOM     16  C   UNL     1       0.482   0.723  -0.383  1.00  0.00     0.095 A 
ATOM     17  C   UNL     1      -0.331   1.789   0.019  1.00  0.00     0.025 A 
ATOM     18  C   UNL     1      -1.709   1.626   0.056  1.00  0.00     0.022 A 
ATOM     19  N   UNL     1      -1.458  -0.636  -0.733  1.00  0.00    -0.238 NA
ATOM     20  C   UNL     1      -2.223   0.405  -0.333  1.00  0.00     0.113 A 
BRANCH  16  21
ATOM     21  C   UNL     1       1.905   0.913  -0.440  1.00  0.00     0.103 C 
ATOM     22  N   UNL     1       3.046   1.074  -0.444  1.00  0.00    -0.192 NA
ENDBRANCH  16  21
ENDBRANCH   9  15
ENDBRANCH   7   8
BRANCH   7  23
ATOM     23  C   UNL     1      -0.362  -6.179  -1.439  1.00  0.00     0.044 A 
ATOM     24  C   UNL     1       0.119  -7.277  -2.146  1.00  0.00     0.094 A 
ATOM     25  C   UNL     1      -1.472  -5.736  -2.249  1.00  0.00     0.009 A 
ATOM     26  N   UNL     1      -0.077  -6.938  -3.471  1.00  0.00    -0.361 N 
ATOM     27  C   UNL     1      -1.019  -5.936  -3.557  1.00  0.00     0.046 A 
ATOM     28  C   UNL     1      -2.625  -4.951  -2.075  1.00  0.00     0.011 A 
ATOM     29  H   UNL     1       0.385  -7.349  -4.236  1.00  0.00     0.166 HD
ATOM     30  C   UNL     1      -1.398  -5.090  -4.613  1.00  0.00     0.032 A 
ATOM     31  C   UNL     1      -3.115  -4.205  -3.152  1.00  0.00     0.007 A 
ATOM     32  C   UNL     1      -2.403  -4.142  -4.354  1.00  0.00    -0.021 A 
BRANCH  32  33
ATOM     33  C   UNL     1      -2.685  -3.024  -5.329  1.00  0.00     0.191 C 
BRANCH  33  34
ATOM     34  O   UNL     1      -2.714  -1.752  -4.679  1.00  0.00    -0.392 OA
ATOM     35  H   UNL     1      -3.420  -1.744  -4.013  1.00  0.00     0.211 HD
ENDBRANCH  33  34
ENDBRANCH  32  33
ENDBRANCH   7  23
ENDBRANCH   4   7
ENDBRANCH   2   3
ENDBRANCH   1   2
BRANCH   1  36
ATOM     36  C   UNL     1       1.361  -2.097   3.342  1.00  0.00     0.023 C 
BRANCH  36  37
ATOM     37  C   UNL     1       1.381  -1.609   4.775  1.00  0.00     0.116 C 
BRANCH  37  38
ATOM     38  N   UNL     1       2.671  -1.061   5.167  1.00  0.00    -0.352 N 
ATOM     39  C   UNL     1       2.944   0.030   5.959  1.00  0.00     0.251 C 
ATOM     40  H   UNL     1       3.458  -1.537   4.815  1.00  0.00     0.163 HD
ATOM     41  O   UNL     1       4.101   0.421   6.083  1.00  0.00    -0.269 OA
BRANCH  39  42
ATOM     42  C   UNL     1       1.843   0.758   6.636  1.00  0.00     0.039 A 
ATOM     43  C   UNL     1       1.917   2.150   6.744  1.00  0.00     0.014 A 
ATOM     44  C   UNL     1       0.743   0.080   7.165  1.00  0.00     0.014 A 
ATOM     45  C   UNL     1       0.869   2.857   7.338  1.00  0.00     0.010 A 
ATOM     46  C   UNL     1      -0.346   0.789   7.652  1.00  0.00     0.010 A 
ATOM     47  C   UNL     1      -0.283   2.182   7.771  1.00  0.00    -0.014 A 
BRANCH  47  48
ATOM     48  C   UNL     1      -1.417   2.907   8.392  1.00  0.00     0.031 A 
ATOM     49  C   UNL     1      -1.800   2.618   9.818  1.00  0.00     0.074 A 
ATOM     50  C   UNL     1      -2.135   3.774   7.654  1.00  0.00     0.049 A 
ATOM     51  N   UNL     1      -2.774   3.120  10.532  1.00  0.00    -0.248 NA
ATOM     52  C   UNL     1      -1.004   1.600  10.524  1.00  0.00     0.031 C 
ATOM     53  C   UNL     1      -1.896   4.085   6.243  1.00  0.00     0.029 A 
ATOM     54  N   UNL     1      -3.211   4.554   7.989  1.00  0.00    -0.354 N 
ATOM     55  C   UNL     1      -2.721   2.463  11.756  1.00  0.00     0.074 A 
ATOM     56  C   UNL     1      -1.665   1.481  11.664  1.00  0.00     0.031 C 
ATOM     57  C   UNL     1      -2.768   5.026   5.848  1.00  0.00     0.029 A 
ATOM     58  C   UNL     1      -3.647   5.357   6.965  1.00  0.00     0.049 A 
ATOM     59  H   UNL     1      -3.631   4.539   8.880  1.00  0.00     0.167 HD
ATOM     60  C   UNL     1      -3.465   2.680  12.866  1.00  0.00     0.037 A 
ATOM     61  C   UNL     1      -4.637   6.268   6.938  1.00  0.00     0.037 A 
ATOM     62  C   UNL     1      -4.490   3.685  12.956  1.00  0.00     0.049 A 
ATOM     63  C   UNL     1      -5.437   6.508   8.187  1.00  0.00     0.074 A 
ATOM     64  C   UNL     1      -5.251   4.049  14.052  1.00  0.00     0.029 A 
ATOM     65  N   UNL     1      -4.898   4.487  11.900  1.00  0.00    -0.354 N 
ATOM     66  N   UNL     1      -5.323   5.940   9.364  1.00  0.00    -0.248 NA
ATOM     67  C   UNL     1      -6.500   7.518   8.104  1.00  0.00     0.031 C 
ATOM     68  C   UNL     1      -6.152   5.040  13.646  1.00  0.00     0.029 A 
ATOM     69  C   UNL     1      -5.920   5.327  12.309  1.00  0.00     0.049 A 
ATOM     70  H   UNL     1      -4.517   4.463  10.992  1.00  0.00     0.167 HD
ATOM     71  C   UNL     1      -6.282   6.539  10.169  1.00  0.00     0.074 A 
ATOM     72  C   UNL     1      -6.956   7.526   9.349  1.00  0.00     0.031 C 
ATOM     73  C   UNL     1      -6.580   6.295  11.470  1.00  0.00     0.037 A 
BRANCH  60  74
ATOM     74  C   UNL     1      -3.191   1.808  14.060  1.00  0.00     0.057 A 
ATOM     75  C   UNL     1      -1.988   1.884  14.777  1.00  0.00     0.134 A 
ATOM     76  C   UNL     1      -4.137   0.870  14.492  1.00  0.00     0.134 A 
ATOM     77  F   UNL     1      -1.030   2.749  14.409  1.00  0.00    -0.206 F 
ATOM     78  C   UNL     1      -1.719   1.031  15.849  1.00  0.00     0.040 A 
ATOM     79  C   UNL     1      -3.893   0.034  15.584  1.00  0.00     0.040 A 
ATOM     80  F   UNL     1      -5.312   0.745  13.858  1.00  0.00    -0.206 F 
ATOM     81  C   UNL     1      -2.676   0.105  16.258  1.00  0.00     0.006 A 
ENDBRANCH  60  74
BRANCH  61  82
ATOM     82  C   UNL     1      -4.878   7.060   5.706  1.00  0.00     0.057 A 
ATOM     83  C   UNL     1      -4.544   8.418   5.651  1.00  0.00     0.134 A 
ATOM     84  C   UNL     1      -5.420   6.482   4.552  1.00  0.00     0.134 A 
ATOM     85  F   UNL     1      -4.034   9.031   6.729  1.00  0.00    -0.206 F 
ATOM     86  C   UNL     1      -4.748   9.177   4.497  1.00  0.00     0.040 A 
ATOM     87  C   UNL     1      -5.609   7.223   3.384  1.00  0.00     0.040 A 
ATOM     88  F   UNL     1      -5.750   5.182   4.535  1.00  0.00    -0.206 F 
ATOM     89  C   UNL     1      -5.277   8.576   3.356  1.00  0.00     0.006 A 
ENDBRANCH  61  82
BRANCH  73  90
ATOM     90  C   UNL     1      -7.671   7.125  12.082  1.00  0.00     0.057 A 
ATOM     91  C   UNL     1      -9.017   6.940  11.742  1.00  0.00     0.134 A 
ATOM     92  C   UNL     1      -7.372   8.101  13.040  1.00  0.00     0.134 A 
ATOM     93  F   UNL     1      -9.367   6.030  10.821  1.00  0.00    -0.206 F 
ATOM     94  C   UNL     1     -10.025   7.718  12.313  1.00  0.00     0.040 A 
ATOM     95  C   UNL     1      -8.373   8.866  13.639  1.00  0.00     0.040 A 
ATOM     96  F   UNL     1      -6.103   8.321  13.417  1.00  0.00    -0.206 F 
ATOM     97  C   UNL     1      -9.704   8.681  13.269  1.00  0.00     0.006 A 
ENDBRANCH  73  90
ENDBRANCH  47  48
ENDBRANCH  39  42
ENDBRANCH  37  38
ENDBRANCH  36  37
ENDBRANCH   1  36
TORSDOF 17
