REMARK SMILES C[C@H]1CN(S(=O)(=O)N2CCO[C@H](CC(=O)NCCCCNC(=O)c3ccc(-c4c5nc(c(-c6c(F)cccc6F)c6ccc([nH]6)c(-c6c(F)cccc6F)c6nc(c(-c7c(F)cccc7F)c7ccc4[nH]7)C=C6)C=C5)cc3)C2)C[C@H](C)O1
REMARK SMILES IDX 18 1 17 2 16 3 14 4 15 5 13 7 12 8 8 9 9 10 78 11 10 12
REMARK SMILES IDX 11 13 5 14 6 15 7 16 4 17 1 18 2 19 3 20 82 21 80 22 79 23
REMARK SMILES IDX 81 24 19 25 20 26 21 27 22 28 23 30 24 31 25 32 77 33 26 34
REMARK SMILES IDX 76 35 27 36 28 37 29 38 70 39 30 40 75 41 69 42 71 43 31 44
REMARK SMILES IDX 74 45 68 46 67 47 32 49 58 50 41 51 57 52 42 53 45 54 56 55
REMARK SMILES IDX 72 56 43 57 44 58 55 60 73 61 46 62 33 63 34 64 39 65 35 66
REMARK SMILES IDX 36 67 38 68 40 69 37 70 59 71 60 72 65 73 61 74 62 75 64 76
REMARK SMILES IDX 66 77 63 78 47 79 48 80 53 81 49 82 50 83 52 84 54 85 51 86
REMARK H PARENT 16 6 21 29 71 48 45 59
REMARK Flexibility Score: inf
ROOT
ATOM      1  C   UNL     1       0.682   1.171   0.837  1.00  0.00     0.023 C 
ENDROOT
BRANCH   1   2
ATOM      2  C   UNL     1      -0.802   1.531   0.914  1.00  0.00     0.116 C 
BRANCH   2   3
ATOM      3  N   UNL     1      -1.572   0.971  -0.186  1.00  0.00    -0.356 N 
ATOM      4  C   UNL     1      -2.498  -0.030  -0.165  1.00  0.00     0.222 C 
ATOM      5  O   UNL     1      -3.041  -0.356  -1.221  1.00  0.00    -0.275 OA
ATOM      6  H   UNL     1      -1.400   1.370  -1.069  1.00  0.00     0.163 HD
BRANCH   4   7
ATOM      7  C   UNL     1      -2.801  -0.758   1.127  1.00  0.00     0.133 C 
BRANCH   7   8
ATOM      8  C   UNL     1      -1.597  -1.613   1.506  1.00  0.00     0.142 C 
ATOM      9  N   UNL     1      -0.667  -3.853   1.829  1.00  0.00    -0.184 NA
ATOM     10  C   UNL     1      -0.000  -3.379   3.068  1.00  0.00     0.132 C 
ATOM     11  C   UNL     1      -1.912  -3.115   1.532  1.00  0.00     0.136 C 
ATOM     12  C   UNL     1       0.158  -1.857   3.064  1.00  0.00     0.177 C 
ATOM     13  O   UNL     1      -1.089  -1.192   2.790  1.00  0.00    -0.375 OA
BRANCH   9  14
ATOM     14  S   UNL     1       0.198  -4.625   0.631  1.00  0.00     0.282 S 
ATOM     15  O   UNL     1      -0.726  -5.286  -0.255  1.00  0.00    -0.195 OA
ATOM     16  O   UNL     1       1.263  -5.353   1.287  1.00  0.00    -0.195 OA
BRANCH  14  17
ATOM     17  N   UNL     1       0.910  -3.336  -0.233  1.00  0.00    -0.184 NA
ATOM     18  C   UNL     1      -0.034  -0.931  -3.096  1.00  0.00     0.040 C 
ATOM     19  C   UNL     1       0.765  -1.563  -1.961  1.00  0.00     0.130 C 
ATOM     20  C   UNL     1       0.076  -2.810  -1.381  1.00  0.00     0.135 C 
ATOM     21  O   UNL     1       2.073  -1.874  -2.466  1.00  0.00    -0.373 OA
ATOM     22  C   UNL     1       2.926  -2.506  -1.498  1.00  0.00     0.130 C 
ATOM     23  C   UNL     1       2.256  -3.711  -0.808  1.00  0.00     0.135 C 
ATOM     24  C   UNL     1       3.483  -1.491  -0.503  1.00  0.00     0.040 C 
ENDBRANCH  14  17
ENDBRANCH   9  14
ENDBRANCH   7   8
ENDBRANCH   4   7
ENDBRANCH   2   3
ENDBRANCH   1   2
BRANCH   1  25
ATOM     25  C   UNL     1       1.420   1.734  -0.377  1.00  0.00     0.023 C 
BRANCH  25  26
ATOM     26  C   UNL     1       1.498   3.247  -0.426  1.00  0.00     0.116 C 
BRANCH  26  27
ATOM     27  N   UNL     1       2.291   3.793   0.663  1.00  0.00    -0.352 N 
ATOM     28  C   UNL     1       3.336   4.683   0.602  1.00  0.00     0.251 C 
ATOM     29  H   UNL     1       2.046   3.484   1.565  1.00  0.00     0.163 HD
ATOM     30  O   UNL     1       4.024   4.898   1.595  1.00  0.00    -0.269 OA
BRANCH  28  31
ATOM     31  C   UNL     1       3.641   5.360  -0.677  1.00  0.00     0.039 A 
ATOM     32  C   UNL     1       4.971   5.473  -1.089  1.00  0.00     0.014 A 
ATOM     33  C   UNL     1       2.611   5.860  -1.476  1.00  0.00     0.014 A 
ATOM     34  C   UNL     1       5.261   6.033  -2.336  1.00  0.00     0.010 A 
ATOM     35  C   UNL     1       2.893   6.326  -2.753  1.00  0.00     0.010 A 
ATOM     36  C   UNL     1       4.222   6.429  -3.192  1.00  0.00    -0.014 A 
BRANCH  36  37
ATOM     37  C   UNL     1       4.481   6.985  -4.544  1.00  0.00     0.031 A 
ATOM     38  C   UNL     1       4.023   8.381  -4.869  1.00  0.00     0.074 A 
ATOM     39  C   UNL     1       5.030   6.211  -5.500  1.00  0.00     0.049 A 
ATOM     40  N   UNL     1       4.001   8.999  -6.022  1.00  0.00    -0.248 NA
ATOM     41  C   UNL     1       3.483   9.174  -3.752  1.00  0.00     0.031 C 
ATOM     42  C   UNL     1       5.486   4.832  -5.318  1.00  0.00     0.029 A 
ATOM     43  N   UNL     1       5.277   6.469  -6.825  1.00  0.00    -0.354 N 
ATOM     44  C   UNL     1       3.424  10.238  -5.773  1.00  0.00     0.074 A 
ATOM     45  C   UNL     1       3.058  10.263  -4.374  1.00  0.00     0.031 C 
ATOM     46  C   UNL     1       5.967   4.370  -6.483  1.00  0.00     0.029 A 
ATOM     47  C   UNL     1       5.807   5.399  -7.506  1.00  0.00     0.049 A 
ATOM     48  H   UNL     1       5.092   7.339  -7.249  1.00  0.00     0.167 HD
ATOM     49  C   UNL     1       3.236  11.270  -6.628  1.00  0.00     0.037 A 
ATOM     50  C   UNL     1       6.107   5.257  -8.811  1.00  0.00     0.037 A 
ATOM     51  C   UNL     1       3.627  11.246  -8.012  1.00  0.00     0.049 A 
ATOM     52  C   UNL     1       5.863   6.408  -9.750  1.00  0.00     0.074 A 
ATOM     53  C   UNL     1       3.534  12.259  -8.950  1.00  0.00     0.029 A 
ATOM     54  N   UNL     1       4.182  10.151  -8.657  1.00  0.00    -0.354 N 
ATOM     55  N   UNL     1       5.370   7.596  -9.490  1.00  0.00    -0.248 NA
ATOM     56  C   UNL     1       6.216   6.202 -11.162  1.00  0.00     0.031 C 
ATOM     57  C   UNL     1       3.980  11.759 -10.176  1.00  0.00     0.029 A 
ATOM     58  C   UNL     1       4.412  10.456  -9.987  1.00  0.00     0.049 A 
ATOM     59  H   UNL     1       4.383   9.286  -8.232  1.00  0.00     0.167 HD
ATOM     60  C   UNL     1       5.391   8.289 -10.694  1.00  0.00     0.074 A 
ATOM     61  C   UNL     1       5.947   7.391 -11.684  1.00  0.00     0.031 C 
ATOM     62  C   UNL     1       4.988   9.556 -10.955  1.00  0.00     0.037 A 
BRANCH  49  63
ATOM     63  C   UNL     1       2.574  12.507  -6.092  1.00  0.00     0.057 A 
ATOM     64  C   UNL     1       3.204  13.341  -5.159  1.00  0.00     0.134 A 
ATOM     65  C   UNL     1       1.303  12.888  -6.541  1.00  0.00     0.134 A 
ATOM     66  F   UNL     1       4.418  13.030  -4.678  1.00  0.00    -0.206 F 
ATOM     67  C   UNL     1       2.582  14.490  -4.668  1.00  0.00     0.040 A 
ATOM     68  C   UNL     1       0.684  14.052  -6.082  1.00  0.00     0.040 A 
ATOM     69  F   UNL     1       0.644  12.140  -7.439  1.00  0.00    -0.206 F 
ATOM     70  C   UNL     1       1.321  14.852  -5.136  1.00  0.00     0.006 A 
ENDBRANCH  49  63
BRANCH  50  71
ATOM     71  C   UNL     1       6.678   3.979  -9.311  1.00  0.00     0.057 A 
ATOM     72  C   UNL     1       7.998   3.909  -9.770  1.00  0.00     0.134 A 
ATOM     73  C   UNL     1       5.920   2.802  -9.352  1.00  0.00     0.134 A 
ATOM     74  F   UNL     1       8.771   5.005  -9.773  1.00  0.00    -0.206 F 
ATOM     75  C   UNL     1       8.537   2.723 -10.273  1.00  0.00     0.040 A 
ATOM     76  C   UNL     1       6.455   1.603  -9.825  1.00  0.00     0.040 A 
ATOM     77  F   UNL     1       4.651   2.798  -8.919  1.00  0.00    -0.206 F 
ATOM     78  C   UNL     1       7.766   1.564 -10.297  1.00  0.00     0.006 A 
ENDBRANCH  50  71
BRANCH  62  79
ATOM     79  C   UNL     1       5.184  10.078 -12.348  1.00  0.00     0.057 A 
ATOM     80  C   UNL     1       4.391   9.653 -13.420  1.00  0.00     0.134 A 
ATOM     81  C   UNL     1       6.128  11.084 -12.599  1.00  0.00     0.134 A 
ATOM     82  F   UNL     1       3.477   8.686 -13.250  1.00  0.00    -0.206 F 
ATOM     83  C   UNL     1       4.536  10.203 -14.695  1.00  0.00     0.040 A 
ATOM     84  C   UNL     1       6.262  11.661 -13.862  1.00  0.00     0.040 A 
ATOM     85  F   UNL     1       6.913  11.543 -11.613  1.00  0.00    -0.206 F 
ATOM     86  C   UNL     1       5.465  11.219 -14.915  1.00  0.00     0.006 A 
ENDBRANCH  62  79
ENDBRANCH  36  37
ENDBRANCH  28  31
ENDBRANCH  26  27
ENDBRANCH  25  26
ENDBRANCH   1  25
TORSDOF 14
