REMARK SMILES O=C(CCc1cc2n(n1)CC[N@@H+](Cc1ccc3[nH]ccc3c1)C2)NCCCCNC(=O)c1ccc(-c2c3nc(c(-c4c(F)cccc4F)c4ccc([nH]4)c(-c4c(F)cccc4F)c4nc(c(-c5c(F)cccc5F)c5ccc2[nH]5)C=C4)C=C3)cc1
REMARK SMILES IDX 25 1 24 2 1 3 2 4 3 6 4 7 5 8 6 9 9 10 7 11 8 12 23 13 10 14
REMARK SMILES IDX 12 15 11 16 13 18 14 19 15 20 22 21 16 22 21 23 17 24 20 25
REMARK SMILES IDX 18 26 19 27 26 29 27 30 28 31 29 32 30 33 31 35 32 36 33 37
REMARK SMILES IDX 85 38 34 39 84 40 35 41 36 42 37 43 78 44 38 45 83 46 77 47
REMARK SMILES IDX 79 48 39 49 82 50 76 51 75 52 40 54 66 55 49 56 65 57 50 58
REMARK SMILES IDX 53 59 64 60 80 61 51 62 52 63 63 65 81 66 54 67 41 68 42 69
REMARK SMILES IDX 47 70 43 71 44 72 46 73 48 74 45 75 67 76 68 77 73 78 69 79
REMARK SMILES IDX 70 80 72 81 74 82 71 83 55 84 56 85 61 86 57 87 58 88 60 89
REMARK SMILES IDX 62 90 59 91
REMARK H PARENT 24 5 12 17 18 28 29 34 79 53 53 64
REMARK Flexibility Score: inf
ROOT
ATOM      1  C   UNL     1       2.069  -0.398  -2.717  1.00  0.00     0.116 C 
ENDROOT
BRANCH   1   2
ATOM      2  N   UNL     1       2.663   0.066  -1.455  1.00  0.00    -0.356 N 
ATOM      3  O   UNL     1       0.886  -0.613  -0.160  1.00  0.00    -0.275 OA
ATOM      4  C   UNL     1       2.009  -0.118  -0.243  1.00  0.00     0.220 C 
ATOM      5  H   UNL     1       3.540   0.514  -1.469  1.00  0.00     0.163 HD
BRANCH   4   6
ATOM      6  C   UNL     1       2.720   0.371   1.018  1.00  0.00     0.106 C 
BRANCH   6   7
ATOM      7  C   UNL     1       3.538  -0.698   1.756  1.00  0.00     0.068 C 
BRANCH   7   8
ATOM      8  C   UNL     1       4.966  -0.800   1.320  1.00  0.00     0.063 A 
ATOM      9  C   UNL     1       5.777   0.192   0.718  1.00  0.00     0.055 A 
ATOM     10  N   UNL     1       5.596  -1.984   1.374  1.00  0.00    -0.177 NA
ATOM     11  C   UNL     1       6.816  -0.514   0.167  1.00  0.00     0.093 A 
ATOM     12  N   UNL     1       6.689  -1.804   0.608  1.00  0.00    -0.258 N 
ATOM     13  C   UNL     1       7.759  -0.203  -0.926  1.00  0.00     0.319 C 
ATOM     14  C   UNL     1       7.356  -2.939  -0.012  1.00  0.00     0.206 C 
ATOM     15  N   UNL     1       7.636  -1.260  -1.943  1.00  0.00    -0.325 N 
ATOM     16  C   UNL     1       8.031  -2.551  -1.341  1.00  0.00     0.286 C 
ATOM     17  H   UNL     1       8.284  -1.125  -2.719  1.00  0.00     0.348 HD
BRANCH  15  18
ATOM     18  C   UNL     1       6.311  -1.196  -2.606  1.00  0.00     0.299 C 
BRANCH  18  19
ATOM     19  C   UNL     1       5.399  -2.395  -2.560  1.00  0.00     0.007 A 
ATOM     20  C   UNL     1       5.417  -3.207  -3.663  1.00  0.00     0.012 A 
ATOM     21  C   UNL     1       4.423  -2.742  -1.608  1.00  0.00     0.020 A 
ATOM     22  C   UNL     1       5.141  -4.535  -3.507  1.00  0.00     0.027 A 
ATOM     23  C   UNL     1       3.557  -3.844  -1.872  1.00  0.00    -0.000 A 
ATOM     24  C   UNL     1       3.880  -4.634  -2.965  1.00  0.00     0.045 A 
ATOM     25  C   UNL     1       2.410  -4.462  -1.304  1.00  0.00     0.028 A 
ATOM     26  N   UNL     1       2.890  -5.542  -3.183  1.00  0.00    -0.361 N 
ATOM     27  C   UNL     1       2.022  -5.502  -2.132  1.00  0.00     0.083 A 
ATOM     28  H   UNL     1       2.813  -6.131  -3.968  1.00  0.00     0.166 HD
ENDBRANCH  18  19
ENDBRANCH  15  18
ENDBRANCH   7   8
ENDBRANCH   6   7
ENDBRANCH   4   6
ENDBRANCH   1   2
BRANCH   1  29
ATOM     29  C   UNL     1       2.157   0.568  -3.918  1.00  0.00     0.023 C 
BRANCH  29  30
ATOM     30  C   UNL     1       3.444   0.583  -4.775  1.00  0.00     0.023 C 
BRANCH  30  31
ATOM     31  C   UNL     1       3.831  -0.730  -5.499  1.00  0.00     0.116 C 
BRANCH  31  32
ATOM     32  N   UNL     1       3.783  -0.754  -6.974  1.00  0.00    -0.352 N 
ATOM     33  C   UNL     1       4.332  -1.640  -7.923  1.00  0.00     0.251 C 
ATOM     34  H   UNL     1       3.270  -0.012  -7.370  1.00  0.00     0.163 HD
ATOM     35  O   UNL     1       3.903  -1.618  -9.068  1.00  0.00    -0.269 OA
BRANCH  33  36
ATOM     36  C   UNL     1       5.400  -2.639  -7.585  1.00  0.00     0.039 A 
ATOM     37  C   UNL     1       5.498  -3.929  -8.148  1.00  0.00     0.014 A 
ATOM     38  C   UNL     1       6.354  -2.304  -6.668  1.00  0.00     0.014 A 
ATOM     39  C   UNL     1       6.307  -4.949  -7.547  1.00  0.00     0.010 A 
ATOM     40  C   UNL     1       7.058  -3.327  -6.041  1.00  0.00     0.010 A 
ATOM     41  C   UNL     1       6.999  -4.689  -6.365  1.00  0.00    -0.014 A 
BRANCH  41  42
ATOM     42  C   UNL     1       7.617  -5.683  -5.393  1.00  0.00     0.031 A 
ATOM     43  C   UNL     1       9.016  -5.384  -4.843  1.00  0.00     0.074 A 
ATOM     44  C   UNL     1       6.919  -6.660  -4.719  1.00  0.00     0.049 A 
ATOM     45  N   UNL     1      10.010  -6.226  -4.793  1.00  0.00    -0.248 NA
ATOM     46  C   UNL     1       9.409  -4.067  -4.298  1.00  0.00     0.031 C 
ATOM     47  C   UNL     1       5.500  -7.051  -4.848  1.00  0.00     0.029 A 
ATOM     48  N   UNL     1       7.292  -7.394  -3.598  1.00  0.00    -0.354 N 
ATOM     49  C   UNL     1      11.061  -5.585  -4.129  1.00  0.00     0.074 A 
ATOM     50  C   UNL     1      10.679  -4.227  -3.953  1.00  0.00     0.031 C 
ATOM     51  C   UNL     1       5.094  -7.735  -3.741  1.00  0.00     0.029 A 
ATOM     52  C   UNL     1       6.230  -7.977  -2.872  1.00  0.00     0.049 A 
ATOM     53  H   UNL     1       8.232  -7.500  -3.328  1.00  0.00     0.167 HD
ATOM     54  C   UNL     1      12.137  -6.228  -3.607  1.00  0.00     0.037 A 
ATOM     55  C   UNL     1       6.265  -8.650  -1.681  1.00  0.00     0.037 A 
ATOM     56  C   UNL     1      12.298  -7.527  -4.182  1.00  0.00     0.049 A 
ATOM     57  C   UNL     1       7.622  -9.202  -1.566  1.00  0.00     0.074 A 
ATOM     58  C   UNL     1      12.400  -7.979  -5.484  1.00  0.00     0.029 A 
ATOM     59  N   UNL     1      11.964  -8.623  -3.432  1.00  0.00    -0.354 N 
ATOM     60  N   UNL     1       8.070 -10.155  -2.326  1.00  0.00    -0.248 NA
ATOM     61  C   UNL     1       8.615  -8.464  -0.810  1.00  0.00     0.031 C 
ATOM     62  C   UNL     1      11.587  -9.146  -5.516  1.00  0.00     0.029 A 
ATOM     63  C   UNL     1      11.134  -9.379  -4.218  1.00  0.00     0.049 A 
ATOM     64  H   UNL     1      12.260  -8.827  -2.515  1.00  0.00     0.167 HD
ATOM     65  C   UNL     1       9.386  -9.811  -2.534  1.00  0.00     0.074 A 
ATOM     66  C   UNL     1       9.706  -8.858  -1.470  1.00  0.00     0.031 C 
ATOM     67  C   UNL     1       9.992 -10.101  -3.719  1.00  0.00     0.037 A 
BRANCH  54  68
ATOM     68  C   UNL     1      12.892  -5.761  -2.392  1.00  0.00     0.057 A 
ATOM     69  C   UNL     1      14.152  -6.310  -2.106  1.00  0.00     0.134 A 
ATOM     70  C   UNL     1      12.322  -4.985  -1.358  1.00  0.00     0.134 A 
ATOM     71  F   UNL     1      14.784  -7.083  -3.002  1.00  0.00    -0.206 F 
ATOM     72  C   UNL     1      14.778  -6.143  -0.865  1.00  0.00     0.040 A 
ATOM     73  C   UNL     1      12.963  -4.767  -0.135  1.00  0.00     0.040 A 
ATOM     74  F   UNL     1      11.084  -4.478  -1.447  1.00  0.00    -0.206 F 
ATOM     75  C   UNL     1      14.183  -5.372   0.127  1.00  0.00     0.006 A 
ENDBRANCH  54  68
BRANCH  55  76
ATOM     76  C   UNL     1       5.316  -8.921  -0.559  1.00  0.00     0.057 A 
ATOM     77  C   UNL     1       5.370 -10.106   0.203  1.00  0.00     0.134 A 
ATOM     78  C   UNL     1       4.592  -7.871   0.023  1.00  0.00     0.134 A 
ATOM     79  F   UNL     1       6.089 -11.155  -0.220  1.00  0.00    -0.206 F 
ATOM     80  C   UNL     1       4.757 -10.231   1.463  1.00  0.00     0.040 A 
ATOM     81  C   UNL     1       3.965  -7.983   1.278  1.00  0.00     0.040 A 
ATOM     82  F   UNL     1       4.587  -6.665  -0.556  1.00  0.00    -0.206 F 
ATOM     83  C   UNL     1       4.058  -9.163   2.010  1.00  0.00     0.006 A 
ENDBRANCH  55  76
BRANCH  67  84
ATOM     84  C   UNL     1       9.289 -11.005  -4.705  1.00  0.00     0.057 A 
ATOM     85  C   UNL     1       8.038 -10.743  -5.287  1.00  0.00     0.134 A 
ATOM     86  C   UNL     1      10.010 -12.073  -5.247  1.00  0.00     0.134 A 
ATOM     87  F   UNL     1       7.287  -9.711  -4.904  1.00  0.00    -0.206 F 
ATOM     88  C   UNL     1       7.532 -11.501  -6.348  1.00  0.00     0.040 A 
ATOM     89  C   UNL     1       9.533 -12.817  -6.330  1.00  0.00     0.040 A 
ATOM     90  F   UNL     1      11.231 -12.371  -4.775  1.00  0.00    -0.206 F 
ATOM     91  C   UNL     1       8.289 -12.531  -6.886  1.00  0.00     0.006 A 
ENDBRANCH  67  84
ENDBRANCH  41  42
ENDBRANCH  33  36
ENDBRANCH  31  32
ENDBRANCH  30  31
ENDBRANCH  29  30
ENDBRANCH   1  29
TORSDOF 15
