REMARK SMILES COc1cc2ccccc2cc1C(=O)Nc1cc(C(=O)NCCCCNC(=O)c2ccc(-c3c4nc(c(-c5c(F)cccc5F)c5ccc([nH]5)c(-c5c(F)cccc5F)c5nc(c(-c6c(F)cccc6F)c6ccc3[nH]6)C=C5)C=C4)cc2)ccc1C
REMARK SMILES IDX 23 1 22 2 21 3 19 4 20 5 18 7 16 8 17 9 85 10 84 11 86 12
REMARK SMILES IDX 83 13 15 14 13 15 14 16 12 18 3 19 4 20 5 21 11 22 6 23
REMARK SMILES IDX 10 24 7 25 9 26 8 27 2 28 1 29 24 30 25 31 26 32 27 33 28 35
REMARK SMILES IDX 29 36 30 37 82 38 31 39 81 40 32 41 33 42 34 43 75 44 35 45
REMARK SMILES IDX 80 46 74 47 76 48 36 49 79 50 73 51 72 52 37 54 63 55 46 56
REMARK SMILES IDX 62 57 47 58 50 59 61 60 77 61 48 62 49 63 60 65 78 66 51 67
REMARK SMILES IDX 38 68 39 69 44 70 40 71 41 72 43 73 45 74 42 75 64 76 65 77
REMARK SMILES IDX 70 78 66 79 67 80 69 81 71 82 68 83 52 84 53 85 58 86 54 87
REMARK SMILES IDX 55 88 57 89 59 90 56 91
REMARK H PARENT 21 6 15 17 26 34 76 53 50 64
REMARK Flexibility Score: inf
ROOT
ATOM      1  C   UNL     1       1.646   2.634  -4.868  1.00  0.00     0.023 C 
ENDROOT
BRANCH   1   2
ATOM      2  C   UNL     1       0.455   2.824  -3.921  1.00  0.00     0.116 C 
BRANCH   2   3
ATOM      3  N   UNL     1      -0.599   1.851  -4.137  1.00  0.00    -0.352 N 
ATOM      4  C   UNL     1      -0.837   0.573  -3.695  1.00  0.00     0.251 C 
ATOM      5  O   UNL     1      -1.886   0.054  -4.087  1.00  0.00    -0.269 OA
ATOM      6  H   UNL     1      -1.305   2.183  -4.737  1.00  0.00     0.163 HD
BRANCH   4   7
ATOM      7  C   UNL     1       0.043  -0.210  -2.772  1.00  0.00     0.041 A 
ATOM      8  C   UNL     1       1.892  -0.455  -1.203  1.00  0.00     0.045 A 
ATOM      9  C   UNL     1       1.238   0.242  -2.229  1.00  0.00     0.040 A 
ATOM     10  C   UNL     1       1.509  -1.758  -0.872  1.00  0.00    -0.027 A 
ATOM     11  C   UNL     1       0.330  -2.248  -1.449  1.00  0.00     0.006 A 
ATOM     12  C   UNL     1       2.172  -2.566   0.206  1.00  0.00     0.046 C 
ATOM     13  C   UNL     1      -0.409  -1.471  -2.354  1.00  0.00     0.014 A 
BRANCH   8  14
ATOM     14  N   UNL     1       2.845   0.237  -0.431  1.00  0.00    -0.322 N 
ATOM     15  C   UNL     1       2.716   1.528   0.066  1.00  0.00     0.259 C 
ATOM     16  O   UNL     1       3.689   2.110   0.540  1.00  0.00    -0.269 OA
ATOM     17  H   UNL     1       3.682  -0.239  -0.224  1.00  0.00     0.170 HD
BRANCH  15  18
ATOM     18  C   UNL     1       1.384   2.207   0.091  1.00  0.00     0.082 A 
ATOM     19  C   UNL     1       0.207   1.593   0.547  1.00  0.00     0.132 A 
ATOM     20  C   UNL     1      -1.032   2.219   0.387  1.00  0.00     0.056 A 
ATOM     21  C   UNL     1      -1.125   3.478  -0.208  1.00  0.00    -0.015 A 
ATOM     22  C   UNL     1       1.309   3.503  -0.435  1.00  0.00     0.026 A 
ATOM     23  C   UNL     1      -2.372   4.093  -0.405  1.00  0.00     0.009 A 
ATOM     24  C   UNL     1       0.057   4.120  -0.636  1.00  0.00    -0.017 A 
ATOM     25  C   UNL     1      -2.464   5.314  -1.065  1.00  0.00     0.001 A 
ATOM     26  C   UNL     1      -0.060   5.332  -1.322  1.00  0.00     0.009 A 
ATOM     27  C   UNL     1      -1.311   5.913  -1.550  1.00  0.00     0.001 A 
BRANCH  19  28
ATOM     28  O   UNL     1       0.151   0.326   1.062  1.00  0.00    -0.496 OA
ATOM     29  C   UNL     1       0.643   0.283   2.395  1.00  0.00     0.278 C 
ENDBRANCH  19  28
ENDBRANCH  15  18
ENDBRANCH   8  14
ENDBRANCH   4   7
ENDBRANCH   2   3
ENDBRANCH   1   2
BRANCH   1  30
ATOM     30  C   UNL     1       1.376   3.182  -6.271  1.00  0.00     0.023 C 
BRANCH  30  31
ATOM     31  C   UNL     1       1.406   4.707  -6.325  1.00  0.00     0.116 C 
BRANCH  31  32
ATOM     32  N   UNL     1       2.690   5.280  -6.708  1.00  0.00    -0.352 N 
ATOM     33  C   UNL     1       3.124   6.591  -6.672  1.00  0.00     0.251 C 
ATOM     34  H   UNL     1       3.350   4.633  -7.046  1.00  0.00     0.163 HD
ATOM     35  O   UNL     1       4.236   6.870  -7.123  1.00  0.00    -0.269 OA
BRANCH  33  36
ATOM     36  C   UNL     1       2.338   7.647  -5.982  1.00  0.00     0.039 A 
ATOM     37  C   UNL     1       3.036   8.648  -5.284  1.00  0.00     0.014 A 
ATOM     38  C   UNL     1       0.954   7.579  -5.874  1.00  0.00     0.014 A 
ATOM     39  C   UNL     1       2.384   9.403  -4.311  1.00  0.00     0.010 A 
ATOM     40  C   UNL     1       0.330   8.234  -4.835  1.00  0.00     0.010 A 
ATOM     41  C   UNL     1       1.058   9.101  -4.016  1.00  0.00    -0.014 A 
BRANCH  41  42
ATOM     42  C   UNL     1       0.367   9.523  -2.804  1.00  0.00     0.031 A 
ATOM     43  C   UNL     1      -0.773  10.453  -2.884  1.00  0.00     0.074 A 
ATOM     44  C   UNL     1       0.626   8.838  -1.669  1.00  0.00     0.049 A 
ATOM     45  N   UNL     1      -1.368  10.958  -1.862  1.00  0.00    -0.248 NA
ATOM     46  C   UNL     1      -1.336  10.899  -4.151  1.00  0.00     0.031 C 
ATOM     47  C   UNL     1      -0.200   8.740  -0.467  1.00  0.00     0.029 A 
ATOM     48  N   UNL     1       1.790   8.150  -1.330  1.00  0.00    -0.354 N 
ATOM     49  C   UNL     1      -2.516  11.577  -2.295  1.00  0.00     0.074 A 
ATOM     50  C   UNL     1      -2.437  11.534  -3.737  1.00  0.00     0.031 C 
ATOM     51  C   UNL     1       0.546   8.258   0.539  1.00  0.00     0.029 A 
ATOM     52  C   UNL     1       1.918   8.232   0.062  1.00  0.00     0.049 A 
ATOM     53  H   UNL     1       2.404   7.693  -1.949  1.00  0.00     0.167 HD
ATOM     54  C   UNL     1      -3.446  11.957  -1.371  1.00  0.00     0.037 A 
ATOM     55  C   UNL     1       2.954   8.875   0.672  1.00  0.00     0.037 A 
ATOM     56  C   UNL     1      -2.963  11.693  -0.012  1.00  0.00     0.049 A 
ATOM     57  C   UNL     1       2.420  10.034   1.482  1.00  0.00     0.074 A 
ATOM     58  C   UNL     1      -3.199  10.664   0.885  1.00  0.00     0.029 A 
ATOM     59  N   UNL     1      -1.831  12.365   0.457  1.00  0.00    -0.354 N 
ATOM     60  N   UNL     1       1.341  10.706   1.164  1.00  0.00    -0.248 NA
ATOM     61  C   UNL     1       2.988  10.440   2.762  1.00  0.00     0.031 C 
ATOM     62  C   UNL     1      -2.151  10.668   1.844  1.00  0.00     0.029 A 
ATOM     63  C   UNL     1      -1.296  11.720   1.556  1.00  0.00     0.049 A 
ATOM     64  H   UNL     1      -1.465  13.188   0.059  1.00  0.00     0.167 HD
ATOM     65  C   UNL     1       1.014  11.532   2.206  1.00  0.00     0.074 A 
ATOM     66  C   UNL     1       2.099  11.366   3.160  1.00  0.00     0.031 C 
ATOM     67  C   UNL     1      -0.144  12.251   2.274  1.00  0.00     0.037 A 
BRANCH  54  68
ATOM     68  C   UNL     1      -4.877  12.310  -1.725  1.00  0.00     0.057 A 
ATOM     69  C   UNL     1      -5.939  12.039  -0.840  1.00  0.00     0.134 A 
ATOM     70  C   UNL     1      -5.280  12.879  -2.947  1.00  0.00     0.134 A 
ATOM     71  F   UNL     1      -5.724  11.588   0.402  1.00  0.00    -0.206 F 
ATOM     72  C   UNL     1      -7.289  12.215  -1.187  1.00  0.00     0.040 A 
ATOM     73  C   UNL     1      -6.624  13.003  -3.332  1.00  0.00     0.040 A 
ATOM     74  F   UNL     1      -4.391  13.399  -3.803  1.00  0.00    -0.206 F 
ATOM     75  C   UNL     1      -7.638  12.660  -2.452  1.00  0.00     0.006 A 
ENDBRANCH  54  68
BRANCH  55  76
ATOM     76  C   UNL     1       4.220   8.820  -0.108  1.00  0.00     0.057 A 
ATOM     77  C   UNL     1       4.814   7.553  -0.270  1.00  0.00     0.134 A 
ATOM     78  C   UNL     1       4.559   9.804  -1.044  1.00  0.00     0.134 A 
ATOM     79  F   UNL     1       4.534   6.566   0.595  1.00  0.00    -0.206 F 
ATOM     80  C   UNL     1       5.572   7.230  -1.398  1.00  0.00     0.040 A 
ATOM     81  C   UNL     1       5.335   9.494  -2.170  1.00  0.00     0.040 A 
ATOM     82  F   UNL     1       4.011  11.024  -0.981  1.00  0.00    -0.206 F 
ATOM     83  C   UNL     1       5.801   8.194  -2.374  1.00  0.00     0.006 A 
ENDBRANCH  55  76
BRANCH  67  84
ATOM     84  C   UNL     1      -0.326  13.456   3.160  1.00  0.00     0.057 A 
ATOM     85  C   UNL     1       0.738  14.290   3.539  1.00  0.00     0.134 A 
ATOM     86  C   UNL     1      -1.612  13.927   3.499  1.00  0.00     0.134 A 
ATOM     87  F   UNL     1       2.002  14.020   3.185  1.00  0.00    -0.206 F 
ATOM     88  C   UNL     1       0.544  15.476   4.254  1.00  0.00     0.040 A 
ATOM     89  C   UNL     1      -1.820  15.136   4.168  1.00  0.00     0.040 A 
ATOM     90  F   UNL     1      -2.724  13.256   3.168  1.00  0.00    -0.206 F 
ATOM     91  C   UNL     1      -0.738  15.910   4.559  1.00  0.00     0.006 A 
ENDBRANCH  67  84
ENDBRANCH  41  42
ENDBRANCH  33  36
ENDBRANCH  31  32
ENDBRANCH  30  31
ENDBRANCH   1  30
TORSDOF 14
