REMARK SMILES CC(C)Cc1s/c(=N/C(=O)CCC(=O)Nc2nccs2)[nH]c1C(=O)NCCCCNC(=O)c1ccc(-c2c3nc(c(-c4c(F)cccc4F)c4ccc([nH]4)c(-c4c(F)cccc4F)c4nc(c(-c5c(F)cccc5F)c5ccc2[nH]5)C=C4)C=C3)cc1
REMARK SMILES IDX 26 1 25 2 23 3 24 4 22 6 5 7 6 8 7 9 21 10 8 11 4 13 2 14
REMARK SMILES IDX 1 15 3 16 9 17 10 18 11 19 12 20 13 21 14 22 15 23 16 25
REMARK SMILES IDX 17 26 20 27 18 28 19 29 27 30 28 31 29 32 30 33 31 34 32 36
REMARK SMILES IDX 33 37 34 38 86 39 35 40 85 41 36 42 37 43 38 44 79 45 39 46
REMARK SMILES IDX 84 47 78 48 80 49 40 50 83 51 77 52 76 53 41 55 67 56 50 57
REMARK SMILES IDX 66 58 51 59 54 60 65 61 81 62 52 63 53 64 64 66 82 67 55 68
REMARK SMILES IDX 42 69 43 70 48 71 44 72 45 73 47 74 49 75 46 76 68 77 69 78
REMARK SMILES IDX 74 79 70 80 71 81 73 82 75 83 72 84 56 85 57 86 62 87 58 88
REMARK SMILES IDX 59 89 61 90 63 91 60 92
REMARK H PARENT 25 5 21 12 15 24 30 35 80 54 54 65
REMARK Flexibility Score: inf
ROOT
ATOM      1  C   UNL     1      -2.508  -1.328  -1.092  1.00  0.00     0.116 C 
ENDROOT
BRANCH   1   2
ATOM      2  N   UNL     1      -2.423  -1.348   0.350  1.00  0.00    -0.351 N 
ATOM      3  C   UNL     1      -2.205  -0.380   1.271  1.00  0.00     0.268 C 
ATOM      4  O   UNL     1      -2.166  -0.744   2.453  1.00  0.00    -0.268 OA
ATOM      5  H   UNL     1      -2.548  -2.243   0.741  1.00  0.00     0.163 HD
BRANCH   3   6
ATOM      6  C   UNL     1      -2.140   1.098   0.996  1.00  0.00     0.119 A 
ATOM      7  C   UNL     1      -1.496   1.869   0.084  1.00  0.00     0.038 A 
ATOM      8  S   UNL     1      -1.758   3.605   0.438  1.00  0.00    -0.101 S 
ATOM      9  C   UNL     1      -2.649   3.219   1.920  1.00  0.00     0.190 A 
ATOM     10  N   UNL     1      -2.761   1.866   1.980  1.00  0.00    -0.326 N 
ATOM     11  N   UNL     1      -2.991   4.177   2.698  1.00  0.00    -0.185 NA
ATOM     12  H   UNL     1      -3.271   1.437   2.705  1.00  0.00     0.169 HD
BRANCH   7  13
ATOM     13  C   UNL     1      -0.651   1.580  -1.119  1.00  0.00     0.052 C 
BRANCH  13  14
ATOM     14  C   UNL     1       0.881   1.514  -0.943  1.00  0.00    -0.012 C 
ATOM     15  C   UNL     1       1.358   0.633   0.209  1.00  0.00     0.008 C 
ATOM     16  C   UNL     1       1.524   1.025  -2.248  1.00  0.00     0.008 C 
ENDBRANCH  13  14
ENDBRANCH   7  13
BRANCH  11  17
ATOM     17  C   UNL     1      -3.588   3.844   3.886  1.00  0.00     0.248 C 
ATOM     18  O   UNL     1      -4.146   2.774   4.123  1.00  0.00    -0.273 OA
BRANCH  17  19
ATOM     19  C   UNL     1      -3.548   4.963   4.906  1.00  0.00     0.112 C 
BRANCH  19  20
ATOM     20  C   UNL     1      -2.192   5.159   5.568  1.00  0.00     0.110 C 
BRANCH  20  21
ATOM     21  C   UNL     1      -1.096   5.563   4.601  1.00  0.00     0.226 C 
ATOM     22  O   UNL     1      -1.007   6.738   4.229  1.00  0.00    -0.275 OA
ATOM     23  N   UNL     1      -0.174   4.673   4.144  1.00  0.00    -0.302 N 
ATOM     24  H   UNL     1       0.572   5.044   3.620  1.00  0.00     0.172 HD
BRANCH  23  25
ATOM     25  C   UNL     1      -0.173   3.325   4.334  1.00  0.00     0.189 A 
ATOM     26  N   UNL     1      -1.054   2.579   4.947  1.00  0.00    -0.229 NA
ATOM     27  S   UNL     1       1.132   2.510   3.602  1.00  0.00    -0.105 S 
ATOM     28  C   UNL     1      -0.722   1.249   4.783  1.00  0.00     0.125 A 
ATOM     29  C   UNL     1       0.431   1.013   4.067  1.00  0.00     0.088 A 
ENDBRANCH  23  25
ENDBRANCH  20  21
ENDBRANCH  19  20
ENDBRANCH  17  19
ENDBRANCH  11  17
ENDBRANCH   3   6
ENDBRANCH   1   2
BRANCH   1  30
ATOM     30  C   UNL     1      -1.139  -1.663  -1.683  1.00  0.00     0.023 C 
BRANCH  30  31
ATOM     31  C   UNL     1      -0.864  -3.134  -1.948  1.00  0.00     0.023 C 
BRANCH  31  32
ATOM     32  C   UNL     1      -1.530  -3.638  -3.216  1.00  0.00     0.116 C 
BRANCH  32  33
ATOM     33  N   UNL     1      -1.105  -2.932  -4.421  1.00  0.00    -0.352 N 
ATOM     34  C   UNL     1      -1.005  -3.413  -5.703  1.00  0.00     0.251 C 
ATOM     35  H   UNL     1      -0.859  -1.986  -4.299  1.00  0.00     0.163 HD
ATOM     36  O   UNL     1      -0.573  -2.708  -6.609  1.00  0.00    -0.269 OA
BRANCH  34  37
ATOM     37  C   UNL     1      -1.366  -4.819  -5.954  1.00  0.00     0.039 A 
ATOM     38  C   UNL     1      -0.448  -5.640  -6.610  1.00  0.00     0.014 A 
ATOM     39  C   UNL     1      -2.553  -5.340  -5.436  1.00  0.00     0.014 A 
ATOM     40  C   UNL     1      -0.684  -7.012  -6.669  1.00  0.00     0.010 A 
ATOM     41  C   UNL     1      -2.735  -6.713  -5.407  1.00  0.00     0.010 A 
ATOM     42  C   UNL     1      -1.803  -7.561  -6.023  1.00  0.00    -0.014 A 
BRANCH  42  43
ATOM     43  C   UNL     1      -2.033  -9.023  -5.986  1.00  0.00     0.031 A 
ATOM     44  C   UNL     1      -3.266  -9.594  -6.625  1.00  0.00     0.074 A 
ATOM     45  C   UNL     1      -1.184  -9.816  -5.305  1.00  0.00     0.049 A 
ATOM     46  N   UNL     1      -3.709 -10.824  -6.614  1.00  0.00    -0.248 NA
ATOM     47  C   UNL     1      -4.142  -8.646  -7.335  1.00  0.00     0.031 C 
ATOM     48  C   UNL     1       0.010  -9.365  -4.585  1.00  0.00     0.029 A 
ATOM     49  N   UNL     1      -1.203 -11.171  -5.098  1.00  0.00    -0.354 N 
ATOM     50  C   UNL     1      -4.923 -10.790  -7.286  1.00  0.00     0.074 A 
ATOM     51  C   UNL     1      -5.177  -9.412  -7.642  1.00  0.00     0.031 C 
ATOM     52  C   UNL     1       0.624 -10.429  -4.043  1.00  0.00     0.029 A 
ATOM     53  C   UNL     1      -0.148 -11.629  -4.348  1.00  0.00     0.049 A 
ATOM     54  H   UNL     1      -1.907 -11.760  -5.454  1.00  0.00     0.167 HD
ATOM     55  C   UNL     1      -5.739 -11.820  -7.605  1.00  0.00     0.037 A 
ATOM     56  C   UNL     1       0.159 -12.879  -3.955  1.00  0.00     0.037 A 
ATOM     57  C   UNL     1      -5.454 -13.195  -7.298  1.00  0.00     0.049 A 
ATOM     58  C   UNL     1      -0.740 -14.012  -4.361  1.00  0.00     0.074 A 
ATOM     59  C   UNL     1      -6.172 -14.324  -7.646  1.00  0.00     0.029 A 
ATOM     60  N   UNL     1      -4.350 -13.625  -6.577  1.00  0.00    -0.354 N 
ATOM     61  N   UNL     1      -1.852 -13.976  -5.055  1.00  0.00    -0.248 NA
ATOM     62  C   UNL     1      -0.340 -15.360  -3.933  1.00  0.00     0.031 C 
ATOM     63  C   UNL     1      -5.515 -15.438  -7.113  1.00  0.00     0.029 A 
ATOM     64  C   UNL     1      -4.372 -15.004  -6.460  1.00  0.00     0.049 A 
ATOM     65  H   UNL     1      -3.655 -13.037  -6.203  1.00  0.00     0.167 HD
ATOM     66  C   UNL     1      -2.273 -15.294  -5.166  1.00  0.00     0.074 A 
ATOM     67  C   UNL     1      -1.289 -16.107  -4.480  1.00  0.00     0.031 C 
ATOM     68  C   UNL     1      -3.376 -15.788  -5.778  1.00  0.00     0.037 A 
BRANCH  55  69
ATOM     69  C   UNL     1      -7.005 -11.492  -8.338  1.00  0.00     0.057 A 
ATOM     70  C   UNL     1      -6.994 -11.072  -9.675  1.00  0.00     0.134 A 
ATOM     71  C   UNL     1      -8.248 -11.602  -7.705  1.00  0.00     0.134 A 
ATOM     72  F   UNL     1      -5.833 -10.928 -10.332  1.00  0.00    -0.206 F 
ATOM     73  C   UNL     1      -8.172 -10.745 -10.348  1.00  0.00     0.040 A 
ATOM     74  C   UNL     1      -9.436 -11.303  -8.375  1.00  0.00     0.040 A 
ATOM     75  F   UNL     1      -8.329 -11.998  -6.426  1.00  0.00    -0.206 F 
ATOM     76  C   UNL     1      -9.399 -10.866  -9.698  1.00  0.00     0.006 A 
ENDBRANCH  55  69
BRANCH  56  77
ATOM     77  C   UNL     1       1.391 -13.130  -3.167  1.00  0.00     0.057 A 
ATOM     78  C   UNL     1       2.497 -13.760  -3.748  1.00  0.00     0.134 A 
ATOM     79  C   UNL     1       1.493 -12.754  -1.823  1.00  0.00     0.134 A 
ATOM     80  F   UNL     1       2.452 -14.157  -5.029  1.00  0.00    -0.206 F 
ATOM     81  C   UNL     1       3.656 -14.025  -3.017  1.00  0.00     0.040 A 
ATOM     82  C   UNL     1       2.653 -12.994  -1.085  1.00  0.00     0.040 A 
ATOM     83  F   UNL     1       0.470 -12.138  -1.213  1.00  0.00    -0.206 F 
ATOM     84  C   UNL     1       3.736 -13.638  -1.681  1.00  0.00     0.006 A 
ENDBRANCH  56  77
BRANCH  68  85
ATOM     85  C   UNL     1      -3.561 -17.274  -5.752  1.00  0.00     0.057 A 
ATOM     86  C   UNL     1      -3.983 -17.941  -4.596  1.00  0.00     0.134 A 
ATOM     87  C   UNL     1      -3.357 -18.038  -6.907  1.00  0.00     0.134 A 
ATOM     88  F   UNL     1      -4.181 -17.264  -3.455  1.00  0.00    -0.206 F 
ATOM     89  C   UNL     1      -4.181 -19.322  -4.585  1.00  0.00     0.040 A 
ATOM     90  C   UNL     1      -3.573 -19.416  -6.915  1.00  0.00     0.040 A 
ATOM     91  F   UNL     1      -2.960 -17.456  -8.048  1.00  0.00    -0.206 F 
ATOM     92  C   UNL     1      -3.983 -20.062  -5.750  1.00  0.00     0.006 A 
ENDBRANCH  68  85
ENDBRANCH  42  43
ENDBRANCH  34  37
ENDBRANCH  32  33
ENDBRANCH  31  32
ENDBRANCH  30  31
ENDBRANCH   1  30
TORSDOF 18
