REMARK SMILES C[N@@H+]1CCC[C@@H](C(=O)N[C@H](C(=O)NCCCCNC(=O)c2ccc(-c3c4nc(c(-c5c(F)cccc5F)c5ccc([nH]5)c(-c5c(F)cccc5F)c5nc(c(-c6c(F)cccc6F)c6ccc3[nH]6)C=C5)C=C4)cc2)c2ccccc2)C1
REMARK SMILES IDX 15 1 14 2 13 3 11 4 12 5 10 7 9 8 7 9 8 10 6 12 1 13 2 14
REMARK SMILES IDX 3 15 81 16 4 18 5 19 75 20 76 21 80 22 77 23 79 24 78 25
REMARK SMILES IDX 16 26 17 27 18 28 19 29 20 31 21 32 22 33 74 34 23 35 73 36
REMARK SMILES IDX 24 37 25 38 26 39 67 40 27 41 72 42 66 43 68 44 28 45 71 46
REMARK SMILES IDX 65 47 64 48 29 50 55 51 38 52 54 53 39 54 42 55 53 56 69 57
REMARK SMILES IDX 40 58 41 59 52 61 70 62 43 63 30 64 31 65 36 66 32 67 33 68
REMARK SMILES IDX 35 69 37 70 34 71 56 72 57 73 62 74 58 75 59 76 61 77 63 78
REMARK SMILES IDX 60 79 44 80 45 81 50 82 46 83 47 84 49 85 51 86 48 87
REMARK H PARENT 13 6 9 11 2 17 18 30 68 49 42 60
REMARK Flexibility Score: inf
ROOT
ATOM      1  C   UNL     1       3.942   1.233   3.109  1.00  0.00     0.023 C 
ENDROOT
BRANCH   1   2
ATOM      2  C   UNL     1       2.853   0.652   2.203  1.00  0.00     0.116 C 
BRANCH   2   3
ATOM      3  N   UNL     1       1.892  -0.160   2.940  1.00  0.00    -0.354 N 
ATOM      4  C   UNL     1       0.558   0.084   3.187  1.00  0.00     0.247 C 
ATOM      5  O   UNL     1      -0.043  -0.703   3.922  1.00  0.00    -0.272 OA
ATOM      6  H   UNL     1       2.245  -0.999   3.313  1.00  0.00     0.163 HD
BRANCH   4   7
ATOM      7  C   UNL     1      -0.125   1.317   2.540  1.00  0.00     0.202 C 
BRANCH   7   8
ATOM      8  N   UNL     1      -1.567   1.148   2.430  1.00  0.00    -0.340 N 
ATOM      9  C   UNL     1      -2.405   1.068   1.369  1.00  0.00     0.229 C 
ATOM     10  O   UNL     1      -3.606   0.933   1.647  1.00  0.00    -0.275 OA
ATOM     11  H   UNL     1      -2.024   1.079   3.299  1.00  0.00     0.164 HD
BRANCH   9  12
ATOM     12  C   UNL     1      -2.005   1.081  -0.121  1.00  0.00     0.133 C 
ATOM     13  C   UNL     1       0.996   3.278  -0.934  1.00  0.00     0.332 C 
ATOM     14  N   UNL     1       0.248   2.099  -0.512  1.00  0.00    -0.337 N 
ATOM     15  C   UNL     1       0.740   0.876  -1.151  1.00  0.00     0.262 C 
ATOM     16  C   UNL     1      -1.199   2.265  -0.666  1.00  0.00     0.275 C 
ATOM     17  H   UNL     1       0.415   1.994   0.488  1.00  0.00     0.347 HD
ATOM     18  C   UNL     1       0.037  -0.373  -0.611  1.00  0.00     0.062 C 
ATOM     19  C   UNL     1      -1.482  -0.259  -0.642  1.00  0.00     0.025 C 
ENDBRANCH   9  12
ENDBRANCH   7   8
BRANCH   7  20
ATOM     20  C   UNL     1       0.257   2.670   3.137  1.00  0.00    -0.016 A 
ATOM     21  C   UNL     1       1.152   2.809   4.203  1.00  0.00     0.006 A 
ATOM     22  C   UNL     1      -0.145   3.840   2.475  1.00  0.00     0.006 A 
ATOM     23  C   UNL     1       1.780   4.034   4.452  1.00  0.00     0.000 A 
ATOM     24  C   UNL     1       0.460   5.069   2.734  1.00  0.00     0.000 A 
ATOM     25  C   UNL     1       1.461   5.155   3.692  1.00  0.00     0.000 A 
ENDBRANCH   7  20
ENDBRANCH   4   7
ENDBRANCH   2   3
ENDBRANCH   1   2
BRANCH   1  26
ATOM     26  C   UNL     1       4.861   0.200   3.751  1.00  0.00     0.023 C 
BRANCH  26  27
ATOM     27  C   UNL     1       5.742  -0.537   2.758  1.00  0.00     0.116 C 
BRANCH  27  28
ATOM     28  N   UNL     1       6.681   0.351   2.087  1.00  0.00    -0.352 N 
ATOM     29  C   UNL     1       8.056   0.344   2.097  1.00  0.00     0.251 C 
ATOM     30  H   UNL     1       6.270   1.063   1.545  1.00  0.00     0.163 HD
ATOM     31  O   UNL     1       8.681   1.289   1.635  1.00  0.00    -0.269 OA
BRANCH  29  32
ATOM     32  C   UNL     1       8.774  -0.803   2.693  1.00  0.00     0.039 A 
ATOM     33  C   UNL     1       9.877  -0.564   3.515  1.00  0.00     0.014 A 
ATOM     34  C   UNL     1       8.343  -2.110   2.457  1.00  0.00     0.014 A 
ATOM     35  C   UNL     1      10.498  -1.634   4.161  1.00  0.00     0.010 A 
ATOM     36  C   UNL     1       8.891  -3.158   3.183  1.00  0.00     0.010 A 
ATOM     37  C   UNL     1       9.982  -2.935   4.035  1.00  0.00    -0.014 A 
BRANCH  37  38
ATOM     38  C   UNL     1      10.572  -4.080   4.773  1.00  0.00     0.031 A 
ATOM     39  C   UNL     1      11.143  -5.247   4.013  1.00  0.00     0.074 A 
ATOM     40  C   UNL     1      10.531  -4.102   6.120  1.00  0.00     0.049 A 
ATOM     41  N   UNL     1      11.627  -6.374   4.469  1.00  0.00    -0.248 NA
ATOM     42  C   UNL     1      11.141  -5.148   2.544  1.00  0.00     0.031 C 
ATOM     43  C   UNL     1       9.955  -3.056   6.969  1.00  0.00     0.029 A 
ATOM     44  N   UNL     1      10.973  -5.046   7.012  1.00  0.00    -0.354 N 
ATOM     45  C   UNL     1      11.970  -7.118   3.348  1.00  0.00     0.074 A 
ATOM     46  C   UNL     1      11.580  -6.346   2.190  1.00  0.00     0.031 C 
ATOM     47  C   UNL     1      10.106  -3.403   8.257  1.00  0.00     0.029 A 
ATOM     48  C   UNL     1      10.746  -4.712   8.326  1.00  0.00     0.049 A 
ATOM     49  H   UNL     1      11.411  -5.883   6.737  1.00  0.00     0.167 HD
ATOM     50  C   UNL     1      12.584  -8.323   3.287  1.00  0.00     0.037 A 
ATOM     51  C   UNL     1      11.015  -5.391   9.457  1.00  0.00     0.037 A 
ATOM     52  C   UNL     1      12.994  -9.077   4.442  1.00  0.00     0.049 A 
ATOM     53  C   UNL     1      11.684  -6.736   9.361  1.00  0.00     0.074 A 
ATOM     54  C   UNL     1      13.672 -10.282   4.487  1.00  0.00     0.029 A 
ATOM     55  N   UNL     1      12.762  -8.696   5.755  1.00  0.00    -0.354 N 
ATOM     56  N   UNL     1      12.068  -7.395   8.294  1.00  0.00    -0.248 NA
ATOM     57  C   UNL     1      11.962  -7.429  10.626  1.00  0.00     0.031 C 
ATOM     58  C   UNL     1      13.805 -10.656   5.828  1.00  0.00     0.029 A 
ATOM     59  C   UNL     1      13.264  -9.656   6.619  1.00  0.00     0.049 A 
ATOM     60  H   UNL     1      12.309  -7.868   6.032  1.00  0.00     0.167 HD
ATOM     61  C   UNL     1      12.662  -8.561   8.761  1.00  0.00     0.074 A 
ATOM     62  C   UNL     1      12.602  -8.511  10.206  1.00  0.00     0.031 C 
ATOM     63  C   UNL     1      13.208  -9.582   8.056  1.00  0.00     0.037 A 
BRANCH  50  64
ATOM     64  C   UNL     1      12.857  -8.897   1.926  1.00  0.00     0.057 A 
ATOM     65  C   UNL     1      13.807  -8.333   1.063  1.00  0.00     0.134 A 
ATOM     66  C   UNL     1      12.194 -10.050   1.488  1.00  0.00     0.134 A 
ATOM     67  F   UNL     1      14.468  -7.219   1.414  1.00  0.00    -0.206 F 
ATOM     68  C   UNL     1      14.069  -8.880  -0.194  1.00  0.00     0.040 A 
ATOM     69  C   UNL     1      12.469 -10.624   0.246  1.00  0.00     0.040 A 
ATOM     70  F   UNL     1      11.276 -10.645   2.265  1.00  0.00    -0.206 F 
ATOM     71  C   UNL     1      13.405 -10.035  -0.602  1.00  0.00     0.006 A 
ENDBRANCH  50  64
BRANCH  51  72
ATOM     72  C   UNL     1      10.671  -4.811  10.782  1.00  0.00     0.057 A 
ATOM     73  C   UNL     1      11.669  -4.423  11.683  1.00  0.00     0.134 A 
ATOM     74  C   UNL     1       9.340  -4.657  11.191  1.00  0.00     0.134 A 
ATOM     75  F   UNL     1      12.963  -4.561  11.358  1.00  0.00    -0.206 F 
ATOM     76  C   UNL     1      11.360  -3.932  12.953  1.00  0.00     0.040 A 
ATOM     77  C   UNL     1       9.016  -4.139  12.446  1.00  0.00     0.040 A 
ATOM     78  F   UNL     1       8.335  -5.000  10.372  1.00  0.00    -0.206 F 
ATOM     79  C   UNL     1      10.028  -3.785  13.336  1.00  0.00     0.006 A 
ENDBRANCH  51  72
BRANCH  63  80
ATOM     80  C   UNL     1      13.825 -10.705   8.838  1.00  0.00     0.057 A 
ATOM     81  C   UNL     1      13.051 -11.621   9.562  1.00  0.00     0.134 A 
ATOM     82  C   UNL     1      15.213 -10.895   8.832  1.00  0.00     0.134 A 
ATOM     83  F   UNL     1      11.717 -11.489   9.619  1.00  0.00    -0.206 F 
ATOM     84  C   UNL     1      13.637 -12.669  10.273  1.00  0.00     0.040 A 
ATOM     85  C   UNL     1      15.809 -11.957   9.512  1.00  0.00     0.040 A 
ATOM     86  F   UNL     1      16.013 -10.061   8.149  1.00  0.00    -0.206 F 
ATOM     87  C   UNL     1      15.020 -12.844  10.242  1.00  0.00     0.006 A 
ENDBRANCH  63  80
ENDBRANCH  37  38
ENDBRANCH  29  32
ENDBRANCH  27  28
ENDBRANCH  26  27
ENDBRANCH   1  26
TORSDOF 14
