REMARK SMILES O=C(NCCCCNC(=O)C1(Cc2ccccc2Cl)CCN(c2ncnc3[nH]ccc23)CC1)c1ccc(-c2c3nc(c(-c4c(F)cccc4F)c4ccc([nH]4)c(-c4c(F)cccc4F)c4nc(c(-c5c(F)cccc5F)c5ccc2[nH]5)C=C4)C=C3)cc1
REMARK SMILES IDX 5 1 4 2 3 3 1 4 2 5 34 7 35 8 87 9 36 10 86 11 37 12 38 13
REMARK SMILES IDX 39 14 80 15 40 16 85 17 79 18 81 19 41 20 84 21 78 22 77 23
REMARK SMILES IDX 42 25 68 26 51 27 67 28 52 29 55 30 66 31 82 32 53 33 54 34
REMARK SMILES IDX 65 36 83 37 56 38 43 39 44 40 49 41 45 42 46 43 48 44 50 45
REMARK SMILES IDX 47 46 69 47 70 48 75 49 71 50 72 51 74 52 76 53 73 54 57 55
REMARK SMILES IDX 58 56 63 57 59 58 60 59 62 60 64 61 61 62 6 63 7 64 8 65
REMARK SMILES IDX 9 66 10 68 11 69 20 70 33 71 21 72 32 73 22 74 12 75 13 76
REMARK SMILES IDX 14 77 18 78 15 79 17 80 19 81 16 82 23 83 24 84 31 85 25 86
REMARK SMILES IDX 27 87 30 88 26 89 28 90 29 91
REMARK H PARENT 3 6 81 24 55 35 8 67 28 92
REMARK Flexibility Score: inf
ROOT
ATOM      1  C   UNL     1       5.103   2.385   0.428  1.00  0.00     0.023 C 
ENDROOT
BRANCH   1   2
ATOM      2  C   UNL     1       4.591   0.971   0.229  1.00  0.00     0.116 C 
BRANCH   2   3
ATOM      3  N   UNL     1       3.149   0.841   0.384  1.00  0.00    -0.352 N 
ATOM      4  O   UNL     1       1.115  -0.040  -0.100  1.00  0.00    -0.269 OA
ATOM      5  C   UNL     1       2.325  -0.062  -0.248  1.00  0.00     0.251 C 
ATOM      6  H   UNL     1       2.716   1.468   1.008  1.00  0.00     0.163 HD
BRANCH   5   7
ATOM      7  C   UNL     1       2.961  -1.038  -1.151  1.00  0.00     0.039 A 
ATOM      8  C   UNL     1       4.025  -1.814  -0.685  1.00  0.00     0.014 A 
ATOM      9  C   UNL     1       2.556  -1.093  -2.486  1.00  0.00     0.014 A 
ATOM     10  C   UNL     1       4.771  -2.555  -1.586  1.00  0.00     0.010 A 
ATOM     11  C   UNL     1       3.251  -1.913  -3.372  1.00  0.00     0.010 A 
ATOM     12  C   UNL     1       4.370  -2.637  -2.929  1.00  0.00    -0.014 A 
BRANCH  12  13
ATOM     13  C   UNL     1       5.050  -3.603  -3.818  1.00  0.00     0.031 A 
ATOM     14  C   UNL     1       5.848  -3.154  -5.004  1.00  0.00     0.074 A 
ATOM     15  C   UNL     1       4.914  -4.910  -3.525  1.00  0.00     0.049 A 
ATOM     16  N   UNL     1       6.449  -3.886  -5.906  1.00  0.00    -0.248 NA
ATOM     17  C   UNL     1       5.985  -1.705  -5.216  1.00  0.00     0.031 C 
ATOM     18  C   UNL     1       4.138  -5.442  -2.399  1.00  0.00     0.029 A 
ATOM     19  N   UNL     1       5.415  -6.027  -4.137  1.00  0.00    -0.354 N 
ATOM     20  C   UNL     1       7.009  -2.993  -6.809  1.00  0.00     0.074 A 
ATOM     21  C   UNL     1       6.678  -1.661  -6.348  1.00  0.00     0.031 C 
ATOM     22  C   UNL     1       4.239  -6.777  -2.384  1.00  0.00     0.029 A 
ATOM     23  C   UNL     1       5.018  -7.197  -3.540  1.00  0.00     0.049 A 
ATOM     24  H   UNL     1       6.002  -5.994  -4.927  1.00  0.00     0.167 HD
ATOM     25  C   UNL     1       7.730  -3.273  -7.920  1.00  0.00     0.037 A 
ATOM     26  C   UNL     1       5.219  -8.474  -3.907  1.00  0.00     0.037 A 
ATOM     27  C   UNL     1       8.076  -4.607  -8.341  1.00  0.00     0.049 A 
ATOM     28  C   UNL     1       6.002  -8.746  -5.153  1.00  0.00     0.074 A 
ATOM     29  C   UNL     1       8.878  -4.995  -9.400  1.00  0.00     0.029 A 
ATOM     30  N   UNL     1       7.631  -5.769  -7.729  1.00  0.00    -0.354 N 
ATOM     31  N   UNL     1       6.569  -7.892  -5.970  1.00  0.00    -0.248 NA
ATOM     32  C   UNL     1       6.157 -10.152  -5.541  1.00  0.00     0.031 C 
ATOM     33  C   UNL     1       8.880  -6.393  -9.457  1.00  0.00     0.029 A 
ATOM     34  C   UNL     1       8.108  -6.875  -8.413  1.00  0.00     0.049 A 
ATOM     35  H   UNL     1       7.060  -5.803  -6.928  1.00  0.00     0.167 HD
ATOM     36  C   UNL     1       7.143  -8.654  -6.973  1.00  0.00     0.074 A 
ATOM     37  C   UNL     1       6.883 -10.042  -6.645  1.00  0.00     0.031 C 
ATOM     38  C   UNL     1       7.816  -8.244  -8.075  1.00  0.00     0.037 A 
BRANCH  25  39
ATOM     39  C   UNL     1       8.184  -2.131  -8.779  1.00  0.00     0.057 A 
ATOM     40  C   UNL     1       9.266  -1.318  -8.422  1.00  0.00     0.134 A 
ATOM     41  C   UNL     1       7.589  -1.906 -10.027  1.00  0.00     0.134 A 
ATOM     42  F   UNL     1       9.875  -1.478  -7.238  1.00  0.00    -0.206 F 
ATOM     43  C   UNL     1       9.739  -0.320  -9.277  1.00  0.00     0.040 A 
ATOM     44  C   UNL     1       8.063  -0.922 -10.897  1.00  0.00     0.040 A 
ATOM     45  F   UNL     1       6.551  -2.655 -10.431  1.00  0.00    -0.206 F 
ATOM     46  C   UNL     1       9.143  -0.126 -10.522  1.00  0.00     0.006 A 
ENDBRANCH  25  39
BRANCH  26  47
ATOM     47  C   UNL     1       4.618  -9.569  -3.110  1.00  0.00     0.057 A 
ATOM     48  C   UNL     1       5.410 -10.429  -2.344  1.00  0.00     0.134 A 
ATOM     49  C   UNL     1       3.230  -9.760  -3.074  1.00  0.00     0.134 A 
ATOM     50  F   UNL     1       6.745 -10.302  -2.349  1.00  0.00    -0.206 F 
ATOM     51  C   UNL     1       4.844 -11.447  -1.575  1.00  0.00     0.040 A 
ATOM     52  C   UNL     1       2.650 -10.756  -2.289  1.00  0.00     0.040 A 
ATOM     53  F   UNL     1       2.417  -8.960  -3.779  1.00  0.00    -0.206 F 
ATOM     54  C   UNL     1       3.459 -11.607  -1.541  1.00  0.00     0.006 A 
ENDBRANCH  26  47
BRANCH  38  55
ATOM     55  C   UNL     1       8.299  -9.316  -9.000  1.00  0.00     0.057 A 
ATOM     56  C   UNL     1       7.418  -9.986  -9.857  1.00  0.00     0.134 A 
ATOM     57  C   UNL     1       9.652  -9.667  -9.049  1.00  0.00     0.134 A 
ATOM     58  F   UNL     1       6.106  -9.705  -9.839  1.00  0.00    -0.206 F 
ATOM     59  C   UNL     1       7.865 -10.985 -10.721  1.00  0.00     0.040 A 
ATOM     60  C   UNL     1      10.115 -10.649  -9.924  1.00  0.00     0.040 A 
ATOM     61  F   UNL     1      10.544  -9.057  -8.254  1.00  0.00    -0.206 F 
ATOM     62  C   UNL     1       9.220 -11.315 -10.760  1.00  0.00     0.006 A 
ENDBRANCH  38  55
ENDBRANCH  12  13
ENDBRANCH   5   7
ENDBRANCH   2   3
ENDBRANCH   1   2
BRANCH   1  63
ATOM     63  C   UNL     1       4.771   2.974   1.793  1.00  0.00     0.023 C 
BRANCH  63  64
ATOM     64  C   UNL     1       5.445   2.268   2.974  1.00  0.00     0.116 C 
BRANCH  64  65
ATOM     65  N   UNL     1       6.754   2.833   3.200  1.00  0.00    -0.356 N 
ATOM     66  C   UNL     1       7.180   3.934   3.857  1.00  0.00     0.226 C 
ATOM     67  H   UNL     1       7.483   2.310   2.795  1.00  0.00     0.163 HD
ATOM     68  O   UNL     1       8.253   4.387   3.432  1.00  0.00    -0.274 OA
BRANCH  66  69
ATOM     69  C   UNL     1       6.545   4.557   5.123  1.00  0.00     0.057 C 
ATOM     70  C   UNL     1       5.062   4.328   5.467  1.00  0.00     0.039 C 
ATOM     71  C   UNL     1       6.733   6.106   4.979  1.00  0.00     0.039 C 
ATOM     72  C   UNL     1       4.074   5.006   4.533  1.00  0.00     0.119 C 
ATOM     73  C   UNL     1       5.760   6.715   3.960  1.00  0.00     0.119 C 
ATOM     74  N   UNL     1       4.399   6.415   4.398  1.00  0.00    -0.356 N 
BRANCH  69  75
ATOM     75  C   UNL     1       7.435   4.080   6.330  1.00  0.00     0.054 C 
BRANCH  75  76
ATOM     76  C   UNL     1       7.213   2.660   6.831  1.00  0.00    -0.028 A 
ATOM     77  C   UNL     1       6.216   2.440   7.805  1.00  0.00     0.005 A 
ATOM     78  C   UNL     1       7.952   1.550   6.392  1.00  0.00     0.044 A 
ATOM     79  C   UNL     1       5.934   1.159   8.284  1.00  0.00     0.000 A 
ATOM     80  C   UNL     1       7.667   0.266   6.875  1.00  0.00     0.021 A 
ATOM     81  Cl  UNL     1       9.269   1.686   5.285  1.00  0.00    -0.084 Cl
ATOM     82  C   UNL     1       6.655   0.069   7.813  1.00  0.00     0.002 A 
ENDBRANCH  75  76
ENDBRANCH  69  75
BRANCH  74  83
ATOM     83  C   UNL     1       3.366   7.186   3.868  1.00  0.00     0.141 A 
ATOM     84  N   UNL     1       3.531   7.842   2.691  1.00  0.00    -0.219 NA
ATOM     85  C   UNL     1       2.114   7.307   4.509  1.00  0.00     0.061 A 
ATOM     86  C   UNL     1       2.489   8.528   2.177  1.00  0.00     0.226 A 
ATOM     87  C   UNL     1       1.136   8.040   3.858  1.00  0.00     0.142 A 
ATOM     88  C   UNL     1       1.535   6.861   5.734  1.00  0.00     0.033 A 
ATOM     89  N   UNL     1       1.251   8.672   2.682  1.00  0.00    -0.218 NA
ATOM     90  N   UNL     1       0.001   8.015   4.624  1.00  0.00    -0.346 N 
ATOM     91  C   UNL     1       0.229   7.297   5.771  1.00  0.00     0.085 A 
ATOM     92  H   UNL     1      -0.851   8.447   4.387  1.00  0.00     0.167 HD
ENDBRANCH  74  83
ENDBRANCH  66  69
ENDBRANCH  64  65
ENDBRANCH  63  64
ENDBRANCH   1  63
TORSDOF 14
