REMARK SMILES C[C@@H](NC(=O)NCCC(=O)NC1CC1)C(=O)NCCCCNC(=O)c1ccc(-c2c3nc(c(-c4c(F)cccc4F)c4ccc([nH]4)c(-c4c(F)cccc4F)c4nc(c(-c5c(F)cccc5F)c5ccc2[nH]5)C=C4)C=C3)cc1
REMARK SMILES IDX 18 1 17 2 15 3 16 4 2 6 1 7 3 8 4 9 5 11 6 12 7 14 8 15 9 16
REMARK SMILES IDX 10 17 11 18 12 20 13 21 14 22 19 23 20 24 21 25 22 26 23 27
REMARK SMILES IDX 24 29 25 30 26 31 78 32 27 33 77 34 28 35 29 36 30 37 71 38
REMARK SMILES IDX 31 39 76 40 70 41 72 42 32 43 75 44 69 45 68 46 33 48 59 49
REMARK SMILES IDX 42 50 58 51 43 52 46 53 57 54 73 55 44 56 45 57 56 59 74 60
REMARK SMILES IDX 47 61 34 62 35 63 40 64 36 65 37 66 39 67 41 68 38 69 60 70
REMARK SMILES IDX 61 71 66 72 62 73 63 74 65 75 67 76 64 77 48 78 49 79 54 80
REMARK SMILES IDX 50 81 51 82 53 83 55 84 52 85
REMARK H PARENT 17 5 3 10 6 13 11 19 22 28 72 47 46 58
REMARK Flexibility Score: inf
ROOT
ATOM      1  C   UNL     1      -0.673  -0.693  -1.979  1.00  0.00     0.116 C 
ENDROOT
BRANCH   1   2
ATOM      2  N   UNL     1      -1.055  -0.662  -0.582  1.00  0.00    -0.354 N 
ATOM      3  C   UNL     1      -0.503   0.038   0.445  1.00  0.00     0.242 C 
ATOM      4  O   UNL     1      -0.968  -0.153   1.574  1.00  0.00    -0.273 OA
ATOM      5  H   UNL     1      -1.824  -1.229  -0.343  1.00  0.00     0.163 HD
BRANCH   3   6
ATOM      6  C   UNL     1       0.748   0.919   0.261  1.00  0.00     0.170 C 
ATOM      7  C   UNL     1       1.962  -0.004   0.421  1.00  0.00     0.041 C 
BRANCH   6   8
ATOM      8  N   UNL     1       0.875   1.649  -0.996  1.00  0.00    -0.327 N 
ATOM      9  C   UNL     1       0.115   2.533  -1.640  1.00  0.00     0.315 C 
ATOM     10  H   UNL     1       1.709   1.441  -1.476  1.00  0.00     0.166 HD
ATOM     11  O   UNL     1       0.569   3.031  -2.673  1.00  0.00    -0.249 OA
ATOM     12  N   UNL     1      -1.133   2.848  -1.302  1.00  0.00    -0.338 N 
ATOM     13  H   UNL     1      -1.585   3.365  -2.008  1.00  0.00     0.165 HD
BRANCH  12  14
ATOM     14  C   UNL     1      -2.001   2.625  -0.158  1.00  0.00     0.127 C 
BRANCH  14  15
ATOM     15  C   UNL     1      -2.871   3.835   0.163  1.00  0.00     0.121 C 
BRANCH  15  16
ATOM     16  C   UNL     1      -3.981   4.057  -0.841  1.00  0.00     0.221 C 
ATOM     17  O   UNL     1      -5.081   3.521  -0.703  1.00  0.00    -0.275 OA
ATOM     18  N   UNL     1      -3.764   4.860  -1.930  1.00  0.00    -0.353 N 
ATOM     19  H   UNL     1      -4.561   5.061  -2.471  1.00  0.00     0.163 HD
BRANCH  18  20
ATOM     20  C   UNL     1      -2.548   5.446  -2.392  1.00  0.00     0.082 C 
ATOM     21  C   UNL     1      -2.113   5.139  -3.805  1.00  0.00     0.027 C 
ATOM     22  C   UNL     1      -2.520   6.531  -3.429  1.00  0.00     0.027 C 
ENDBRANCH  18  20
ENDBRANCH  15  16
ENDBRANCH  14  15
ENDBRANCH  12  14
ENDBRANCH   6   8
ENDBRANCH   3   6
ENDBRANCH   1   2
BRANCH   1  23
ATOM     23  C   UNL     1      -1.239  -1.921  -2.682  1.00  0.00     0.023 C 
BRANCH  23  24
ATOM     24  C   UNL     1      -2.750  -1.852  -2.923  1.00  0.00     0.023 C 
BRANCH  24  25
ATOM     25  C   UNL     1      -3.186  -0.767  -3.905  1.00  0.00     0.116 C 
BRANCH  25  26
ATOM     26  N   UNL     1      -2.628  -0.979  -5.235  1.00  0.00    -0.352 N 
ATOM     27  C   UNL     1      -3.248  -1.386  -6.387  1.00  0.00     0.251 C 
ATOM     28  H   UNL     1      -1.663  -0.803  -5.318  1.00  0.00     0.163 HD
ATOM     29  O   UNL     1      -2.574  -1.755  -7.353  1.00  0.00    -0.269 OA
BRANCH  27  30
ATOM     30  C   UNL     1      -4.720  -1.392  -6.479  1.00  0.00     0.039 A 
ATOM     31  C   UNL     1      -5.365  -2.489  -7.056  1.00  0.00     0.014 A 
ATOM     32  C   UNL     1      -5.465  -0.303  -6.017  1.00  0.00     0.014 A 
ATOM     33  C   UNL     1      -6.760  -2.522  -7.109  1.00  0.00     0.010 A 
ATOM     34  C   UNL     1      -6.854  -0.371  -6.000  1.00  0.00     0.010 A 
ATOM     35  C   UNL     1      -7.516  -1.479  -6.550  1.00  0.00    -0.014 A 
BRANCH  35  36
ATOM     36  C   UNL     1      -9.000  -1.526  -6.531  1.00  0.00     0.031 A 
ATOM     37  C   UNL     1      -9.800  -0.503  -7.288  1.00  0.00     0.074 A 
ATOM     38  C   UNL     1      -9.627  -2.451  -5.778  1.00  0.00     0.049 A 
ATOM     39  N   UNL     1     -11.097  -0.335  -7.334  1.00  0.00    -0.248 NA
ATOM     40  C   UNL     1      -9.040   0.480  -8.077  1.00  0.00     0.031 C 
ATOM     41  C   UNL     1      -8.964  -3.467  -4.959  1.00  0.00     0.029 A 
ATOM     42  N   UNL     1     -10.964  -2.676  -5.569  1.00  0.00    -0.354 N 
ATOM     43  C   UNL     1     -11.307   0.774  -8.143  1.00  0.00     0.074 A 
ATOM     44  C   UNL     1     -10.003   1.273  -8.522  1.00  0.00     0.031 C 
ATOM     45  C   UNL     1      -9.896  -4.218  -4.351  1.00  0.00     0.029 A 
ATOM     46  C   UNL     1     -11.219  -3.714  -4.706  1.00  0.00     0.049 A 
ATOM     47  H   UNL     1     -11.674  -2.145  -5.997  1.00  0.00     0.167 HD
ATOM     48  C   UNL     1     -12.479   1.314  -8.554  1.00  0.00     0.037 A 
ATOM     49  C   UNL     1     -12.387  -4.199  -4.244  1.00  0.00     0.037 A 
ATOM     50  C   UNL     1     -13.775   0.804  -8.191  1.00  0.00     0.049 A 
ATOM     51  C   UNL     1     -13.675  -3.578  -4.709  1.00  0.00     0.074 A 
ATOM     52  C   UNL     1     -15.022   1.249  -8.597  1.00  0.00     0.029 A 
ATOM     53  N   UNL     1     -13.992  -0.263  -7.332  1.00  0.00    -0.354 N 
ATOM     54  N   UNL     1     -13.860  -2.571  -5.528  1.00  0.00    -0.248 NA
ATOM     55  C   UNL     1     -14.919  -4.166  -4.190  1.00  0.00     0.031 C 
ATOM     56  C   UNL     1     -15.993   0.477  -7.951  1.00  0.00     0.029 A 
ATOM     57  C   UNL     1     -15.352  -0.479  -7.181  1.00  0.00     0.049 A 
ATOM     58  H   UNL     1     -13.284  -0.788  -6.894  1.00  0.00     0.167 HD
ATOM     59  C   UNL     1     -15.235  -2.422  -5.644  1.00  0.00     0.074 A 
ATOM     60  C   UNL     1     -15.838  -3.452  -4.824  1.00  0.00     0.031 C 
ATOM     61  C   UNL     1     -15.936  -1.514  -6.366  1.00  0.00     0.037 A 
BRANCH  48  62
ATOM     62  C   UNL     1     -12.410   2.516  -9.451  1.00  0.00     0.057 A 
ATOM     63  C   UNL     1     -11.962   2.423 -10.776  1.00  0.00     0.134 A 
ATOM     64  C   UNL     1     -12.826   3.774  -8.998  1.00  0.00     0.134 A 
ATOM     65  F   UNL     1     -11.538   1.249 -11.270  1.00  0.00    -0.206 F 
ATOM     66  C   UNL     1     -11.903   3.542 -11.608  1.00  0.00     0.040 A 
ATOM     67  C   UNL     1     -12.799   4.895  -9.830  1.00  0.00     0.040 A 
ATOM     68  F   UNL     1     -13.273   3.934  -7.744  1.00  0.00    -0.206 F 
ATOM     69  C   UNL     1     -12.329   4.782 -11.137  1.00  0.00     0.006 A 
ENDBRANCH  48  62
BRANCH  49  70
ATOM     70  C   UNL     1     -12.394  -5.346  -3.301  1.00  0.00     0.057 A 
ATOM     71  C   UNL     1     -12.854  -6.606  -3.700  1.00  0.00     0.134 A 
ATOM     72  C   UNL     1     -11.950  -5.210  -1.981  1.00  0.00     0.134 A 
ATOM     73  F   UNL     1     -13.310  -6.794  -4.948  1.00  0.00    -0.206 F 
ATOM     74  C   UNL     1     -12.890  -7.685  -2.816  1.00  0.00     0.040 A 
ATOM     75  C   UNL     1     -11.956  -6.287  -1.093  1.00  0.00     0.040 A 
ATOM     76  F   UNL     1     -11.489  -4.030  -1.539  1.00  0.00    -0.206 F 
ATOM     77  C   UNL     1     -12.436  -7.528  -1.508  1.00  0.00     0.006 A 
ENDBRANCH  49  70
BRANCH  61  78
ATOM     78  C   UNL     1     -17.433  -1.615  -6.329  1.00  0.00     0.057 A 
ATOM     79  C   UNL     1     -18.172  -1.254  -5.196  1.00  0.00     0.134 A 
ATOM     80  C   UNL     1     -18.145  -2.044  -7.457  1.00  0.00     0.134 A 
ATOM     81  F   UNL     1     -17.550  -0.848  -4.079  1.00  0.00    -0.206 F 
ATOM     82  C   UNL     1     -19.566  -1.337  -5.178  1.00  0.00     0.040 A 
ATOM     83  C   UNL     1     -19.539  -2.105  -7.460  1.00  0.00     0.040 A 
ATOM     84  F   UNL     1     -17.498  -2.396  -8.578  1.00  0.00    -0.206 F 
ATOM     85  C   UNL     1     -20.253  -1.757  -6.315  1.00  0.00     0.006 A 
ENDBRANCH  61  78
ENDBRANCH  35  36
ENDBRANCH  27  30
ENDBRANCH  25  26
ENDBRANCH  24  25
ENDBRANCH  23  24
ENDBRANCH   1  23
TORSDOF 16
