REMARK SMILES COc1cc(/C=C2\SC(=S)N(CC(=O)NCCCCNC(=O)c3ccc(-c4c5nc(c(-c6c(F)cccc6F)c6ccc([nH]6)c(-c6c(F)cccc6F)c6nc(c(-c7c(F)cccc7F)c7ccc4[nH]7)C=C6)C=C5)cc3)C2=O)cc2c1OCO2
REMARK SMILES IDX 17 1 16 2 15 3 13 4 14 5 12 7 11 8 6 9 7 10 8 11 77 12 9 13
REMARK SMILES IDX 78 14 10 15 5 16 3 17 4 18 81 19 80 20 82 21 79 22 84 23
REMARK SMILES IDX 83 24 2 25 1 26 18 27 19 28 20 29 21 30 22 32 23 33 24 34
REMARK SMILES IDX 76 35 25 36 75 37 26 38 27 39 28 40 69 41 29 42 74 43 68 44
REMARK SMILES IDX 70 45 30 46 73 47 67 48 66 49 31 51 57 52 40 53 56 54 41 55
REMARK SMILES IDX 44 56 55 57 71 58 42 59 43 60 54 62 72 63 45 64 32 65 33 66
REMARK SMILES IDX 38 67 34 68 35 69 37 70 39 71 36 72 58 73 59 74 64 75 60 76
REMARK SMILES IDX 61 77 63 78 65 79 62 80 46 81 47 82 52 83 48 84 49 85 51 86
REMARK SMILES IDX 53 87 50 88
REMARK H PARENT 15 6 20 31 70 50 44 61
REMARK Flexibility Score: inf
ROOT
ATOM      1  C   UNL     1      -2.756  -8.383  -0.562  1.00  0.00     0.023 C 
ENDROOT
BRANCH   1   2
ATOM      2  C   UNL     1      -3.153  -9.506  -1.516  1.00  0.00     0.116 C 
BRANCH   2   3
ATOM      3  N   UNL     1      -4.229  -9.121  -2.403  1.00  0.00    -0.355 N 
ATOM      4  C   UNL     1      -4.220  -8.872  -3.743  1.00  0.00     0.240 C 
ATOM      5  O   UNL     1      -5.316  -8.844  -4.310  1.00  0.00    -0.273 OA
ATOM      6  H   UNL     1      -5.108  -9.025  -1.970  1.00  0.00     0.163 HD
BRANCH   4   7
ATOM      7  C   UNL     1      -2.921  -8.820  -4.559  1.00  0.00     0.227 C 
BRANCH   7   8
ATOM      8  N   UNL     1      -1.871  -7.972  -3.998  1.00  0.00    -0.283 N 
ATOM      9  C   UNL     1      -0.948  -4.571  -3.182  1.00  0.00     0.029 C 
ATOM     10  C   UNL     1      -0.941  -5.897  -3.372  1.00  0.00     0.081 C 
ATOM     11  S   UNL     1       0.304  -7.022  -3.008  1.00  0.00    -0.054 SA
ATOM     12  C   UNL     1      -2.117  -6.610  -3.937  1.00  0.00     0.266 C 
ATOM     13  C   UNL     1      -0.595  -8.378  -3.671  1.00  0.00     0.148 C 
ATOM     14  O   UNL     1      -3.139  -6.049  -4.294  1.00  0.00    -0.268 OA
ATOM     15  S   UNL     1       0.099  -9.885  -3.848  1.00  0.00    -0.052 S 
BRANCH   9  16
ATOM     16  C   UNL     1       0.136  -3.769  -2.597  1.00  0.00    -0.017 A 
ATOM     17  C   UNL     1       0.830  -2.130  -0.917  1.00  0.00     0.165 A 
ATOM     18  C   UNL     1      -0.162  -2.919  -1.512  1.00  0.00     0.058 A 
ATOM     19  C   UNL     1       2.121  -2.243  -1.397  1.00  0.00     0.207 A 
ATOM     20  C   UNL     1       2.408  -3.062  -2.467  1.00  0.00     0.170 A 
ATOM     21  O   UNL     1       3.242  -1.636  -0.917  1.00  0.00    -0.450 OA
ATOM     22  C   UNL     1       1.440  -3.811  -3.103  1.00  0.00     0.059 A 
ATOM     23  O   UNL     1       3.728  -3.056  -2.796  1.00  0.00    -0.453 OA
ATOM     24  C   UNL     1       4.260  -2.216  -1.755  1.00  0.00     0.468 C 
BRANCH  17  25
ATOM     25  O   UNL     1       0.434  -1.360   0.139  1.00  0.00    -0.493 OA
ATOM     26  C   UNL     1       0.958  -0.034   0.108  1.00  0.00     0.278 C 
ENDBRANCH  17  25
ENDBRANCH   9  16
ENDBRANCH   7   8
ENDBRANCH   4   7
ENDBRANCH   2   3
ENDBRANCH   1   2
BRANCH   1  27
ATOM     27  C   UNL     1      -3.807  -8.043   0.498  1.00  0.00     0.023 C 
BRANCH  27  28
ATOM     28  C   UNL     1      -4.235  -9.201   1.395  1.00  0.00     0.116 C 
BRANCH  28  29
ATOM     29  N   UNL     1      -3.133  -9.794   2.136  1.00  0.00    -0.352 N 
ATOM     30  C   UNL     1      -3.111 -10.240   3.437  1.00  0.00     0.251 C 
ATOM     31  H   UNL     1      -2.289  -9.891   1.639  1.00  0.00     0.163 HD
ATOM     32  O   UNL     1      -2.060 -10.620   3.943  1.00  0.00    -0.269 OA
BRANCH  30  33
ATOM     33  C   UNL     1      -4.353 -10.223   4.239  1.00  0.00     0.039 A 
ATOM     34  C   UNL     1      -4.316  -9.675   5.525  1.00  0.00     0.014 A 
ATOM     35  C   UNL     1      -5.550 -10.722   3.721  1.00  0.00     0.014 A 
ATOM     36  C   UNL     1      -5.496  -9.561   6.262  1.00  0.00     0.010 A 
ATOM     37  C   UNL     1      -6.736 -10.546   4.429  1.00  0.00     0.010 A 
ATOM     38  C   UNL     1      -6.722  -9.960   5.704  1.00  0.00    -0.014 A 
BRANCH  38  39
ATOM     39  C   UNL     1      -8.001  -9.762   6.431  1.00  0.00     0.031 A 
ATOM     40  C   UNL     1      -8.822 -10.947   6.855  1.00  0.00     0.074 A 
ATOM     41  C   UNL     1      -8.459  -8.513   6.647  1.00  0.00     0.049 A 
ATOM     42  N   UNL     1     -10.001 -10.977   7.423  1.00  0.00    -0.248 NA
ATOM     43  C   UNL     1      -8.253 -12.276   6.581  1.00  0.00     0.031 C 
ATOM     44  C   UNL     1      -7.781  -7.280   6.244  1.00  0.00     0.029 A 
ATOM     45  N   UNL     1      -9.613  -8.075   7.248  1.00  0.00    -0.354 N 
ATOM     46  C   UNL     1     -10.319 -12.322   7.561  1.00  0.00     0.074 A 
ATOM     47  C   UNL     1      -9.234 -13.076   6.972  1.00  0.00     0.031 C 
ATOM     48  C   UNL     1      -8.522  -6.226   6.623  1.00  0.00     0.029 A 
ATOM     49  C   UNL     1      -9.742  -6.707   7.262  1.00  0.00     0.049 A 
ATOM     50  H   UNL     1     -10.285  -8.684   7.631  1.00  0.00     0.167 HD
ATOM     51  C   UNL     1     -11.406 -12.879   8.148  1.00  0.00     0.037 A 
ATOM     52  C   UNL     1     -10.737  -5.929   7.730  1.00  0.00     0.037 A 
ATOM     53  C   UNL     1     -12.474 -12.128   8.754  1.00  0.00     0.049 A 
ATOM     54  C   UNL     1     -11.936  -6.572   8.370  1.00  0.00     0.074 A 
ATOM     55  C   UNL     1     -13.592 -12.602   9.418  1.00  0.00     0.029 A 
ATOM     56  N   UNL     1     -12.557 -10.744   8.768  1.00  0.00    -0.354 N 
ATOM     57  N   UNL     1     -12.194  -7.845   8.549  1.00  0.00    -0.248 NA
ATOM     58  C   UNL     1     -12.980  -5.670   8.876  1.00  0.00     0.031 C 
ATOM     59  C   UNL     1     -14.370 -11.505   9.802  1.00  0.00     0.029 A 
ATOM     60  C   UNL     1     -13.716 -10.347   9.416  1.00  0.00     0.049 A 
ATOM     61  H   UNL     1     -11.891 -10.134   8.377  1.00  0.00     0.167 HD
ATOM     62  C   UNL     1     -13.413  -7.895   9.213  1.00  0.00     0.074 A 
ATOM     63  C   UNL     1     -13.836  -6.525   9.416  1.00  0.00     0.031 C 
ATOM     64  C   UNL     1     -14.118  -8.979   9.619  1.00  0.00     0.037 A 
BRANCH  51  65
ATOM     65  C   UNL     1     -11.486 -14.377   8.168  1.00  0.00     0.057 A 
ATOM     66  C   UNL     1     -10.639 -15.149   8.975  1.00  0.00     0.134 A 
ATOM     67  C   UNL     1     -12.440 -15.055   7.398  1.00  0.00     0.134 A 
ATOM     68  F   UNL     1      -9.696 -14.562   9.727  1.00  0.00    -0.206 F 
ATOM     69  C   UNL     1     -10.720 -16.543   8.994  1.00  0.00     0.040 A 
ATOM     70  C   UNL     1     -12.547 -16.447   7.429  1.00  0.00     0.040 A 
ATOM     71  F   UNL     1     -13.286 -14.377   6.608  1.00  0.00    -0.206 F 
ATOM     72  C   UNL     1     -11.681 -17.195   8.224  1.00  0.00     0.006 A 
ENDBRANCH  51  65
BRANCH  52  73
ATOM     73  C   UNL     1     -10.635  -4.452   7.631  1.00  0.00     0.057 A 
ATOM     74  C   UNL     1     -10.444  -3.664   8.772  1.00  0.00     0.134 A 
ATOM     75  C   UNL     1     -10.739  -3.791   6.401  1.00  0.00     0.134 A 
ATOM     76  F   UNL     1     -10.356  -4.238   9.981  1.00  0.00    -0.206 F 
ATOM     77  C   UNL     1     -10.380  -2.272   8.698  1.00  0.00     0.040 A 
ATOM     78  C   UNL     1     -10.653  -2.401   6.309  1.00  0.00     0.040 A 
ATOM     79  F   UNL     1     -10.916  -4.490   5.270  1.00  0.00    -0.206 F 
ATOM     80  C   UNL     1     -10.481  -1.637   7.461  1.00  0.00     0.006 A 
ENDBRANCH  52  73
BRANCH  64  81
ATOM     81  C   UNL     1     -15.400  -8.728  10.356  1.00  0.00     0.057 A 
ATOM     82  C   UNL     1     -16.550  -8.268   9.703  1.00  0.00     0.134 A 
ATOM     83  C   UNL     1     -15.494  -8.987  11.729  1.00  0.00     0.134 A 
ATOM     84  F   UNL     1     -16.522  -7.989   8.391  1.00  0.00    -0.206 F 
ATOM     85  C   UNL     1     -17.744  -8.055  10.394  1.00  0.00     0.040 A 
ATOM     86  C   UNL     1     -16.689  -8.802  12.426  1.00  0.00     0.040 A 
ATOM     87  F   UNL     1     -14.431  -9.436  12.412  1.00  0.00    -0.206 F 
ATOM     88  C   UNL     1     -17.817  -8.329  11.759  1.00  0.00     0.006 A 
ENDBRANCH  64  81
ENDBRANCH  38  39
ENDBRANCH  30  33
ENDBRANCH  28  29
ENDBRANCH  27  28
ENDBRANCH   1  27
TORSDOF 14
