REMARK SMILES CC(C)(C)c1cc(Nc2ccccc2C(=O)NCCCCNC(=O)c2ccc(-c3c4nc(c(-c5c(F)cccc5F)c5ccc([nH]5)c(-c5c(F)cccc5F)c5nc(c(-c6c(F)cccc6F)c6ccc3[nH]6)C=C5)C=C4)cc2)cc2c1OCC2(C)C
REMARK SMILES IDX 19 1 18 2 17 3 15 4 16 5 14 7 9 8 10 9 11 10 13 11 12 12
REMARK SMILES IDX 8 13 7 15 5 16 6 17 81 18 80 19 82 20 79 21 84 22 83 23
REMARK SMILES IDX 85 24 86 25 2 26 1 27 3 28 4 29 20 30 21 31 22 32 23 33
REMARK SMILES IDX 24 35 25 36 26 37 78 38 27 39 77 40 28 41 29 42 30 43 71 44
REMARK SMILES IDX 31 45 76 46 70 47 72 48 32 49 75 50 69 51 68 52 33 54 59 55
REMARK SMILES IDX 42 56 58 57 43 58 46 59 57 60 73 61 44 62 45 63 56 65 74 66
REMARK SMILES IDX 47 67 34 68 35 69 40 70 36 71 37 72 39 73 41 74 38 75 60 76
REMARK SMILES IDX 61 77 66 78 62 79 63 80 65 81 67 82 64 83 48 84 49 85 54 86
REMARK SMILES IDX 50 87 51 88 53 89 55 90 52 91
REMARK H PARENT 17 6 8 14 22 34 72 53 46 64
REMARK Flexibility Score: inf
ROOT
ATOM      1  C   UNL     1       3.974   1.265  -2.079  1.00  0.00     0.023 C 
ENDROOT
BRANCH   1   2
ATOM      2  C   UNL     1       3.314   1.673  -3.383  1.00  0.00     0.116 C 
BRANCH   2   3
ATOM      3  N   UNL     1       3.846   2.820  -4.058  1.00  0.00    -0.352 N 
ATOM      4  C   UNL     1       3.623   3.233  -5.348  1.00  0.00     0.253 C 
ATOM      5  O   UNL     1       4.108   4.325  -5.660  1.00  0.00    -0.269 OA
ATOM      6  H   UNL     1       4.451   3.386  -3.526  1.00  0.00     0.163 HD
BRANCH   4   7
ATOM      7  C   UNL     1       2.923   2.439  -6.414  1.00  0.00     0.063 A 
ATOM      8  C   UNL     1       1.739   1.668  -6.346  1.00  0.00     0.051 A 
ATOM      9  C   UNL     1       1.210   1.144  -7.552  1.00  0.00     0.027 A 
ATOM     10  C   UNL     1       1.867   1.273  -8.774  1.00  0.00     0.002 A 
ATOM     11  C   UNL     1       3.570   2.555  -7.671  1.00  0.00     0.016 A 
ATOM     12  C   UNL     1       3.065   1.963  -8.830  1.00  0.00     0.001 A 
BRANCH   8  13
ATOM     13  N   UNL     1       1.043   1.316  -5.165  1.00  0.00    -0.355 N 
ATOM     14  H   UNL     1       0.574   2.038  -4.688  1.00  0.00     0.167 HD
BRANCH  13  15
ATOM     15  C   UNL     1       0.960   0.010  -4.606  1.00  0.00     0.039 A 
ATOM     16  C   UNL     1       0.631  -1.441  -2.594  1.00  0.00     0.002 A 
ATOM     17  C   UNL     1       0.493  -0.196  -3.283  1.00  0.00     0.034 A 
ATOM     18  C   UNL     1       1.171  -2.484  -3.342  1.00  0.00     0.127 A 
ATOM     19  C   UNL     1       1.583  -2.315  -4.652  1.00  0.00     0.006 A 
ATOM     20  O   UNL     1       1.380  -3.759  -2.894  1.00  0.00    -0.492 OA
ATOM     21  C   UNL     1       1.506  -1.085  -5.279  1.00  0.00     0.034 A 
ATOM     22  C   UNL     1       2.119  -3.584  -5.217  1.00  0.00     0.028 C 
ATOM     23  C   UNL     1       1.855  -4.520  -4.026  1.00  0.00     0.240 C 
ATOM     24  C   UNL     1       1.328  -4.011  -6.457  1.00  0.00     0.020 C 
ATOM     25  C   UNL     1       3.613  -3.481  -5.539  1.00  0.00     0.020 C 
BRANCH  16  26
ATOM     26  C   UNL     1       0.215  -1.580  -1.113  1.00  0.00    -0.009 C 
ATOM     27  C   UNL     1       0.861  -0.465  -0.272  1.00  0.00     0.016 C 
ATOM     28  C   UNL     1       0.628  -2.895  -0.413  1.00  0.00     0.016 C 
ATOM     29  C   UNL     1      -1.317  -1.456  -1.008  1.00  0.00     0.016 C 
ENDBRANCH  16  26
ENDBRANCH  13  15
ENDBRANCH   8  13
ENDBRANCH   4   7
ENDBRANCH   2   3
ENDBRANCH   1   2
BRANCH   1  30
ATOM     30  C   UNL     1       3.984   2.281  -0.936  1.00  0.00     0.023 C 
BRANCH  30  31
ATOM     31  C   UNL     1       2.898   3.355  -0.908  1.00  0.00     0.116 C 
BRANCH  31  32
ATOM     32  N   UNL     1       1.559   2.894  -0.558  1.00  0.00    -0.352 N 
ATOM     33  C   UNL     1       0.887   2.881   0.647  1.00  0.00     0.251 C 
ATOM     34  H   UNL     1       1.044   2.528  -1.313  1.00  0.00     0.163 HD
ATOM     35  O   UNL     1      -0.249   2.422   0.733  1.00  0.00    -0.269 OA
BRANCH  33  36
ATOM     36  C   UNL     1       1.550   3.395   1.855  1.00  0.00     0.039 A 
ATOM     37  C   UNL     1       2.148   4.647   1.808  1.00  0.00     0.014 A 
ATOM     38  C   UNL     1       1.605   2.625   3.021  1.00  0.00     0.014 A 
ATOM     39  C   UNL     1       3.012   5.017   2.820  1.00  0.00     0.010 A 
ATOM     40  C   UNL     1       2.367   3.071   4.106  1.00  0.00     0.010 A 
ATOM     41  C   UNL     1       3.130   4.241   3.987  1.00  0.00    -0.014 A 
BRANCH  41  42
ATOM     42  C   UNL     1       4.064   4.727   5.035  1.00  0.00     0.031 A 
ATOM     43  C   UNL     1       5.291   3.945   5.413  1.00  0.00     0.074 A 
ATOM     44  C   UNL     1       3.870   5.970   5.521  1.00  0.00     0.049 A 
ATOM     45  N   UNL     1       6.304   4.317   6.156  1.00  0.00    -0.248 NA
ATOM     46  C   UNL     1       5.400   2.570   4.902  1.00  0.00     0.031 C 
ATOM     47  C   UNL     1       2.708   6.813   5.222  1.00  0.00     0.029 A 
ATOM     48  N   UNL     1       4.672   6.771   6.289  1.00  0.00    -0.354 N 
ATOM     49  C   UNL     1       7.156   3.221   6.218  1.00  0.00     0.074 A 
ATOM     50  C   UNL     1       6.532   2.160   5.459  1.00  0.00     0.031 C 
ATOM     51  C   UNL     1       2.926   8.046   5.698  1.00  0.00     0.029 A 
ATOM     52  C   UNL     1       4.201   8.058   6.404  1.00  0.00     0.049 A 
ATOM     53  H   UNL     1       5.502   6.458   6.716  1.00  0.00     0.167 HD
ATOM     54  C   UNL     1       8.353   3.115   6.845  1.00  0.00     0.037 A 
ATOM     55  C   UNL     1       4.737   9.133   7.008  1.00  0.00     0.037 A 
ATOM     56  C   UNL     1       8.975   4.185   7.583  1.00  0.00     0.049 A 
ATOM     57  C   UNL     1       6.063   8.986   7.691  1.00  0.00     0.074 A 
ATOM     58  C   UNL     1      10.187   4.184   8.252  1.00  0.00     0.029 A 
ATOM     59  N   UNL     1       8.432   5.451   7.747  1.00  0.00    -0.354 N 
ATOM     60  N   UNL     1       6.858   7.944   7.736  1.00  0.00    -0.248 NA
ATOM     61  C   UNL     1       6.559  10.158   8.422  1.00  0.00     0.031 C 
ATOM     62  C   UNL     1      10.358   5.437   8.851  1.00  0.00     0.029 A 
ATOM     63  C   UNL     1       9.274   6.234   8.519  1.00  0.00     0.049 A 
ATOM     64  H   UNL     1       7.573   5.750   7.369  1.00  0.00     0.167 HD
ATOM     65  C   UNL     1       7.948   8.333   8.499  1.00  0.00     0.074 A 
ATOM     66  C   UNL     1       7.728   9.719   8.864  1.00  0.00     0.031 C 
ATOM     67  C   UNL     1       9.028   7.607   8.878  1.00  0.00     0.037 A 
BRANCH  54  68
ATOM     68  C   UNL     1       9.052   1.787   6.782  1.00  0.00     0.057 A 
ATOM     69  C   UNL     1       9.142   0.975   7.920  1.00  0.00     0.134 A 
ATOM     70  C   UNL     1       9.654   1.318   5.607  1.00  0.00     0.134 A 
ATOM     71  F   UNL     1       8.592   1.365   9.080  1.00  0.00    -0.206 F 
ATOM     72  C   UNL     1       9.805  -0.254   7.893  1.00  0.00     0.040 A 
ATOM     73  C   UNL     1      10.300   0.080   5.561  1.00  0.00     0.040 A 
ATOM     74  F   UNL     1       9.593   2.038   4.477  1.00  0.00    -0.206 F 
ATOM     75  C   UNL     1      10.380  -0.708   6.708  1.00  0.00     0.006 A 
ENDBRANCH  54  68
BRANCH  55  76
ATOM     76  C   UNL     1       4.014  10.429   7.000  1.00  0.00     0.057 A 
ATOM     77  C   UNL     1       2.799  10.585   7.679  1.00  0.00     0.134 A 
ATOM     78  C   UNL     1       4.514  11.540   6.313  1.00  0.00     0.134 A 
ATOM     79  F   UNL     1       2.262   9.555   8.351  1.00  0.00    -0.206 F 
ATOM     80  C   UNL     1       2.099  11.791   7.663  1.00  0.00     0.040 A 
ATOM     81  C   UNL     1       3.840  12.763   6.313  1.00  0.00     0.040 A 
ATOM     82  F   UNL     1       5.681  11.460   5.656  1.00  0.00    -0.206 F 
ATOM     83  C   UNL     1       2.625  12.888   6.985  1.00  0.00     0.006 A 
ENDBRANCH  55  76
BRANCH  67  84
ATOM     84  C   UNL     1      10.046   8.315   9.719  1.00  0.00     0.057 A 
ATOM     85  C   UNL     1      11.284   8.687   9.182  1.00  0.00     0.134 A 
ATOM     86  C   UNL     1       9.797   8.637  11.060  1.00  0.00     0.134 A 
ATOM     87  F   UNL     1      11.586   8.402   7.906  1.00  0.00    -0.206 F 
ATOM     88  C   UNL     1      12.236   9.361   9.946  1.00  0.00     0.040 A 
ATOM     89  C   UNL     1      10.730   9.335  11.827  1.00  0.00     0.040 A 
ATOM     90  F   UNL     1       8.622   8.324  11.627  1.00  0.00    -0.206 F 
ATOM     91  C   UNL     1      11.956   9.696  11.270  1.00  0.00     0.006 A 
ENDBRANCH  67  84
ENDBRANCH  41  42
ENDBRANCH  33  36
ENDBRANCH  31  32
ENDBRANCH  30  31
ENDBRANCH   1  30
TORSDOF 14
