REMARK SMILES CC(C)(C)c1cc2c(cc1Cl)C=C(C(=O)NCCCCNC(=O)c1ccc(-c3c4nc(c(-c5c(F)cccc5F)c5ccc([nH]5)c(-c5c(F)cccc5F)c5nc(c(-c6c(F)cccc6F)c6ccc3[nH]6)C=C5)C=C4)cc1)[C@H](C(F)(F)F)O2
REMARK SMILES IDX 19 1 18 2 17 3 16 4 14 5 15 6 13 8 5 9 6 10 10 11 7 12 9 13
REMARK SMILES IDX 11 14 8 15 83 16 12 17 78 18 2 19 1 20 3 21 4 22 79 23 80 24
REMARK SMILES IDX 81 25 82 26 20 27 21 28 22 29 23 31 24 32 25 33 77 34 26 35
REMARK SMILES IDX 76 36 27 37 28 38 29 39 70 40 30 41 75 42 69 43 71 44 31 45
REMARK SMILES IDX 74 46 68 47 67 48 32 50 58 51 41 52 57 53 42 54 45 55 56 56
REMARK SMILES IDX 72 57 43 58 44 59 55 61 73 62 46 63 33 64 34 65 39 66 35 67
REMARK SMILES IDX 36 68 38 69 40 70 37 71 59 72 60 73 65 74 61 75 62 76 64 77
REMARK SMILES IDX 66 78 63 79 47 80 48 81 53 82 49 83 50 84 52 85 54 86 51 87
REMARK H PARENT 16 7 21 30 71 49 45 60
REMARK Flexibility Score: inf
ROOT
ATOM      1  C   UNL     1      -0.498  11.350   0.538  1.00  0.00     0.023 C 
ENDROOT
BRANCH   1   2
ATOM      2  C   UNL     1      -0.706   9.912   0.058  1.00  0.00     0.023 C 
BRANCH   2   3
ATOM      3  C   UNL     1      -0.236   9.642  -1.371  1.00  0.00     0.116 C 
BRANCH   3   4
ATOM      4  N   UNL     1       1.181   9.335  -1.421  1.00  0.00    -0.352 N 
ATOM      5  C   UNL     1       1.938   8.215  -1.478  1.00  0.00     0.251 C 
ATOM      6  O   UNL     1       3.152   8.412  -1.599  1.00  0.00    -0.270 OA
ATOM      7  H   UNL     1       1.732  10.150  -1.410  1.00  0.00     0.163 HD
BRANCH   5   8
ATOM      8  C   UNL     1       1.424   6.816  -1.402  1.00  0.00     0.067 C 
ATOM      9  C   UNL     1       1.066   1.741  -1.397  1.00  0.00    -0.020 A 
ATOM     10  C   UNL     1       0.157   2.823  -1.339  1.00  0.00     0.053 A 
ATOM     11  C   UNL     1       2.429   2.087  -1.567  1.00  0.00     0.045 A 
ATOM     12  C   UNL     1       0.577   4.152  -1.426  1.00  0.00     0.128 A 
ATOM     13  C   UNL     1       2.838   3.429  -1.691  1.00  0.00     0.032 A 
ATOM     14  Cl  UNL     1       3.725   0.942  -1.628  1.00  0.00    -0.084 Cl
ATOM     15  C   UNL     1       1.913   4.465  -1.620  1.00  0.00     0.019 A 
ATOM     16  O   UNL     1      -0.391   5.115  -1.337  1.00  0.00    -0.475 OA
ATOM     17  C   UNL     1       2.306   5.861  -1.756  1.00  0.00     0.025 C 
ATOM     18  C   UNL     1       0.076   6.413  -0.863  1.00  0.00     0.314 C 
BRANCH   9  19
ATOM     19  C   UNL     1       0.535   0.291  -1.255  1.00  0.00    -0.012 C 
ATOM     20  C   UNL     1       1.065  -0.351   0.045  1.00  0.00     0.016 C 
ATOM     21  C   UNL     1       0.913  -0.572  -2.478  1.00  0.00     0.016 C 
ATOM     22  C   UNL     1      -1.015   0.205  -1.161  1.00  0.00     0.016 C 
ENDBRANCH   9  19
BRANCH  18  23
ATOM     23  C   UNL     1      -0.024   6.488   0.671  1.00  0.00     0.429 C 
ATOM     24  F   UNL     1       0.871   7.349   1.209  1.00  0.00    -0.167 F 
ATOM     25  F   UNL     1      -1.256   6.927   1.036  1.00  0.00    -0.167 F 
ATOM     26  F   UNL     1       0.169   5.295   1.274  1.00  0.00    -0.167 F 
ENDBRANCH  18  23
ENDBRANCH   5   8
ENDBRANCH   3   4
ENDBRANCH   2   3
ENDBRANCH   1   2
BRANCH   1  27
ATOM     27  C   UNL     1      -1.269  12.408  -0.241  1.00  0.00     0.116 C 
BRANCH  27  28
ATOM     28  N   UNL     1      -2.707  12.183  -0.290  1.00  0.00    -0.352 N 
ATOM     29  C   UNL     1      -3.698  13.121  -0.472  1.00  0.00     0.251 C 
ATOM     30  H   UNL     1      -3.006  11.251  -0.180  1.00  0.00     0.163 HD
ATOM     31  O   UNL     1      -4.883  12.808  -0.430  1.00  0.00    -0.269 OA
BRANCH  29  32
ATOM     32  C   UNL     1      -3.300  14.530  -0.652  1.00  0.00     0.039 A 
ATOM     33  C   UNL     1      -2.352  14.869  -1.618  1.00  0.00     0.014 A 
ATOM     34  C   UNL     1      -3.784  15.488   0.242  1.00  0.00     0.014 A 
ATOM     35  C   UNL     1      -1.751  16.119  -1.569  1.00  0.00     0.010 A 
ATOM     36  C   UNL     1      -3.233  16.770   0.236  1.00  0.00     0.010 A 
ATOM     37  C   UNL     1      -2.168  17.074  -0.626  1.00  0.00    -0.014 A 
BRANCH  37  38
ATOM     38  C   UNL     1      -1.439  18.362  -0.530  1.00  0.00     0.031 A 
ATOM     39  C   UNL     1      -0.627  18.694   0.693  1.00  0.00     0.074 A 
ATOM     40  C   UNL     1      -1.444  19.199  -1.584  1.00  0.00     0.049 A 
ATOM     41  N   UNL     1       0.090  19.761   0.943  1.00  0.00    -0.248 NA
ATOM     42  C   UNL     1      -0.621  17.702   1.780  1.00  0.00     0.031 C 
ATOM     43  C   UNL     1      -2.173  18.976  -2.834  1.00  0.00     0.029 A 
ATOM     44  N   UNL     1      -0.790  20.386  -1.785  1.00  0.00    -0.354 N 
ATOM     45  C   UNL     1       0.605  19.584   2.221  1.00  0.00     0.074 A 
ATOM     46  C   UNL     1       0.109  18.313   2.704  1.00  0.00     0.031 C 
ATOM     47  C   UNL     1      -1.875  19.960  -3.695  1.00  0.00     0.029 A 
ATOM     48  C   UNL     1      -0.985  20.911  -3.038  1.00  0.00     0.049 A 
ATOM     49  H   UNL     1      -0.234  20.820  -1.098  1.00  0.00     0.167 HD
ATOM     50  C   UNL     1       1.423  20.402   2.926  1.00  0.00     0.037 A 
ATOM     51  C   UNL     1      -0.506  22.038  -3.594  1.00  0.00     0.037 A 
ATOM     52  C   UNL     1       1.948  21.649   2.433  1.00  0.00     0.049 A 
ATOM     53  C   UNL     1       0.377  22.938  -2.783  1.00  0.00     0.074 A 
ATOM     54  C   UNL     1       2.805  22.536   3.062  1.00  0.00     0.029 A 
ATOM     55  N   UNL     1       1.669  22.181   1.184  1.00  0.00    -0.354 N 
ATOM     56  N   UNL     1       0.838  22.766  -1.569  1.00  0.00    -0.248 NA
ATOM     57  C   UNL     1       0.788  24.199  -3.414  1.00  0.00     0.031 C 
ATOM     58  C   UNL     1       3.023  23.619   2.202  1.00  0.00     0.029 A 
ATOM     59  C   UNL     1       2.323  23.392   1.029  1.00  0.00     0.049 A 
ATOM     60  H   UNL     1       1.091  21.760   0.507  1.00  0.00     0.167 HD
ATOM     61  C   UNL     1       1.589  23.897  -1.286  1.00  0.00     0.074 A 
ATOM     62  C   UNL     1       1.544  24.736  -2.467  1.00  0.00     0.031 C 
ATOM     63  C   UNL     1       2.249  24.218  -0.147  1.00  0.00     0.037 A 
BRANCH  50  64
ATOM     64  C   UNL     1       1.784  19.981   4.319  1.00  0.00     0.057 A 
ATOM     65  C   UNL     1       1.208  20.616   5.426  1.00  0.00     0.134 A 
ATOM     66  C   UNL     1       2.717  18.967   4.567  1.00  0.00     0.134 A 
ATOM     67  F   UNL     1       0.308  21.596   5.257  1.00  0.00    -0.206 F 
ATOM     68  C   UNL     1       1.546  20.256   6.732  1.00  0.00     0.040 A 
ATOM     69  C   UNL     1       3.051  18.585   5.869  1.00  0.00     0.040 A 
ATOM     70  F   UNL     1       3.293  18.309   3.549  1.00  0.00    -0.206 F 
ATOM     71  C   UNL     1       2.467  19.235   6.956  1.00  0.00     0.006 A 
ENDBRANCH  50  64
BRANCH  51  72
ATOM     72  C   UNL     1      -0.863  22.376  -4.991  1.00  0.00     0.057 A 
ATOM     73  C   UNL     1      -2.156  22.787  -5.334  1.00  0.00     0.134 A 
ATOM     74  C   UNL     1       0.080  22.275  -6.018  1.00  0.00     0.134 A 
ATOM     75  F   UNL     1      -3.104  22.897  -4.391  1.00  0.00    -0.206 F 
ATOM     76  C   UNL     1      -2.505  23.070  -6.654  1.00  0.00     0.040 A 
ATOM     77  C   UNL     1      -0.249  22.575  -7.340  1.00  0.00     0.040 A 
ATOM     78  F   UNL     1       1.339  21.903  -5.745  1.00  0.00    -0.206 F 
ATOM     79  C   UNL     1      -1.548  22.967  -7.662  1.00  0.00     0.006 A 
ENDBRANCH  51  72
BRANCH  63  80
ATOM     80  C   UNL     1       2.964  25.534  -0.136  1.00  0.00     0.057 A 
ATOM     81  C   UNL     1       4.354  25.598  -0.277  1.00  0.00     0.134 A 
ATOM     82  C   UNL     1       2.267  26.739   0.018  1.00  0.00     0.134 A 
ATOM     83  F   UNL     1       5.076  24.477  -0.426  1.00  0.00    -0.206 F 
ATOM     84  C   UNL     1       5.029  26.819  -0.269  1.00  0.00     0.040 A 
ATOM     85  C   UNL     1       2.929  27.967   0.010  1.00  0.00     0.040 A 
ATOM     86  F   UNL     1       0.931  26.740   0.140  1.00  0.00    -0.206 F 
ATOM     87  C   UNL     1       4.315  28.008  -0.131  1.00  0.00     0.006 A 
ENDBRANCH  63  80
ENDBRANCH  37  38
ENDBRANCH  29  32
ENDBRANCH  27  28
ENDBRANCH   1  27
TORSDOF 13
