REMARK SMILES C=C(C)COc1ccc2c(C)c(CC(=O)NCCCCNC(=O)c3ccc(-c4c5nc(c(-c6c(F)cccc6F)c6ccc([nH]6)c(-c6c(F)cccc6F)c6nc(c(-c7c(F)cccc7F)c7ccc4[nH]7)C=C6)C=C5)cc3)c(=O)oc2c1
REMARK SMILES IDX 17 1 16 2 14 3 15 4 13 6 12 7 6 8 7 9 82 10 8 11 81 12 9 13
REMARK SMILES IDX 80 14 10 15 78 16 11 17 79 18 5 19 4 20 2 21 1 22 3 23 18 24
REMARK SMILES IDX 19 25 20 26 21 27 22 28 23 30 24 31 25 32 77 33 26 34 76 35
REMARK SMILES IDX 27 36 28 37 29 38 70 39 30 40 75 41 69 42 71 43 31 44 74 45
REMARK SMILES IDX 68 46 67 47 32 49 58 50 41 51 57 52 42 53 45 54 56 55 72 56
REMARK SMILES IDX 43 57 44 58 55 60 73 61 46 62 33 63 34 64 39 65 35 66 36 67
REMARK SMILES IDX 38 68 40 69 37 70 59 71 60 72 65 73 61 74 62 75 64 76 66 77
REMARK SMILES IDX 63 78 47 79 48 80 53 81 49 82 50 83 52 84 54 85 51 86
REMARK H PARENT 16 5 21 29 71 48 45 59
REMARK Flexibility Score: inf
ROOT
ATOM      1  C   UNL     1      -0.681  -3.628   7.105  1.00  0.00     0.116 C 
ENDROOT
BRANCH   1   2
ATOM      2  N   UNL     1      -0.655  -2.975   8.399  1.00  0.00    -0.356 N 
ATOM      3  C   UNL     1      -1.314  -1.863   8.832  1.00  0.00     0.224 C 
ATOM      4  O   UNL     1      -1.110  -1.488   9.989  1.00  0.00    -0.275 OA
ATOM      5  H   UNL     1      -0.072  -3.401   9.068  1.00  0.00     0.163 HD
BRANCH   3   6
ATOM      6  C   UNL     1      -2.294  -1.124   7.927  1.00  0.00     0.143 C 
BRANCH   6   7
ATOM      7  C   UNL     1      -1.617  -0.477   6.742  1.00  0.00     0.051 A 
ATOM      8  C   UNL     1       1.325   1.436   3.112  1.00  0.00     0.123 A 
ATOM      9  C   UNL     1       1.671   2.139   4.262  1.00  0.00     0.047 A 
ATOM     10  C   UNL     1       0.378   0.426   3.190  1.00  0.00     0.094 A 
ATOM     11  C   UNL     1       1.027   1.860   5.480  1.00  0.00     0.016 A 
ATOM     12  C   UNL     1      -0.279   0.192   4.392  1.00  0.00     0.142 A 
ATOM     13  C   UNL     1       0.025   0.880   5.561  1.00  0.00     0.021 A 
ATOM     14  O   UNL     1      -1.287  -0.775   4.337  1.00  0.00    -0.422 OA
ATOM     15  C   UNL     1      -0.663   0.480   6.804  1.00  0.00    -0.029 A 
ATOM     16  C   UNL     1      -2.086  -1.008   5.432  1.00  0.00     0.340 A 
ATOM     17  C   UNL     1      -0.216   1.131   8.088  1.00  0.00     0.046 C 
ATOM     18  O   UNL     1      -3.100  -1.692   5.331  1.00  0.00    -0.246 OA
BRANCH   8  19
ATOM     19  O   UNL     1       1.981   1.715   1.944  1.00  0.00    -0.489 OA
BRANCH  19  20
ATOM     20  C   UNL     1       1.098   2.202   0.914  1.00  0.00     0.260 C 
BRANCH  20  21
ATOM     21  C   UNL     1       0.437   1.088   0.127  1.00  0.00    -0.043 C 
ATOM     22  C   UNL     1       1.125   0.043  -0.365  1.00  0.00     0.011 C 
ATOM     23  C   UNL     1      -1.059   1.177  -0.003  1.00  0.00     0.042 C 
ENDBRANCH  20  21
ENDBRANCH  19  20
ENDBRANCH   8  19
ENDBRANCH   6   7
ENDBRANCH   3   6
ENDBRANCH   1   2
BRANCH   1  24
ATOM     24  C   UNL     1       0.582  -3.330   6.294  1.00  0.00     0.023 C 
BRANCH  24  25
ATOM     25  C   UNL     1       1.866  -3.937   6.868  1.00  0.00     0.023 C 
BRANCH  25  26
ATOM     26  C   UNL     1       1.834  -5.446   7.084  1.00  0.00     0.116 C 
BRANCH  26  27
ATOM     27  N   UNL     1       1.558  -6.192   5.867  1.00  0.00    -0.352 N 
ATOM     28  C   UNL     1       2.126  -7.358   5.418  1.00  0.00     0.251 C 
ATOM     29  H   UNL     1       0.867  -5.806   5.282  1.00  0.00     0.163 HD
ATOM     30  O   UNL     1       1.857  -7.781   4.296  1.00  0.00    -0.269 OA
BRANCH  28  31
ATOM     31  C   UNL     1       3.092  -8.088   6.267  1.00  0.00     0.039 A 
ATOM     32  C   UNL     1       4.265  -8.570   5.682  1.00  0.00     0.014 A 
ATOM     33  C   UNL     1       2.853  -8.292   7.629  1.00  0.00     0.014 A 
ATOM     34  C   UNL     1       5.227  -9.198   6.476  1.00  0.00     0.010 A 
ATOM     35  C   UNL     1       3.846  -8.848   8.432  1.00  0.00     0.010 A 
ATOM     36  C   UNL     1       5.043  -9.307   7.864  1.00  0.00    -0.014 A 
BRANCH  36  37
ATOM     37  C   UNL     1       6.108  -9.880   8.728  1.00  0.00     0.031 A 
ATOM     38  C   UNL     1       5.869 -11.143   9.507  1.00  0.00     0.074 A 
ATOM     39  C   UNL     1       7.282  -9.229   8.848  1.00  0.00     0.049 A 
ATOM     40  N   UNL     1       6.678 -11.781  10.315  1.00  0.00    -0.248 NA
ATOM     41  C   UNL     1       4.539 -11.759   9.382  1.00  0.00     0.031 C 
ATOM     42  C   UNL     1       7.616  -7.961   8.195  1.00  0.00     0.029 A 
ATOM     43  N   UNL     1       8.411  -9.541   9.562  1.00  0.00    -0.354 N 
ATOM     44  C   UNL     1       5.954 -12.863  10.800  1.00  0.00     0.074 A 
ATOM     45  C   UNL     1       4.623 -12.764  10.241  1.00  0.00     0.031 C 
ATOM     46  C   UNL     1       8.874  -7.620   8.515  1.00  0.00     0.029 A 
ATOM     47  C   UNL     1       9.423  -8.622   9.422  1.00  0.00     0.049 A 
ATOM     48  H   UNL     1       8.489 -10.346  10.123  1.00  0.00     0.167 HD
ATOM     49  C   UNL     1       6.368 -13.861  11.617  1.00  0.00     0.037 A 
ATOM     50  C   UNL     1      10.655  -8.588   9.965  1.00  0.00     0.037 A 
ATOM     51  C   UNL     1       7.698 -13.965  12.159  1.00  0.00     0.049 A 
ATOM     52  C   UNL     1      11.091  -9.709  10.867  1.00  0.00     0.074 A 
ATOM     53  C   UNL     1       8.234 -14.975  12.941  1.00  0.00     0.029 A 
ATOM     54  N   UNL     1       8.700 -13.021  11.986  1.00  0.00    -0.354 N 
ATOM     55  N   UNL     1      10.424 -10.772  11.246  1.00  0.00    -0.248 NA
ATOM     56  C   UNL     1      12.454  -9.629  11.409  1.00  0.00     0.031 C 
ATOM     57  C   UNL     1       9.541 -14.614  13.286  1.00  0.00     0.029 A 
ATOM     58  C   UNL     1       9.841 -13.410  12.670  1.00  0.00     0.049 A 
ATOM     59  H   UNL     1       8.613 -12.197  11.454  1.00  0.00     0.167 HD
ATOM     60  C   UNL     1      11.293 -11.499  12.050  1.00  0.00     0.074 A 
ATOM     61  C   UNL     1      12.541 -10.766  12.084  1.00  0.00     0.031 C 
ATOM     62  C   UNL     1      11.076 -12.668  12.702  1.00  0.00     0.037 A 
BRANCH  49  63
ATOM     63  C   UNL     1       5.367 -14.923  11.977  1.00  0.00     0.057 A 
ATOM     64  C   UNL     1       4.893 -15.845  11.033  1.00  0.00     0.134 A 
ATOM     65  C   UNL     1       4.897 -15.048  13.290  1.00  0.00     0.134 A 
ATOM     66  F   UNL     1       5.293 -15.777   9.755  1.00  0.00    -0.206 F 
ATOM     67  C   UNL     1       3.967 -16.832  11.377  1.00  0.00     0.040 A 
ATOM     68  C   UNL     1       3.995 -16.049  13.652  1.00  0.00     0.040 A 
ATOM     69  F   UNL     1       5.314 -14.204  14.247  1.00  0.00    -0.206 F 
ATOM     70  C   UNL     1       3.521 -16.941  12.692  1.00  0.00     0.006 A 
ENDBRANCH  49  63
BRANCH  50  71
ATOM     71  C   UNL     1      11.572  -7.462   9.653  1.00  0.00     0.057 A 
ATOM     72  C   UNL     1      12.720  -7.656   8.875  1.00  0.00     0.134 A 
ATOM     73  C   UNL     1      11.328  -6.168  10.128  1.00  0.00     0.134 A 
ATOM     74  F   UNL     1      13.018  -8.877   8.405  1.00  0.00    -0.206 F 
ATOM     75  C   UNL     1      13.602  -6.611   8.598  1.00  0.00     0.040 A 
ATOM     76  C   UNL     1      12.186  -5.107   9.835  1.00  0.00     0.040 A 
ATOM     77  F   UNL     1      10.241  -5.914  10.872  1.00  0.00    -0.206 F 
ATOM     78  C   UNL     1      13.332  -5.329   9.075  1.00  0.00     0.006 A 
ENDBRANCH  50  71
BRANCH  62  79
ATOM     79  C   UNL     1      12.223 -13.237  13.488  1.00  0.00     0.057 A 
ATOM     80  C   UNL     1      12.681 -12.640  14.670  1.00  0.00     0.134 A 
ATOM     81  C   UNL     1      12.866 -14.408  13.066  1.00  0.00     0.134 A 
ATOM     82  F   UNL     1      12.118 -11.510  15.124  1.00  0.00    -0.206 F 
ATOM     83  C   UNL     1      13.756 -13.170  15.386  1.00  0.00     0.040 A 
ATOM     84  C   UNL     1      13.921 -14.964  13.790  1.00  0.00     0.040 A 
ATOM     85  F   UNL     1      12.472 -15.037  11.947  1.00  0.00    -0.206 F 
ATOM     86  C   UNL     1      14.375 -14.339  14.949  1.00  0.00     0.006 A 
ENDBRANCH  62  79
ENDBRANCH  36  37
ENDBRANCH  28  31
ENDBRANCH  26  27
ENDBRANCH  25  26
ENDBRANCH  24  25
ENDBRANCH   1  24
TORSDOF 15
