REMARK SMILES CN(C)c1ccc(CCC(=O)N2C[C@@H](C(=O)NCCCCNC(=O)c3ccc(-c4c5nc(c(-c6c(F)cccc6F)c6ccc([nH]6)c(-c6c(F)cccc6F)c6nc(c(-c7c(F)cccc7F)c7ccc4[nH]7)C=C6)C=C5)cc3)[C@H](c3cccnc3)C2)cc1
REMARK SMILES IDX 18 1 17 2 15 3 16 4 14 6 12 7 13 8 86 9 79 10 10 11 11 12
REMARK SMILES IDX 9 13 8 14 7 15 4 16 5 17 88 18 6 19 87 20 2 21 1 22 3 23
REMARK SMILES IDX 80 24 81 25 85 26 82 27 84 28 83 29 19 30 20 31 21 32 22 33
REMARK SMILES IDX 23 34 24 36 25 37 26 38 78 39 27 40 77 41 28 42 29 43 30 44
REMARK SMILES IDX 71 45 31 46 76 47 70 48 72 49 32 50 75 51 69 52 68 53 33 55
REMARK SMILES IDX 59 56 42 57 58 58 43 59 46 60 57 61 73 62 44 63 45 64 56 66
REMARK SMILES IDX 74 67 47 68 34 69 35 70 40 71 36 72 37 73 39 74 41 75 38 76
REMARK SMILES IDX 60 77 61 78 66 79 62 80 63 81 65 82 67 83 64 84 48 85 49 86
REMARK SMILES IDX 54 87 50 88 51 89 53 90 55 91 52 92
REMARK H PARENT 17 5 22 35 72 54 46 65
REMARK Flexibility Score: inf
ROOT
ATOM      1  C   UNL     1      -2.820   0.506   3.653  1.00  0.00     0.116 C 
ENDROOT
BRANCH   1   2
ATOM      2  N   UNL     1      -1.733   1.060   2.871  1.00  0.00    -0.356 N 
ATOM      3  C   UNL     1      -0.826   2.035   3.126  1.00  0.00     0.225 C 
ATOM      4  O   UNL     1      -0.246   2.562   2.172  1.00  0.00    -0.275 OA
ATOM      5  H   UNL     1      -1.633   0.647   1.983  1.00  0.00     0.163 HD
BRANCH   3   6
ATOM      6  C   UNL     1      -0.470   2.470   4.517  1.00  0.00     0.107 C 
ATOM      7  N   UNL     1      -0.096   1.555   6.626  1.00  0.00    -0.341 N 
ATOM      8  C   UNL     1       0.078   1.300   5.245  1.00  0.00     0.133 C 
ATOM      9  C   UNL     1      -1.124   2.586   6.839  1.00  0.00     0.128 C 
ATOM     10  C   UNL     1      -1.541   3.096   5.417  1.00  0.00     0.054 C 
BRANCH   7  11
ATOM     11  C   UNL     1       0.496   0.734   7.564  1.00  0.00     0.222 C 
ATOM     12  O   UNL     1       0.084   0.675   8.722  1.00  0.00    -0.275 OA
BRANCH  11  13
ATOM     13  C   UNL     1       1.797  -0.009   7.135  1.00  0.00     0.105 C 
BRANCH  13  14
ATOM     14  C   UNL     1       1.754  -1.303   6.277  1.00  0.00     0.045 C 
BRANCH  14  15
ATOM     15  C   UNL     1       1.605  -1.219   4.759  1.00  0.00    -0.047 A 
ATOM     16  C   UNL     1       1.101  -0.814   1.955  1.00  0.00     0.036 A 
ATOM     17  C   UNL     1       0.248  -1.589   2.750  1.00  0.00     0.026 A 
ATOM     18  C   UNL     1       2.253  -0.309   2.573  1.00  0.00     0.026 A 
ATOM     19  C   UNL     1       0.494  -1.795   4.123  1.00  0.00     0.006 A 
ATOM     20  C   UNL     1       2.518  -0.527   3.945  1.00  0.00     0.006 A 
BRANCH  16  21
ATOM     21  N   UNL     1       0.812  -0.628   0.597  1.00  0.00    -0.378 N 
ATOM     22  C   UNL     1       1.656  -1.401  -0.307  1.00  0.00     0.143 C 
ATOM     23  C   UNL     1       0.511   0.724   0.121  1.00  0.00     0.143 C 
ENDBRANCH  16  21
ENDBRANCH  14  15
ENDBRANCH  13  14
ENDBRANCH  11  13
ENDBRANCH   7  11
BRANCH  10  24
ATOM     24  C   UNL     1      -1.533   4.565   5.020  1.00  0.00    -0.024 A 
ATOM     25  C   UNL     1      -1.873   4.892   3.689  1.00  0.00     0.007 A 
ATOM     26  C   UNL     1      -0.984   5.584   5.782  1.00  0.00     0.115 A 
ATOM     27  C   UNL     1      -1.517   6.117   3.144  1.00  0.00     0.020 A 
ATOM     28  N   UNL     1      -0.684   6.812   5.293  1.00  0.00    -0.264 NA
ATOM     29  C   UNL     1      -0.917   7.035   3.979  1.00  0.00     0.111 A 
ENDBRANCH  10  24
ENDBRANCH   3   6
ENDBRANCH   1   2
BRANCH   1  30
ATOM     30  C   UNL     1      -4.143   1.048   3.114  1.00  0.00     0.023 C 
BRANCH  30  31
ATOM     31  C   UNL     1      -4.488   0.551   1.702  1.00  0.00     0.023 C 
BRANCH  31  32
ATOM     32  C   UNL     1      -4.685  -0.959   1.577  1.00  0.00     0.116 C 
BRANCH  32  33
ATOM     33  N   UNL     1      -5.731  -1.455   2.457  1.00  0.00    -0.352 N 
ATOM     34  C   UNL     1      -6.876  -2.158   2.172  1.00  0.00     0.251 C 
ATOM     35  H   UNL     1      -5.597  -1.254   3.412  1.00  0.00     0.163 HD
ATOM     36  O   UNL     1      -7.717  -2.321   3.047  1.00  0.00    -0.269 OA
BRANCH  34  37
ATOM     37  C   UNL     1      -7.112  -2.699   0.816  1.00  0.00     0.039 A 
ATOM     38  C   UNL     1      -8.397  -2.601   0.272  1.00  0.00     0.014 A 
ATOM     39  C   UNL     1      -6.095  -3.325   0.092  1.00  0.00     0.014 A 
ATOM     40  C   UNL     1      -8.643  -3.070  -1.020  1.00  0.00     0.010 A 
ATOM     41  C   UNL     1      -6.323  -3.726  -1.224  1.00  0.00     0.010 A 
ATOM     42  C   UNL     1      -7.599  -3.600  -1.796  1.00  0.00    -0.014 A 
BRANCH  42  43
ATOM     43  C   UNL     1      -7.821  -4.009  -3.208  1.00  0.00     0.031 A 
ATOM     44  C   UNL     1      -7.640  -5.442  -3.627  1.00  0.00     0.074 A 
ATOM     45  C   UNL     1      -8.126  -3.074  -4.129  1.00  0.00     0.049 A 
ATOM     46  N   UNL     1      -7.724  -5.970  -4.822  1.00  0.00    -0.248 NA
ATOM     47  C   UNL     1      -7.297  -6.404  -2.569  1.00  0.00     0.031 C 
ATOM     48  C   UNL     1      -8.288  -1.643  -3.861  1.00  0.00     0.029 A 
ATOM     49  N   UNL     1      -8.342  -3.184  -5.480  1.00  0.00    -0.354 N 
ATOM     50  C   UNL     1      -7.433  -7.319  -4.662  1.00  0.00     0.074 A 
ATOM     51  C   UNL     1      -7.119  -7.518  -3.263  1.00  0.00     0.031 C 
ATOM     52  C   UNL     1      -8.598  -1.014  -5.005  1.00  0.00     0.029 A 
ATOM     53  C   UNL     1      -8.614  -1.985  -6.095  1.00  0.00     0.049 A 
ATOM     54  H   UNL     1      -8.306  -4.041  -5.964  1.00  0.00     0.167 HD
ATOM     55  C   UNL     1      -7.447  -8.306  -5.590  1.00  0.00     0.037 A 
ATOM     56  C   UNL     1      -8.837  -1.696  -7.391  1.00  0.00     0.037 A 
ATOM     57  C   UNL     1      -7.774  -8.108  -6.979  1.00  0.00     0.049 A 
ATOM     58  C   UNL     1      -8.824  -2.806  -8.406  1.00  0.00     0.074 A 
ATOM     59  C   UNL     1      -7.871  -9.056  -7.984  1.00  0.00     0.029 A 
ATOM     60  N   UNL     1      -8.052  -6.880  -7.561  1.00  0.00    -0.354 N 
ATOM     61  N   UNL     1      -8.615  -4.088  -8.227  1.00  0.00    -0.248 NA
ATOM     62  C   UNL     1      -9.084  -2.429  -9.802  1.00  0.00     0.031 C 
ATOM     63  C   UNL     1      -8.151  -8.394  -9.184  1.00  0.00     0.029 A 
ATOM     64  C   UNL     1      -8.291  -7.042  -8.916  1.00  0.00     0.049 A 
ATOM     65  H   UNL     1      -8.076  -6.021  -7.082  1.00  0.00     0.167 HD
ATOM     66  C   UNL     1      -8.749  -4.673  -9.480  1.00  0.00     0.074 A 
ATOM     67  C   UNL     1      -9.071  -3.609 -10.407  1.00  0.00     0.031 C 
ATOM     68  C   UNL     1      -8.617  -5.976  -9.830  1.00  0.00     0.037 A 
BRANCH  55  69
ATOM     69  C   UNL     1      -7.092  -9.693  -5.135  1.00  0.00     0.057 A 
ATOM     70  C   UNL     1      -7.933 -10.435  -4.295  1.00  0.00     0.134 A 
ATOM     71  C   UNL     1      -5.915 -10.312  -5.577  1.00  0.00     0.134 A 
ATOM     72  F   UNL     1      -9.071  -9.900  -3.827  1.00  0.00    -0.206 F 
ATOM     73  C   UNL     1      -7.603 -11.729  -3.887  1.00  0.00     0.040 A 
ATOM     74  C   UNL     1      -5.589 -11.616  -5.201  1.00  0.00     0.040 A 
ATOM     75  F   UNL     1      -5.068  -9.664  -6.391  1.00  0.00    -0.206 F 
ATOM     76  C   UNL     1      -6.431 -12.326  -4.347  1.00  0.00     0.006 A 
ENDBRANCH  55  69
BRANCH  56  77
ATOM     77  C   UNL     1      -9.104  -0.294  -7.806  1.00  0.00     0.057 A 
ATOM     78  C   UNL     1     -10.365   0.094  -8.272  1.00  0.00     0.134 A 
ATOM     79  C   UNL     1      -8.105   0.686  -7.758  1.00  0.00     0.134 A 
ATOM     80  F   UNL     1     -11.358  -0.804  -8.360  1.00  0.00    -0.206 F 
ATOM     81  C   UNL     1     -10.618   1.399  -8.699  1.00  0.00     0.040 A 
ATOM     82  C   UNL     1      -8.352   2.001  -8.154  1.00  0.00     0.040 A 
ATOM     83  F   UNL     1      -6.877   0.381  -7.313  1.00  0.00    -0.206 F 
ATOM     84  C   UNL     1      -9.610   2.358  -8.635  1.00  0.00     0.006 A 
ENDBRANCH  56  77
BRANCH  68  85
ATOM     85  C   UNL     1      -8.859  -6.332 -11.269  1.00  0.00     0.057 A 
ATOM     86  C   UNL     1      -7.967  -5.969 -12.286  1.00  0.00     0.134 A 
ATOM     87  C   UNL     1      -9.985  -7.082 -11.636  1.00  0.00     0.134 A 
ATOM     88  F   UNL     1      -6.876  -5.239 -12.005  1.00  0.00    -0.206 F 
ATOM     89  C   UNL     1      -8.198  -6.316 -13.618  1.00  0.00     0.040 A 
ATOM     90  C   UNL     1     -10.211  -7.461 -12.960  1.00  0.00     0.040 A 
ATOM     91  F   UNL     1     -10.876  -7.471 -10.712  1.00  0.00    -0.206 F 
ATOM     92  C   UNL     1      -9.319  -7.072 -13.957  1.00  0.00     0.006 A 
ENDBRANCH  68  85
ENDBRANCH  42  43
ENDBRANCH  34  37
ENDBRANCH  32  33
ENDBRANCH  31  32
ENDBRANCH  30  31
ENDBRANCH   1  30
TORSDOF 17
