REMARK SMILES COC(=O)CNC(=O)N1[C@@H](C(=O)NCCCCNC(=O)c2ccc(-c3c4nc(c(-c5c(F)cccc5F)c5ccc([nH]5)c(-c5c(F)cccc5F)c5nc(c(-c6c(F)cccc6F)c6ccc3[nH]6)C=C5)C=C4)cc2)CC[C@@H]2CCCC[C@H]21
REMARK SMILES IDX 14 1 13 2 11 3 12 4 10 6 9 7 82 8 75 9 77 10 81 11 76 12
REMARK SMILES IDX 78 13 80 14 79 15 7 16 6 17 8 19 5 20 3 21 4 22 2 23 1 24
REMARK SMILES IDX 15 25 16 26 17 27 18 28 19 29 20 31 21 32 22 33 74 34 23 35
REMARK SMILES IDX 73 36 24 37 25 38 26 39 67 40 27 41 72 42 66 43 68 44 28 45
REMARK SMILES IDX 71 46 65 47 64 48 29 50 55 51 38 52 54 53 39 54 42 55 53 56
REMARK SMILES IDX 69 57 40 58 41 59 52 61 70 62 43 63 30 64 31 65 36 66 32 67
REMARK SMILES IDX 33 68 35 69 37 70 34 71 56 72 57 73 62 74 58 75 59 76 61 77
REMARK SMILES IDX 63 78 60 79 44 80 45 81 50 82 46 83 47 84 49 85 51 86 48 87
REMARK H PARENT 13 5 6 18 18 30 68 49 42 60
REMARK Flexibility Score: inf
ROOT
ATOM      1  C   UNL     1      -0.720  -6.451  -3.945  1.00  0.00     0.116 C 
ENDROOT
BRANCH   1   2
ATOM      2  N   UNL     1      -0.740  -5.133  -4.549  1.00  0.00    -0.354 N 
ATOM      3  C   UNL     1      -1.442  -4.025  -4.188  1.00  0.00     0.242 C 
ATOM      4  O   UNL     1      -1.456  -3.077  -4.982  1.00  0.00    -0.273 OA
ATOM      5  H   UNL     1      -0.160  -5.023  -5.337  1.00  0.00     0.163 HD
BRANCH   3   6
ATOM      6  C   UNL     1      -2.296  -3.975  -2.898  1.00  0.00     0.176 C 
ATOM      7  N   UNL     1      -1.634  -4.451  -1.657  1.00  0.00    -0.310 N 
ATOM      8  C   UNL     1      -2.541  -4.720  -0.502  1.00  0.00     0.091 C 
ATOM      9  C   UNL     1      -3.580  -4.760  -3.248  1.00  0.00     0.036 C 
ATOM     10  C   UNL     1      -3.716  -5.638  -0.908  1.00  0.00     0.012 C 
ATOM     11  C   UNL     1      -1.883  -5.239   0.796  1.00  0.00     0.025 C 
ATOM     12  C   UNL     1      -4.492  -5.005  -2.064  1.00  0.00     0.008 C 
ATOM     13  C   UNL     1      -4.688  -5.913   0.251  1.00  0.00     0.006 C 
ATOM     14  C   UNL     1      -2.889  -5.444   1.924  1.00  0.00     0.002 C 
ATOM     15  C   UNL     1      -3.982  -6.413   1.503  1.00  0.00     0.000 C 
BRANCH   7  16
ATOM     16  C   UNL     1      -0.279  -4.399  -1.443  1.00  0.00     0.318 C 
ATOM     17  N   UNL     1       0.517  -3.474  -2.000  1.00  0.00    -0.327 N 
ATOM     18  H   UNL     1       1.464  -3.743  -1.992  1.00  0.00     0.166 HD
ATOM     19  O   UNL     1       0.311  -5.243  -0.765  1.00  0.00    -0.249 OA
BRANCH  17  20
ATOM     20  C   UNL     1       0.318  -2.166  -2.615  1.00  0.00     0.240 C 
BRANCH  20  21
ATOM     21  C   UNL     1       0.902  -0.997  -1.832  1.00  0.00     0.325 C 
ATOM     22  O   UNL     1       1.218   0.067  -2.352  1.00  0.00    -0.250 OA
BRANCH  21  23
ATOM     23  O   UNL     1       0.866  -1.221  -0.489  1.00  0.00    -0.468 OA
ATOM     24  C   UNL     1       1.170  -0.069   0.300  1.00  0.00     0.282 C 
ENDBRANCH  21  23
ENDBRANCH  20  21
ENDBRANCH  17  20
ENDBRANCH   7  16
ENDBRANCH   3   6
ENDBRANCH   1   2
BRANCH   1  25
ATOM     25  C   UNL     1      -1.214  -7.498  -4.940  1.00  0.00     0.023 C 
BRANCH  25  26
ATOM     26  C   UNL     1      -0.305  -7.685  -6.156  1.00  0.00     0.023 C 
BRANCH  26  27
ATOM     27  C   UNL     1       1.139  -8.038  -5.819  1.00  0.00     0.116 C 
BRANCH  27  28
ATOM     28  N   UNL     1       1.247  -9.264  -5.043  1.00  0.00    -0.352 N 
ATOM     29  C   UNL     1       2.081 -10.335  -5.245  1.00  0.00     0.251 C 
ATOM     30  H   UNL     1       0.641  -9.335  -4.271  1.00  0.00     0.163 HD
ATOM     31  O   UNL     1       1.940 -11.370  -4.602  1.00  0.00    -0.269 OA
BRANCH  29  32
ATOM     32  C   UNL     1       3.136 -10.237  -6.272  1.00  0.00     0.039 A 
ATOM     33  C   UNL     1       3.267 -11.264  -7.209  1.00  0.00     0.014 A 
ATOM     34  C   UNL     1       3.965  -9.113  -6.328  1.00  0.00     0.014 A 
ATOM     35  C   UNL     1       4.190 -11.132  -8.246  1.00  0.00     0.010 A 
ATOM     36  C   UNL     1       4.829  -8.950  -7.404  1.00  0.00     0.010 A 
ATOM     37  C   UNL     1       4.951  -9.958  -8.373  1.00  0.00    -0.014 A 
BRANCH  37  38
ATOM     38  C   UNL     1       5.881  -9.763  -9.512  1.00  0.00     0.031 A 
ATOM     39  C   UNL     1       7.357  -9.633  -9.263  1.00  0.00     0.074 A 
ATOM     40  C   UNL     1       5.390  -9.633 -10.759  1.00  0.00     0.049 A 
ATOM     41  N   UNL     1       8.320  -9.384 -10.113  1.00  0.00    -0.248 NA
ATOM     42  C   UNL     1       7.808  -9.774  -7.869  1.00  0.00     0.031 C 
ATOM     43  C   UNL     1       3.972  -9.691 -11.122  1.00  0.00     0.029 A 
ATOM     44  N   UNL     1       6.029  -9.413 -11.953  1.00  0.00    -0.354 N 
ATOM     45  C   UNL     1       9.484  -9.323  -9.358  1.00  0.00     0.074 A 
ATOM     46  C   UNL     1       9.101  -9.507  -7.975  1.00  0.00     0.031 C 
ATOM     47  C   UNL     1       3.852  -9.533 -12.450  1.00  0.00     0.029 A 
ATOM     48  C   UNL     1       5.177  -9.325 -13.027  1.00  0.00     0.049 A 
ATOM     49  H   UNL     1       7.007  -9.327 -12.033  1.00  0.00     0.167 HD
ATOM     50  C   UNL     1      10.758  -9.153  -9.780  1.00  0.00     0.037 A 
ATOM     51  C   UNL     1       5.434  -9.095 -14.328  1.00  0.00     0.037 A 
ATOM     52  C   UNL     1      11.138  -8.996 -11.160  1.00  0.00     0.049 A 
ATOM     53  C   UNL     1       6.858  -8.905 -14.771  1.00  0.00     0.074 A 
ATOM     54  C   UNL     1      12.408  -8.879 -11.696  1.00  0.00     0.029 A 
ATOM     55  N   UNL     1      10.247  -8.932 -12.220  1.00  0.00    -0.354 N 
ATOM     56  N   UNL     1       7.956  -8.919 -14.055  1.00  0.00    -0.248 NA
ATOM     57  C   UNL     1       7.080  -8.672 -16.206  1.00  0.00     0.031 C 
ATOM     58  C   UNL     1      12.284  -8.701 -13.078  1.00  0.00     0.029 A 
ATOM     59  C   UNL     1      10.939  -8.756 -13.408  1.00  0.00     0.049 A 
ATOM     60  H   UNL     1       9.268  -9.001 -12.142  1.00  0.00     0.167 HD
ATOM     61  C   UNL     1       8.999  -8.726 -14.952  1.00  0.00     0.074 A 
ATOM     62  C   UNL     1       8.402  -8.611 -16.267  1.00  0.00     0.031 C 
ATOM     63  C   UNL     1      10.330  -8.652 -14.709  1.00  0.00     0.037 A 
BRANCH  50  64
ATOM     64  C   UNL     1      11.836  -9.133  -8.736  1.00  0.00     0.057 A 
ATOM     65  C   UNL     1      12.203 -10.288  -8.032  1.00  0.00     0.134 A 
ATOM     66  C   UNL     1      12.536  -7.954  -8.452  1.00  0.00     0.134 A 
ATOM     67  F   UNL     1      11.564 -11.448  -8.247  1.00  0.00    -0.206 F 
ATOM     68  C   UNL     1      13.208 -10.265  -7.063  1.00  0.00     0.040 A 
ATOM     69  C   UNL     1      13.562  -7.925  -7.505  1.00  0.00     0.040 A 
ATOM     70  F   UNL     1      12.240  -6.814  -9.093  1.00  0.00    -0.206 F 
ATOM     71  C   UNL     1      13.896  -9.081  -6.803  1.00  0.00     0.006 A 
ENDBRANCH  50  64
BRANCH  51  72
ATOM     72  C   UNL     1       4.322  -9.054 -15.310  1.00  0.00     0.057 A 
ATOM     73  C   UNL     1       4.162 -10.070 -16.260  1.00  0.00     0.134 A 
ATOM     74  C   UNL     1       3.402  -8.000 -15.332  1.00  0.00     0.134 A 
ATOM     75  F   UNL     1       5.023 -11.097 -16.301  1.00  0.00    -0.206 F 
ATOM     76  C   UNL     1       3.138 -10.030 -17.208  1.00  0.00     0.040 A 
ATOM     77  C   UNL     1       2.358  -7.960 -16.258  1.00  0.00     0.040 A 
ATOM     78  F   UNL     1       3.496  -7.000 -14.443  1.00  0.00    -0.206 F 
ATOM     79  C   UNL     1       2.229  -8.974 -17.205  1.00  0.00     0.006 A 
ENDBRANCH  51  72
BRANCH  63  80
ATOM     80  C   UNL     1      11.235  -8.473 -15.892  1.00  0.00     0.057 A 
ATOM     81  C   UNL     1      11.322  -7.257 -16.580  1.00  0.00     0.134 A 
ATOM     82  C   UNL     1      12.062  -9.520 -16.320  1.00  0.00     0.134 A 
ATOM     83  F   UNL     1      10.548  -6.219 -16.229  1.00  0.00    -0.206 F 
ATOM     84  C   UNL     1      12.185  -7.095 -17.666  1.00  0.00     0.040 A 
ATOM     85  C   UNL     1      12.947  -9.362 -17.386  1.00  0.00     0.040 A 
ATOM     86  F   UNL     1      12.033 -10.709 -15.697  1.00  0.00    -0.206 F 
ATOM     87  C   UNL     1      13.006  -8.147 -18.066  1.00  0.00     0.006 A 
ENDBRANCH  63  80
ENDBRANCH  37  38
ENDBRANCH  29  32
ENDBRANCH  27  28
ENDBRANCH  26  27
ENDBRANCH  25  26
ENDBRANCH   1  25
TORSDOF 15
