REMARK SMILES C[C@@H](C(=O)NCCCCNC(=O)c1ccc(-c2c3nc(c(-c4c(F)cccc4F)c4ccc([nH]4)c(-c4c(F)cccc4F)c4nc(c(-c5c(F)cccc5F)c5ccc2[nH]5)C=C4)C=C3)cc1)c1ccc(C(=O)c2cccs2)cc1
REMARK SMILES IDX 7 1 6 2 5 3 3 4 4 5 2 7 1 8 67 9 68 10 79 11 69 12 78 13
REMARK SMILES IDX 70 14 71 15 72 16 73 17 74 18 77 19 75 20 76 21 8 22 9 23
REMARK SMILES IDX 10 24 11 25 12 27 13 28 14 29 66 30 15 31 65 32 16 33 17 34
REMARK SMILES IDX 18 35 59 36 19 37 64 38 58 39 60 40 20 41 63 42 57 43 56 44
REMARK SMILES IDX 21 46 47 47 30 48 46 49 31 50 34 51 45 52 61 53 32 54 33 55
REMARK SMILES IDX 44 57 62 58 35 59 22 60 23 61 28 62 24 63 25 64 27 65 29 66
REMARK SMILES IDX 26 67 48 68 49 69 54 70 50 71 51 72 53 73 55 74 52 75 36 76
REMARK SMILES IDX 37 77 42 78 38 79 39 80 41 81 43 82 40 83
REMARK H PARENT 5 6 10 26 60 45 34 56
REMARK Flexibility Score: inf
ROOT
ATOM      1  C   UNL     1       4.276   0.309   1.130  1.00  0.00     0.023 C 
ENDROOT
BRANCH   1   2
ATOM      2  C   UNL     1       3.494  -0.960   1.473  1.00  0.00     0.116 C 
BRANCH   2   3
ATOM      3  N   UNL     1       2.453  -0.675   2.436  1.00  0.00    -0.356 N 
ATOM      4  C   UNL     1       1.116  -0.478   2.248  1.00  0.00     0.227 C 
ATOM      5  O   UNL     1       0.472  -0.108   3.232  1.00  0.00    -0.274 OA
ATOM      6  H   UNL     1       2.755  -0.614   3.370  1.00  0.00     0.163 HD
BRANCH   4   7
ATOM      7  C   UNL     1       0.478  -0.764   0.877  1.00  0.00     0.105 C 
ATOM      8  C   UNL     1       0.888   0.247  -0.199  1.00  0.00     0.023 C 
BRANCH   7   9
ATOM      9  C   UNL     1      -1.043  -0.840   0.975  1.00  0.00    -0.036 A 
ATOM     10  C   UNL     1      -1.818   0.320   1.125  1.00  0.00     0.005 A 
ATOM     11  C   UNL     1      -1.693  -2.080   0.938  1.00  0.00     0.005 A 
ATOM     12  C   UNL     1      -3.208   0.244   1.214  1.00  0.00     0.012 A 
ATOM     13  C   UNL     1      -3.088  -2.158   1.020  1.00  0.00     0.012 A 
ATOM     14  C   UNL     1      -3.859  -0.995   1.161  1.00  0.00     0.023 A 
BRANCH  14  15
ATOM     15  C   UNL     1      -5.357  -1.005   1.209  1.00  0.00     0.202 C 
ATOM     16  O   UNL     1      -5.947   0.075   1.234  1.00  0.00    -0.288 OA
BRANCH  15  17
ATOM     17  C   UNL     1      -6.060  -2.272   1.187  1.00  0.00     0.075 A 
ATOM     18  C   UNL     1      -6.021  -3.318   2.089  1.00  0.00     0.024 A 
ATOM     19  S   UNL     1      -7.136  -2.587  -0.106  1.00  0.00    -0.140 S 
ATOM     20  C   UNL     1      -6.850  -4.405   1.684  1.00  0.00     0.012 A 
ATOM     21  C   UNL     1      -7.506  -4.141   0.502  1.00  0.00     0.065 A 
ENDBRANCH  15  17
ENDBRANCH  14  15
ENDBRANCH   7   9
ENDBRANCH   4   7
ENDBRANCH   2   3
ENDBRANCH   1   2
BRANCH   1  22
ATOM     22  C   UNL     1       5.065   0.902   2.301  1.00  0.00     0.023 C 
BRANCH  22  23
ATOM     23  C   UNL     1       6.056  -0.050   2.956  1.00  0.00     0.116 C 
BRANCH  23  24
ATOM     24  N   UNL     1       7.044  -0.563   2.021  1.00  0.00    -0.352 N 
ATOM     25  C   UNL     1       8.397  -0.712   2.191  1.00  0.00     0.251 C 
ATOM     26  H   UNL     1       6.694  -0.841   1.145  1.00  0.00     0.163 HD
ATOM     27  O   UNL     1       9.106  -1.024   1.237  1.00  0.00    -0.269 OA
BRANCH  25  28
ATOM     28  C   UNL     1       9.005  -0.470   3.516  1.00  0.00     0.039 A 
ATOM     29  C   UNL     1      10.187   0.270   3.589  1.00  0.00     0.014 A 
ATOM     30  C   UNL     1       8.412  -0.966   4.681  1.00  0.00     0.014 A 
ATOM     31  C   UNL     1      10.745   0.557   4.835  1.00  0.00     0.010 A 
ATOM     32  C   UNL     1       8.924  -0.608   5.924  1.00  0.00     0.010 A 
ATOM     33  C   UNL     1      10.102   0.148   6.014  1.00  0.00    -0.014 A 
BRANCH  33  34
ATOM     34  C   UNL     1      10.658   0.490   7.348  1.00  0.00     0.031 A 
ATOM     35  C   UNL     1      11.115  -0.598   8.280  1.00  0.00     0.074 A 
ATOM     36  C   UNL     1      10.708   1.779   7.738  1.00  0.00     0.049 A 
ATOM     37  N   UNL     1      11.601  -0.499   9.492  1.00  0.00    -0.248 NA
ATOM     38  C   UNL     1      10.984  -1.982   7.798  1.00  0.00     0.031 C 
ATOM     39  C   UNL     1      10.253   2.922   6.945  1.00  0.00     0.029 A 
ATOM     40  N   UNL     1      11.165   2.343   8.902  1.00  0.00    -0.354 N 
ATOM     41  C   UNL     1      11.822  -1.803   9.918  1.00  0.00     0.074 A 
ATOM     42  C   UNL     1      11.358  -2.676   8.862  1.00  0.00     0.031 C 
ATOM     43  C   UNL     1      10.486   4.053   7.630  1.00  0.00     0.029 A 
ATOM     44  C   UNL     1      11.068   3.714   8.925  1.00  0.00     0.049 A 
ATOM     45  H   UNL     1      11.528   1.816   9.650  1.00  0.00     0.167 HD
ATOM     46  C   UNL     1      12.385  -2.235  11.071  1.00  0.00     0.037 A 
ATOM     47  C   UNL     1      11.408   4.596   9.883  1.00  0.00     0.037 A 
ATOM     48  C   UNL     1      12.859  -1.362  12.114  1.00  0.00     0.049 A 
ATOM     49  C   UNL     1      12.012   4.090  11.165  1.00  0.00     0.074 A 
ATOM     50  C   UNL     1      13.494  -1.697  13.296  1.00  0.00     0.029 A 
ATOM     51  N   UNL     1      12.743   0.020  12.100  1.00  0.00    -0.354 N 
ATOM     52  N   UNL     1      12.285   2.859  11.523  1.00  0.00    -0.248 NA
ATOM     53  C   UNL     1      12.361   5.101  12.173  1.00  0.00     0.031 C 
ATOM     54  C   UNL     1      13.712  -0.522  14.024  1.00  0.00     0.029 A 
ATOM     55  C   UNL     1      13.270   0.551  13.267  1.00  0.00     0.049 A 
ATOM     56  H   UNL     1      12.345   0.547  11.370  1.00  0.00     0.167 HD
ATOM     57  C   UNL     1      12.871   2.949  12.780  1.00  0.00     0.074 A 
ATOM     58  C   UNL     1      12.925   4.357  13.114  1.00  0.00     0.031 C 
ATOM     59  C   UNL     1      13.324   1.956  13.584  1.00  0.00     0.037 A 
BRANCH  46  60
ATOM     60  C   UNL     1      12.514  -3.720  11.265  1.00  0.00     0.057 A 
ATOM     61  C   UNL     1      13.388  -4.496  10.491  1.00  0.00     0.134 A 
ATOM     62  C   UNL     1      11.772  -4.380  12.253  1.00  0.00     0.134 A 
ATOM     63  F   UNL     1      14.120  -3.931   9.518  1.00  0.00    -0.206 F 
ATOM     64  C   UNL     1      13.493  -5.877  10.668  1.00  0.00     0.040 A 
ATOM     65  C   UNL     1      11.893  -5.755  12.462  1.00  0.00     0.040 A 
ATOM     66  F   UNL     1      10.922  -3.699  13.036  1.00  0.00    -0.206 F 
ATOM     67  C   UNL     1      12.748  -6.509  11.661  1.00  0.00     0.006 A 
ENDBRANCH  46  60
BRANCH  47  68
ATOM     68  C   UNL     1      11.216   6.052   9.660  1.00  0.00     0.057 A 
ATOM     69  C   UNL     1      12.313   6.911   9.522  1.00  0.00     0.134 A 
ATOM     70  C   UNL     1       9.940   6.623   9.595  1.00  0.00     0.134 A 
ATOM     71  F   UNL     1      13.562   6.427   9.593  1.00  0.00    -0.206 F 
ATOM     72  C   UNL     1      12.150   8.287   9.353  1.00  0.00     0.040 A 
ATOM     73  C   UNL     1       9.761   7.993   9.397  1.00  0.00     0.040 A 
ATOM     74  F   UNL     1       8.847   5.855   9.710  1.00  0.00    -0.206 F 
ATOM     75  C   UNL     1      10.869   8.831   9.286  1.00  0.00     0.006 A 
ENDBRANCH  47  68
BRANCH  59  76
ATOM     76  C   UNL     1      13.962   2.361  14.882  1.00  0.00     0.057 A 
ATOM     77  C   UNL     1      13.219   2.896  15.942  1.00  0.00     0.134 A 
ATOM     78  C   UNL     1      15.338   2.185  15.083  1.00  0.00     0.134 A 
ATOM     79  F   UNL     1      11.899   3.102  15.813  1.00  0.00    -0.206 F 
ATOM     80  C   UNL     1      13.826   3.272  17.142  1.00  0.00     0.040 A 
ATOM     81  C   UNL     1      15.950   2.527  16.289  1.00  0.00     0.040 A 
ATOM     82  F   UNL     1      16.108   1.668  14.114  1.00  0.00    -0.206 F 
ATOM     83  C   UNL     1      15.195   3.081  17.320  1.00  0.00     0.006 A 
ENDBRANCH  59  76
ENDBRANCH  33  34
ENDBRANCH  25  28
ENDBRANCH  23  24
ENDBRANCH  22  23
ENDBRANCH   1  22
TORSDOF 14
