REMARK SMILES COc1ccc(OC)c(N2C(=O)c3ccc(C(=O)NCCCCNC(=O)c4ccc(-c5c6nc(c(-c7c(F)cccc7F)c7ccc([nH]7)c(-c7c(F)cccc7F)c7nc(c(-c8c(F)cccc8F)c8ccc5[nH]8)C=C7)C=C6)cc4)cc3C2=O)c1
REMARK SMILES IDX 21 1 20 2 19 3 17 4 18 5 16 7 10 8 11 9 83 10 12 11 13 12
REMARK SMILES IDX 82 13 84 14 14 15 81 16 15 17 9 18 3 19 4 20 85 21 5 22 6 23
REMARK SMILES IDX 2 24 1 25 7 26 8 27 22 28 23 29 24 30 25 31 26 33 27 34
REMARK SMILES IDX 28 35 80 36 29 37 79 38 30 39 31 40 32 41 73 42 33 43 78 44
REMARK SMILES IDX 72 45 74 46 34 47 77 48 71 49 70 50 35 52 61 53 44 54 60 55
REMARK SMILES IDX 45 56 48 57 59 58 75 59 46 60 47 61 58 63 76 64 49 65 36 66
REMARK SMILES IDX 37 67 42 68 38 69 39 70 41 71 43 72 40 73 62 74 63 75 68 76
REMARK SMILES IDX 64 77 65 78 67 79 69 80 66 81 50 82 51 83 56 84 52 85 53 86
REMARK SMILES IDX 55 87 57 88 54 89
REMARK H PARENT 19 6 24 32 74 51 48 62
REMARK Flexibility Score: inf
ROOT
ATOM      1  C   UNL     1       9.872  -6.585   3.612  1.00  0.00     0.023 C 
ENDROOT
BRANCH   1   2
ATOM      2  C   UNL     1       9.575  -5.307   4.392  1.00  0.00     0.116 C 
BRANCH   2   3
ATOM      3  N   UNL     1      10.448  -4.207   4.029  1.00  0.00    -0.352 N 
ATOM      4  C   UNL     1      10.229  -2.961   3.507  1.00  0.00     0.251 C 
ATOM      5  O   UNL     1      11.220  -2.287   3.221  1.00  0.00    -0.269 OA
ATOM      6  H   UNL     1      11.400  -4.397   4.193  1.00  0.00     0.163 HD
BRANCH   4   7
ATOM      7  C   UNL     1       8.883  -2.382   3.240  1.00  0.00     0.040 A 
ATOM      8  N   UNL     1       4.377  -1.419   3.347  1.00  0.00    -0.238 N 
ATOM      9  C   UNL     1       5.126  -0.686   2.454  1.00  0.00     0.266 C 
ATOM     10  C   UNL     1       5.172  -2.317   4.024  1.00  0.00     0.266 C 
ATOM     11  O   UNL     1       4.818   0.199   1.672  1.00  0.00    -0.268 OA
ATOM     12  C   UNL     1       6.502  -1.130   2.589  1.00  0.00     0.053 A 
ATOM     13  C   UNL     1       6.546  -2.077   3.587  1.00  0.00     0.054 A 
ATOM     14  O   UNL     1       4.915  -3.285   4.716  1.00  0.00    -0.268 OA
ATOM     15  C   UNL     1       7.622  -0.754   1.885  1.00  0.00     0.015 A 
ATOM     16  C   UNL     1       7.728  -2.691   3.969  1.00  0.00     0.028 A 
ATOM     17  C   UNL     1       8.817  -1.402   2.210  1.00  0.00     0.015 A 
BRANCH   8  18
ATOM     18  C   UNL     1       2.965  -1.299   3.453  1.00  0.00     0.098 A 
ATOM     19  C   UNL     1       0.864  -0.703   2.340  1.00  0.00     0.121 A 
ATOM     20  C   UNL     1       0.188  -0.854   3.549  1.00  0.00     0.050 A 
ATOM     21  C   UNL     1       2.233  -0.955   2.299  1.00  0.00     0.077 A 
ATOM     22  C   UNL     1       0.882  -1.228   4.706  1.00  0.00     0.052 A 
ATOM     23  C   UNL     1       2.266  -1.448   4.661  1.00  0.00     0.143 A 
BRANCH  19  24
ATOM     24  O   UNL     1       0.108  -0.288   1.277  1.00  0.00    -0.497 OA
ATOM     25  C   UNL     1       0.808  -0.014   0.064  1.00  0.00     0.278 C 
ENDBRANCH  19  24
BRANCH  23  26
ATOM     26  O   UNL     1       2.953  -1.565   5.842  1.00  0.00    -0.495 OA
ATOM     27  C   UNL     1       2.762  -2.841   6.456  1.00  0.00     0.278 C 
ENDBRANCH  23  26
ENDBRANCH   8  18
ENDBRANCH   4   7
ENDBRANCH   2   3
ENDBRANCH   1   2
BRANCH   1  28
ATOM     28  C   UNL     1      11.251  -7.205   3.833  1.00  0.00     0.023 C 
BRANCH  28  29
ATOM     29  C   UNL     1      11.648  -7.471   5.282  1.00  0.00     0.116 C 
BRANCH  29  30
ATOM     30  N   UNL     1      10.689  -8.284   6.013  1.00  0.00    -0.352 N 
ATOM     31  C   UNL     1      10.910  -9.328   6.880  1.00  0.00     0.251 C 
ATOM     32  H   UNL     1       9.743  -8.052   5.867  1.00  0.00     0.163 HD
ATOM     33  O   UNL     1       9.961  -9.948   7.350  1.00  0.00    -0.269 OA
BRANCH  31  34
ATOM     34  C   UNL     1      12.292  -9.736   7.214  1.00  0.00     0.039 A 
ATOM     35  C   UNL     1      12.622 -11.094   7.159  1.00  0.00     0.014 A 
ATOM     36  C   UNL     1      13.261  -8.792   7.561  1.00  0.00     0.014 A 
ATOM     37  C   UNL     1      13.942 -11.495   7.372  1.00  0.00     0.010 A 
ATOM     38  C   UNL     1      14.589  -9.186   7.705  1.00  0.00     0.010 A 
ATOM     39  C   UNL     1      14.944 -10.540   7.604  1.00  0.00    -0.014 A 
BRANCH  39  40
ATOM     40  C   UNL     1      16.371 -10.935   7.727  1.00  0.00     0.031 A 
ATOM     41  C   UNL     1      17.108 -10.723   9.019  1.00  0.00     0.074 A 
ATOM     42  C   UNL     1      17.023 -11.415   6.650  1.00  0.00     0.049 A 
ATOM     43  N   UNL     1      18.370 -10.931   9.295  1.00  0.00    -0.248 NA
ATOM     44  C   UNL     1      16.329 -10.179  10.143  1.00  0.00     0.031 C 
ATOM     45  C   UNL     1      16.435 -11.620   5.325  1.00  0.00     0.029 A 
ATOM     46  N   UNL     1      18.330 -11.805   6.496  1.00  0.00    -0.354 N 
ATOM     47  C   UNL     1      18.541 -10.527  10.613  1.00  0.00     0.074 A 
ATOM     48  C   UNL     1      17.264 -10.019  11.067  1.00  0.00     0.031 C 
ATOM     49  C   UNL     1      17.370 -12.118   4.500  1.00  0.00     0.029 A 
ATOM     50  C   UNL     1      18.631 -12.233   5.226  1.00  0.00     0.049 A 
ATOM     51  H   UNL     1      18.989 -11.781   7.227  1.00  0.00     0.167 HD
ATOM     52  C   UNL     1      19.654 -10.594  11.381  1.00  0.00     0.037 A 
ATOM     53  C   UNL     1      19.795 -12.665   4.703  1.00  0.00     0.037 A 
ATOM     54  C   UNL     1      20.915 -11.127  10.938  1.00  0.00     0.049 A 
ATOM     55  C   UNL     1      21.015 -12.734   5.579  1.00  0.00     0.074 A 
ATOM     56  C   UNL     1      22.081 -11.301  11.663  1.00  0.00     0.029 A 
ATOM     57  N   UNL     1      21.174 -11.573   9.650  1.00  0.00    -0.354 N 
ATOM     58  N   UNL     1      21.143 -12.415   6.843  1.00  0.00    -0.248 NA
ATOM     59  C   UNL     1      22.251 -13.228   4.955  1.00  0.00     0.031 C 
ATOM     60  C   UNL     1      23.057 -11.816  10.804  1.00  0.00     0.029 A 
ATOM     61  C   UNL     1      22.487 -12.003   9.555  1.00  0.00     0.049 A 
ATOM     62  H   UNL     1      20.521 -11.582   8.913  1.00  0.00     0.167 HD
ATOM     63  C   UNL     1      22.462 -12.695   7.174  1.00  0.00     0.074 A 
ATOM     64  C   UNL     1      23.091 -13.221   5.980  1.00  0.00     0.031 C 
ATOM     65  C   UNL     1      23.096 -12.532   8.361  1.00  0.00     0.037 A 
BRANCH  52  66
ATOM     66  C   UNL     1      19.554 -10.079  12.787  1.00  0.00     0.057 A 
ATOM     67  C   UNL     1      18.826 -10.760  13.773  1.00  0.00     0.134 A 
ATOM     68  C   UNL     1      20.218  -8.907  13.169  1.00  0.00     0.134 A 
ATOM     69  F   UNL     1      18.157 -11.882  13.469  1.00  0.00    -0.206 F 
ATOM     70  C   UNL     1      18.739 -10.278  15.080  1.00  0.00     0.040 A 
ATOM     71  C   UNL     1      20.160  -8.430  14.480  1.00  0.00     0.040 A 
ATOM     72  F   UNL     1      20.938  -8.210  12.278  1.00  0.00    -0.206 F 
ATOM     73  C   UNL     1      19.413  -9.113  15.438  1.00  0.00     0.006 A 
ENDBRANCH  52  66
BRANCH  53  74
ATOM     74  C   UNL     1      19.858 -13.094   3.284  1.00  0.00     0.057 A 
ATOM     75  C   UNL     1      20.011 -14.444   2.947  1.00  0.00     0.134 A 
ATOM     76  C   UNL     1      19.776 -12.172   2.234  1.00  0.00     0.134 A 
ATOM     77  F   UNL     1      20.114 -15.372   3.909  1.00  0.00    -0.206 F 
ATOM     78  C   UNL     1      20.099 -14.861   1.618  1.00  0.00     0.040 A 
ATOM     79  C   UNL     1      19.840 -12.577   0.900  1.00  0.00     0.040 A 
ATOM     80  F   UNL     1      19.623 -10.865   2.491  1.00  0.00    -0.206 F 
ATOM     81  C   UNL     1      20.009 -13.925   0.589  1.00  0.00     0.006 A 
ENDBRANCH  53  74
BRANCH  65  82
ATOM     82  C   UNL     1      24.532 -12.959   8.437  1.00  0.00     0.057 A 
ATOM     83  C   UNL     1      25.555 -12.219   7.833  1.00  0.00     0.134 A 
ATOM     84  C   UNL     1      24.897 -14.104   9.155  1.00  0.00     0.134 A 
ATOM     85  F   UNL     1      25.269 -11.120   7.119  1.00  0.00    -0.206 F 
ATOM     86  C   UNL     1      26.891 -12.614   7.925  1.00  0.00     0.040 A 
ATOM     87  C   UNL     1      26.231 -14.496   9.275  1.00  0.00     0.040 A 
ATOM     88  F   UNL     1      23.965 -14.854   9.763  1.00  0.00    -0.206 F 
ATOM     89  C   UNL     1      27.232 -13.752   8.653  1.00  0.00     0.006 A 
ENDBRANCH  65  82
ENDBRANCH  39  40
ENDBRANCH  31  34
ENDBRANCH  29  30
ENDBRANCH  28  29
ENDBRANCH   1  28
TORSDOF 14
