REMARK SMILES Cc1ccc(N2C(=O)C[C@H](Sc3ccccc3C(=O)NCCCCNC(=O)c3ccc(-c4c5nc(c(-c6c(F)cccc6F)c6ccc([nH]6)c(-c6c(F)cccc6F)c6nc(c(-c7c(F)cccc7F)c7ccc4[nH]7)C=C6)C=C5)cc3)C2=O)cc1
REMARK SMILES IDX 22 1 21 2 20 3 18 4 19 5 17 7 12 8 13 9 14 10 16 11 15 12
REMARK SMILES IDX 11 13 10 14 6 15 7 16 82 17 8 18 9 19 83 20 5 21 1 22 2 23
REMARK SMILES IDX 3 24 85 25 4 26 84 27 23 28 24 29 25 30 26 31 27 33 28 34
REMARK SMILES IDX 29 35 81 36 30 37 80 38 31 39 32 40 33 41 74 42 34 43 79 44
REMARK SMILES IDX 73 45 75 46 35 47 78 48 72 49 71 50 36 52 62 53 45 54 61 55
REMARK SMILES IDX 46 56 49 57 60 58 76 59 47 60 48 61 59 63 77 64 50 65 37 66
REMARK SMILES IDX 38 67 43 68 39 69 40 70 42 71 44 72 41 73 63 74 64 75 69 76
REMARK SMILES IDX 65 77 66 78 68 79 70 80 67 81 51 82 52 83 57 84 53 85 54 86
REMARK SMILES IDX 56 87 58 88 55 89
REMARK H PARENT 20 6 25 32 75 51 49 62
REMARK Flexibility Score: inf
ROOT
ATOM      1  C   UNL     1      -3.962   4.983  -1.662  1.00  0.00     0.023 C 
ENDROOT
BRANCH   1   2
ATOM      2  C   UNL     1      -5.233   5.268  -0.862  1.00  0.00     0.116 C 
BRANCH   2   3
ATOM      3  N   UNL     1      -6.233   4.205  -0.859  1.00  0.00    -0.352 N 
ATOM      4  C   UNL     1      -6.692   3.322   0.098  1.00  0.00     0.252 C 
ATOM      5  O   UNL     1      -7.666   2.633  -0.198  1.00  0.00    -0.269 OA
ATOM      6  H   UNL     1      -6.678   4.092  -1.730  1.00  0.00     0.163 HD
BRANCH   4   7
ATOM      7  C   UNL     1      -6.026   3.154   1.420  1.00  0.00     0.053 A 
ATOM      8  C   UNL     1      -5.786   1.886   2.004  1.00  0.00     0.021 A 
ATOM      9  C   UNL     1      -5.097   1.826   3.232  1.00  0.00     0.016 A 
ATOM     10  C   UNL     1      -4.698   2.987   3.896  1.00  0.00     0.001 A 
ATOM     11  C   UNL     1      -5.711   4.308   2.158  1.00  0.00     0.015 A 
ATOM     12  C   UNL     1      -5.032   4.229   3.374  1.00  0.00     0.001 A 
BRANCH   8  13
ATOM     13  S   UNL     1      -6.580   0.340   1.531  1.00  0.00    -0.111 SA
BRANCH  13  14
ATOM     14  C   UNL     1      -5.458  -0.463   0.346  1.00  0.00     0.151 C 
ATOM     15  N   UNL     1      -3.220   0.104   0.006  1.00  0.00    -0.250 N 
ATOM     16  C   UNL     1      -3.927   0.760  -0.977  1.00  0.00     0.235 C 
ATOM     17  C   UNL     1      -4.045  -0.622   0.838  1.00  0.00     0.247 C 
ATOM     18  O   UNL     1      -3.521   1.548  -1.821  1.00  0.00    -0.274 OA
ATOM     19  C   UNL     1      -5.329   0.238  -0.983  1.00  0.00     0.126 C 
ATOM     20  O   UNL     1      -3.735  -1.271   1.829  1.00  0.00    -0.273 OA
BRANCH  15  21
ATOM     21  C   UNL     1      -1.805   0.115   0.094  1.00  0.00     0.052 A 
ATOM     22  C   UNL     1       2.519   0.008   0.029  1.00  0.00     0.044 C 
ATOM     23  C   UNL     1       1.022   0.061   0.092  1.00  0.00    -0.051 A 
ATOM     24  C   UNL     1       0.291  -1.079   0.434  1.00  0.00     0.005 A 
ATOM     25  C   UNL     1       0.333   1.228  -0.247  1.00  0.00     0.005 A 
ATOM     26  C   UNL     1      -1.108  -1.045   0.460  1.00  0.00     0.027 A 
ATOM     27  C   UNL     1      -1.066   1.250  -0.258  1.00  0.00     0.027 A 
ENDBRANCH  15  21
ENDBRANCH  13  14
ENDBRANCH   8  13
ENDBRANCH   4   7
ENDBRANCH   2   3
ENDBRANCH   1   2
BRANCH   1  28
ATOM     28  C   UNL     1      -4.141   4.660  -3.143  1.00  0.00     0.023 C 
BRANCH  28  29
ATOM     29  C   UNL     1      -4.826   5.730  -3.986  1.00  0.00     0.116 C 
BRANCH  29  30
ATOM     30  N   UNL     1      -3.990   6.858  -4.384  1.00  0.00    -0.352 N 
ATOM     31  C   UNL     1      -4.348   8.008  -5.078  1.00  0.00     0.251 C 
ATOM     32  H   UNL     1      -3.042   6.796  -4.125  1.00  0.00     0.163 HD
ATOM     33  O   UNL     1      -3.512   8.863  -5.332  1.00  0.00    -0.269 OA
BRANCH  31  34
ATOM     34  C   UNL     1      -5.780   8.259  -5.387  1.00  0.00     0.039 A 
ATOM     35  C   UNL     1      -6.312   9.513  -5.063  1.00  0.00     0.014 A 
ATOM     36  C   UNL     1      -6.626   7.220  -5.760  1.00  0.00     0.014 A 
ATOM     37  C   UNL     1      -7.679   9.631  -4.825  1.00  0.00     0.010 A 
ATOM     38  C   UNL     1      -7.963   7.301  -5.421  1.00  0.00     0.010 A 
ATOM     39  C   UNL     1      -8.468   8.483  -4.870  1.00  0.00    -0.014 A 
BRANCH  39  40
ATOM     40  C   UNL     1      -9.758   8.381  -4.194  1.00  0.00     0.031 A 
ATOM     41  C   UNL     1     -11.017   8.288  -4.958  1.00  0.00     0.074 A 
ATOM     42  C   UNL     1      -9.774   8.268  -2.847  1.00  0.00     0.049 A 
ATOM     43  N   UNL     1     -12.185   8.557  -4.480  1.00  0.00    -0.248 NA
ATOM     44  C   UNL     1     -11.044   7.934  -6.369  1.00  0.00     0.031 C 
ATOM     45  C   UNL     1     -10.890   7.862  -1.999  1.00  0.00     0.029 A 
ATOM     46  N   UNL     1      -8.796   8.716  -1.945  1.00  0.00    -0.354 N 
ATOM     47  C   UNL     1     -13.126   8.150  -5.401  1.00  0.00     0.074 A 
ATOM     48  C   UNL     1     -12.360   7.860  -6.590  1.00  0.00     0.031 C 
ATOM     49  C   UNL     1     -10.680   8.327  -0.757  1.00  0.00     0.029 A 
ATOM     50  C   UNL     1      -9.501   9.174  -0.811  1.00  0.00     0.049 A 
ATOM     51  H   UNL     1      -7.820   8.712  -2.077  1.00  0.00     0.167 HD
ATOM     52  C   UNL     1     -14.419   7.980  -4.994  1.00  0.00     0.037 A 
ATOM     53  C   UNL     1      -9.464  10.484  -0.432  1.00  0.00     0.037 A 
ATOM     54  C   UNL     1     -14.600   8.460  -3.620  1.00  0.00     0.049 A 
ATOM     55  C   UNL     1     -10.819  11.153  -0.399  1.00  0.00     0.074 A 
ATOM     56  C   UNL     1     -14.660   7.811  -2.396  1.00  0.00     0.029 A 
ATOM     57  N   UNL     1     -14.452   9.814  -3.338  1.00  0.00    -0.354 N 
ATOM     58  N   UNL     1     -11.874  10.689  -1.008  1.00  0.00    -0.248 NA
ATOM     59  C   UNL     1     -11.082  12.414   0.291  1.00  0.00     0.031 C 
ATOM     60  C   UNL     1     -14.480   8.779  -1.376  1.00  0.00     0.029 A 
ATOM     61  C   UNL     1     -14.333  10.017  -1.976  1.00  0.00     0.049 A 
ATOM     62  H   UNL     1     -14.435  10.529  -4.015  1.00  0.00     0.167 HD
ATOM     63  C   UNL     1     -12.918  11.562  -0.843  1.00  0.00     0.074 A 
ATOM     64  C   UNL     1     -12.379  12.612   0.001  1.00  0.00     0.031 C 
ATOM     65  C   UNL     1     -14.131  11.353  -1.434  1.00  0.00     0.037 A 
BRANCH  52  66
ATOM     66  C   UNL     1     -15.450   7.114  -5.708  1.00  0.00     0.057 A 
ATOM     67  C   UNL     1     -16.544   6.568  -5.000  1.00  0.00     0.134 A 
ATOM     68  C   UNL     1     -15.396   6.705  -7.052  1.00  0.00     0.134 A 
ATOM     69  F   UNL     1     -16.829   6.939  -3.745  1.00  0.00    -0.206 F 
ATOM     70  C   UNL     1     -17.414   5.609  -5.542  1.00  0.00     0.040 A 
ATOM     71  C   UNL     1     -16.232   5.717  -7.598  1.00  0.00     0.040 A 
ATOM     72  F   UNL     1     -14.580   7.280  -7.938  1.00  0.00    -0.206 F 
ATOM     73  C   UNL     1     -17.237   5.150  -6.836  1.00  0.00     0.006 A 
ENDBRANCH  52  66
BRANCH  53  74
ATOM     74  C   UNL     1      -8.189  11.167  -0.773  1.00  0.00     0.057 A 
ATOM     75  C   UNL     1      -7.000  10.720  -0.170  1.00  0.00     0.134 A 
ATOM     76  C   UNL     1      -8.063  11.973  -1.907  1.00  0.00     0.134 A 
ATOM     77  F   UNL     1      -7.049   9.938   0.921  1.00  0.00    -0.206 F 
ATOM     78  C   UNL     1      -5.746  10.972  -0.731  1.00  0.00     0.040 A 
ATOM     79  C   UNL     1      -6.810  12.242  -2.472  1.00  0.00     0.040 A 
ATOM     80  F   UNL     1      -9.149  12.418  -2.554  1.00  0.00    -0.206 F 
ATOM     81  C   UNL     1      -5.652  11.710  -1.906  1.00  0.00     0.006 A 
ENDBRANCH  53  74
BRANCH  65  82
ATOM     82  C   UNL     1     -15.264  12.347  -1.494  1.00  0.00     0.057 A 
ATOM     83  C   UNL     1     -15.093  13.738  -1.529  1.00  0.00     0.134 A 
ATOM     84  C   UNL     1     -16.594  11.902  -1.673  1.00  0.00     0.134 A 
ATOM     85  F   UNL     1     -13.875  14.296  -1.482  1.00  0.00    -0.206 F 
ATOM     86  C   UNL     1     -16.169  14.625  -1.674  1.00  0.00     0.040 A 
ATOM     87  C   UNL     1     -17.667  12.776  -1.871  1.00  0.00     0.040 A 
ATOM     88  F   UNL     1     -16.903  10.597  -1.686  1.00  0.00    -0.206 F 
ATOM     89  C   UNL     1     -17.459  14.146  -1.857  1.00  0.00     0.006 A 
ENDBRANCH  65  82
ENDBRANCH  39  40
ENDBRANCH  31  34
ENDBRANCH  29  30
ENDBRANCH  28  29
ENDBRANCH   1  28
TORSDOF 14
