REMARK SMILES CCOc1ccc(-c2nn(-c3ccccc3)cc2/C=C2/SC(=S)N(CC(=O)NCCCCNC(=O)c3ccc(-c4c5nc(c(-c6c(F)cccc6F)c6ccc([nH]6)c(-c6c(F)cccc6F)c6nc(c(-c7c(F)cccc7F)c7ccc4[nH]7)C=C6)C=C5)cc3)C2=O)cc1F
REMARK SMILES IDX 29 1 28 2 26 3 27 4 25 6 24 7 19 8 20 9 21 10 90 11 22 12
REMARK SMILES IDX 91 13 23 14 18 15 8 16 9 17 10 18 17 19 7 20 4 21 5 22 93 23
REMARK SMILES IDX 6 24 92 25 94 26 3 27 2 28 1 29 11 30 12 31 16 32 13 33
REMARK SMILES IDX 15 34 14 35 30 36 31 37 32 38 33 39 34 40 35 42 36 43 37 44
REMARK SMILES IDX 89 45 38 46 88 47 39 48 40 49 41 50 82 51 42 52 87 53 81 54
REMARK SMILES IDX 83 55 43 56 86 57 80 58 79 59 44 61 70 62 53 63 69 64 54 65
REMARK SMILES IDX 57 66 68 67 84 68 55 69 56 70 67 72 85 73 58 74 45 75 46 76
REMARK SMILES IDX 51 77 47 78 48 79 50 80 52 81 49 82 71 83 72 84 77 85 73 86
REMARK SMILES IDX 74 87 76 88 78 89 75 90 59 91 60 92 65 93 61 94 62 95 64 96
REMARK SMILES IDX 66 97 63 98
REMARK H PARENT 28 5 33 41 83 60 57 71
REMARK Flexibility Score: inf
ROOT
ATOM      1  C   UNL     1      10.506   3.702  -7.657  1.00  0.00     0.116 C 
ENDROOT
BRANCH   1   2
ATOM      2  N   UNL     1      10.701   2.285  -7.886  1.00  0.00    -0.355 N 
ATOM      3  C   UNL     1       9.850   1.360  -8.424  1.00  0.00     0.240 C 
ATOM      4  O   UNL     1      10.353   0.305  -8.823  1.00  0.00    -0.273 OA
ATOM      5  H   UNL     1      11.580   1.935  -7.613  1.00  0.00     0.163 HD
BRANCH   3   6
ATOM      6  C   UNL     1       8.364   1.669  -8.681  1.00  0.00     0.227 C 
BRANCH   6   7
ATOM      7  N   UNL     1       7.696   2.262  -7.523  1.00  0.00    -0.283 N 
ATOM      8  C   UNL     1       6.969   1.849  -3.980  1.00  0.00     0.033 C 
ATOM      9  C   UNL     1       7.050   2.260  -5.255  1.00  0.00     0.081 C 
ATOM     10  S   UNL     1       6.500   3.788  -5.827  1.00  0.00    -0.054 SA
ATOM     11  C   UNL     1       7.616   1.474  -6.389  1.00  0.00     0.266 C 
ATOM     12  C   UNL     1       7.026   3.461  -7.480  1.00  0.00     0.148 C 
ATOM     13  O   UNL     1       7.959   0.308  -6.335  1.00  0.00    -0.268 OA
ATOM     14  S   UNL     1       6.705   4.512  -8.734  1.00  0.00    -0.052 S 
BRANCH   8  15
ATOM     15  C   UNL     1       7.328   0.543  -3.551  1.00  0.00     0.022 A 
ATOM     16  C   UNL     1       6.470  -0.546  -3.261  1.00  0.00     0.100 A 
ATOM     17  N   UNL     1       7.172  -1.680  -3.134  1.00  0.00    -0.167 NA
ATOM     18  N   UNL     1       8.468  -1.306  -3.239  1.00  0.00    -0.240 N 
ATOM     19  C   UNL     1       8.605   0.056  -3.395  1.00  0.00     0.123 A 
BRANCH  16  20
ATOM     20  C   UNL     1       5.029  -0.533  -3.054  1.00  0.00     0.006 A 
ATOM     21  C   UNL     1       2.292  -0.413  -2.483  1.00  0.00     0.154 A 
ATOM     22  C   UNL     1       2.766   0.051  -3.711  1.00  0.00     0.050 A 
ATOM     23  C   UNL     1       3.179  -0.984  -1.573  1.00  0.00     0.165 A 
ATOM     24  C   UNL     1       4.137  -0.006  -3.997  1.00  0.00     0.014 A 
ATOM     25  C   UNL     1       4.538  -1.031  -1.842  1.00  0.00     0.053 A 
ATOM     26  F   UNL     1       2.742  -1.514  -0.424  1.00  0.00    -0.203 F 
BRANCH  21  27
ATOM     27  O   UNL     1       0.943  -0.410  -2.258  1.00  0.00    -0.491 OA
BRANCH  27  28
ATOM     28  C   UNL     1       0.526   0.623  -1.354  1.00  0.00     0.226 C 
ATOM     29  C   UNL     1       0.574   0.180   0.100  1.00  0.00     0.049 C 
ENDBRANCH  27  28
ENDBRANCH  21  27
ENDBRANCH  16  20
BRANCH  18  30
ATOM     30  C   UNL     1       9.503  -2.263  -3.154  1.00  0.00     0.065 A 
ATOM     31  C   UNL     1       9.316  -3.523  -3.736  1.00  0.00     0.028 A 
ATOM     32  C   UNL     1      10.697  -1.959  -2.490  1.00  0.00     0.028 A 
ATOM     33  C   UNL     1      10.336  -4.472  -3.673  1.00  0.00     0.002 A 
ATOM     34  C   UNL     1      11.689  -2.935  -2.384  1.00  0.00     0.002 A 
ATOM     35  C   UNL     1      11.515  -4.183  -2.984  1.00  0.00     0.000 A 
ENDBRANCH  18  30
ENDBRANCH   8  15
ENDBRANCH   6   7
ENDBRANCH   3   6
ENDBRANCH   1   2
BRANCH   1  36
ATOM     36  C   UNL     1      10.376   4.069  -6.175  1.00  0.00     0.023 C 
BRANCH  36  37
ATOM     37  C   UNL     1      11.645   3.964  -5.318  1.00  0.00     0.023 C 
BRANCH  37  38
ATOM     38  C   UNL     1      12.786   4.867  -5.754  1.00  0.00     0.116 C 
BRANCH  38  39
ATOM     39  N   UNL     1      12.486   6.308  -5.686  1.00  0.00    -0.352 N 
ATOM     40  C   UNL     1      13.287   7.376  -6.101  1.00  0.00     0.251 C 
ATOM     41  H   UNL     1      11.613   6.549  -5.301  1.00  0.00     0.163 HD
ATOM     42  O   UNL     1      13.124   8.507  -5.676  1.00  0.00    -0.269 OA
BRANCH  40  43
ATOM     43  C   UNL     1      14.317   7.094  -7.116  1.00  0.00     0.039 A 
ATOM     44  C   UNL     1      15.618   7.606  -7.123  1.00  0.00     0.014 A 
ATOM     45  C   UNL     1      13.935   6.150  -8.045  1.00  0.00     0.014 A 
ATOM     46  C   UNL     1      16.505   7.107  -8.081  1.00  0.00     0.010 A 
ATOM     47  C   UNL     1      14.906   5.371  -8.571  1.00  0.00     0.010 A 
ATOM     48  C   UNL     1      16.110   5.985  -8.819  1.00  0.00    -0.014 A 
BRANCH  48  49
ATOM     49  C   UNL     1      16.854   5.366  -9.897  1.00  0.00     0.031 A 
ATOM     50  C   UNL     1      18.157   4.795  -9.511  1.00  0.00     0.074 A 
ATOM     51  C   UNL     1      16.269   5.093 -11.089  1.00  0.00     0.049 A 
ATOM     52  N   UNL     1      19.322   5.247  -9.821  1.00  0.00    -0.248 NA
ATOM     53  C   UNL     1      18.177   3.676  -8.559  1.00  0.00     0.031 C 
ATOM     54  C   UNL     1      14.881   5.302 -11.541  1.00  0.00     0.029 A 
ATOM     55  N   UNL     1      16.829   4.484 -12.164  1.00  0.00    -0.354 N 
ATOM     56  C   UNL     1      20.238   4.371  -9.253  1.00  0.00     0.074 A 
ATOM     57  C   UNL     1      19.488   3.532  -8.353  1.00  0.00     0.031 C 
ATOM     58  C   UNL     1      14.671   4.651 -12.709  1.00  0.00     0.029 A 
ATOM     59  C   UNL     1      15.941   4.131 -13.173  1.00  0.00     0.049 A 
ATOM     60  H   UNL     1      17.795   4.306 -12.225  1.00  0.00     0.167 HD
ATOM     61  C   UNL     1      21.512   4.282  -9.723  1.00  0.00     0.037 A 
ATOM     62  C   UNL     1      16.255   3.455 -14.305  1.00  0.00     0.037 A 
ATOM     63  C   UNL     1      21.805   5.356 -10.639  1.00  0.00     0.049 A 
ATOM     64  C   UNL     1      17.717   3.646 -14.512  1.00  0.00     0.074 A 
ATOM     65  C   UNL     1      21.884   6.729 -10.516  1.00  0.00     0.029 A 
ATOM     66  N   UNL     1      21.636   5.109 -11.982  1.00  0.00    -0.354 N 
ATOM     67  N   UNL     1      18.255   4.809 -14.771  1.00  0.00    -0.248 NA
ATOM     68  C   UNL     1      18.613   2.662 -13.920  1.00  0.00     0.031 C 
ATOM     69  C   UNL     1      21.262   7.238 -11.694  1.00  0.00     0.029 A 
ATOM     70  C   UNL     1      20.912   6.154 -12.502  1.00  0.00     0.049 A 
ATOM     71  H   UNL     1      21.973   4.328 -12.479  1.00  0.00     0.167 HD
ATOM     72  C   UNL     1      19.421   4.845 -14.017  1.00  0.00     0.074 A 
ATOM     73  C   UNL     1      19.618   3.468 -13.559  1.00  0.00     0.031 C 
ATOM     74  C   UNL     1      19.955   6.024 -13.581  1.00  0.00     0.037 A 
BRANCH  61  75
ATOM     75  C   UNL     1      22.390   3.072  -9.607  1.00  0.00     0.057 A 
ATOM     76  C   UNL     1      21.901   1.756  -9.509  1.00  0.00     0.134 A 
ATOM     77  C   UNL     1      23.767   3.190  -9.861  1.00  0.00     0.134 A 
ATOM     78  F   UNL     1      20.596   1.489  -9.370  1.00  0.00    -0.206 F 
ATOM     79  C   UNL     1      22.722   0.634  -9.650  1.00  0.00     0.040 A 
ATOM     80  C   UNL     1      24.588   2.074 -10.055  1.00  0.00     0.040 A 
ATOM     81  F   UNL     1      24.342   4.394  -9.992  1.00  0.00    -0.206 F 
ATOM     82  C   UNL     1      24.066   0.790  -9.953  1.00  0.00     0.006 A 
ENDBRANCH  61  75
BRANCH  62  83
ATOM     83  C   UNL     1      15.477   2.372 -14.953  1.00  0.00     0.057 A 
ATOM     84  C   UNL     1      14.591   1.563 -14.216  1.00  0.00     0.134 A 
ATOM     85  C   UNL     1      15.789   1.917 -16.242  1.00  0.00     0.134 A 
ATOM     86  F   UNL     1      14.268   1.867 -12.950  1.00  0.00    -0.206 F 
ATOM     87  C   UNL     1      14.074   0.362 -14.716  1.00  0.00     0.040 A 
ATOM     88  C   UNL     1      15.279   0.715 -16.756  1.00  0.00     0.040 A 
ATOM     89  F   UNL     1      16.650   2.599 -17.012  1.00  0.00    -0.206 F 
ATOM     90  C   UNL     1      14.430  -0.074 -15.985  1.00  0.00     0.006 A 
ENDBRANCH  62  83
BRANCH  74  91
ATOM     91  C   UNL     1      19.338   7.309 -14.074  1.00  0.00     0.057 A 
ATOM     92  C   UNL     1      20.131   8.214 -14.783  1.00  0.00     0.134 A 
ATOM     93  C   UNL     1      18.066   7.761 -13.686  1.00  0.00     0.134 A 
ATOM     94  F   UNL     1      21.381   7.880 -15.137  1.00  0.00    -0.206 F 
ATOM     95  C   UNL     1      19.689   9.507 -15.082  1.00  0.00     0.040 A 
ATOM     96  C   UNL     1      17.599   9.041 -14.001  1.00  0.00     0.040 A 
ATOM     97  F   UNL     1      17.270   7.008 -12.924  1.00  0.00    -0.206 F 
ATOM     98  C   UNL     1      18.418   9.924 -14.693  1.00  0.00     0.006 A 
ENDBRANCH  74  91
ENDBRANCH  48  49
ENDBRANCH  40  43
ENDBRANCH  38  39
ENDBRANCH  37  38
ENDBRANCH  36  37
ENDBRANCH   1  36
TORSDOF 17
