REMARK SMILES COc1cc(/C=C/C(=O)NCCCCNC(=O)c2ccc(-c3c4nc(c(-c5c(F)cccc5F)c5ccc([nH]5)c(-c5c(F)cccc5F)c5nc(c(-c6c(F)cccc6F)c6ccc3[nH]6)C=C5)C=C4)cc2)cc(OC)c1O
REMARK SMILES IDX 12 1 11 2 10 3 8 4 9 5 7 7 6 8 5 9 3 10 4 11 76 12 73 13
REMARK SMILES IDX 72 14 2 15 1 16 77 17 74 19 75 20 13 21 14 22 15 23 16 24
REMARK SMILES IDX 17 26 18 27 19 28 71 29 20 30 70 31 21 32 22 33 23 34 64 35
REMARK SMILES IDX 24 36 69 37 63 38 65 39 25 40 68 41 62 42 61 43 26 45 52 46
REMARK SMILES IDX 35 47 51 48 36 49 39 50 50 51 66 52 37 53 38 54 49 56 67 57
REMARK SMILES IDX 40 58 27 59 28 60 33 61 29 62 30 63 32 64 34 65 31 66 53 67
REMARK SMILES IDX 54 68 59 69 55 70 56 71 58 72 60 73 57 74 41 75 42 76 47 77
REMARK SMILES IDX 43 78 44 79 46 80 48 81 45 82
REMARK H PARENT 10 6 77 18 15 25 65 44 39 55
REMARK Flexibility Score: inf
ROOT
ATOM      1  C   UNL     1      -4.761   6.173   3.992  1.00  0.00     0.023 C 
ENDROOT
BRANCH   1   2
ATOM      2  C   UNL     1      -4.594   6.354   2.483  1.00  0.00     0.116 C 
BRANCH   2   3
ATOM      3  N   UNL     1      -3.409   7.133   2.180  1.00  0.00    -0.353 N 
ATOM      4  C   UNL     1      -2.215   6.753   1.652  1.00  0.00     0.243 C 
ATOM      5  O   UNL     1      -1.370   7.605   1.388  1.00  0.00    -0.270 OA
ATOM      6  H   UNL     1      -3.481   8.092   2.391  1.00  0.00     0.163 HD
BRANCH   4   7
ATOM      7  C   UNL     1      -1.952   5.340   1.298  1.00  0.00     0.072 C 
ATOM      8  C   UNL     1      -2.163   4.294   2.113  1.00  0.00     0.014 C 
BRANCH   8   9
ATOM      9  C   UNL     1      -1.889   2.901   1.732  1.00  0.00    -0.018 A 
ATOM     10  C   UNL     1      -0.535   1.196   0.645  1.00  0.00     0.165 A 
ATOM     11  C   UNL     1      -0.754   2.531   1.004  1.00  0.00     0.058 A 
ATOM     12  C   UNL     1      -1.471   0.214   1.006  1.00  0.00     0.200 A 
ATOM     13  C   UNL     1      -2.587   0.556   1.780  1.00  0.00     0.165 A 
ATOM     14  C   UNL     1      -2.784   1.901   2.130  1.00  0.00     0.058 A 
BRANCH  10  15
ATOM     15  O   UNL     1       0.574   0.995  -0.137  1.00  0.00    -0.493 OA
ATOM     16  C   UNL     1       1.339  -0.178   0.128  1.00  0.00     0.278 C 
ENDBRANCH  10  15
BRANCH  12  17
ATOM     17  O   UNL     1      -1.337  -1.057   0.519  1.00  0.00    -0.502 OA
ATOM     18  H   UNL     1      -0.590  -1.284   0.002  1.00  0.00     0.293 HD
ENDBRANCH  12  17
BRANCH  13  19
ATOM     19  O   UNL     1      -3.602  -0.257   2.213  1.00  0.00    -0.493 OA
ATOM     20  C   UNL     1      -3.419  -1.663   2.128  1.00  0.00     0.278 C 
ENDBRANCH  13  19
ENDBRANCH   8   9
ENDBRANCH   4   7
ENDBRANCH   2   3
ENDBRANCH   1   2
BRANCH   1  21
ATOM     21  C   UNL     1      -5.274   7.415   4.728  1.00  0.00     0.023 C 
BRANCH  21  22
ATOM     22  C   UNL     1      -6.653   7.906   4.295  1.00  0.00     0.116 C 
BRANCH  22  23
ATOM     23  N   UNL     1      -7.690   6.893   4.408  1.00  0.00    -0.352 N 
ATOM     24  C   UNL     1      -9.025   7.055   4.696  1.00  0.00     0.251 C 
ATOM     25  H   UNL     1      -7.397   5.965   4.258  1.00  0.00     0.163 HD
ATOM     26  O   UNL     1      -9.749   6.081   4.848  1.00  0.00    -0.269 OA
BRANCH  24  27
ATOM     27  C   UNL     1      -9.570   8.418   4.865  1.00  0.00     0.039 A 
ATOM     28  C   UNL     1     -10.339   8.694   5.999  1.00  0.00     0.014 A 
ATOM     29  C   UNL     1      -9.303   9.422   3.931  1.00  0.00     0.014 A 
ATOM     30  C   UNL     1     -10.779   9.997   6.234  1.00  0.00     0.010 A 
ATOM     31  C   UNL     1      -9.689  10.733   4.197  1.00  0.00     0.010 A 
ATOM     32  C   UNL     1     -10.423  11.033   5.355  1.00  0.00    -0.014 A 
BRANCH  32  33
ATOM     33  C   UNL     1     -10.789  12.441   5.646  1.00  0.00     0.031 A 
ATOM     34  C   UNL     1     -11.740  13.181   4.750  1.00  0.00     0.074 A 
ATOM     35  C   UNL     1     -10.208  13.073   6.684  1.00  0.00     0.049 A 
ATOM     36  N   UNL     1     -12.137  14.426   4.816  1.00  0.00    -0.248 NA
ATOM     37  C   UNL     1     -12.299  12.430   3.615  1.00  0.00     0.031 C 
ATOM     38  C   UNL     1      -9.225  12.480   7.593  1.00  0.00     0.029 A 
ATOM     39  N   UNL     1     -10.353  14.357   7.144  1.00  0.00    -0.354 N 
ATOM     40  C   UNL     1     -12.979  14.612   3.727  1.00  0.00     0.074 A 
ATOM     41  C   UNL     1     -12.998  13.367   2.990  1.00  0.00     0.031 C 
ATOM     42  C   UNL     1      -8.872  13.391   8.514  1.00  0.00     0.029 A 
ATOM     43  C   UNL     1      -9.579  14.639   8.244  1.00  0.00     0.049 A 
ATOM     44  H   UNL     1     -10.954  15.015   6.726  1.00  0.00     0.167 HD
ATOM     45  C   UNL     1     -13.690  15.713   3.386  1.00  0.00     0.037 A 
ATOM     46  C   UNL     1      -9.454  15.775   8.954  1.00  0.00     0.037 A 
ATOM     47  C   UNL     1     -13.689  16.942   4.135  1.00  0.00     0.049 A 
ATOM     48  C   UNL     1     -10.262  16.980   8.561  1.00  0.00     0.074 A 
ATOM     49  C   UNL     1     -14.425  18.092   3.907  1.00  0.00     0.029 A 
ATOM     50  N   UNL     1     -12.911  17.182   5.257  1.00  0.00    -0.354 N 
ATOM     51  N   UNL     1     -11.111  17.118   7.572  1.00  0.00    -0.248 NA
ATOM     52  C   UNL     1     -10.101  18.183   9.389  1.00  0.00     0.031 C 
ATOM     53  C   UNL     1     -14.066  19.040   4.871  1.00  0.00     0.029 A 
ATOM     54  C   UNL     1     -13.136  18.467   5.723  1.00  0.00     0.049 A 
ATOM     55  H   UNL     1     -12.290  16.534   5.663  1.00  0.00     0.167 HD
ATOM     56  C   UNL     1     -11.602  18.413   7.671  1.00  0.00     0.074 A 
ATOM     57  C   UNL     1     -10.968  19.014   8.826  1.00  0.00     0.031 C 
ATOM     58  C   UNL     1     -12.498  19.048   6.876  1.00  0.00     0.037 A 
BRANCH  45  59
ATOM     59  C   UNL     1     -14.535  15.632   2.149  1.00  0.00     0.057 A 
ATOM     60  C   UNL     1     -15.704  14.861   2.105  1.00  0.00     0.134 A 
ATOM     61  C   UNL     1     -14.194  16.355   0.999  1.00  0.00     0.134 A 
ATOM     62  F   UNL     1     -16.079  14.134   3.169  1.00  0.00    -0.206 F 
ATOM     63  C   UNL     1     -16.489  14.791   0.953  1.00  0.00     0.040 A 
ATOM     64  C   UNL     1     -14.985  16.313  -0.150  1.00  0.00     0.040 A 
ATOM     65  F   UNL     1     -13.090  17.118   0.975  1.00  0.00    -0.206 F 
ATOM     66  C   UNL     1     -16.134  15.524  -0.177  1.00  0.00     0.006 A 
ENDBRANCH  45  59
BRANCH  46  67
ATOM     67  C   UNL     1      -8.549  15.821  10.128  1.00  0.00     0.057 A 
ATOM     68  C   UNL     1      -9.061  15.877  11.429  1.00  0.00     0.134 A 
ATOM     69  C   UNL     1      -7.157  15.813   9.981  1.00  0.00     0.134 A 
ATOM     70  F   UNL     1     -10.386  15.905  11.632  1.00  0.00    -0.206 F 
ATOM     71  C   UNL     1      -8.222  15.942  12.543  1.00  0.00     0.040 A 
ATOM     72  C   UNL     1      -6.306  15.854  11.087  1.00  0.00     0.040 A 
ATOM     73  F   UNL     1      -6.605  15.752   8.760  1.00  0.00    -0.206 F 
ATOM     74  C   UNL     1      -6.839  15.926  12.373  1.00  0.00     0.006 A 
ENDBRANCH  46  67
BRANCH  58  75
ATOM     75  C   UNL     1     -12.862  20.455   7.247  1.00  0.00     0.057 A 
ATOM     76  C   UNL     1     -11.979  21.522   7.046  1.00  0.00     0.134 A 
ATOM     77  C   UNL     1     -14.122  20.747   7.784  1.00  0.00     0.134 A 
ATOM     78  F   UNL     1     -10.752  21.305   6.548  1.00  0.00    -0.206 F 
ATOM     79  C   UNL     1     -12.328  22.830   7.387  1.00  0.00     0.040 A 
ATOM     80  C   UNL     1     -14.491  22.053   8.106  1.00  0.00     0.040 A 
ATOM     81  F   UNL     1     -15.017  19.770   7.994  1.00  0.00    -0.206 F 
ATOM     82  C   UNL     1     -13.590  23.099   7.913  1.00  0.00     0.006 A 
ENDBRANCH  58  75
ENDBRANCH  32  33
ENDBRANCH  24  27
ENDBRANCH  22  23
ENDBRANCH  21  22
ENDBRANCH   1  21
TORSDOF 15
