REMARK SMILES O=C(NCCCCNC(=O)[C@H]1CC2(CCN(C(=O)c3cc4ccccc4[nH]3)CC2)CN1C(=O)C1CC1)c1ccc(-c2c3nc(c(-c4c(F)cccc4F)c4ccc([nH]4)c(-c4c(F)cccc4F)c4nc(c(-c5c(F)cccc5F)c5ccc2[nH]5)C=C4)C=C3)cc1
REMARK SMILES IDX 5 1 4 2 3 3 1 4 2 5 37 7 38 8 90 9 39 10 89 11 40 12 41 13
REMARK SMILES IDX 42 14 83 15 43 16 88 17 82 18 84 19 44 20 87 21 81 22 80 23
REMARK SMILES IDX 45 25 71 26 54 27 70 28 55 29 58 30 69 31 85 32 56 33 57 34
REMARK SMILES IDX 68 36 86 37 59 38 46 39 47 40 52 41 48 42 49 43 51 44 53 45
REMARK SMILES IDX 50 46 72 47 73 48 78 49 74 50 75 51 77 52 79 53 76 54 60 55
REMARK SMILES IDX 61 56 66 57 62 58 63 59 65 60 67 61 64 62 6 63 7 64 8 65
REMARK SMILES IDX 9 66 10 68 11 69 12 70 31 71 13 72 30 73 14 74 29 75 15 76
REMARK SMILES IDX 28 77 16 78 17 79 18 80 32 81 33 82 34 83 35 84 36 85 19 86
REMARK SMILES IDX 20 87 27 88 21 89 26 90 22 92 25 93 23 94 24 95
REMARK H PARENT 3 6 84 24 58 35 8 67 27 91
REMARK Flexibility Score: inf
ROOT
ATOM      1  C   UNL     1       2.256   8.971   1.325  1.00  0.00     0.023 C 
ENDROOT
BRANCH   1   2
ATOM      2  C   UNL     1       1.272   9.356   2.421  1.00  0.00     0.116 C 
BRANCH   2   3
ATOM      3  N   UNL     1       1.384  10.754   2.799  1.00  0.00    -0.352 N 
ATOM      4  O   UNL     1       0.604  12.788   3.388  1.00  0.00    -0.269 OA
ATOM      5  C   UNL     1       0.390  11.591   3.239  1.00  0.00     0.251 C 
ATOM      6  H   UNL     1       2.283  11.149   2.731  1.00  0.00     0.163 HD
BRANCH   5   7
ATOM      7  C   UNL     1      -0.952  11.037   3.505  1.00  0.00     0.039 A 
ATOM      8  C   UNL     1      -1.106   9.907   4.313  1.00  0.00     0.014 A 
ATOM      9  C   UNL     1      -2.066  11.672   2.950  1.00  0.00     0.014 A 
ATOM     10  C   UNL     1      -2.373   9.366   4.506  1.00  0.00     0.010 A 
ATOM     11  C   UNL     1      -3.342  11.157   3.185  1.00  0.00     0.010 A 
ATOM     12  C   UNL     1      -3.501   9.997   3.958  1.00  0.00    -0.014 A 
BRANCH  12  13
ATOM     13  C   UNL     1      -4.850   9.487   4.291  1.00  0.00     0.031 A 
ATOM     14  C   UNL     1      -5.700   8.805   3.262  1.00  0.00     0.074 A 
ATOM     15  C   UNL     1      -5.296   9.649   5.550  1.00  0.00     0.049 A 
ATOM     16  N   UNL     1      -6.899   8.298   3.395  1.00  0.00    -0.248 NA
ATOM     17  C   UNL     1      -5.139   8.677   1.909  1.00  0.00     0.031 C 
ATOM     18  C   UNL     1      -4.558  10.319   6.624  1.00  0.00     0.029 A 
ATOM     19  N   UNL     1      -6.467   9.257   6.144  1.00  0.00    -0.354 N 
ATOM     20  C   UNL     1      -7.246   7.808   2.144  1.00  0.00     0.074 A 
ATOM     21  C   UNL     1      -6.134   8.086   1.259  1.00  0.00     0.031 C 
ATOM     22  C   UNL     1      -5.281  10.264   7.753  1.00  0.00     0.029 A 
ATOM     23  C   UNL     1      -6.545   9.595   7.472  1.00  0.00     0.049 A 
ATOM     24  H   UNL     1      -7.182   8.780   5.664  1.00  0.00     0.167 HD
ATOM     25  C   UNL     1      -8.388   7.182   1.774  1.00  0.00     0.037 A 
ATOM     26  C   UNL     1      -7.533   9.397   8.363  1.00  0.00     0.037 A 
ATOM     27  C   UNL     1      -9.481   6.890   2.664  1.00  0.00     0.049 A 
ATOM     28  C   UNL     1      -8.783   8.697   7.923  1.00  0.00     0.074 A 
ATOM     29  C   UNL     1     -10.658   6.213   2.393  1.00  0.00     0.029 A 
ATOM     30  N   UNL     1      -9.533   7.263   3.999  1.00  0.00    -0.354 N 
ATOM     31  N   UNL     1      -9.080   8.206   6.745  1.00  0.00    -0.248 NA
ATOM     32  C   UNL     1      -9.836   8.530   8.933  1.00  0.00     0.031 C 
ATOM     33  C   UNL     1     -11.434   6.200   3.558  1.00  0.00     0.029 A 
ATOM     34  C   UNL     1     -10.729   6.847   4.560  1.00  0.00     0.049 A 
ATOM     35  H   UNL     1      -8.824   7.750   4.477  1.00  0.00     0.167 HD
ATOM     36  C   UNL     1     -10.354   7.673   6.869  1.00  0.00     0.074 A 
ATOM     37  C   UNL     1     -10.763   7.879   8.244  1.00  0.00     0.031 C 
ATOM     38  C   UNL     1     -11.120   7.074   5.926  1.00  0.00     0.037 A 
BRANCH  25  39
ATOM     39  C   UNL     1      -8.525   6.774   0.339  1.00  0.00     0.057 A 
ATOM     40  C   UNL     1      -7.885   5.636  -0.166  1.00  0.00     0.134 A 
ATOM     41  C   UNL     1      -9.360   7.489  -0.528  1.00  0.00     0.134 A 
ATOM     42  F   UNL     1      -7.064   4.916   0.613  1.00  0.00    -0.206 F 
ATOM     43  C   UNL     1      -8.067   5.225  -1.488  1.00  0.00     0.040 A 
ATOM     44  C   UNL     1      -9.562   7.080  -1.847  1.00  0.00     0.040 A 
ATOM     45  F   UNL     1     -10.003   8.586  -0.103  1.00  0.00    -0.206 F 
ATOM     46  C   UNL     1      -8.914   5.944  -2.330  1.00  0.00     0.006 A 
ENDBRANCH  25  39
BRANCH  26  47
ATOM     47  C   UNL     1      -7.370   9.876   9.755  1.00  0.00     0.057 A 
ATOM     48  C   UNL     1      -7.143   8.981  10.804  1.00  0.00     0.134 A 
ATOM     49  C   UNL     1      -7.414  11.241  10.062  1.00  0.00     0.134 A 
ATOM     50  F   UNL     1      -7.106   7.661  10.569  1.00  0.00    -0.206 F 
ATOM     51  C   UNL     1      -6.971   9.426  12.116  1.00  0.00     0.040 A 
ATOM     52  C   UNL     1      -7.224  11.701  11.365  1.00  0.00     0.040 A 
ATOM     53  F   UNL     1      -7.622  12.146   9.094  1.00  0.00    -0.206 F 
ATOM     54  C   UNL     1      -7.005  10.791  12.397  1.00  0.00     0.006 A 
ENDBRANCH  26  47
BRANCH  38  55
ATOM     55  C   UNL     1     -12.474   6.608   6.359  1.00  0.00     0.057 A 
ATOM     56  C   UNL     1     -13.535   7.507   6.521  1.00  0.00     0.134 A 
ATOM     57  C   UNL     1     -12.723   5.253   6.601  1.00  0.00     0.134 A 
ATOM     58  F   UNL     1     -13.350   8.820   6.318  1.00  0.00    -0.206 F 
ATOM     59  C   UNL     1     -14.797   7.075   6.928  1.00  0.00     0.040 A 
ATOM     60  C   UNL     1     -13.986   4.806   6.993  1.00  0.00     0.040 A 
ATOM     61  F   UNL     1     -11.746   4.345   6.460  1.00  0.00    -0.206 F 
ATOM     62  C   UNL     1     -15.025   5.720   7.161  1.00  0.00     0.006 A 
ENDBRANCH  38  55
ENDBRANCH  12  13
ENDBRANCH   5   7
ENDBRANCH   2   3
ENDBRANCH   1   2
BRANCH   1  63
ATOM     63  C   UNL     1       3.732   9.122   1.710  1.00  0.00     0.023 C 
BRANCH  63  64
ATOM     64  C   UNL     1       4.166   8.282   2.913  1.00  0.00     0.116 C 
BRANCH  64  65
ATOM     65  N   UNL     1       4.015   6.872   2.633  1.00  0.00    -0.354 N 
ATOM     66  C   UNL     1       4.943   5.944   2.280  1.00  0.00     0.242 C 
ATOM     67  H   UNL     1       3.095   6.530   2.709  1.00  0.00     0.163 HD
ATOM     68  O   UNL     1       4.519   4.899   1.775  1.00  0.00    -0.273 OA
BRANCH  66  69
ATOM     69  C   UNL     1       6.460   6.201   2.361  1.00  0.00     0.175 C 
ATOM     70  C   UNL     1       6.932   7.030   1.152  1.00  0.00     0.044 C 
ATOM     71  N   UNL     1       7.019   6.885   3.518  1.00  0.00    -0.330 N 
ATOM     72  C   UNL     1       8.015   8.020   1.660  1.00  0.00    -0.006 C 
ATOM     73  C   UNL     1       8.177   7.670   3.146  1.00  0.00     0.127 C 
ATOM     74  C   UNL     1       7.595   9.502   1.515  1.00  0.00     0.030 C 
ATOM     75  C   UNL     1       9.349   7.830   0.907  1.00  0.00     0.030 C 
ATOM     76  C   UNL     1       7.553   9.975   0.065  1.00  0.00     0.120 C 
ATOM     77  C   UNL     1       9.287   8.324  -0.539  1.00  0.00     0.120 C 
ATOM     78  N   UNL     1       8.816   9.704  -0.618  1.00  0.00    -0.337 N 
ATOM     79  C   UNL     1       9.357  10.521  -1.619  1.00  0.00     0.270 C 
ATOM     80  O   UNL     1      10.128  10.069  -2.463  1.00  0.00    -0.267 OA
BRANCH  71  81
ATOM     81  C   UNL     1       6.898   6.500   4.845  1.00  0.00     0.226 C 
ATOM     82  O   UNL     1       7.644   6.924   5.721  1.00  0.00    -0.275 OA
BRANCH  81  83
ATOM     83  C   UNL     1       5.754   5.638   5.245  1.00  0.00     0.079 C 
ATOM     84  C   UNL     1       5.544   4.217   4.787  1.00  0.00     0.014 C 
ATOM     85  C   UNL     1       6.029   4.472   6.177  1.00  0.00     0.014 C 
ENDBRANCH  81  83
ENDBRANCH  71  81
BRANCH  79  86
ATOM     86  C   UNL     1       8.987  11.920  -1.623  1.00  0.00     0.105 A 
ATOM     87  C   UNL     1       8.622  12.704  -2.703  1.00  0.00     0.042 A 
ATOM     88  N   UNL     1       9.052  12.761  -0.534  1.00  0.00    -0.351 N 
ATOM     89  C   UNL     1       8.385  14.026  -2.240  1.00  0.00     0.000 A 
ATOM     90  C   UNL     1       8.658  14.035  -0.874  1.00  0.00     0.046 A 
ATOM     91  H   UNL     1       9.342  12.488   0.366  1.00  0.00     0.167 HD
ATOM     92  C   UNL     1       7.972  15.221  -2.859  1.00  0.00     0.010 A 
ATOM     93  C   UNL     1       8.541  15.188  -0.088  1.00  0.00     0.026 A 
ATOM     94  C   UNL     1       7.843  16.382  -2.088  1.00  0.00     0.001 A 
ATOM     95  C   UNL     1       8.124  16.363  -0.723  1.00  0.00     0.002 A 
ENDBRANCH  79  86
ENDBRANCH  66  69
ENDBRANCH  64  65
ENDBRANCH  63  64
ENDBRANCH   1  63
TORSDOF 14
