REMARK SMILES Cc1cscc1C(=O)Nc1cc(Br)ccc1C(=O)NCCCCNC(=O)c1ccc(-c2c3nc(c(-c4c(F)cccc4F)c4ccc([nH]4)c(-c4c(F)cccc4F)c4nc(c(-c5c(F)cccc5F)c5ccc2[nH]5)C=C4)C=C3)cc1
REMARK SMILES IDX 21 1 20 2 19 3 17 4 18 5 16 7 10 8 11 9 12 10 15 11 13 12
REMARK SMILES IDX 14 13 9 14 7 15 8 16 6 18 1 19 2 20 3 21 4 22 5 23 22 24
REMARK SMILES IDX 23 25 24 26 25 27 26 29 27 30 28 31 80 32 29 33 79 34 30 35
REMARK SMILES IDX 31 36 32 37 73 38 33 39 78 40 72 41 74 42 34 43 77 44 71 45
REMARK SMILES IDX 70 46 35 48 61 49 44 50 60 51 45 52 48 53 59 54 75 55 46 56
REMARK SMILES IDX 47 57 58 59 76 60 49 61 36 62 37 63 42 64 38 65 39 66 41 67
REMARK SMILES IDX 43 68 40 69 62 70 63 71 68 72 64 73 65 74 67 75 69 76 66 77
REMARK SMILES IDX 50 78 51 79 56 80 52 81 53 82 55 83 57 84 54 85
REMARK H PARENT 19 6 9 17 24 28 74 47 48 58
REMARK Flexibility Score: inf
ROOT
ATOM      1  C   UNL     1       1.914   3.990   2.652  1.00  0.00     0.023 C 
ENDROOT
BRANCH   1   2
ATOM      2  C   UNL     1       2.757   3.277   1.607  1.00  0.00     0.116 C 
BRANCH   2   3
ATOM      3  N   UNL     1       4.136   3.014   1.926  1.00  0.00    -0.352 N 
ATOM      4  C   UNL     1       5.024   2.092   1.420  1.00  0.00     0.253 C 
ATOM      5  O   UNL     1       6.161   2.139   1.903  1.00  0.00    -0.269 OA
ATOM      6  H   UNL     1       4.508   3.594   2.629  1.00  0.00     0.163 HD
BRANCH   4   7
ATOM      7  C   UNL     1       4.751   1.026   0.382  1.00  0.00     0.063 A 
ATOM      8  C   UNL     1       3.797   0.990  -0.659  1.00  0.00     0.055 A 
ATOM      9  C   UNL     1       3.801  -0.051  -1.608  1.00  0.00     0.042 A 
ATOM     10  C   UNL     1       4.685  -1.117  -1.484  1.00  0.00     0.020 A 
ATOM     11  C   UNL     1       5.602  -0.100   0.497  1.00  0.00     0.017 A 
ATOM     12  Br  UNL     1       4.654  -2.515  -2.752  1.00  0.00    -0.051 Br
ATOM     13  C   UNL     1       5.564  -1.164  -0.413  1.00  0.00     0.016 A 
BRANCH   8  14
ATOM     14  N   UNL     1       2.908   2.019  -0.915  1.00  0.00    -0.321 N 
ATOM     15  C   UNL     1       1.530   2.056  -0.976  1.00  0.00     0.256 C 
ATOM     16  O   UNL     1       1.087   3.157  -1.331  1.00  0.00    -0.269 OA
ATOM     17  H   UNL     1       3.339   2.888  -1.086  1.00  0.00     0.170 HD
BRANCH  15  18
ATOM     18  C   UNL     1       0.585   0.997  -0.521  1.00  0.00     0.053 A 
ATOM     19  C   UNL     1       1.855  -1.081   0.624  1.00  0.00     0.046 C 
ATOM     20  C   UNL     1       0.677  -0.319   0.121  1.00  0.00    -0.028 A 
ATOM     21  C   UNL     1      -0.576  -0.905   0.265  1.00  0.00     0.069 A 
ATOM     22  S   UNL     1      -1.858   0.111  -0.163  1.00  0.00    -0.151 S 
ATOM     23  C   UNL     1      -0.770   1.328  -0.625  1.00  0.00     0.079 A 
ENDBRANCH  15  18
ENDBRANCH   8  14
ENDBRANCH   4   7
ENDBRANCH   2   3
ENDBRANCH   1   2
BRANCH   1  24
ATOM     24  C   UNL     1       2.345   5.396   3.046  1.00  0.00     0.023 C 
BRANCH  24  25
ATOM     25  C   UNL     1       2.701   6.353   1.914  1.00  0.00     0.116 C 
BRANCH  25  26
ATOM     26  N   UNL     1       1.611   6.630   0.989  1.00  0.00    -0.352 N 
ATOM     27  C   UNL     1       0.995   7.821   0.675  1.00  0.00     0.251 C 
ATOM     28  H   UNL     1       1.258   5.843   0.514  1.00  0.00     0.163 HD
ATOM     29  O   UNL     1       0.028   7.833  -0.084  1.00  0.00    -0.269 OA
BRANCH  27  30
ATOM     30  C   UNL     1       1.462   9.093   1.273  1.00  0.00     0.039 A 
ATOM     31  C   UNL     1       0.515  10.011   1.739  1.00  0.00     0.014 A 
ATOM     32  C   UNL     1       2.821   9.388   1.379  1.00  0.00     0.014 A 
ATOM     33  C   UNL     1       0.936  11.182   2.376  1.00  0.00     0.010 A 
ATOM     34  C   UNL     1       3.237  10.494   2.114  1.00  0.00     0.010 A 
ATOM     35  C   UNL     1       2.301  11.417   2.602  1.00  0.00    -0.014 A 
BRANCH  35  36
ATOM     36  C   UNL     1       2.773  12.647   3.294  1.00  0.00     0.031 A 
ATOM     37  C   UNL     1       3.680  13.611   2.573  1.00  0.00     0.074 A 
ATOM     38  C   UNL     1       2.432  12.878   4.578  1.00  0.00     0.049 A 
ATOM     39  N   UNL     1       4.241  14.710   3.012  1.00  0.00    -0.248 NA
ATOM     40  C   UNL     1       4.033  13.279   1.182  1.00  0.00     0.031 C 
ATOM     41  C   UNL     1       1.608  11.998   5.410  1.00  0.00     0.029 A 
ATOM     42  N   UNL     1       2.741  13.925   5.411  1.00  0.00    -0.354 N 
ATOM     43  C   UNL     1       5.021  15.181   1.963  1.00  0.00     0.074 A 
ATOM     44  C   UNL     1       4.922  14.216   0.893  1.00  0.00     0.031 C 
ATOM     45  C   UNL     1       1.450  12.559   6.621  1.00  0.00     0.029 A 
ATOM     46  C   UNL     1       2.188  13.817   6.665  1.00  0.00     0.049 A 
ATOM     47  H   UNL     1       3.306  14.683   5.135  1.00  0.00     0.167 HD
ATOM     48  C   UNL     1       5.730  16.332   1.881  1.00  0.00     0.037 A 
ATOM     49  C   UNL     1       2.267  14.641   7.728  1.00  0.00     0.037 A 
ATOM     50  C   UNL     1       5.798  17.313   2.931  1.00  0.00     0.049 A 
ATOM     51  C   UNL     1       3.050  15.921   7.606  1.00  0.00     0.074 A 
ATOM     52  C   UNL     1       6.441  18.538   2.926  1.00  0.00     0.029 A 
ATOM     53  N   UNL     1       5.196  17.180   4.173  1.00  0.00    -0.354 N 
ATOM     54  N   UNL     1       3.725  16.387   6.582  1.00  0.00    -0.248 NA
ATOM     55  C   UNL     1       3.069  16.799   8.784  1.00  0.00     0.031 C 
ATOM     56  C   UNL     1       6.267  19.127   4.182  1.00  0.00     0.029 A 
ATOM     57  C   UNL     1       5.465  18.296   4.948  1.00  0.00     0.049 A 
ATOM     58  H   UNL     1       4.658  16.408   4.461  1.00  0.00     0.167 HD
ATOM     59  C   UNL     1       4.211  17.627   6.978  1.00  0.00     0.074 A 
ATOM     60  C   UNL     1       3.742  17.846   8.331  1.00  0.00     0.031 C 
ATOM     61  C   UNL     1       4.974  18.507   6.285  1.00  0.00     0.037 A 
BRANCH  48  62
ATOM     62  C   UNL     1       6.478  16.597   0.605  1.00  0.00     0.057 A 
ATOM     63  C   UNL     1       5.814  16.873  -0.599  1.00  0.00     0.134 A 
ATOM     64  C   UNL     1       7.878  16.609   0.586  1.00  0.00     0.134 A 
ATOM     65  F   UNL     1       4.474  16.863  -0.654  1.00  0.00    -0.206 F 
ATOM     66  C   UNL     1       6.515  17.121  -1.780  1.00  0.00     0.040 A 
ATOM     67  C   UNL     1       8.590  16.888  -0.583  1.00  0.00     0.040 A 
ATOM     68  F   UNL     1       8.578  16.359   1.702  1.00  0.00    -0.206 F 
ATOM     69  C   UNL     1       7.908  17.138  -1.772  1.00  0.00     0.006 A 
ENDBRANCH  48  62
BRANCH  49  70
ATOM     70  C   UNL     1       1.563  14.306   8.993  1.00  0.00     0.057 A 
ATOM     71  C   UNL     1       0.475  15.067   9.440  1.00  0.00     0.134 A 
ATOM     72  C   UNL     1       1.980  13.245   9.805  1.00  0.00     0.134 A 
ATOM     73  F   UNL     1       0.038  16.109   8.717  1.00  0.00    -0.206 F 
ATOM     74  C   UNL     1      -0.151  14.806  10.661  1.00  0.00     0.040 A 
ATOM     75  C   UNL     1       1.345  12.954  11.014  1.00  0.00     0.040 A 
ATOM     76  F   UNL     1       3.010  12.471   9.432  1.00  0.00    -0.206 F 
ATOM     77  C   UNL     1       0.283  13.744  11.450  1.00  0.00     0.006 A 
ENDBRANCH  49  70
BRANCH  61  78
ATOM     78  C   UNL     1       5.296  19.814   6.953  1.00  0.00     0.057 A 
ATOM     79  C   UNL     1       6.167  19.900   8.047  1.00  0.00     0.134 A 
ATOM     80  C   UNL     1       4.742  21.008   6.474  1.00  0.00     0.134 A 
ATOM     81  F   UNL     1       6.725  18.793   8.561  1.00  0.00    -0.206 F 
ATOM     82  C   UNL     1       6.446  21.121   8.662  1.00  0.00     0.040 A 
ATOM     83  C   UNL     1       5.039  22.239   7.060  1.00  0.00     0.040 A 
ATOM     84  F   UNL     1       3.910  21.000   5.421  1.00  0.00    -0.206 F 
ATOM     85  C   UNL     1       5.885  22.296   8.165  1.00  0.00     0.006 A 
ENDBRANCH  61  78
ENDBRANCH  35  36
ENDBRANCH  27  30
ENDBRANCH  25  26
ENDBRANCH  24  25
ENDBRANCH   1  24
TORSDOF 13
