REMARK SMILES COC(=O)[C@H]1CC[C@]2(C)[C@H](CC[C@]3(C)[C@H]2CC=C2[C@H]4CC(C)(C)CC[C@]4(C(=O)NCCCCNC(=O)c4ccc(-c5c6nc(c(-c7c(F)cccc7F)c7ccc([nH]7)c(-c7c(F)cccc7F)c7nc(c(-c8c(F)cccc8F)c8ccc5[nH]8)C=C7)C=C6)cc4)CC[C@@]23C)C1(C)C
REMARK SMILES IDX 31 1 30 2 29 3 27 4 28 5 26 7 5 8 6 9 95 10 7 11 10 12 96 13
REMARK SMILES IDX 97 14 8 15 11 16 15 17 9 18 12 19 16 20 13 21 17 22 93 23
REMARK SMILES IDX 14 24 18 25 92 26 94 27 19 28 91 29 20 30 21 31 25 32 24 33
REMARK SMILES IDX 22 34 23 35 3 36 4 37 2 38 1 39 32 40 33 41 34 42 35 43
REMARK SMILES IDX 36 45 37 46 38 47 90 48 39 49 89 50 40 51 41 52 42 53 83 54
REMARK SMILES IDX 43 55 88 56 82 57 84 58 44 59 87 60 81 61 80 62 45 64 71 65
REMARK SMILES IDX 54 66 70 67 55 68 58 69 69 70 85 71 56 72 57 73 68 75 86 76
REMARK SMILES IDX 59 77 46 78 47 79 52 80 48 81 49 82 51 83 53 84 50 85 72 86
REMARK SMILES IDX 73 87 78 88 74 89 75 90 77 91 79 92 76 93 60 94 61 95 66 96
REMARK SMILES IDX 62 97 63 98 65 99 67 100 64 101
REMARK H PARENT 29 6 34 44 84 63 58 74
REMARK Flexibility Score: inf
ROOT
ATOM      1  C   UNL     1      -4.066   2.350   6.097  1.00  0.00     0.023 C 
ENDROOT
BRANCH   1   2
ATOM      2  C   UNL     1      -3.440   2.417   4.055  1.00  0.00     0.116 C 
BRANCH   2   3
ATOM      3  N   UNL     1      -4.602   2.680   2.613  1.00  0.00    -0.356 N 
ATOM      4  C   UNL     1      -5.257   4.072   2.132  1.00  0.00     0.226 C 
ATOM      5  O   UNL     1      -6.223   4.069   1.373  1.00  0.00    -0.274 OA
ATOM      6  H   UNL     1      -4.840   1.880   2.090  1.00  0.00     0.163 HD
BRANCH   4   7
ATOM      7  C   UNL     1      -4.414   5.472   2.568  1.00  0.00     0.056 C 
ATOM      8  C   UNL     1       1.281  -0.962   3.737  1.00  0.00     0.105 C 
ATOM      9  C   UNL     1       0.378  -1.572   4.851  1.00  0.00     0.016 C 
ATOM     10  C   UNL     1       0.875   0.438   3.099  1.00  0.00    -0.019 C 
ATOM     11  C   UNL     1      -0.600  -0.629   5.575  1.00  0.00     0.008 C 
ATOM     12  C   UNL     1       0.016   1.230   4.167  1.00  0.00     0.002 C 
ATOM     13  C   UNL     1       0.086   0.279   1.754  1.00  0.00     0.012 C 
ATOM     14  C   UNL     1       2.150   1.202   2.631  1.00  0.00     0.012 C 
ATOM     15  C   UNL     1      -1.266   0.407   4.628  1.00  0.00    -0.026 C 
ATOM     16  C   UNL     1      -0.162   2.710   3.840  1.00  0.00     0.005 C 
ATOM     17  C   UNL     1      -2.412   1.260   5.430  1.00  0.00     0.006 C 
ATOM     18  C   UNL     1      -1.990  -0.534   3.602  1.00  0.00     0.012 C 
ATOM     19  C   UNL     1      -0.678   3.601   4.961  1.00  0.00     0.008 C 
ATOM     20  C   UNL     1      -4.321   0.848   4.798  1.00  0.00     0.032 C 
ATOM     21  C   UNL     1      -1.964   3.190   5.756  1.00  0.00    -0.020 C 
ATOM     22  C   UNL     1      -5.432   2.497   4.589  1.00  0.00    -0.027 C 
ATOM     23  C   UNL     1      -3.410   4.501   5.615  1.00  0.00    -0.006 C 
ATOM     24  C   UNL     1      -1.433   3.420   7.249  1.00  0.00     0.012 C 
ATOM     25  C   UNL     1      -4.651   3.962   4.490  1.00  0.00    -0.064 C 
ATOM     26  C   UNL     1      -3.312   6.020   5.034  1.00  0.00     0.013 C 
ATOM     27  C   UNL     1      -4.069   4.930   7.038  1.00  0.00     0.017 C 
ATOM     28  C   UNL     1      -3.463   4.515   3.031  1.00  0.00     0.031 C 
ATOM     29  C   UNL     1      -4.516   6.343   3.923  1.00  0.00     0.018 C 
ATOM     30  C   UNL     1      -2.794   3.752   1.593  1.00  0.00     0.015 C 
ATOM     31  C   UNL     1      -2.091   4.616   0.552  1.00  0.00    -0.035 C 
ATOM     32  C   UNL     1      -3.790   6.411   1.500  1.00  0.00     0.018 C 
ATOM     33  C   UNL     1      -2.709   6.009   0.483  1.00  0.00     0.007 C 
ATOM     34  C   UNL     1      -2.283   3.936  -0.840  1.00  0.00     0.011 C 
ATOM     35  C   UNL     1      -0.572   4.630   0.799  1.00  0.00     0.011 C 
BRANCH   8  36
ATOM     36  C   UNL     1       2.698  -1.027   4.296  1.00  0.00     0.309 C 
ATOM     37  O   UNL     1       3.507  -1.887   3.970  1.00  0.00    -0.252 OA
BRANCH  36  38
ATOM     38  O   UNL     1       2.902  -0.067   5.235  1.00  0.00    -0.469 OA
ATOM     39  C   UNL     1       4.212  -0.003   5.804  1.00  0.00     0.282 C 
ENDBRANCH  36  38
ENDBRANCH   8  36
ENDBRANCH   4   7
ENDBRANCH   2   3
ENDBRANCH   1   2
BRANCH   1  40
ATOM     40  C   UNL     1      -4.839   1.249   7.193  1.00  0.00     0.023 C 
BRANCH  40  41
ATOM     41  C   UNL     1      -4.032   0.155   7.935  1.00  0.00     0.116 C 
BRANCH  41  42
ATOM     42  N   UNL     1      -2.936   0.663   8.765  1.00  0.00    -0.352 N 
ATOM     43  C   UNL     1      -2.082  -0.029   9.598  1.00  0.00     0.251 C 
ATOM     44  H   UNL     1      -2.789   1.636   8.723  1.00  0.00     0.163 HD
ATOM     45  O   UNL     1      -1.206   0.539  10.238  1.00  0.00    -0.269 OA
BRANCH  43  46
ATOM     46  C   UNL     1      -2.300  -1.475   9.753  1.00  0.00     0.039 A 
ATOM     47  C   UNL     1      -2.756  -1.974  10.969  1.00  0.00     0.014 A 
ATOM     48  C   UNL     1      -2.218  -2.294   8.634  1.00  0.00     0.014 A 
ATOM     49  C   UNL     1      -3.262  -3.272  11.015  1.00  0.00     0.010 A 
ATOM     50  C   UNL     1      -2.812  -3.542   8.649  1.00  0.00     0.010 A 
ATOM     51  C   UNL     1      -3.365  -4.032   9.836  1.00  0.00    -0.014 A 
BRANCH  51  52
ATOM     52  C   UNL     1      -4.116  -5.307   9.801  1.00  0.00     0.031 A 
ATOM     53  C   UNL     1      -3.430  -6.580   9.403  1.00  0.00     0.074 A 
ATOM     54  C   UNL     1      -5.446  -5.281  10.024  1.00  0.00     0.049 A 
ATOM     55  N   UNL     1      -3.933  -7.780   9.274  1.00  0.00    -0.248 NA
ATOM     56  C   UNL     1      -2.001  -6.487   9.060  1.00  0.00     0.031 C 
ATOM     57  C   UNL     1      -6.236  -4.078  10.306  1.00  0.00     0.029 A 
ATOM     58  N   UNL     1      -6.370  -6.292  10.045  1.00  0.00    -0.354 N 
ATOM     59  C   UNL     1      -2.888  -8.578   8.827  1.00  0.00     0.074 A 
ATOM     60  C   UNL     1      -1.745  -7.714   8.631  1.00  0.00     0.031 C 
ATOM     61  C   UNL     1      -7.514  -4.428  10.520  1.00  0.00     0.029 A 
ATOM     62  C   UNL     1      -7.640  -5.871  10.359  1.00  0.00     0.049 A 
ATOM     63  H   UNL     1      -6.145  -7.231   9.853  1.00  0.00     0.167 HD
ATOM     64  C   UNL     1      -2.873  -9.917   8.635  1.00  0.00     0.037 A 
ATOM     65  C   UNL     1      -8.775  -6.578  10.511  1.00  0.00     0.037 A 
ATOM     66  C   UNL     1      -4.009 -10.768   8.867  1.00  0.00     0.049 A 
ATOM     67  C   UNL     1      -8.722  -8.070  10.339  1.00  0.00     0.074 A 
ATOM     68  C   UNL     1      -4.088 -12.146   8.782  1.00  0.00     0.029 A 
ATOM     69  N   UNL     1      -5.268 -10.314   9.233  1.00  0.00    -0.354 N 
ATOM     70  N   UNL     1      -7.701  -8.828  10.019  1.00  0.00    -0.248 NA
ATOM     71  C   UNL     1      -9.973  -8.806  10.559  1.00  0.00     0.031 C 
ATOM     72  C   UNL     1      -5.405 -12.523   9.062  1.00  0.00     0.029 A 
ATOM     73  C   UNL     1      -6.136 -11.384   9.364  1.00  0.00     0.049 A 
ATOM     74  H   UNL     1      -5.508  -9.370   9.378  1.00  0.00     0.167 HD
ATOM     75  C   UNL     1      -8.178 -10.131  10.025  1.00  0.00     0.074 A 
ATOM     76  C   UNL     1      -9.576 -10.060  10.398  1.00  0.00     0.031 C 
ATOM     77  C   UNL     1      -7.522 -11.283   9.744  1.00  0.00     0.037 A 
BRANCH  64  78
ATOM     78  C   UNL     1      -1.583 -10.535   8.178  1.00  0.00     0.057 A 
ATOM     79  C   UNL     1      -0.456 -10.588   9.010  1.00  0.00     0.134 A 
ATOM     80  C   UNL     1      -1.466 -11.093   6.899  1.00  0.00     0.134 A 
ATOM     81  F   UNL     1      -0.495 -10.058  10.242  1.00  0.00    -0.206 F 
ATOM     82  C   UNL     1       0.749 -11.142   8.576  1.00  0.00     0.040 A 
ATOM     83  C   UNL     1      -0.275 -11.677   6.464  1.00  0.00     0.040 A 
ATOM     84  F   UNL     1      -2.506 -11.080   6.051  1.00  0.00    -0.206 F 
ATOM     85  C   UNL     1       0.840 -11.695   7.300  1.00  0.00     0.006 A 
ENDBRANCH  64  78
BRANCH  65  86
ATOM     86  C   UNL     1     -10.036  -5.895  10.897  1.00  0.00     0.057 A 
ATOM     87  C   UNL     1     -10.589  -6.070  12.172  1.00  0.00     0.134 A 
ATOM     88  C   UNL     1     -10.718  -5.054  10.011  1.00  0.00     0.134 A 
ATOM     89  F   UNL     1      -9.988  -6.872  13.063  1.00  0.00    -0.206 F 
ATOM     90  C   UNL     1     -11.786  -5.456  12.543  1.00  0.00     0.040 A 
ATOM     91  C   UNL     1     -11.904  -4.413  10.376  1.00  0.00     0.040 A 
ATOM     92  F   UNL     1     -10.234  -4.831   8.780  1.00  0.00    -0.206 F 
ATOM     93  C   UNL     1     -12.445  -4.621  11.643  1.00  0.00     0.006 A 
ENDBRANCH  65  86
BRANCH  77  94
ATOM     94  C   UNL     1      -8.305 -12.557   9.858  1.00  0.00     0.057 A 
ATOM     95  C   UNL     1      -9.281 -12.908   8.918  1.00  0.00     0.134 A 
ATOM     96  C   UNL     1      -8.048 -13.459  10.897  1.00  0.00     0.134 A 
ATOM     97  F   UNL     1      -9.582 -12.079   7.907  1.00  0.00    -0.206 F 
ATOM     98  C   UNL     1      -9.992 -14.105   9.021  1.00  0.00     0.040 A 
ATOM     99  C   UNL     1      -8.732 -14.670  10.995  1.00  0.00     0.040 A 
ATOM    100  F   UNL     1      -7.117 -13.184  11.824  1.00  0.00    -0.206 F 
ATOM    101  C   UNL     1      -9.711 -14.993  10.058  1.00  0.00     0.006 A 
ENDBRANCH  77  94
ENDBRANCH  51  52
ENDBRANCH  43  46
ENDBRANCH  41  42
ENDBRANCH  40  41
ENDBRANCH   1  40
TORSDOF 13
