REMARK SMILES CC(C)(C)[C@](O)(c1ccc(C(=O)NCCCCNC(=O)c2ccc(-c3c4nc(c(-c5c(F)cccc5F)c5ccc([nH]5)c(-c5c(F)cccc5F)c5nc(c(-c6c(F)cccc6F)c6ccc3[nH]6)C=C5)C=C4)cc2)cc1)c1ccc(C(F)(F)F)cc1
REMARK SMILES IDX 15 1 14 2 13 3 11 4 12 5 10 7 7 8 8 9 76 10 9 11 75 12 5 13
REMARK SMILES IDX 2 14 1 15 3 16 4 17 77 18 78 19 86 20 79 21 85 22 80 23
REMARK SMILES IDX 81 24 82 25 83 26 84 27 6 28 16 30 17 31 18 32 19 33 20 35
REMARK SMILES IDX 21 36 22 37 74 38 23 39 73 40 24 41 25 42 26 43 67 44 27 45
REMARK SMILES IDX 72 46 66 47 68 48 28 49 71 50 65 51 64 52 29 54 55 55 38 56
REMARK SMILES IDX 54 57 39 58 42 59 53 60 69 61 40 62 41 63 52 65 70 66 43 67
REMARK SMILES IDX 30 68 31 69 36 70 32 71 33 72 35 73 37 74 34 75 56 76 57 77
REMARK SMILES IDX 62 78 58 79 59 80 61 81 63 82 60 83 44 84 45 85 50 86 46 87
REMARK SMILES IDX 47 88 49 89 51 90 48 91
REMARK H PARENT 13 6 6 29 18 34 68 53 42 64
REMARK Flexibility Score: inf
ROOT
ATOM      1  C   UNL     1       7.028   4.952   3.013  1.00  0.00     0.023 C 
ENDROOT
BRANCH   1   2
ATOM      2  C   UNL     1       6.919   4.071   1.769  1.00  0.00     0.116 C 
BRANCH   2   3
ATOM      3  N   UNL     1       7.415   2.733   2.030  1.00  0.00    -0.352 N 
ATOM      4  C   UNL     1       6.718   1.568   2.226  1.00  0.00     0.251 C 
ATOM      5  O   UNL     1       7.326   0.507   2.329  1.00  0.00    -0.269 OA
ATOM      6  H   UNL     1       8.395   2.649   2.071  1.00  0.00     0.163 HD
BRANCH   4   7
ATOM      7  C   UNL     1       5.238   1.562   2.247  1.00  0.00     0.039 A 
ATOM      8  C   UNL     1       2.400   1.470   2.184  1.00  0.00    -0.011 A 
ATOM      9  C   UNL     1       3.190   0.623   1.375  1.00  0.00     0.008 A 
ATOM     10  C   UNL     1       3.086   2.343   3.049  1.00  0.00     0.008 A 
ATOM     11  C   UNL     1       4.586   0.648   1.425  1.00  0.00     0.014 A 
ATOM     12  C   UNL     1       4.486   2.394   3.076  1.00  0.00     0.014 A 
BRANCH   8  13
ATOM     13  C   UNL     1       0.840   1.453   2.104  1.00  0.00     0.119 C 
BRANCH  13  14
ATOM     14  C   UNL     1       0.202   0.191   2.898  1.00  0.00    -0.001 C 
ATOM     15  C   UNL     1      -1.226  -0.101   2.369  1.00  0.00     0.014 C 
ATOM     16  C   UNL     1       0.146   0.347   4.438  1.00  0.00     0.014 C 
ATOM     17  C   UNL     1       0.996  -1.130   2.673  1.00  0.00     0.014 C 
ENDBRANCH  13  14
BRANCH  13  18
ATOM     18  C   UNL     1       0.275   2.886   2.373  1.00  0.00    -0.011 A 
ATOM     19  C   UNL     1       0.651   3.939   1.504  1.00  0.00     0.008 A 
ATOM     20  C   UNL     1      -0.492   3.258   3.486  1.00  0.00     0.008 A 
ATOM     21  C   UNL     1       0.369   5.282   1.790  1.00  0.00     0.013 A 
ATOM     22  C   UNL     1      -0.769   4.601   3.784  1.00  0.00     0.013 A 
ATOM     23  C   UNL     1      -0.314   5.630   2.958  1.00  0.00     0.056 A 
BRANCH  23  24
ATOM     24  C   UNL     1      -0.513   7.077   3.333  1.00  0.00     0.416 C 
ATOM     25  F   UNL     1       0.670   7.719   3.552  1.00  0.00    -0.166 F 
ATOM     26  F   UNL     1      -1.156   7.793   2.371  1.00  0.00    -0.166 F 
ATOM     27  F   UNL     1      -1.239   7.249   4.475  1.00  0.00    -0.166 F 
ENDBRANCH  23  24
ENDBRANCH  13  18
BRANCH  13  28
ATOM     28  O   UNL     1       0.525   1.277   0.699  1.00  0.00    -0.380 OA
ATOM     29  H   UNL     1       0.892   2.016   0.190  1.00  0.00     0.212 HD
ENDBRANCH  13  28
ENDBRANCH   8  13
ENDBRANCH   4   7
ENDBRANCH   2   3
ENDBRANCH   1   2
BRANCH   1  30
ATOM     30  C   UNL     1       8.456   5.361   3.379  1.00  0.00     0.023 C 
BRANCH  30  31
ATOM     31  C   UNL     1       9.175   6.199   2.331  1.00  0.00     0.116 C 
BRANCH  31  32
ATOM     32  N   UNL     1       8.475   7.429   1.999  1.00  0.00    -0.352 N 
ATOM     33  C   UNL     1       9.008   8.657   1.672  1.00  0.00     0.251 C 
ATOM     34  H   UNL     1       7.492   7.379   2.010  1.00  0.00     0.163 HD
ATOM     35  O   UNL     1       8.291   9.628   1.518  1.00  0.00    -0.269 OA
BRANCH  33  36
ATOM     36  C   UNL     1      10.476   8.782   1.553  1.00  0.00     0.039 A 
ATOM     37  C   UNL     1      11.122   9.800   2.258  1.00  0.00     0.014 A 
ATOM     38  C   UNL     1      11.209   7.868   0.792  1.00  0.00     0.014 A 
ATOM     39  C   UNL     1      12.516   9.859   2.254  1.00  0.00     0.010 A 
ATOM     40  C   UNL     1      12.597   7.885   0.848  1.00  0.00     0.010 A 
ATOM     41  C   UNL     1      13.263   8.880   1.580  1.00  0.00    -0.014 A 
BRANCH  41  42
ATOM     42  C   UNL     1      14.745   8.877   1.628  1.00  0.00     0.031 A 
ATOM     43  C   UNL     1      15.538   9.093   0.370  1.00  0.00     0.074 A 
ATOM     44  C   UNL     1      15.373   8.610   2.790  1.00  0.00     0.049 A 
ATOM     45  N   UNL     1      16.834   9.059   0.194  1.00  0.00    -0.248 NA
ATOM     46  C   UNL     1      14.771   9.354  -0.858  1.00  0.00     0.031 C 
ATOM     47  C   UNL     1      14.713   8.331   4.067  1.00  0.00     0.029 A 
ATOM     48  N   UNL     1      16.711   8.520   3.082  1.00  0.00    -0.354 N 
ATOM     49  C   UNL     1      17.035   9.275  -1.162  1.00  0.00     0.074 A 
ATOM     50  C   UNL     1      15.729   9.388  -1.773  1.00  0.00     0.031 C 
ATOM     51  C   UNL     1      15.647   8.125   5.009  1.00  0.00     0.029 A 
ATOM     52  C   UNL     1      16.969   8.222   4.398  1.00  0.00     0.049 A 
ATOM     53  H   UNL     1      17.419   8.655   2.411  1.00  0.00     0.167 HD
ATOM     54  C   UNL     1      18.204   9.394  -1.835  1.00  0.00     0.037 A 
ATOM     55  C   UNL     1      18.140   8.044   5.037  1.00  0.00     0.037 A 
ATOM     56  C   UNL     1      19.502   9.312  -1.219  1.00  0.00     0.049 A 
ATOM     57  C   UNL     1      19.424   8.185   4.268  1.00  0.00     0.074 A 
ATOM     58  C   UNL     1      20.745   9.487  -1.801  1.00  0.00     0.029 A 
ATOM     59  N   UNL     1      19.722   9.032   0.121  1.00  0.00    -0.354 N 
ATOM     60  N   UNL     1      19.601   8.464   2.999  1.00  0.00    -0.248 NA
ATOM     61  C   UNL     1      20.672   7.994   5.021  1.00  0.00     0.031 C 
ATOM     62  C   UNL     1      21.720   9.272  -0.821  1.00  0.00     0.029 A 
ATOM     63  C   UNL     1      21.082   9.009   0.381  1.00  0.00     0.049 A 
ATOM     64  H   UNL     1      19.017   8.873   0.789  1.00  0.00     0.167 HD
ATOM     65  C   UNL     1      20.976   8.510   2.808  1.00  0.00     0.074 A 
ATOM     66  C   UNL     1      21.586   8.243   4.094  1.00  0.00     0.031 C 
ATOM     67  C   UNL     1      21.671   8.752   1.670  1.00  0.00     0.037 A 
BRANCH  54  68
ATOM     68  C   UNL     1      18.130   9.632  -3.314  1.00  0.00     0.057 A 
ATOM     69  C   UNL     1      17.688  10.852  -3.844  1.00  0.00     0.134 A 
ATOM     70  C   UNL     1      18.532   8.643  -4.220  1.00  0.00     0.134 A 
ATOM     71  F   UNL     1      17.275  11.836  -3.032  1.00  0.00    -0.206 F 
ATOM     72  C   UNL     1      17.625  11.070  -5.222  1.00  0.00     0.040 A 
ATOM     73  C   UNL     1      18.499   8.858  -5.598  1.00  0.00     0.040 A 
ATOM     74  F   UNL     1      18.970   7.453  -3.780  1.00  0.00    -0.206 F 
ATOM     75  C   UNL     1      18.039  10.073  -6.103  1.00  0.00     0.006 A 
ENDBRANCH  54  68
BRANCH  55  76
ATOM     76  C   UNL     1      18.158   7.740   6.490  1.00  0.00     0.057 A 
ATOM     77  C   UNL     1      18.609   8.687   7.417  1.00  0.00     0.134 A 
ATOM     78  C   UNL     1      17.739   6.500   6.986  1.00  0.00     0.134 A 
ATOM     79  F   UNL     1      19.040   9.887   7.000  1.00  0.00    -0.206 F 
ATOM     80  C   UNL     1      18.663   8.406   8.783  1.00  0.00     0.040 A 
ATOM     81  C   UNL     1      17.765   6.213   8.351  1.00  0.00     0.040 A 
ATOM     82  F   UNL     1      17.289   5.553   6.149  1.00  0.00    -0.206 F 
ATOM     83  C   UNL     1      18.235   7.166   9.254  1.00  0.00     0.006 A 
ENDBRANCH  55  76
BRANCH  67  84
ATOM     84  C   UNL     1      23.167   8.776   1.772  1.00  0.00     0.057 A 
ATOM     85  C   UNL     1      23.916   7.604   1.941  1.00  0.00     0.134 A 
ATOM     86  C   UNL     1      23.869   9.983   1.660  1.00  0.00     0.134 A 
ATOM     87  F   UNL     1      23.302   6.418   2.068  1.00  0.00    -0.206 F 
ATOM     88  C   UNL     1      25.309   7.635   2.015  1.00  0.00     0.040 A 
ATOM     89  C   UNL     1      25.262  10.024   1.707  1.00  0.00     0.040 A 
ATOM     90  F   UNL     1      23.211  11.140   1.489  1.00  0.00    -0.206 F 
ATOM     91  C   UNL     1      25.986   8.847   1.891  1.00  0.00     0.006 A 
ENDBRANCH  67  84
ENDBRANCH  41  42
ENDBRANCH  33  36
ENDBRANCH  31  32
ENDBRANCH  30  31
ENDBRANCH   1  30
TORSDOF 16
