REMARK SMILES Cc1cc(/C=C2/C(=O)NC(=S)[NH+]=C2NCCCCNC(=O)c2ccc(-c3c4nc(c(-c5c(F)cccc5F)c5ccc([nH]5)c(-c5c(F)cccc5F)c5nc(c(-c6c(F)cccc6F)c6ccc3[nH]6)C=C5)C=C4)cc2)c(C)n1-c1cccc(C(=O)[O-])c1
REMARK SMILES IDX 16 1 15 2 14 3 5 4 6 5 7 6 13 7 8 8 9 9 12 10 10 11 11 15
REMARK SMILES IDX 4 16 1 17 2 18 3 19 78 20 76 21 77 22 79 23 80 24 87 25
REMARK SMILES IDX 81 26 83 27 82 28 84 29 85 30 86 31 17 32 18 33 19 34 20 35
REMARK SMILES IDX 21 37 22 38 23 39 75 40 24 41 74 42 25 43 26 44 27 45 68 46
REMARK SMILES IDX 28 47 73 48 67 49 69 50 29 51 72 52 66 53 65 54 30 56 56 57
REMARK SMILES IDX 39 58 55 59 40 60 43 61 54 62 70 63 41 64 42 65 53 67 71 68
REMARK SMILES IDX 44 69 31 70 32 71 37 72 33 73 34 74 36 75 38 76 35 77 57 78
REMARK SMILES IDX 58 79 63 80 59 81 60 82 62 83 64 84 61 85 45 86 46 87 51 88
REMARK SMILES IDX 47 89 48 90 50 91 52 92 49 93
REMARK H PARENT 9 12 12 13 14 14 19 36 69 55 43 66
REMARK Flexibility Score: inf
ROOT
ATOM      1  C   UNL     1      -1.426   3.655   0.132  1.00  0.00     0.039 C 
ENDROOT
BRANCH   1   2
ATOM      2  C   UNL     1      -1.515   3.916   1.643  1.00  0.00     0.194 C 
BRANCH   2   3
ATOM      3  N   UNL     1      -0.714   4.908   2.337  1.00  0.00    -0.305 N 
ATOM      4  C   UNL     1      -0.128   2.425   4.345  1.00  0.00     0.032 C 
ATOM      5  C   UNL     1      -0.624   3.658   4.605  1.00  0.00     0.128 C 
ATOM      6  C   UNL     1      -1.175   3.833   5.973  1.00  0.00     0.319 C 
ATOM      7  C   UNL     1      -0.649   4.902   3.737  1.00  0.00     0.234 C 
ATOM      8  O   UNL     1      -1.583   2.913   6.673  1.00  0.00    -0.250 OA
ATOM      9  N   UNL     1      -1.162   5.122   6.412  1.00  0.00    -0.229 N 
ATOM     10  N   UNL     1      -0.689   6.084   4.302  1.00  0.00    -0.236 N 
ATOM     11  C   UNL     1      -0.823   6.216   5.664  1.00  0.00     0.295 C 
ATOM     12  H   UNL     1      -1.419   5.280   7.349  1.00  0.00     0.268 HD
ATOM     13  H   UNL     1      -0.621   6.891   3.742  1.00  0.00     0.268 HD
ATOM     14  H   UNL     1      -0.216   5.585   1.825  1.00  0.00     0.256 HD
ATOM     15  S   UNL     1      -0.707   7.681   6.479  1.00  0.00    -0.005 S 
BRANCH   4  16
ATOM     16  C   UNL     1       0.530   1.938   3.169  1.00  0.00    -0.003 A 
ATOM     17  C   UNL     1       0.966  -0.401   0.325  1.00  0.00     0.065 C 
ATOM     18  C   UNL     1       0.951   0.717   1.313  1.00  0.00     0.020 A 
ATOM     19  C   UNL     1       0.283   0.710   2.530  1.00  0.00     0.031 A 
ATOM     20  N   UNL     1       1.615   1.945   1.192  1.00  0.00    -0.318 N 
ATOM     21  C   UNL     1       1.515   2.585   2.448  1.00  0.00     0.027 A 
ATOM     22  C   UNL     1       2.199   3.847   2.859  1.00  0.00     0.065 C 
BRANCH  20  23
ATOM     23  C   UNL     1       2.054   2.613  -0.020  1.00  0.00     0.046 A 
ATOM     24  C   UNL     1       2.988   4.156   0.198  1.00  0.00     0.026 A 
ATOM     25  C   UNL     1       1.097   2.364  -1.531  1.00  0.00     0.036 A 
ATOM     26  C   UNL     1       2.866   5.478  -1.047  1.00  0.00     0.003 A 
ATOM     27  C   UNL     1       1.114   3.613  -2.844  1.00  0.00    -0.001 A 
ATOM     28  C   UNL     1       1.978   5.170  -2.612  1.00  0.00     0.010 A 
BRANCH  27  29
ATOM     29  C   UNL     1       0.352   3.433  -4.101  1.00  0.00     0.072 C 
ATOM     30  O   UNL     1       0.455   4.120  -5.098  1.00  0.00    -0.545 OA
ATOM     31  O   UNL     1      -0.574   2.462  -4.001  1.00  0.00    -0.545 OA
ENDBRANCH  27  29
ENDBRANCH  20  23
ENDBRANCH   4  16
ENDBRANCH   2   3
ENDBRANCH   1   2
BRANCH   1  32
ATOM     32  C   UNL     1      -0.548   4.316  -0.948  1.00  0.00     0.024 C 
BRANCH  32  33
ATOM     33  C   UNL     1       1.125   4.393  -0.803  1.00  0.00     0.116 C 
BRANCH  33  34
ATOM     34  N   UNL     1       2.815   3.570  -1.703  1.00  0.00    -0.352 N 
ATOM     35  C   UNL     1       4.377   3.745  -1.943  1.00  0.00     0.251 C 
ATOM     36  H   UNL     1       2.535   2.744  -2.161  1.00  0.00     0.163 HD
ATOM     37  O   UNL     1       4.907   2.810  -2.558  1.00  0.00    -0.269 OA
BRANCH  35  38
ATOM     38  C   UNL     1       5.321   5.004  -1.502  1.00  0.00     0.039 A 
ATOM     39  C   UNL     1       5.185   6.211  -2.166  1.00  0.00     0.014 A 
ATOM     40  C   UNL     1       6.135   5.125  -0.344  1.00  0.00     0.014 A 
ATOM     41  C   UNL     1       5.490   7.472  -1.492  1.00  0.00     0.010 A 
ATOM     42  C   UNL     1       6.651   6.448   0.219  1.00  0.00     0.010 A 
ATOM     43  C   UNL     1       6.279   7.721  -0.282  1.00  0.00    -0.014 A 
BRANCH  43  44
ATOM     44  C   UNL     1       6.990   9.341  -0.136  1.00  0.00     0.031 A 
ATOM     45  C   UNL     1       7.240   9.527  -1.592  1.00  0.00     0.074 A 
ATOM     46  C   UNL     1       7.577  10.412   0.647  1.00  0.00     0.049 A 
ATOM     47  N   UNL     1       7.954   8.560  -2.090  1.00  0.00    -0.248 NA
ATOM     48  C   UNL     1       6.432  10.227  -2.590  1.00  0.00     0.031 C 
ATOM     49  C   UNL     1       7.846  10.491   2.110  1.00  0.00     0.029 A 
ATOM     50  N   UNL     1       8.156  11.748   0.309  1.00  0.00    -0.354 N 
ATOM     51  C   UNL     1       7.938   8.641  -3.446  1.00  0.00     0.074 A 
ATOM     52  C   UNL     1       6.839   9.580  -3.702  1.00  0.00     0.031 C 
ATOM     53  C   UNL     1       8.313  11.718   2.536  1.00  0.00     0.029 A 
ATOM     54  C   UNL     1       8.529  12.673   1.435  1.00  0.00     0.049 A 
ATOM     55  H   UNL     1       8.290  12.016  -0.628  1.00  0.00     0.167 HD
ATOM     56  C   UNL     1       9.222   8.603  -3.905  1.00  0.00     0.037 A 
ATOM     57  C   UNL     1       9.089  14.001   1.476  1.00  0.00     0.037 A 
ATOM     58  C   UNL     1       9.759   9.940  -3.880  1.00  0.00     0.049 A 
ATOM     59  C   UNL     1       9.958  14.030   0.306  1.00  0.00     0.074 A 
ATOM     60  C   UNL     1       9.183  11.159  -4.203  1.00  0.00     0.029 A 
ATOM     61  N   UNL     1      10.746  10.197  -2.959  1.00  0.00    -0.354 N 
ATOM     62  N   UNL     1      11.109  13.435   0.291  1.00  0.00    -0.248 NA
ATOM     63  C   UNL     1       9.597  14.784  -0.882  1.00  0.00     0.031 C 
ATOM     64  C   UNL     1       9.433  11.953  -3.072  1.00  0.00     0.029 A 
ATOM     65  C   UNL     1      10.572  11.459  -2.456  1.00  0.00     0.049 A 
ATOM     66  H   UNL     1      11.463   9.574  -2.702  1.00  0.00     0.167 HD
ATOM     67  C   UNL     1      11.260  13.206  -1.034  1.00  0.00     0.074 A 
ATOM     68  C   UNL     1      10.490  14.245  -1.711  1.00  0.00     0.031 C 
ATOM     69  C   UNL     1      11.392  11.902  -1.373  1.00  0.00     0.037 A 
BRANCH  56  70
ATOM     70  C   UNL     1       9.954   7.370  -3.357  1.00  0.00     0.057 A 
ATOM     71  C   UNL     1      10.237   6.320  -4.226  1.00  0.00     0.134 A 
ATOM     72  C   UNL     1      10.210   7.120  -1.980  1.00  0.00     0.134 A 
ATOM     73  F   UNL     1      10.077   6.480  -5.548  1.00  0.00    -0.206 F 
ATOM     74  C   UNL     1      10.685   5.077  -3.759  1.00  0.00     0.040 A 
ATOM     75  C   UNL     1      10.572   5.861  -1.496  1.00  0.00     0.040 A 
ATOM     76  F   UNL     1      10.112   8.091  -1.056  1.00  0.00    -0.206 F 
ATOM     77  C   UNL     1      10.812   4.831  -2.391  1.00  0.00     0.006 A 
ENDBRANCH  56  70
BRANCH  57  78
ATOM     78  C   UNL     1       9.470  15.409   2.242  1.00  0.00     0.057 A 
ATOM     79  C   UNL     1      10.655  16.200   1.920  1.00  0.00     0.134 A 
ATOM     80  C   UNL     1       8.492  16.221   2.841  1.00  0.00     0.134 A 
ATOM     81  F   UNL     1      11.740  15.647   1.359  1.00  0.00    -0.206 F 
ATOM     82  C   UNL     1      10.788  17.613   2.076  1.00  0.00     0.040 A 
ATOM     83  C   UNL     1       8.631  17.643   3.027  1.00  0.00     0.040 A 
ATOM     84  F   UNL     1       7.316  15.692   3.194  1.00  0.00    -0.206 F 
ATOM     85  C   UNL     1       9.757  18.351   2.614  1.00  0.00     0.006 A 
ENDBRANCH  57  78
BRANCH  69  86
ATOM     86  C   UNL     1      12.281  11.031  -0.519  1.00  0.00     0.057 A 
ATOM     87  C   UNL     1      12.181  10.812   0.870  1.00  0.00     0.134 A 
ATOM     88  C   UNL     1      13.370  10.422  -1.153  1.00  0.00     0.134 A 
ATOM     89  F   UNL     1      11.144  11.256   1.591  1.00  0.00    -0.206 F 
ATOM     90  C   UNL     1      13.154  10.097   1.584  1.00  0.00     0.040 A 
ATOM     91  C   UNL     1      14.322   9.671  -0.461  1.00  0.00     0.040 A 
ATOM     92  F   UNL     1      13.522  10.537  -2.481  1.00  0.00    -0.206 F 
ATOM     93  C   UNL     1      14.232   9.529   0.918  1.00  0.00     0.006 A 
ENDBRANCH  69  86
ENDBRANCH  43  44
ENDBRANCH  35  38
ENDBRANCH  33  34
ENDBRANCH  32  33
ENDBRANCH   1  32
TORSDOF 13
