REMARK SMILES CCC1(C)CC[NH+]([C@@H]2CC[C@]([NH2+]C3CC3)(C(=O)NCCCCNC(=O)c3ccc(-c4c5nc(c(-c6c(F)cccc6F)c6ccc([nH]6)c(-c6c(F)cccc6F)c6nc(c(-c7c(F)cccc7F)c7ccc4[nH]7)C=C6)C=C5)cc3)C2)CC1
REMARK SMILES IDX 20 1 19 2 18 3 16 4 17 5 11 7 8 8 9 9 80 10 10 11 7 12 3 13
REMARK SMILES IDX 4 14 5 15 82 16 6 17 81 18 2 20 1 21 12 22 13 25 14 26 15 27
REMARK SMILES IDX 21 28 22 29 23 30 24 31 25 33 26 34 27 35 79 36 28 37 78 38
REMARK SMILES IDX 29 39 30 40 31 41 72 42 32 43 77 44 71 45 73 46 33 47 76 48
REMARK SMILES IDX 70 49 69 50 34 52 60 53 43 54 59 55 44 56 47 57 58 58 74 59
REMARK SMILES IDX 45 60 46 61 57 63 75 64 48 65 35 66 36 67 41 68 37 69 38 70
REMARK SMILES IDX 40 71 42 72 39 73 61 74 62 75 67 76 63 77 64 78 66 79 68 80
REMARK SMILES IDX 65 81 49 82 50 83 55 84 51 85 52 86 54 87 56 88 53 89
REMARK H PARENT 18 6 7 19 12 23 12 24 23 32 73 51 47 62
REMARK Flexibility Score: inf
ROOT
ATOM      1  C   UNL     1       1.890   2.259  -3.296  1.00  0.00     0.023 C 
ENDROOT
BRANCH   1   2
ATOM      2  C   UNL     1       0.789   3.320  -3.354  1.00  0.00     0.116 C 
BRANCH   2   3
ATOM      3  N   UNL     1       0.755   4.093  -4.583  1.00  0.00    -0.351 N 
ATOM      4  C   UNL     1       0.042   3.955  -5.744  1.00  0.00     0.281 C 
ATOM      5  O   UNL     1       0.200   4.864  -6.571  1.00  0.00    -0.268 OA
ATOM      6  H   UNL     1       1.363   4.867  -4.580  1.00  0.00     0.163 HD
BRANCH   4   7
ATOM      7  C   UNL     1      -0.858   2.700  -6.076  1.00  0.00     0.181 C 
ATOM      8  C   UNL     1      -2.083   1.028  -4.777  1.00  0.00     0.191 C 
ATOM      9  C   UNL     1      -0.634   0.550  -4.921  1.00  0.00     0.072 C 
ATOM     10  C   UNL     1      -2.025   2.534  -5.079  1.00  0.00     0.144 C 
ATOM     11  C   UNL     1       0.002   1.430  -5.990  1.00  0.00     0.085 C 
BRANCH   8  12
ATOM     12  N   UNL     1      -2.852   0.611  -3.596  1.00  0.00    -0.332 N 
ATOM     13  C   UNL     1      -1.401  -0.781  -1.355  1.00  0.00    -0.022 C 
ATOM     14  C   UNL     1      -2.372  -1.237  -0.248  1.00  0.00     0.012 C 
ATOM     15  C   UNL     1      -1.784  -1.477  -2.685  1.00  0.00     0.068 C 
ATOM     16  C   UNL     1      -1.463   0.758  -1.500  1.00  0.00     0.068 C 
ATOM     17  C   UNL     1      -2.965  -0.839  -3.421  1.00  0.00     0.263 C 
ATOM     18  C   UNL     1      -2.653   1.272  -2.312  1.00  0.00     0.263 C 
ATOM     19  H   UNL     1      -3.746   0.998  -3.898  1.00  0.00     0.348 HD
BRANCH  13  20
ATOM     20  C   UNL     1       0.051  -1.221  -1.008  1.00  0.00     0.004 C 
ATOM     21  C   UNL     1       0.595  -0.728   0.322  1.00  0.00     0.004 C 
ENDBRANCH  13  20
ENDBRANCH   8  12
BRANCH   7  22
ATOM     22  N   UNL     1      -1.389   2.869  -7.461  1.00  0.00    -0.331 N 
ATOM     23  H   UNL     1      -0.608   3.139  -8.058  1.00  0.00     0.347 HD
ATOM     24  H   UNL     1      -2.129   3.566  -7.376  1.00  0.00     0.347 HD
BRANCH  22  25
ATOM     25  C   UNL     1      -2.037   1.702  -8.079  1.00  0.00     0.183 C 
ATOM     26  C   UNL     1      -3.512   1.727  -8.337  1.00  0.00     0.071 C 
ATOM     27  C   UNL     1      -2.547   1.808  -9.485  1.00  0.00     0.071 C 
ENDBRANCH  22  25
ENDBRANCH   7  22
ENDBRANCH   4   7
ENDBRANCH   2   3
ENDBRANCH   1   2
BRANCH   1  28
ATOM     28  C   UNL     1       3.264   2.760  -2.901  1.00  0.00     0.023 C 
BRANCH  28  29
ATOM     29  C   UNL     1       3.362   3.199  -1.453  1.00  0.00     0.116 C 
BRANCH  29  30
ATOM     30  N   UNL     1       2.969   2.165  -0.498  1.00  0.00    -0.352 N 
ATOM     31  C   UNL     1       3.634   1.726   0.624  1.00  0.00     0.251 C 
ATOM     32  H   UNL     1       2.110   1.721  -0.684  1.00  0.00     0.163 HD
ATOM     33  O   UNL     1       3.222   0.791   1.291  1.00  0.00    -0.269 OA
BRANCH  31  34
ATOM     34  C   UNL     1       4.889   2.393   0.992  1.00  0.00     0.039 A 
ATOM     35  C   UNL     1       6.029   1.619   1.215  1.00  0.00     0.014 A 
ATOM     36  C   UNL     1       4.939   3.787   1.012  1.00  0.00     0.014 A 
ATOM     37  C   UNL     1       7.253   2.258   1.377  1.00  0.00     0.010 A 
ATOM     38  C   UNL     1       6.170   4.411   1.052  1.00  0.00     0.010 A 
ATOM     39  C   UNL     1       7.334   3.653   1.249  1.00  0.00    -0.014 A 
BRANCH  39  40
ATOM     40  C   UNL     1       8.620   4.369   1.361  1.00  0.00     0.031 A 
ATOM     41  C   UNL     1       8.794   5.367   2.468  1.00  0.00     0.074 A 
ATOM     42  C   UNL     1       9.566   4.187   0.423  1.00  0.00     0.049 A 
ATOM     43  N   UNL     1       9.773   6.206   2.678  1.00  0.00    -0.248 NA
ATOM     44  C   UNL     1       7.693   5.471   3.442  1.00  0.00     0.031 C 
ATOM     45  C   UNL     1       9.464   3.282  -0.725  1.00  0.00     0.029 A 
ATOM     46  N   UNL     1      10.799   4.765   0.281  1.00  0.00    -0.354 N 
ATOM     47  C   UNL     1       9.387   6.956   3.781  1.00  0.00     0.074 A 
ATOM     48  C   UNL     1       8.062   6.521   4.157  1.00  0.00     0.031 C 
ATOM     49  C   UNL     1      10.603   3.342  -1.435  1.00  0.00     0.029 A 
ATOM     50  C   UNL     1      11.494   4.316  -0.815  1.00  0.00     0.049 A 
ATOM     51  H   UNL     1      11.154   5.439   0.905  1.00  0.00     0.167 HD
ATOM     52  C   UNL     1      10.094   7.902   4.440  1.00  0.00     0.037 A 
ATOM     53  C   UNL     1      12.716   4.661  -1.262  1.00  0.00     0.037 A 
ATOM     54  C   UNL     1      11.432   8.281   4.082  1.00  0.00     0.049 A 
ATOM     55  C   UNL     1      13.496   5.688  -0.490  1.00  0.00     0.074 A 
ATOM     56  C   UNL     1      12.277   9.173   4.713  1.00  0.00     0.029 A 
ATOM     57  N   UNL     1      12.124   7.770   2.991  1.00  0.00    -0.354 N 
ATOM     58  N   UNL     1      13.149   6.351   0.588  1.00  0.00    -0.248 NA
ATOM     59  C   UNL     1      14.838   6.012  -0.991  1.00  0.00     0.031 C 
ATOM     60  C   UNL     1      13.470   9.227   3.986  1.00  0.00     0.029 A 
ATOM     61  C   UNL     1      13.383   8.338   2.925  1.00  0.00     0.049 A 
ATOM     62  H   UNL     1      11.771   7.104   2.359  1.00  0.00     0.167 HD
ATOM     63  C   UNL     1      14.236   7.150   0.910  1.00  0.00     0.074 A 
ATOM     64  C   UNL     1      15.260   6.877  -0.079  1.00  0.00     0.031 C 
ATOM     65  C   UNL     1      14.379   8.032   1.930  1.00  0.00     0.037 A 
BRANCH  52  66
ATOM     66  C   UNL     1       9.430   8.569   5.609  1.00  0.00     0.057 A 
ATOM     67  C   UNL     1       9.159   7.880   6.799  1.00  0.00     0.134 A 
ATOM     68  C   UNL     1       9.052   9.915   5.543  1.00  0.00     0.134 A 
ATOM     69  F   UNL     1       9.475   6.582   6.920  1.00  0.00    -0.206 F 
ATOM     70  C   UNL     1       8.507   8.496   7.869  1.00  0.00     0.040 A 
ATOM     71  C   UNL     1       8.427  10.551   6.617  1.00  0.00     0.040 A 
ATOM     72  F   UNL     1       9.280  10.634   4.434  1.00  0.00    -0.206 F 
ATOM     73  C   UNL     1       8.145   9.838   7.781  1.00  0.00     0.006 A 
ENDBRANCH  52  66
BRANCH  53  74
ATOM     74  C   UNL     1      13.286   4.001  -2.462  1.00  0.00     0.057 A 
ATOM     75  C   UNL     1      14.347   3.094  -2.347  1.00  0.00     0.134 A 
ATOM     76  C   UNL     1      12.785   4.245  -3.747  1.00  0.00     0.134 A 
ATOM     77  F   UNL     1      14.877   2.827  -1.145  1.00  0.00    -0.206 F 
ATOM     78  C   UNL     1      14.902   2.470  -3.465  1.00  0.00     0.040 A 
ATOM     79  C   UNL     1      13.316   3.610  -4.872  1.00  0.00     0.040 A 
ATOM     80  F   UNL     1      11.761   5.093  -3.924  1.00  0.00    -0.206 F 
ATOM     81  C   UNL     1      14.382   2.724  -4.733  1.00  0.00     0.006 A 
ENDBRANCH  53  74
BRANCH  65  82
ATOM     82  C   UNL     1      15.699   8.732   2.040  1.00  0.00     0.057 A 
ATOM     83  C   UNL     1      16.063   9.758   1.159  1.00  0.00     0.134 A 
ATOM     84  C   UNL     1      16.591   8.408   3.069  1.00  0.00     0.134 A 
ATOM     85  F   UNL     1      15.255  10.104   0.146  1.00  0.00    -0.206 F 
ATOM     86  C   UNL     1      17.282  10.424   1.287  1.00  0.00     0.040 A 
ATOM     87  C   UNL     1      17.800   9.084   3.222  1.00  0.00     0.040 A 
ATOM     88  F   UNL     1      16.293   7.441   3.950  1.00  0.00    -0.206 F 
ATOM     89  C   UNL     1      18.151  10.092   2.326  1.00  0.00     0.006 A 
ENDBRANCH  65  82
ENDBRANCH  39  40
ENDBRANCH  31  34
ENDBRANCH  29  30
ENDBRANCH  28  29
ENDBRANCH   1  28
TORSDOF 15
