REMARK SMILES Cc1ccc(C(=O)NCCCCNC(=O)c2ccc(-c3c4nc(c(-c5c(F)cccc5F)c5ccc([nH]5)c(-c5c(F)cccc5F)c5nc(c(-c6c(F)cccc6F)c6ccc3[nH]6)C=C5)C=C4)cc2)cc1S(=O)(=O)N(C)[C@H]1CCSC1
REMARK SMILES IDX 10 1 9 2 8 3 6 4 7 5 5 7 1 8 2 9 3 10 71 11 4 12 70 13 72 14
REMARK SMILES IDX 73 15 74 16 75 17 76 18 77 19 78 20 81 21 79 22 80 23 11 24
REMARK SMILES IDX 12 25 13 26 14 27 15 29 16 30 17 31 69 32 18 33 68 34 19 35
REMARK SMILES IDX 20 36 21 37 62 38 22 39 67 40 61 41 63 42 23 43 66 44 60 45
REMARK SMILES IDX 59 46 24 48 50 49 33 50 49 51 34 52 37 53 48 54 64 55 35 56
REMARK SMILES IDX 36 57 47 59 65 60 38 61 25 62 26 63 31 64 27 65 28 66 30 67
REMARK SMILES IDX 32 68 29 69 51 70 52 71 57 72 53 73 54 74 56 75 58 76 55 77
REMARK SMILES IDX 39 78 40 79 45 80 41 81 42 82 44 83 46 84 43 85
REMARK H PARENT 8 6 13 28 63 47 37 58
REMARK Flexibility Score: inf
ROOT
ATOM      1  C   UNL     1      -2.587   5.704  -3.427  1.00  0.00     0.023 C 
ENDROOT
BRANCH   1   2
ATOM      2  C   UNL     1      -2.889   5.351  -1.960  1.00  0.00     0.116 C 
BRANCH   2   3
ATOM      3  N   UNL     1      -3.518   4.047  -1.840  1.00  0.00    -0.352 N 
ATOM      4  C   UNL     1      -3.035   2.778  -1.645  1.00  0.00     0.251 C 
ATOM      5  O   UNL     1      -3.872   1.877  -1.558  1.00  0.00    -0.269 OA
ATOM      6  H   UNL     1      -4.499   4.082  -1.914  1.00  0.00     0.163 HD
BRANCH   4   7
ATOM      7  C   UNL     1      -1.590   2.429  -1.507  1.00  0.00     0.041 A 
ATOM      8  C   UNL     1       2.476   0.975  -1.014  1.00  0.00     0.046 C 
ATOM      9  C   UNL     1       1.130   1.609  -1.162  1.00  0.00    -0.031 A 
ATOM     10  C   UNL     1       0.049   0.746  -0.888  1.00  0.00     0.005 A 
ATOM     11  C   UNL     1       0.824   2.900  -1.615  1.00  0.00     0.086 A 
ATOM     12  C   UNL     1      -1.280   1.150  -1.041  1.00  0.00     0.014 A 
ATOM     13  C   UNL     1      -0.525   3.266  -1.823  1.00  0.00     0.035 A 
BRANCH  11  14
ATOM     14  S   UNL     1       1.945   4.255  -1.972  1.00  0.00     0.243 S 
ATOM     15  O   UNL     1       2.130   4.257  -3.396  1.00  0.00    -0.207 OA
ATOM     16  O   UNL     1       1.377   5.415  -1.290  1.00  0.00    -0.207 OA
BRANCH  14  17
ATOM     17  N   UNL     1       3.413   3.940  -1.218  1.00  0.00    -0.197 NA
ATOM     18  C   UNL     1       4.549   3.611  -2.084  1.00  0.00     0.125 C 
BRANCH  17  19
ATOM     19  C   UNL     1       3.558   4.217   0.228  1.00  0.00     0.083 C 
ATOM     20  C   UNL     1       4.491   3.260   0.968  1.00  0.00     0.032 C 
ATOM     21  C   UNL     1       4.088   5.617   0.535  1.00  0.00     0.089 C 
ATOM     22  C   UNL     1       4.463   3.725   2.414  1.00  0.00     0.071 C 
ATOM     23  S   UNL     1       4.576   5.534   2.295  1.00  0.00    -0.160 SA
ENDBRANCH  17  19
ENDBRANCH  14  17
ENDBRANCH  11  14
ENDBRANCH   4   7
ENDBRANCH   2   3
ENDBRANCH   1   2
BRANCH   1  24
ATOM     24  C   UNL     1      -3.819   6.022  -4.280  1.00  0.00     0.023 C 
BRANCH  24  25
ATOM     25  C   UNL     1      -4.574   7.257  -3.822  1.00  0.00     0.116 C 
BRANCH  25  26
ATOM     26  N   UNL     1      -3.946   8.529  -4.144  1.00  0.00    -0.352 N 
ATOM     27  C   UNL     1      -4.356   9.822  -3.866  1.00  0.00     0.251 C 
ATOM     28  H   UNL     1      -3.097   8.459  -4.636  1.00  0.00     0.163 HD
ATOM     29  O   UNL     1      -3.749  10.758  -4.386  1.00  0.00    -0.269 OA
BRANCH  27  30
ATOM     30  C   UNL     1      -5.365  10.113  -2.806  1.00  0.00     0.039 A 
ATOM     31  C   UNL     1      -5.220  11.326  -2.113  1.00  0.00     0.014 A 
ATOM     32  C   UNL     1      -6.098   9.092  -2.227  1.00  0.00     0.014 A 
ATOM     33  C   UNL     1      -5.464  11.360  -0.748  1.00  0.00     0.010 A 
ATOM     34  C   UNL     1      -6.129   9.036  -0.862  1.00  0.00     0.010 A 
ATOM     35  C   UNL     1      -5.747  10.157  -0.125  1.00  0.00    -0.014 A 
BRANCH  35  36
ATOM     36  C   UNL     1      -5.817   9.944   1.300  1.00  0.00     0.031 A 
ATOM     37  C   UNL     1      -7.163   9.973   1.890  1.00  0.00     0.074 A 
ATOM     38  C   UNL     1      -4.720   9.445   1.910  1.00  0.00     0.049 A 
ATOM     39  N   UNL     1      -7.404   9.896   3.145  1.00  0.00    -0.248 NA
ATOM     40  C   UNL     1      -8.376  10.135   1.083  1.00  0.00     0.031 C 
ATOM     41  C   UNL     1      -4.623   8.729   3.176  1.00  0.00     0.029 A 
ATOM     42  N   UNL     1      -3.386   9.697   1.561  1.00  0.00    -0.354 N 
ATOM     43  C   UNL     1      -8.753   9.656   3.282  1.00  0.00     0.074 A 
ATOM     44  C   UNL     1      -9.328   9.963   2.003  1.00  0.00     0.031 C 
ATOM     45  C   UNL     1      -3.374   8.865   3.659  1.00  0.00     0.029 A 
ATOM     46  C   UNL     1      -2.695   9.814   2.790  1.00  0.00     0.049 A 
ATOM     47  H   UNL     1      -3.010   9.775   0.655  1.00  0.00     0.167 HD
ATOM     48  C   UNL     1      -9.168   9.062   4.432  1.00  0.00     0.037 A 
ATOM     49  C   UNL     1      -2.234  11.038   3.196  1.00  0.00     0.037 A 
ATOM     50  C   UNL     1      -8.082   9.101   5.413  1.00  0.00     0.049 A 
ATOM     51  C   UNL     1      -2.916  11.506   4.463  1.00  0.00     0.074 A 
ATOM     52  C   UNL     1      -7.159   8.159   5.830  1.00  0.00     0.029 A 
ATOM     53  N   UNL     1      -7.593  10.343   5.812  1.00  0.00    -0.354 N 
ATOM     54  N   UNL     1      -4.126  11.157   4.815  1.00  0.00    -0.248 NA
ATOM     55  C   UNL     1      -2.257  12.340   5.463  1.00  0.00     0.031 C 
ATOM     56  C   UNL     1      -6.038   8.866   6.353  1.00  0.00     0.029 A 
ATOM     57  C   UNL     1      -6.307  10.226   6.301  1.00  0.00     0.049 A 
ATOM     58  H   UNL     1      -8.095  11.188   5.754  1.00  0.00     0.167 HD
ATOM     59  C   UNL     1      -4.397  11.655   6.064  1.00  0.00     0.074 A 
ATOM     60  C   UNL     1      -3.199  12.395   6.421  1.00  0.00     0.031 C 
ATOM     61  C   UNL     1      -5.565  11.405   6.729  1.00  0.00     0.037 A 
BRANCH  48  62
ATOM     62  C   UNL     1     -10.436   8.257   4.611  1.00  0.00     0.057 A 
ATOM     63  C   UNL     1     -10.704   7.657   5.857  1.00  0.00     0.134 A 
ATOM     64  C   UNL     1     -11.359   7.916   3.600  1.00  0.00     0.134 A 
ATOM     65  F   UNL     1      -9.916   7.875   6.920  1.00  0.00    -0.206 F 
ATOM     66  C   UNL     1     -11.779   6.782   6.072  1.00  0.00     0.040 A 
ATOM     67  C   UNL     1     -12.461   7.075   3.813  1.00  0.00     0.040 A 
ATOM     68  F   UNL     1     -11.232   8.324   2.335  1.00  0.00    -0.206 F 
ATOM     69  C   UNL     1     -12.668   6.492   5.050  1.00  0.00     0.006 A 
ENDBRANCH  48  62
BRANCH  49  70
ATOM     70  C   UNL     1      -1.833  11.889   2.033  1.00  0.00     0.057 A 
ATOM     71  C   UNL     1      -0.811  11.390   1.198  1.00  0.00     0.134 A 
ATOM     72  C   UNL     1      -2.712  12.817   1.467  1.00  0.00     0.134 A 
ATOM     73  F   UNL     1       0.091  10.524   1.688  1.00  0.00    -0.206 F 
ATOM     74  C   UNL     1      -0.802  11.626  -0.179  1.00  0.00     0.040 A 
ATOM     75  C   UNL     1      -2.680  13.097   0.094  1.00  0.00     0.040 A 
ATOM     76  F   UNL     1      -3.702  13.355   2.194  1.00  0.00    -0.206 F 
ATOM     77  C   UNL     1      -1.774  12.444  -0.743  1.00  0.00     0.006 A 
ENDBRANCH  49  70
BRANCH  61  78
ATOM     78  C   UNL     1      -6.070  12.193   7.917  1.00  0.00     0.057 A 
ATOM     79  C   UNL     1      -5.697  13.516   8.198  1.00  0.00     0.134 A 
ATOM     80  C   UNL     1      -7.098  11.679   8.742  1.00  0.00     0.134 A 
ATOM     81  F   UNL     1      -4.842  14.190   7.417  1.00  0.00    -0.206 F 
ATOM     82  C   UNL     1      -6.235  14.240   9.269  1.00  0.00     0.040 A 
ATOM     83  C   UNL     1      -7.691  12.417   9.769  1.00  0.00     0.040 A 
ATOM     84  F   UNL     1      -7.598  10.447   8.570  1.00  0.00    -0.206 F 
ATOM     85  C   UNL     1      -7.243  13.696  10.053  1.00  0.00     0.006 A 
ENDBRANCH  61  78
ENDBRANCH  35  36
ENDBRANCH  27  30
ENDBRANCH  25  26
ENDBRANCH  24  25
ENDBRANCH   1  24
TORSDOF 14
