REMARK SMILES [NH3+][C@@]1(C(=O)NCCCCNC(=O)c2ccc(-c3c4nc(c(-c5c(F)cccc5F)c5ccc([nH]5)c(-c5c(F)cccc5F)c5nc(c(-c6c(F)cccc6F)c6ccc3[nH]6)C=C5)C=C4)cc2)CC[C@H](Sc2cccs2)C1
REMARK SMILES IDX 7 1 6 2 5 3 3 4 4 5 2 7 67 8 76 9 68 10 69 11 1 12 70 16
REMARK SMILES IDX 71 17 72 18 75 19 73 20 74 21 8 22 9 23 10 24 11 25 12 27
REMARK SMILES IDX 13 28 14 29 66 30 15 31 65 32 16 33 17 34 18 35 59 36 19 37
REMARK SMILES IDX 64 38 58 39 60 40 20 41 63 42 57 43 56 44 21 46 47 47 30 48
REMARK SMILES IDX 46 49 31 50 34 51 45 52 61 53 32 54 33 55 44 57 62 58 35 59
REMARK SMILES IDX 22 60 23 61 28 62 24 63 25 64 27 65 29 66 26 67 48 68 49 69
REMARK SMILES IDX 54 70 50 71 51 72 53 73 55 74 52 75 36 76 37 77 42 78 38 79
REMARK SMILES IDX 39 80 41 81 43 82 40 83
REMARK H PARENT 5 6 1 13 1 14 1 15 10 26 60 45 34 56
REMARK Flexibility Score: inf
ROOT
ATOM      1  C   UNL     1      -2.527   3.151   2.959  1.00  0.00     0.023 C 
ENDROOT
BRANCH   1   2
ATOM      2  C   UNL     1      -1.449   2.103   3.200  1.00  0.00     0.116 C 
BRANCH   2   3
ATOM      3  N   UNL     1      -1.578   0.961   2.327  1.00  0.00    -0.351 N 
ATOM      4  C   UNL     1      -0.726   0.459   1.390  1.00  0.00     0.281 C 
ATOM      5  O   UNL     1      -1.166  -0.473   0.703  1.00  0.00    -0.268 OA
ATOM      6  H   UNL     1      -2.421   0.462   2.425  1.00  0.00     0.163 HD
BRANCH   4   7
ATOM      7  C   UNL     1       0.724   1.025   1.145  1.00  0.00     0.175 C 
ATOM      8  C   UNL     1       1.649   0.881   2.367  1.00  0.00     0.080 C 
ATOM      9  C   UNL     1       0.725   2.516   0.763  1.00  0.00     0.094 C 
ATOM     10  C   UNL     1       1.962   2.288   2.868  1.00  0.00     0.022 C 
ATOM     11  C   UNL     1       1.786   3.191   1.652  1.00  0.00     0.059 C 
BRANCH   7  12
ATOM     12  N   UNL     1       1.340   0.208   0.068  1.00  0.00    -0.345 N 
ATOM     13  H   UNL     1       1.331  -0.775   0.338  1.00  0.00     0.345 HD
ATOM     14  H   UNL     1       2.303   0.511  -0.080  1.00  0.00     0.345 HD
ATOM     15  H   UNL     1       0.810   0.329  -0.795  1.00  0.00     0.345 HD
ENDBRANCH   7  12
BRANCH  11  16
ATOM     16  S   UNL     1       1.397   4.961   1.864  1.00  0.00    -0.112 SA
BRANCH  16  17
ATOM     17  C   UNL     1       1.127   5.278   3.568  1.00  0.00     0.060 A 
ATOM     18  C   UNL     1       1.953   4.984   4.633  1.00  0.00     0.027 A 
ATOM     19  S   UNL     1      -0.228   6.201   4.082  1.00  0.00    -0.137 S 
ATOM     20  C   UNL     1       1.438   5.459   5.878  1.00  0.00     0.013 A 
ATOM     21  C   UNL     1       0.252   6.138   5.721  1.00  0.00     0.066 A 
ENDBRANCH  16  17
ENDBRANCH  11  16
ENDBRANCH   4   7
ENDBRANCH   2   3
ENDBRANCH   1   2
BRANCH   1  22
ATOM     22  C   UNL     1      -3.854   2.879   3.651  1.00  0.00     0.023 C 
BRANCH  22  23
ATOM     23  C   UNL     1      -3.765   2.603   5.147  1.00  0.00     0.116 C 
BRANCH  23  24
ATOM     24  N   UNL     1      -3.039   3.612   5.910  1.00  0.00    -0.352 N 
ATOM     25  C   UNL     1      -3.353   4.143   7.142  1.00  0.00     0.251 C 
ATOM     26  H   UNL     1      -2.219   3.959   5.490  1.00  0.00     0.163 HD
ATOM     27  O   UNL     1      -2.661   5.023   7.644  1.00  0.00    -0.269 OA
BRANCH  25  28
ATOM     28  C   UNL     1      -4.575   3.674   7.826  1.00  0.00     0.039 A 
ATOM     29  C   UNL     1      -5.522   4.614   8.236  1.00  0.00     0.014 A 
ATOM     30  C   UNL     1      -4.828   2.307   7.959  1.00  0.00     0.014 A 
ATOM     31  C   UNL     1      -6.770   4.180   8.686  1.00  0.00     0.010 A 
ATOM     32  C   UNL     1      -6.101   1.880   8.318  1.00  0.00     0.010 A 
ATOM     33  C   UNL     1      -7.088   2.812   8.677  1.00  0.00    -0.014 A 
BRANCH  33  34
ATOM     34  C   UNL     1      -8.447   2.328   9.028  1.00  0.00     0.031 A 
ATOM     35  C   UNL     1      -8.636   1.411  10.203  1.00  0.00     0.074 A 
ATOM     36  C   UNL     1      -9.496   2.640   8.243  1.00  0.00     0.049 A 
ATOM     37  N   UNL     1      -9.720   0.807  10.617  1.00  0.00    -0.248 NA
ATOM     38  C   UNL     1      -7.436   1.101  10.996  1.00  0.00     0.031 C 
ATOM     39  C   UNL     1      -9.439   3.474   7.040  1.00  0.00     0.029 A 
ATOM     40  N   UNL     1     -10.818   2.284   8.336  1.00  0.00    -0.354 N 
ATOM     41  C   UNL     1      -9.328   0.028  11.697  1.00  0.00     0.074 A 
ATOM     42  C   UNL     1      -7.897   0.190  11.838  1.00  0.00     0.031 C 
ATOM     43  C   UNL     1     -10.676   3.596   6.531  1.00  0.00     0.029 A 
ATOM     44  C   UNL     1     -11.605   2.821   7.347  1.00  0.00     0.049 A 
ATOM     45  H   UNL     1     -11.169   1.699   9.046  1.00  0.00     0.167 HD
ATOM     46  C   UNL     1     -10.091  -0.733  12.517  1.00  0.00     0.037 A 
ATOM     47  C   UNL     1     -12.928   2.704   7.125  1.00  0.00     0.037 A 
ATOM     48  C   UNL     1     -11.519  -0.863  12.401  1.00  0.00     0.049 A 
ATOM     49  C   UNL     1     -13.759   1.866   8.055  1.00  0.00     0.074 A 
ATOM     50  C   UNL     1     -12.393  -1.551  13.223  1.00  0.00     0.029 A 
ATOM     51  N   UNL     1     -12.283  -0.287  11.397  1.00  0.00    -0.354 N 
ATOM     52  N   UNL     1     -13.386   1.185   9.111  1.00  0.00    -0.248 NA
ATOM     53  C   UNL     1     -15.197   1.782   7.762  1.00  0.00     0.031 C 
ATOM     54  C   UNL     1     -13.684  -1.417  12.698  1.00  0.00     0.029 A 
ATOM     55  C   UNL     1     -13.617  -0.616  11.570  1.00  0.00     0.049 A 
ATOM     56  H   UNL     1     -11.929   0.273  10.668  1.00  0.00     0.167 HD
ATOM     57  C   UNL     1     -14.543   0.615   9.625  1.00  0.00     0.074 A 
ATOM     58  C   UNL     1     -15.633   1.036   8.768  1.00  0.00     0.031 C 
ATOM     59  C   UNL     1     -14.689  -0.183  10.711  1.00  0.00     0.037 A 
BRANCH  46  60
ATOM     60  C   UNL     1      -9.383  -1.474  13.612  1.00  0.00     0.057 A 
ATOM     61  C   UNL     1      -8.813  -0.807  14.705  1.00  0.00     0.134 A 
ATOM     62  C   UNL     1      -9.256  -2.867  13.568  1.00  0.00     0.134 A 
ATOM     63  F   UNL     1      -8.884   0.530  14.799  1.00  0.00    -0.206 F 
ATOM     64  C   UNL     1      -8.107  -1.494  15.693  1.00  0.00     0.040 A 
ATOM     65  C   UNL     1      -8.577  -3.569  14.565  1.00  0.00     0.040 A 
ATOM     66  F   UNL     1      -9.782  -3.568  12.552  1.00  0.00    -0.206 F 
ATOM     67  C   UNL     1      -7.990  -2.881  15.626  1.00  0.00     0.006 A 
ENDBRANCH  46  60
BRANCH  47  68
ATOM     68  C   UNL     1     -13.557   3.442   6.004  1.00  0.00     0.057 A 
ATOM     69  C   UNL     1     -14.352   4.568   6.249  1.00  0.00     0.134 A 
ATOM     70  C   UNL     1     -13.375   3.057   4.671  1.00  0.00     0.134 A 
ATOM     71  F   UNL     1     -14.576   4.974   7.508  1.00  0.00    -0.206 F 
ATOM     72  C   UNL     1     -14.952   5.280   5.210  1.00  0.00     0.040 A 
ATOM     73  C   UNL     1     -13.954   3.771   3.620  1.00  0.00     0.040 A 
ATOM     74  F   UNL     1     -12.620   1.990   4.372  1.00  0.00    -0.206 F 
ATOM     75  C   UNL     1     -14.749   4.885   3.890  1.00  0.00     0.006 A 
ENDBRANCH  47  68
BRANCH  59  76
ATOM     76  C   UNL     1     -16.081  -0.624  11.053  1.00  0.00     0.057 A 
ATOM     77  C   UNL     1     -16.746  -1.609  10.312  1.00  0.00     0.134 A 
ATOM     78  C   UNL     1     -16.746  -0.084  12.161  1.00  0.00     0.134 A 
ATOM     79  F   UNL     1     -16.167  -2.154   9.232  1.00  0.00    -0.206 F 
ATOM     80  C   UNL     1     -18.032  -2.029  10.652  1.00  0.00     0.040 A 
ATOM     81  C   UNL     1     -18.023  -0.512  12.523  1.00  0.00     0.040 A 
ATOM     82  F   UNL     1     -16.160   0.859  12.914  1.00  0.00    -0.206 F 
ATOM     83  C   UNL     1     -18.672  -1.485  11.765  1.00  0.00     0.006 A 
ENDBRANCH  59  76
ENDBRANCH  33  34
ENDBRANCH  25  28
ENDBRANCH  23  24
ENDBRANCH  22  23
ENDBRANCH   1  22
TORSDOF 14
