REMARK SMILES CC1=C(C)C[C@@H](C(=O)NCCCCNC(=O)c2ccc(-c3c4nc(c(-c5c(F)cccc5F)c5ccc([nH]5)c(-c5c(F)cccc5F)c5nc(c(-c6c(F)cccc6F)c6ccc3[nH]6)C=C5)C=C4)cc2)[C@@H](C(=O)N2CCN(c3cccc(C(F)(F)F)c3)CC2)C1
REMARK SMILES IDX 11 1 10 2 9 3 7 4 8 5 6 7 1 8 2 9 3 10 90 11 4 12 5 13 71 14
REMARK SMILES IDX 72 15 73 16 74 17 75 18 89 19 76 20 88 21 77 22 78 23 79 24
REMARK SMILES IDX 87 25 80 26 82 27 81 28 83 29 84 30 85 31 86 32 12 33 13 34
REMARK SMILES IDX 14 35 15 36 16 38 17 39 18 40 70 41 19 42 69 43 20 44 21 45
REMARK SMILES IDX 22 46 63 47 23 48 68 49 62 50 64 51 24 52 67 53 61 54 60 55
REMARK SMILES IDX 25 57 51 58 34 59 50 60 35 61 38 62 49 63 65 64 36 65 37 66
REMARK SMILES IDX 48 68 66 69 39 70 26 71 27 72 32 73 28 74 29 75 31 76 33 77
REMARK SMILES IDX 30 78 52 79 53 80 58 81 54 82 55 83 57 84 59 85 56 86 40 87
REMARK SMILES IDX 41 88 46 89 42 90 43 91 45 92 47 93 44 94
REMARK H PARENT 9 6 14 37 64 56 38 67
REMARK Flexibility Score: inf
ROOT
ATOM      1  C   UNL     1      -2.488   1.836  -0.519  1.00  0.00     0.023 C 
ENDROOT
BRANCH   1   2
ATOM      2  C   UNL     1      -2.617   0.625  -1.440  1.00  0.00     0.116 C 
BRANCH   2   3
ATOM      3  N   UNL     1      -2.967   0.941  -2.805  1.00  0.00    -0.356 N 
ATOM      4  C   UNL     1      -2.223   1.159  -3.917  1.00  0.00     0.224 C 
ATOM      5  O   UNL     1      -2.846   1.317  -4.976  1.00  0.00    -0.275 OA
ATOM      6  H   UNL     1      -3.937   1.012  -2.959  1.00  0.00     0.163 HD
BRANCH   4   7
ATOM      7  C   UNL     1      -0.691   1.180  -3.951  1.00  0.00     0.095 C 
ATOM      8  C   UNL     1       1.310   0.391  -0.094  1.00  0.00     0.039 C 
ATOM      9  C   UNL     1       0.840   0.567  -1.520  1.00  0.00    -0.074 C 
ATOM     10  C   UNL     1       0.475  -0.451  -2.327  1.00  0.00    -0.074 C 
ATOM     11  C   UNL     1       0.760   2.018  -1.956  1.00  0.00     0.045 C 
ATOM     12  C   UNL     1       0.510  -1.916  -1.963  1.00  0.00     0.039 C 
ATOM     13  C   UNL     1      -0.078  -0.201  -3.709  1.00  0.00     0.045 C 
ATOM     14  C   UNL     1       0.059   2.349  -3.294  1.00  0.00     0.095 C 
BRANCH  14  15
ATOM     15  C   UNL     1      -0.782   3.625  -3.129  1.00  0.00     0.226 C 
ATOM     16  O   UNL     1      -1.998   3.649  -2.965  1.00  0.00    -0.275 OA
ATOM     17  N   UNL     1      -0.050   4.802  -3.040  1.00  0.00    -0.339 N 
ATOM     18  C   UNL     1      -0.509   5.756  -2.022  1.00  0.00     0.141 C 
ATOM     19  C   UNL     1       0.305   5.429  -4.317  1.00  0.00     0.141 C 
ATOM     20  C   UNL     1       0.492   6.896  -1.800  1.00  0.00     0.138 C 
ATOM     21  C   UNL     1       1.243   6.640  -4.169  1.00  0.00     0.138 C 
ATOM     22  N   UNL     1       0.793   7.523  -3.089  1.00  0.00    -0.368 N 
BRANCH  22  23
ATOM     23  C   UNL     1       0.688   8.884  -3.243  1.00  0.00     0.037 A 
ATOM     24  C   UNL     1       1.347   9.762  -2.376  1.00  0.00     0.026 A 
ATOM     25  C   UNL     1      -0.125   9.433  -4.241  1.00  0.00     0.039 A 
ATOM     26  C   UNL     1       1.212  11.145  -2.502  1.00  0.00     0.003 A 
ATOM     27  C   UNL     1      -0.303  10.822  -4.364  1.00  0.00     0.058 A 
ATOM     28  C   UNL     1       0.385  11.674  -3.490  1.00  0.00     0.013 A 
BRANCH  27  29
ATOM     29  C   UNL     1      -1.236  11.397  -5.398  1.00  0.00     0.416 C 
ATOM     30  F   UNL     1      -2.205  12.179  -4.846  1.00  0.00    -0.166 F 
ATOM     31  F   UNL     1      -0.590  12.187  -6.300  1.00  0.00    -0.166 F 
ATOM     32  F   UNL     1      -1.893  10.455  -6.131  1.00  0.00    -0.166 F 
ENDBRANCH  27  29
ENDBRANCH  22  23
ENDBRANCH  14  15
ENDBRANCH   4   7
ENDBRANCH   2   3
ENDBRANCH   1   2
BRANCH   1  33
ATOM     33  C   UNL     1      -3.787   2.595  -0.272  1.00  0.00     0.023 C 
BRANCH  33  34
ATOM     34  C   UNL     1      -4.895   1.736   0.310  1.00  0.00     0.116 C 
BRANCH  34  35
ATOM     35  N   UNL     1      -4.492   1.040   1.526  1.00  0.00    -0.352 N 
ATOM     36  C   UNL     1      -5.272   0.693   2.601  1.00  0.00     0.251 C 
ATOM     37  H   UNL     1      -3.543   0.788   1.584  1.00  0.00     0.163 HD
ATOM     38  O   UNL     1      -4.780   0.212   3.611  1.00  0.00    -0.269 OA
BRANCH  36  39
ATOM     39  C   UNL     1      -6.720   0.954   2.518  1.00  0.00     0.039 A 
ATOM     40  C   UNL     1      -7.332   1.683   3.537  1.00  0.00     0.014 A 
ATOM     41  C   UNL     1      -7.438   0.546   1.391  1.00  0.00     0.014 A 
ATOM     42  C   UNL     1      -8.665   2.060   3.394  1.00  0.00     0.010 A 
ATOM     43  C   UNL     1      -8.737   0.995   1.213  1.00  0.00     0.010 A 
ATOM     44  C   UNL     1      -9.364   1.748   2.216  1.00  0.00    -0.014 A 
BRANCH  44  45
ATOM     45  C   UNL     1     -10.765   2.180   2.017  1.00  0.00     0.031 A 
ATOM     46  C   UNL     1     -11.847   1.147   1.890  1.00  0.00     0.074 A 
ATOM     47  C   UNL     1     -11.046   3.490   1.881  1.00  0.00     0.049 A 
ATOM     48  N   UNL     1     -13.119   1.310   1.635  1.00  0.00    -0.248 NA
ATOM     49  C   UNL     1     -11.438  -0.260   2.034  1.00  0.00     0.031 C 
ATOM     50  C   UNL     1     -10.066   4.578   1.931  1.00  0.00     0.029 A 
ATOM     51  N   UNL     1     -12.240   4.127   1.666  1.00  0.00    -0.354 N 
ATOM     52  C   UNL     1     -13.654   0.030   1.571  1.00  0.00     0.074 A 
ATOM     53  C   UNL     1     -12.562  -0.900   1.752  1.00  0.00     0.031 C 
ATOM     54  C   UNL     1     -10.704   5.750   1.780  1.00  0.00     0.029 A 
ATOM     55  C   UNL     1     -12.128   5.493   1.589  1.00  0.00     0.049 A 
ATOM     56  H   UNL     1     -13.096   3.650   1.575  1.00  0.00     0.167 HD
ATOM     57  C   UNL     1     -14.946  -0.336   1.406  1.00  0.00     0.037 A 
ATOM     58  C   UNL     1     -13.072   6.430   1.385  1.00  0.00     0.037 A 
ATOM     59  C   UNL     1     -16.031   0.596   1.259  1.00  0.00     0.049 A 
ATOM     60  C   UNL     1     -14.502   5.999   1.214  1.00  0.00     0.074 A 
ATOM     61  C   UNL     1     -17.384   0.333   1.142  1.00  0.00     0.029 A 
ATOM     62  N   UNL     1     -15.883   1.974   1.212  1.00  0.00    -0.354 N 
ATOM     63  N   UNL     1     -15.006   4.788   1.220  1.00  0.00    -0.248 NA
ATOM     64  C   UNL     1     -15.494   7.063   1.014  1.00  0.00     0.031 C 
ATOM     65  C   UNL     1     -18.052   1.553   0.992  1.00  0.00     0.029 A 
ATOM     66  C   UNL     1     -17.119   2.576   1.056  1.00  0.00     0.049 A 
ATOM     67  H   UNL     1     -15.025   2.453   1.280  1.00  0.00     0.167 HD
ATOM     68  C   UNL     1     -16.375   4.945   1.052  1.00  0.00     0.074 A 
ATOM     69  C   UNL     1     -16.623   6.370   0.961  1.00  0.00     0.031 C 
ATOM     70  C   UNL     1     -17.341   3.997   0.979  1.00  0.00     0.037 A 
BRANCH  57  71
ATOM     71  C   UNL     1     -15.248  -1.805   1.389  1.00  0.00     0.057 A 
ATOM     72  C   UNL     1     -15.149  -2.591   2.546  1.00  0.00     0.134 A 
ATOM     73  C   UNL     1     -15.657  -2.440   0.210  1.00  0.00     0.134 A 
ATOM     74  F   UNL     1     -14.746  -2.047   3.704  1.00  0.00    -0.206 F 
ATOM     75  C   UNL     1     -15.418  -3.960   2.524  1.00  0.00     0.040 A 
ATOM     76  C   UNL     1     -15.955  -3.804   0.182  1.00  0.00     0.040 A 
ATOM     77  F   UNL     1     -15.775  -1.747  -0.932  1.00  0.00    -0.206 F 
ATOM     78  C   UNL     1     -15.828  -4.569   1.340  1.00  0.00     0.006 A 
ENDBRANCH  57  71
BRANCH  58  79
ATOM     79  C   UNL     1     -12.704   7.868   1.371  1.00  0.00     0.057 A 
ATOM     80  C   UNL     1     -13.076   8.715   2.421  1.00  0.00     0.134 A 
ATOM     81  C   UNL     1     -11.978   8.429   0.315  1.00  0.00     0.134 A 
ATOM     82  F   UNL     1     -13.787   8.237   3.454  1.00  0.00    -0.206 F 
ATOM     83  C   UNL     1     -12.757  10.073   2.414  1.00  0.00     0.040 A 
ATOM     84  C   UNL     1     -11.631   9.782   0.305  1.00  0.00     0.040 A 
ATOM     85  F   UNL     1     -11.584   7.668  -0.717  1.00  0.00    -0.206 F 
ATOM     86  C   UNL     1     -12.027  10.609   1.354  1.00  0.00     0.006 A 
ENDBRANCH  58  79
BRANCH  70  87
ATOM     87  C   UNL     1     -18.755   4.473   0.829  1.00  0.00     0.057 A 
ATOM     88  C   UNL     1     -19.233   4.995  -0.378  1.00  0.00     0.134 A 
ATOM     89  C   UNL     1     -19.657   4.367   1.895  1.00  0.00     0.134 A 
ATOM     90  F   UNL     1     -18.414   5.135  -1.431  1.00  0.00    -0.206 F 
ATOM     91  C   UNL     1     -20.557   5.414  -0.515  1.00  0.00     0.040 A 
ATOM     92  C   UNL     1     -20.989   4.759   1.763  1.00  0.00     0.040 A 
ATOM     93  F   UNL     1     -19.262   3.866   3.075  1.00  0.00    -0.206 F 
ATOM     94  C   UNL     1     -21.441   5.289   0.556  1.00  0.00     0.006 A 
ENDBRANCH  70  87
ENDBRANCH  44  45
ENDBRANCH  36  39
ENDBRANCH  34  35
ENDBRANCH  33  34
ENDBRANCH   1  33
TORSDOF 14
