REMARK SMILES CCc1cc(OC(F)(F)F)cc2c1O[C@@H](C(F)(F)F)C(C(=O)NCCCCNC(=O)c1ccc(-c3c4nc(c(-c5c(F)cccc5F)c5ccc([nH]5)c(-c5c(F)cccc5F)c5nc(c(-c6c(F)cccc6F)c6ccc3[nH]6)C=C5)C=C4)cc1)=C2
REMARK SMILES IDX 25 1 24 2 23 3 21 4 22 5 20 7 3 8 4 9 13 10 5 11 12 12 14 13
REMARK SMILES IDX 11 14 85 15 15 16 2 17 1 18 6 19 7 20 8 21 9 22 10 23 16 24
REMARK SMILES IDX 17 25 18 26 19 27 26 28 27 29 28 30 29 31 30 33 31 34 32 35
REMARK SMILES IDX 84 36 33 37 83 38 34 39 35 40 36 41 77 42 37 43 82 44 76 45
REMARK SMILES IDX 78 46 38 47 81 48 75 49 74 50 39 52 65 53 48 54 64 55 49 56
REMARK SMILES IDX 52 57 63 58 79 59 50 60 51 61 62 63 80 64 53 65 40 66 41 67
REMARK SMILES IDX 46 68 42 69 43 70 45 71 47 72 44 73 66 74 67 75 72 76 68 77
REMARK SMILES IDX 69 78 71 79 73 80 70 81 54 82 55 83 60 84 56 85 57 86 59 87
REMARK SMILES IDX 61 88 58 89
REMARK H PARENT 23 6 28 32 78 51 52 62
REMARK Flexibility Score: inf
ROOT
ATOM      1  C   UNL     1       0.667   7.820   3.607  1.00  0.00     0.023 C 
ENDROOT
BRANCH   1   2
ATOM      2  C   UNL     1      -0.644   7.132   3.206  1.00  0.00     0.116 C 
BRANCH   2   3
ATOM      3  N   UNL     1      -0.749   7.070   1.760  1.00  0.00    -0.352 N 
ATOM      4  C   UNL     1      -0.339   6.144   0.854  1.00  0.00     0.251 C 
ATOM      5  O   UNL     1      -0.402   6.438  -0.337  1.00  0.00    -0.270 OA
ATOM      6  H   UNL     1      -1.203   7.846   1.359  1.00  0.00     0.163 HD
BRANCH   4   7
ATOM      7  C   UNL     1       0.111   4.780   1.240  1.00  0.00     0.067 C 
ATOM      8  C   UNL     1       1.041   0.793   2.203  1.00  0.00    -0.002 A 
ATOM      9  C   UNL     1       1.820   0.531   3.347  1.00  0.00     0.054 A 
ATOM     10  C   UNL     1       0.727   2.122   1.883  1.00  0.00     0.131 A 
ATOM     11  C   UNL     1       2.278   1.575   4.153  1.00  0.00     0.130 A 
ATOM     12  C   UNL     1       1.212   3.169   2.661  1.00  0.00     0.021 A 
ATOM     13  O   UNL     1      -0.135   2.337   0.846  1.00  0.00    -0.475 OA
ATOM     14  C   UNL     1       1.985   2.892   3.793  1.00  0.00     0.058 A 
ATOM     15  C   UNL     1       0.842   4.537   2.338  1.00  0.00     0.025 C 
ATOM     16  C   UNL     1      -0.154   3.661   0.238  1.00  0.00     0.314 C 
BRANCH   8  17
ATOM     17  C   UNL     1       0.554  -0.356   1.349  1.00  0.00     0.036 C 
ATOM     18  C   UNL     1       1.188  -0.366  -0.037  1.00  0.00     0.009 C 
ENDBRANCH   8  17
BRANCH  11  19
ATOM     19  O   UNL     1       3.001   1.461   5.306  1.00  0.00    -0.406 OA
BRANCH  19  20
ATOM     20  C   UNL     1       3.274   0.159   5.795  1.00  0.00     0.573 C 
ATOM     21  F   UNL     1       2.135  -0.531   6.016  1.00  0.00    -0.132 F 
ATOM     22  F   UNL     1       4.057  -0.524   4.933  1.00  0.00    -0.132 F 
ATOM     23  F   UNL     1       3.933   0.268   6.969  1.00  0.00    -0.132 F 
ENDBRANCH  19  20
ENDBRANCH  11  19
BRANCH  16  24
ATOM     24  C   UNL     1      -1.458   3.751  -0.588  1.00  0.00     0.429 C 
ATOM     25  F   UNL     1      -1.333   4.535  -1.682  1.00  0.00    -0.167 F 
ATOM     26  F   UNL     1      -1.813   2.526  -1.063  1.00  0.00    -0.167 F 
ATOM     27  F   UNL     1      -2.503   4.202   0.144  1.00  0.00    -0.167 F 
ENDBRANCH  16  24
ENDBRANCH   4   7
ENDBRANCH   2   3
ENDBRANCH   1   2
BRANCH   1  28
ATOM     28  C   UNL     1       0.641   9.345   3.475  1.00  0.00     0.023 C 
BRANCH  28  29
ATOM     29  C   UNL     1      -0.337  10.049   4.407  1.00  0.00     0.116 C 
BRANCH  29  30
ATOM     30  N   UNL     1      -0.098   9.761   5.812  1.00  0.00    -0.352 N 
ATOM     31  C   UNL     1      -0.313  10.571   6.902  1.00  0.00     0.251 C 
ATOM     32  H   UNL     1       0.267   8.868   6.009  1.00  0.00     0.163 HD
ATOM     33  O   UNL     1       0.038  10.218   8.018  1.00  0.00    -0.269 OA
BRANCH  31  34
ATOM     34  C   UNL     1      -0.929  11.897   6.697  1.00  0.00     0.039 A 
ATOM     35  C   UNL     1      -0.295  13.019   7.234  1.00  0.00     0.014 A 
ATOM     36  C   UNL     1      -2.096  12.033   5.941  1.00  0.00     0.014 A 
ATOM     37  C   UNL     1      -0.790  14.291   6.947  1.00  0.00     0.010 A 
ATOM     38  C   UNL     1      -2.552  13.303   5.603  1.00  0.00     0.010 A 
ATOM     39  C   UNL     1      -1.896  14.442   6.095  1.00  0.00    -0.014 A 
BRANCH  39  40
ATOM     40  C   UNL     1      -2.360  15.787   5.677  1.00  0.00     0.031 A 
ATOM     41  C   UNL     1      -3.713  16.285   6.093  1.00  0.00     0.074 A 
ATOM     42  C   UNL     1      -1.587  16.524   4.857  1.00  0.00     0.049 A 
ATOM     43  N   UNL     1      -4.315  17.402   5.772  1.00  0.00    -0.248 NA
ATOM     44  C   UNL     1      -4.504  15.402   6.964  1.00  0.00     0.031 C 
ATOM     45  C   UNL     1      -0.277  16.122   4.339  1.00  0.00     0.029 A 
ATOM     46  N   UNL     1      -1.797  17.762   4.304  1.00  0.00    -0.354 N 
ATOM     47  C   UNL     1      -5.557  17.351   6.391  1.00  0.00     0.074 A 
ATOM     48  C   UNL     1      -5.642  16.073   7.066  1.00  0.00     0.031 C 
ATOM     49  C   UNL     1       0.207  17.102   3.560  1.00  0.00     0.029 A 
ATOM     50  C   UNL     1      -0.769  18.185   3.496  1.00  0.00     0.049 A 
ATOM     51  H   UNL     1      -2.607  18.296   4.470  1.00  0.00     0.167 HD
ATOM     52  C   UNL     1      -6.529  18.293   6.411  1.00  0.00     0.037 A 
ATOM     53  C   UNL     1      -0.634  19.315   2.778  1.00  0.00     0.037 A 
ATOM     54  C   UNL     1      -6.431  19.572   5.757  1.00  0.00     0.049 A 
ATOM     55  C   UNL     1      -1.729  20.343   2.814  1.00  0.00     0.074 A 
ATOM     56  C   UNL     1      -7.330  20.624   5.781  1.00  0.00     0.029 A 
ATOM     57  N   UNL     1      -5.371  19.969   4.957  1.00  0.00    -0.354 N 
ATOM     58  N   UNL     1      -2.866  20.315   3.466  1.00  0.00    -0.248 NA
ATOM     59  C   UNL     1      -1.522  21.559   2.016  1.00  0.00     0.031 C 
ATOM     60  C   UNL     1      -6.832  21.642   4.961  1.00  0.00     0.029 A 
ATOM     61  C   UNL     1      -5.605  21.240   4.459  1.00  0.00     0.049 A 
ATOM     62  H   UNL     1      -4.570  19.427   4.769  1.00  0.00     0.167 HD
ATOM     63  C   UNL     1      -3.502  21.513   3.171  1.00  0.00     0.074 A 
ATOM     64  C   UNL     1      -2.616  22.254   2.297  1.00  0.00     0.031 C 
ATOM     65  C   UNL     1      -4.713  21.959   3.585  1.00  0.00     0.037 A 
BRANCH  52  66
ATOM     66  C   UNL     1      -7.782  17.975   7.171  1.00  0.00     0.057 A 
ATOM     67  C   UNL     1      -7.802  17.925   8.571  1.00  0.00     0.134 A 
ATOM     68  C   UNL     1      -8.989  17.747   6.499  1.00  0.00     0.134 A 
ATOM     69  F   UNL     1      -6.676  18.122   9.274  1.00  0.00    -0.206 F 
ATOM     70  C   UNL     1      -8.972  17.636   9.275  1.00  0.00     0.040 A 
ATOM     71  C   UNL     1     -10.171  17.481   7.193  1.00  0.00     0.040 A 
ATOM     72  F   UNL     1      -9.041  17.784   5.159  1.00  0.00    -0.206 F 
ATOM     73  C   UNL     1     -10.163  17.419   8.585  1.00  0.00     0.006 A 
ENDBRANCH  52  66
BRANCH  53  74
ATOM     74  C   UNL     1       0.595  19.543   1.979  1.00  0.00     0.057 A 
ATOM     75  C   UNL     1       1.540  20.499   2.369  1.00  0.00     0.134 A 
ATOM     76  C   UNL     1       0.854  18.816   0.812  1.00  0.00     0.134 A 
ATOM     77  F   UNL     1       1.336  21.238   3.470  1.00  0.00    -0.206 F 
ATOM     78  C   UNL     1       2.692  20.735   1.619  1.00  0.00     0.040 A 
ATOM     79  C   UNL     1       2.014  19.027   0.063  1.00  0.00     0.040 A 
ATOM     80  F   UNL     1      -0.009  17.881   0.390  1.00  0.00    -0.206 F 
ATOM     81  C   UNL     1       2.934  19.994   0.464  1.00  0.00     0.006 A 
ENDBRANCH  53  74
BRANCH  65  82
ATOM     82  C   UNL     1      -5.141  23.314   3.106  1.00  0.00     0.057 A 
ATOM     83  C   UNL     1      -5.555  23.529   1.785  1.00  0.00     0.134 A 
ATOM     84  C   UNL     1      -5.171  24.407   3.981  1.00  0.00     0.134 A 
ATOM     85  F   UNL     1      -5.535  22.525   0.895  1.00  0.00    -0.206 F 
ATOM     86  C   UNL     1      -5.967  24.788   1.347  1.00  0.00     0.040 A 
ATOM     87  C   UNL     1      -5.603  25.665   3.561  1.00  0.00     0.040 A 
ATOM     88  F   UNL     1      -4.793  24.265   5.261  1.00  0.00    -0.206 F 
ATOM     89  C   UNL     1      -5.998  25.859   2.238  1.00  0.00     0.006 A 
ENDBRANCH  65  82
ENDBRANCH  39  40
ENDBRANCH  31  34
ENDBRANCH  29  30
ENDBRANCH  28  29
ENDBRANCH   1  28
TORSDOF 15
