REMARK SMILES CCOc1ccc(-c2nc(C(=O)NCCCCNC(=O)c3ccc(-c4c5nc(c(-c6c(F)cccc6F)c6ccc([nH]6)c(-c6c(F)cccc6F)c6nc(c(-c7c(F)cccc7F)c7ccc4[nH]7)C=C6)C=C5)cc3)cc(=O)[nH]2)cc1
REMARK SMILES IDX 15 1 14 2 13 3 11 4 12 5 10 7 8 8 9 9 78 10 76 11 75 13
REMARK SMILES IDX 77 14 7 15 4 16 5 17 80 18 6 19 79 20 3 21 2 22 1 23 16 24
REMARK SMILES IDX 17 25 18 26 19 27 20 29 21 30 22 31 74 32 23 33 73 34 24 35
REMARK SMILES IDX 25 36 26 37 67 38 27 39 72 40 66 41 68 42 28 43 71 44 65 45
REMARK SMILES IDX 64 46 29 48 55 49 38 50 54 51 39 52 42 53 53 54 69 55 40 56
REMARK SMILES IDX 41 57 52 59 70 60 43 61 30 62 31 63 36 64 32 65 33 66 35 67
REMARK SMILES IDX 37 68 34 69 56 70 57 71 62 72 58 73 59 74 61 75 63 76 60 77
REMARK SMILES IDX 44 78 45 79 50 80 46 81 47 82 49 83 51 84 48 85
REMARK H PARENT 13 6 78 12 18 28 68 47 42 58
REMARK Flexibility Score: inf
ROOT
ATOM      1  C   UNL     1      12.552  -0.511   2.950  1.00  0.00     0.023 C 
ENDROOT
BRANCH   1   2
ATOM      2  C   UNL     1      11.540  -1.233   3.829  1.00  0.00     0.116 C 
BRANCH   2   3
ATOM      3  N   UNL     1      10.494  -0.370   4.344  1.00  0.00    -0.351 N 
ATOM      4  C   UNL     1       9.130  -0.420   4.279  1.00  0.00     0.270 C 
ATOM      5  O   UNL     1       8.522   0.505   4.825  1.00  0.00    -0.268 OA
ATOM      6  H   UNL     1      10.836   0.408   4.841  1.00  0.00     0.163 HD
BRANCH   4   7
ATOM      7  C   UNL     1       8.370  -1.506   3.540  1.00  0.00     0.136 A 
ATOM      8  C   UNL     1       6.384  -2.116   2.567  1.00  0.00     0.141 A 
ATOM      9  N   UNL     1       7.104  -1.174   3.084  1.00  0.00    -0.225 NA
ATOM     10  N   UNL     1       6.874  -3.367   2.304  1.00  0.00    -0.306 N 
ATOM     11  C   UNL     1       8.121  -3.740   2.685  1.00  0.00     0.251 A 
ATOM     12  H   UNL     1       6.306  -4.013   1.826  1.00  0.00     0.171 HD
ATOM     13  C   UNL     1       8.842  -2.758   3.496  1.00  0.00     0.105 A 
ATOM     14  O   UNL     1       8.622  -4.812   2.386  1.00  0.00    -0.269 OA
BRANCH   8  15
ATOM     15  C   UNL     1       4.954  -1.914   2.245  1.00  0.00     0.018 A 
ATOM     16  C   UNL     1       2.245  -1.521   1.750  1.00  0.00     0.119 A 
ATOM     17  C   UNL     1       2.672  -2.729   2.292  1.00  0.00     0.047 A 
ATOM     18  C   UNL     1       3.155  -0.490   1.508  1.00  0.00     0.047 A 
ATOM     19  C   UNL     1       4.030  -2.929   2.538  1.00  0.00     0.016 A 
ATOM     20  C   UNL     1       4.515  -0.686   1.750  1.00  0.00     0.016 A 
BRANCH  16  21
ATOM     21  O   UNL     1       0.903  -1.327   1.583  1.00  0.00    -0.494 OA
BRANCH  21  22
ATOM     22  C   UNL     1       0.511  -1.358   0.205  1.00  0.00     0.226 C 
ATOM     23  C   UNL     1       0.547   0.030  -0.413  1.00  0.00     0.049 C 
ENDBRANCH  21  22
ENDBRANCH  16  21
ENDBRANCH   8  15
ENDBRANCH   4   7
ENDBRANCH   2   3
ENDBRANCH   1   2
BRANCH   1  24
ATOM     24  C   UNL     1      13.473   0.471   3.662  1.00  0.00     0.023 C 
BRANCH  24  25
ATOM     25  C   UNL     1      14.184  -0.069   4.895  1.00  0.00     0.116 C 
BRANCH  25  26
ATOM     26  N   UNL     1      14.919  -1.304   4.659  1.00  0.00    -0.352 N 
ATOM     27  C   UNL     1      16.184  -1.649   5.073  1.00  0.00     0.251 C 
ATOM     28  H   UNL     1      14.445  -1.986   4.131  1.00  0.00     0.163 HD
ATOM     29  O   UNL     1      16.692  -2.704   4.709  1.00  0.00    -0.269 OA
BRANCH  27  30
ATOM     30  C   UNL     1      16.942  -0.720   5.936  1.00  0.00     0.039 A 
ATOM     31  C   UNL     1      18.273  -0.435   5.621  1.00  0.00     0.014 A 
ATOM     32  C   UNL     1      16.327  -0.105   7.029  1.00  0.00     0.014 A 
ATOM     33  C   UNL     1      18.970   0.508   6.377  1.00  0.00     0.010 A 
ATOM     34  C   UNL     1      16.987   0.909   7.709  1.00  0.00     0.010 A 
ATOM     35  C   UNL     1      18.324   1.207   7.410  1.00  0.00    -0.014 A 
BRANCH  35  36
ATOM     36  C   UNL     1      19.047   2.212   8.227  1.00  0.00     0.031 A 
ATOM     37  C   UNL     1      19.217   1.989   9.705  1.00  0.00     0.074 A 
ATOM     38  C   UNL     1      19.505   3.342   7.657  1.00  0.00     0.049 A 
ATOM     39  N   UNL     1      19.787   2.756  10.600  1.00  0.00    -0.248 NA
ATOM     40  C   UNL     1      18.633   0.757  10.258  1.00  0.00     0.031 C 
ATOM     41  C   UNL     1      19.346   3.707   6.248  1.00  0.00     0.029 A 
ATOM     42  N   UNL     1      20.195   4.397   8.198  1.00  0.00    -0.354 N 
ATOM     43  C   UNL     1      19.618   2.104  11.815  1.00  0.00     0.074 A 
ATOM     44  C   UNL     1      18.819   0.928  11.557  1.00  0.00     0.031 C 
ATOM     45  C   UNL     1      19.946   4.888   6.031  1.00  0.00     0.029 A 
ATOM     46  C   UNL     1      20.503   5.378   7.288  1.00  0.00     0.049 A 
ATOM     47  H   UNL     1      20.445   4.447   9.149  1.00  0.00     0.167 HD
ATOM     48  C   UNL     1      20.114   2.432  13.031  1.00  0.00     0.037 A 
ATOM     49  C   UNL     1      21.163   6.540   7.450  1.00  0.00     0.037 A 
ATOM     50  C   UNL     1      20.919   3.598  13.280  1.00  0.00     0.049 A 
ATOM     51  C   UNL     1      21.715   6.886   8.805  1.00  0.00     0.074 A 
ATOM     52  C   UNL     1      21.512   4.003  14.463  1.00  0.00     0.029 A 
ATOM     53  N   UNL     1      21.239   4.552  12.325  1.00  0.00    -0.354 N 
ATOM     54  N   UNL     1      21.615   6.224   9.933  1.00  0.00    -0.248 NA
ATOM     55  C   UNL     1      22.491   8.129   8.904  1.00  0.00     0.031 C 
ATOM     56  C   UNL     1      22.147   5.229  14.234  1.00  0.00     0.029 A 
ATOM     57  C   UNL     1      22.007   5.554  12.894  1.00  0.00     0.049 A 
ATOM     58  H   UNL     1      20.962   4.521  11.381  1.00  0.00     0.167 HD
ATOM     59  C   UNL     1      22.340   6.952  10.869  1.00  0.00     0.074 A 
ATOM     60  C   UNL     1      22.884   8.099  10.170  1.00  0.00     0.031 C 
ATOM     61  C   UNL     1      22.543   6.690  12.184  1.00  0.00     0.037 A 
BRANCH  48  62
ATOM     62  C   UNL     1      19.787   1.508  14.172  1.00  0.00     0.057 A 
ATOM     63  C   UNL     1      20.269   0.191  14.223  1.00  0.00     0.134 A 
ATOM     64  C   UNL     1      18.962   1.929  15.222  1.00  0.00     0.134 A 
ATOM     65  F   UNL     1      21.053  -0.285  13.244  1.00  0.00    -0.206 F 
ATOM     66  C   UNL     1      19.899  -0.686  15.244  1.00  0.00     0.040 A 
ATOM     67  C   UNL     1      18.615   1.072  16.268  1.00  0.00     0.040 A 
ATOM     68  F   UNL     1      18.470   3.177  15.244  1.00  0.00    -0.206 F 
ATOM     69  C   UNL     1      19.072  -0.244  16.273  1.00  0.00     0.006 A 
ENDBRANCH  48  62
BRANCH  49  70
ATOM     70  C   UNL     1      21.368   7.436   6.284  1.00  0.00     0.057 A 
ATOM     71  C   UNL     1      22.633   7.596   5.705  1.00  0.00     0.134 A 
ATOM     72  C   UNL     1      20.301   8.133   5.704  1.00  0.00     0.134 A 
ATOM     73  F   UNL     1      23.697   6.966   6.223  1.00  0.00    -0.206 F 
ATOM     74  C   UNL     1      22.832   8.428   4.601  1.00  0.00     0.040 A 
ATOM     75  C   UNL     1      20.481   8.947   4.585  1.00  0.00     0.040 A 
ATOM     76  F   UNL     1      19.063   8.013   6.205  1.00  0.00    -0.206 F 
ATOM     77  C   UNL     1      21.752   9.101   4.034  1.00  0.00     0.006 A 
ENDBRANCH  49  70
BRANCH  61  78
ATOM     78  C   UNL     1      23.430   7.635  12.944  1.00  0.00     0.057 A 
ATOM     79  C   UNL     1      23.041   8.946  13.248  1.00  0.00     0.134 A 
ATOM     80  C   UNL     1      24.686   7.213  13.401  1.00  0.00     0.134 A 
ATOM     81  F   UNL     1      21.855   9.418  12.833  1.00  0.00    -0.206 F 
ATOM     82  C   UNL     1      23.882   9.812  13.950  1.00  0.00     0.040 A 
ATOM     83  C   UNL     1      25.521   8.059  14.131  1.00  0.00     0.040 A 
ATOM     84  F   UNL     1      25.117   5.966  13.156  1.00  0.00    -0.206 F 
ATOM     85  C   UNL     1      25.124   9.367  14.398  1.00  0.00     0.006 A 
ENDBRANCH  61  78
ENDBRANCH  35  36
ENDBRANCH  27  30
ENDBRANCH  25  26
ENDBRANCH  24  25
ENDBRANCH   1  24
TORSDOF 14
