REMARK SMILES CN1C(=O)C[C@H](C(=O)NCCCCNC(=O)c2ccc(-c3c4nc(c(-c5c(F)cccc5F)c5ccc([nH]5)c(-c5c(F)cccc5F)c5nc(c(-c6c(F)cccc6F)c6ccc3[nH]6)C=C5)C=C4)cc2)C12CC[NH+](Cc1ccc(Cl)c(F)c1)CC2
REMARK SMILES IDX 11 1 10 2 9 3 7 4 8 5 6 7 1 8 2 9 3 10 71 11 4 12 5 13 72 14
REMARK SMILES IDX 85 15 73 16 84 17 74 18 75 20 76 21 77 22 83 23 78 24 81 25
REMARK SMILES IDX 79 26 82 27 80 28 12 29 13 30 14 31 15 32 16 34 17 35 18 36
REMARK SMILES IDX 70 37 19 38 69 39 20 40 21 41 22 42 63 43 23 44 68 45 62 46
REMARK SMILES IDX 64 47 24 48 67 49 61 50 60 51 25 53 51 54 34 55 50 56 35 57
REMARK SMILES IDX 38 58 49 59 65 60 36 61 37 62 48 64 66 65 39 66 26 67 27 68
REMARK SMILES IDX 32 69 28 70 29 71 31 72 33 73 30 74 52 75 53 76 58 77 54 78
REMARK SMILES IDX 55 79 57 80 59 81 56 82 40 83 41 84 46 85 42 86 43 87 45 88
REMARK SMILES IDX 47 89 44 90
REMARK H PARENT 9 6 74 19 14 33 64 52 38 63
REMARK Flexibility Score: inf
ROOT
ATOM      1  C   UNL     1      -2.492   4.583   1.829  1.00  0.00     0.023 C 
ENDROOT
BRANCH   1   2
ATOM      2  C   UNL     1      -2.051   3.693   0.673  1.00  0.00     0.116 C 
BRANCH   2   3
ATOM      3  N   UNL     1      -2.696   3.906  -0.608  1.00  0.00    -0.356 N 
ATOM      4  C   UNL     1      -2.491   3.342  -1.835  1.00  0.00     0.226 C 
ATOM      5  O   UNL     1      -3.363   3.583  -2.681  1.00  0.00    -0.275 OA
ATOM      6  H   UNL     1      -3.412   4.581  -0.590  1.00  0.00     0.163 HD
BRANCH   4   7
ATOM      7  C   UNL     1      -1.266   2.516  -2.266  1.00  0.00     0.114 C 
ATOM      8  C   UNL     1       1.467   0.293  -0.867  1.00  0.00     0.147 C 
ATOM      9  N   UNL     1       0.616   1.265  -1.539  1.00  0.00    -0.339 N 
ATOM     10  C   UNL     1       1.099   2.533  -1.795  1.00  0.00     0.223 C 
ATOM     11  C   UNL     1      -0.860   1.137  -1.658  1.00  0.00     0.065 C 
ATOM     12  O   UNL     1       2.254   2.911  -1.654  1.00  0.00    -0.275 OA
ATOM     13  C   UNL     1      -0.024   3.414  -2.227  1.00  0.00     0.116 C 
ATOM     14  C   UNL     1      -1.224  -0.092  -2.554  1.00  0.00     0.091 C 
ATOM     15  C   UNL     1      -1.427   0.808  -0.294  1.00  0.00     0.091 C 
ATOM     16  C   UNL     1      -2.665  -0.634  -2.408  1.00  0.00     0.265 C 
ATOM     17  C   UNL     1      -2.937   0.565  -0.321  1.00  0.00     0.265 C 
ATOM     18  N   UNL     1      -3.252  -0.634  -1.069  1.00  0.00    -0.331 N 
ATOM     19  H   UNL     1      -4.246  -0.605  -1.298  1.00  0.00     0.348 HD
BRANCH  18  20
ATOM     20  C   UNL     1      -3.307  -1.879  -0.284  1.00  0.00     0.299 C 
BRANCH  20  21
ATOM     21  C   UNL     1      -2.099  -2.177   0.588  1.00  0.00     0.009 A 
ATOM     22  C   UNL     1      -1.057  -2.976   0.101  1.00  0.00     0.011 A 
ATOM     23  C   UNL     1      -1.927  -1.526   1.829  1.00  0.00     0.050 A 
ATOM     24  C   UNL     1       0.168  -3.031   0.774  1.00  0.00     0.024 A 
ATOM     25  C   UNL     1      -0.684  -1.533   2.458  1.00  0.00     0.142 A 
ATOM     26  C   UNL     1       0.368  -2.270   1.927  1.00  0.00     0.076 A 
ATOM     27  F   UNL     1      -0.498  -0.734   3.519  1.00  0.00    -0.205 F 
ATOM     28  Cl  UNL     1       1.937  -2.197   2.631  1.00  0.00    -0.081 Cl
ENDBRANCH  20  21
ENDBRANCH  18  20
ENDBRANCH   4   7
ENDBRANCH   2   3
ENDBRANCH   1   2
BRANCH   1  29
ATOM     29  C   UNL     1      -3.946   4.399   2.288  1.00  0.00     0.023 C 
BRANCH  29  30
ATOM     30  C   UNL     1      -4.440   2.975   2.571  1.00  0.00     0.116 C 
BRANCH  30  31
ATOM     31  N   UNL     1      -3.792   2.311   3.695  1.00  0.00    -0.352 N 
ATOM     32  C   UNL     1      -4.339   1.837   4.870  1.00  0.00     0.251 C 
ATOM     33  H   UNL     1      -2.821   2.182   3.603  1.00  0.00     0.163 HD
ATOM     34  O   UNL     1      -3.618   1.346   5.734  1.00  0.00    -0.269 OA
BRANCH  32  35
ATOM     35  C   UNL     1      -5.792   1.959   5.121  1.00  0.00     0.039 A 
ATOM     36  C   UNL     1      -6.223   2.565   6.305  1.00  0.00     0.014 A 
ATOM     37  C   UNL     1      -6.727   1.511   4.185  1.00  0.00     0.014 A 
ATOM     38  C   UNL     1      -7.584   2.827   6.496  1.00  0.00     0.010 A 
ATOM     39  C   UNL     1      -8.073   1.837   4.345  1.00  0.00     0.010 A 
ATOM     40  C   UNL     1      -8.514   2.521   5.490  1.00  0.00    -0.014 A 
BRANCH  40  41
ATOM     41  C   UNL     1      -9.937   2.948   5.588  1.00  0.00     0.031 A 
ATOM     42  C   UNL     1     -11.041   1.926   5.609  1.00  0.00     0.074 A 
ATOM     43  C   UNL     1     -10.245   4.261   5.563  1.00  0.00     0.049 A 
ATOM     44  N   UNL     1     -12.337   2.107   5.566  1.00  0.00    -0.248 NA
ATOM     45  C   UNL     1     -10.632   0.514   5.660  1.00  0.00     0.031 C 
ATOM     46  C   UNL     1      -9.275   5.357   5.505  1.00  0.00     0.029 A 
ATOM     47  N   UNL     1     -11.462   4.899   5.559  1.00  0.00    -0.354 N 
ATOM     48  C   UNL     1     -12.897   0.836   5.564  1.00  0.00     0.074 A 
ATOM     49  C   UNL     1     -11.799  -0.107   5.568  1.00  0.00     0.031 C 
ATOM     50  C   UNL     1      -9.933   6.528   5.480  1.00  0.00     0.029 A 
ATOM     51  C   UNL     1     -11.369   6.268   5.471  1.00  0.00     0.049 A 
ATOM     52  H   UNL     1     -12.321   4.420   5.615  1.00  0.00     0.167 HD
ATOM     53  C   UNL     1     -14.206   0.487   5.574  1.00  0.00     0.037 A 
ATOM     54  C   UNL     1     -12.328   7.210   5.370  1.00  0.00     0.037 A 
ATOM     55  C   UNL     1     -15.297   1.425   5.592  1.00  0.00     0.049 A 
ATOM     56  C   UNL     1     -13.774   6.794   5.359  1.00  0.00     0.074 A 
ATOM     57  C   UNL     1     -16.655   1.164   5.671  1.00  0.00     0.029 A 
ATOM     58  N   UNL     1     -15.159   2.803   5.522  1.00  0.00    -0.354 N 
ATOM     59  N   UNL     1     -14.288   5.590   5.429  1.00  0.00    -0.248 NA
ATOM     60  C   UNL     1     -14.775   7.867   5.256  1.00  0.00     0.031 C 
ATOM     61  C   UNL     1     -17.340   2.380   5.590  1.00  0.00     0.029 A 
ATOM     62  C   UNL     1     -16.409   3.403   5.524  1.00  0.00     0.049 A 
ATOM     63  H   UNL     1     -14.302   3.284   5.477  1.00  0.00     0.167 HD
ATOM     64  C   UNL     1     -15.667   5.763   5.413  1.00  0.00     0.074 A 
ATOM     65  C   UNL     1     -15.911   7.187   5.335  1.00  0.00     0.031 C 
ATOM     66  C   UNL     1     -16.642   4.823   5.461  1.00  0.00     0.037 A 
BRANCH  53  67
ATOM     67  C   UNL     1     -14.537  -0.978   5.559  1.00  0.00     0.057 A 
ATOM     68  C   UNL     1     -14.295  -1.805   6.664  1.00  0.00     0.134 A 
ATOM     69  C   UNL     1     -15.155  -1.558   4.443  1.00  0.00     0.134 A 
ATOM     70  F   UNL     1     -13.699  -1.315   7.762  1.00  0.00    -0.206 F 
ATOM     71  C   UNL     1     -14.633  -3.159   6.651  1.00  0.00     0.040 A 
ATOM     72  C   UNL     1     -15.524  -2.904   4.429  1.00  0.00     0.040 A 
ATOM     73  F   UNL     1     -15.425  -0.822   3.354  1.00  0.00    -0.206 F 
ATOM     74  C   UNL     1     -15.257  -3.710   5.533  1.00  0.00     0.006 A 
ENDBRANCH  53  67
BRANCH  54  75
ATOM     75  C   UNL     1     -11.957   8.645   5.266  1.00  0.00     0.057 A 
ATOM     76  C   UNL     1     -12.240   9.544   6.302  1.00  0.00     0.134 A 
ATOM     77  C   UNL     1     -11.330   9.158   4.124  1.00  0.00     0.134 A 
ATOM     78  F   UNL     1     -12.858   9.119   7.413  1.00  0.00    -0.206 F 
ATOM     79  C   UNL     1     -11.936  10.902   6.197  1.00  0.00     0.040 A 
ATOM     80  C   UNL     1     -10.994  10.509   4.017  1.00  0.00     0.040 A 
ATOM     81  F   UNL     1     -11.024   8.350   3.098  1.00  0.00    -0.206 F 
ATOM     82  C   UNL     1     -11.306  11.387   5.052  1.00  0.00     0.006 A 
ENDBRANCH  54  75
BRANCH  66  83
ATOM     83  C   UNL     1     -18.067   5.298   5.477  1.00  0.00     0.057 A 
ATOM     84  C   UNL     1     -18.684   5.838   4.342  1.00  0.00     0.134 A 
ATOM     85  C   UNL     1     -18.849   5.154   6.631  1.00  0.00     0.134 A 
ATOM     86  F   UNL     1     -17.988   6.015   3.209  1.00  0.00    -0.206 F 
ATOM     87  C   UNL     1     -20.024   6.231   4.359  1.00  0.00     0.040 A 
ATOM     88  C   UNL     1     -20.196   5.516   6.651  1.00  0.00     0.040 A 
ATOM     89  F   UNL     1     -18.322   4.636   7.751  1.00  0.00    -0.206 F 
ATOM     90  C   UNL     1     -20.786   6.060   5.513  1.00  0.00     0.006 A 
ENDBRANCH  66  83
ENDBRANCH  40  41
ENDBRANCH  32  35
ENDBRANCH  30  31
ENDBRANCH  29  30
ENDBRANCH   1  29
TORSDOF 13
