REMARK SMILES O=C(NCCCCNC(=O)c1cccc(CSc2nc(-c3ccccc3)n[nH]2)c1)c1ccc(-c2c3nc(c(-c4c(F)cccc4F)c4ccc([nH]4)c(-c4c(F)cccc4F)c4nc(c(-c5c(F)cccc5F)c5ccc2[nH]5)C=C4)C=C3)cc1
REMARK SMILES IDX 6 1 5 2 4 3 3 4 1 5 2 6 30 8 31 9 83 10 32 11 82 12 33 13
REMARK SMILES IDX 34 14 35 15 76 16 36 17 81 18 75 19 77 20 37 21 80 22 74 23
REMARK SMILES IDX 73 24 38 26 64 27 47 28 63 29 48 30 51 31 62 32 78 33 49 34
REMARK SMILES IDX 50 35 61 37 79 38 52 39 39 40 40 41 45 42 41 43 42 44 44 45
REMARK SMILES IDX 46 46 43 47 65 48 66 49 71 50 67 51 68 52 70 53 72 54 69 55
REMARK SMILES IDX 53 56 54 57 59 58 55 59 56 60 58 61 60 62 57 63 7 64 8 65
REMARK SMILES IDX 9 66 10 68 11 69 12 70 29 71 13 72 15 73 14 74 16 75 17 76
REMARK SMILES IDX 18 77 19 78 28 79 20 80 27 81 21 83 22 84 26 85 23 86 25 87
REMARK SMILES IDX 24 88
REMARK H PARENT 3 7 77 25 51 36 8 67 28 82
REMARK Flexibility Score: inf
ROOT
ATOM      1  C   UNL     1       4.359  -3.731   1.223  1.00  0.00     0.023 C 
ENDROOT
BRANCH   1   2
ATOM      2  C   UNL     1       4.835  -2.292   1.402  1.00  0.00     0.023 C 
BRANCH   2   3
ATOM      3  C   UNL     1       4.503  -1.353   0.251  1.00  0.00     0.116 C 
BRANCH   3   4
ATOM      4  N   UNL     1       3.072  -1.195   0.039  1.00  0.00    -0.352 N 
ATOM      5  O   UNL     1       1.093  -0.113  -0.036  1.00  0.00    -0.269 OA
ATOM      6  C   UNL     1       2.317  -0.046   0.024  1.00  0.00     0.251 C 
ATOM      7  H   UNL     1       2.574  -2.030  -0.116  1.00  0.00     0.163 HD
BRANCH   6   8
ATOM      8  C   UNL     1       2.984   1.270   0.112  1.00  0.00     0.039 A 
ATOM      9  C   UNL     1       4.110   1.547  -0.666  1.00  0.00     0.014 A 
ATOM     10  C   UNL     1       2.484   2.231   0.994  1.00  0.00     0.014 A 
ATOM     11  C   UNL     1       4.825   2.718  -0.449  1.00  0.00     0.010 A 
ATOM     12  C   UNL     1       3.154   3.449   1.144  1.00  0.00     0.010 A 
ATOM     13  C   UNL     1       4.349   3.688   0.448  1.00  0.00    -0.014 A 
BRANCH  13  14
ATOM     14  C   UNL     1       5.087   4.968   0.589  1.00  0.00     0.031 A 
ATOM     15  C   UNL     1       5.740   5.356   1.885  1.00  0.00     0.074 A 
ATOM     16  C   UNL     1       5.187   5.772  -0.486  1.00  0.00     0.049 A 
ATOM     17  N   UNL     1       6.439   6.428   2.166  1.00  0.00    -0.248 NA
ATOM     18  C   UNL     1       5.585   4.430   3.016  1.00  0.00     0.031 C 
ATOM     19  C   UNL     1       4.586   5.505  -1.795  1.00  0.00     0.029 A 
ATOM     20  N   UNL     1       5.843   6.963  -0.659  1.00  0.00    -0.354 N 
ATOM     21  C   UNL     1       6.791   6.315   3.505  1.00  0.00     0.074 A 
ATOM     22  C   UNL     1       6.207   5.082   3.989  1.00  0.00     0.031 C 
ATOM     23  C   UNL     1       4.941   6.475  -2.648  1.00  0.00     0.029 A 
ATOM     24  C   UNL     1       5.739   7.464  -1.933  1.00  0.00     0.049 A 
ATOM     25  H   UNL     1       6.340   7.415   0.060  1.00  0.00     0.167 HD
ATOM     26  C   UNL     1       7.539   7.160   4.256  1.00  0.00     0.037 A 
ATOM     27  C   UNL     1       6.217   8.602  -2.467  1.00  0.00     0.037 A 
ATOM     28  C   UNL     1       8.128   8.380   3.763  1.00  0.00     0.049 A 
ATOM     29  C   UNL     1       7.016   9.532  -1.605  1.00  0.00     0.074 A 
ATOM     30  C   UNL     1       8.935   9.282   4.436  1.00  0.00     0.029 A 
ATOM     31  N   UNL     1       7.966   8.874   2.477  1.00  0.00    -0.354 N 
ATOM     32  N   UNL     1       7.369   9.395  -0.350  1.00  0.00    -0.248 NA
ATOM     33  C   UNL     1       7.477  10.778  -2.231  1.00  0.00     0.031 C 
ATOM     34  C   UNL     1       9.222  10.344   3.571  1.00  0.00     0.029 A 
ATOM     35  C   UNL     1       8.635  10.081   2.344  1.00  0.00     0.049 A 
ATOM     36  H   UNL     1       7.452   8.432   1.763  1.00  0.00     0.167 HD
ATOM     37  C   UNL     1       8.106  10.529  -0.038  1.00  0.00     0.074 A 
ATOM     38  C   UNL     1       8.165  11.333  -1.243  1.00  0.00     0.031 C 
ATOM     39  C   UNL     1       8.679  10.873   1.141  1.00  0.00     0.037 A 
BRANCH  26  40
ATOM     40  C   UNL     1       7.747   6.805   5.701  1.00  0.00     0.057 A 
ATOM     41  C   UNL     1       8.573   5.744   6.094  1.00  0.00     0.134 A 
ATOM     42  C   UNL     1       7.140   7.559   6.714  1.00  0.00     0.134 A 
ATOM     43  F   UNL     1       9.177   4.976   5.175  1.00  0.00    -0.206 F 
ATOM     44  C   UNL     1       8.770   5.431   7.441  1.00  0.00     0.040 A 
ATOM     45  C   UNL     1       7.348   7.271   8.065  1.00  0.00     0.040 A 
ATOM     46  F   UNL     1       6.343   8.594   6.409  1.00  0.00    -0.206 F 
ATOM     47  C   UNL     1       8.160   6.200   8.431  1.00  0.00     0.006 A 
ENDBRANCH  26  40
BRANCH  27  48
ATOM     48  C   UNL     1       5.945   8.913  -3.891  1.00  0.00     0.057 A 
ATOM     49  C   UNL     1       6.965   8.874  -4.847  1.00  0.00     0.134 A 
ATOM     50  C   UNL     1       4.654   9.227  -4.334  1.00  0.00     0.134 A 
ATOM     51  F   UNL     1       8.224   8.594  -4.480  1.00  0.00    -0.206 F 
ATOM     52  C   UNL     1       6.713   9.144  -6.193  1.00  0.00     0.040 A 
ATOM     53  C   UNL     1       4.383   9.473  -5.680  1.00  0.00     0.040 A 
ATOM     54  F   UNL     1       3.632   9.270  -3.466  1.00  0.00    -0.206 F 
ATOM     55  C   UNL     1       5.416   9.436  -6.613  1.00  0.00     0.006 A 
ENDBRANCH  27  48
BRANCH  39  56
ATOM     56  C   UNL     1       9.436  12.168   1.174  1.00  0.00     0.057 A 
ATOM     57  C   UNL     1       8.781  13.405   1.154  1.00  0.00     0.134 A 
ATOM     58  C   UNL     1      10.834  12.175   1.245  1.00  0.00     0.134 A 
ATOM     59  F   UNL     1       7.444  13.466   1.069  1.00  0.00    -0.206 F 
ATOM     60  C   UNL     1       9.493  14.606   1.180  1.00  0.00     0.040 A 
ATOM     61  C   UNL     1      11.555  13.368   1.298  1.00  0.00     0.040 A 
ATOM     62  F   UNL     1      11.521  11.023   1.273  1.00  0.00    -0.206 F 
ATOM     63  C   UNL     1      10.884  14.589   1.259  1.00  0.00     0.006 A 
ENDBRANCH  39  56
ENDBRANCH  13  14
ENDBRANCH   6   8
ENDBRANCH   3   4
ENDBRANCH   2   3
ENDBRANCH   1   2
BRANCH   1  64
ATOM     64  C   UNL     1       4.780  -4.394  -0.084  1.00  0.00     0.116 C 
BRANCH  64  65
ATOM     65  N   UNL     1       6.224  -4.459  -0.239  1.00  0.00    -0.352 N 
ATOM     66  C   UNL     1       7.027  -5.558  -0.422  1.00  0.00     0.251 C 
ATOM     67  H   UNL     1       6.692  -3.593  -0.210  1.00  0.00     0.163 HD
ATOM     68  O   UNL     1       8.246  -5.450  -0.356  1.00  0.00    -0.269 OA
BRANCH  66  69
ATOM     69  C   UNL     1       6.412  -6.875  -0.689  1.00  0.00     0.040 A 
ATOM     70  C   UNL     1       6.814  -7.976   0.065  1.00  0.00     0.014 A 
ATOM     71  C   UNL     1       5.439  -7.016  -1.686  1.00  0.00     0.018 A 
ATOM     72  C   UNL     1       6.197  -9.209  -0.142  1.00  0.00     0.001 A 
ATOM     73  C   UNL     1       4.800  -8.246  -1.891  1.00  0.00    -0.037 A 
ATOM     74  C   UNL     1       5.189  -9.340  -1.103  1.00  0.00     0.004 A 
BRANCH  73  75
ATOM     75  C   UNL     1       3.693  -8.366  -2.909  1.00  0.00     0.113 C 
BRANCH  75  76
ATOM     76  S   UNL     1       4.052  -9.446  -4.315  1.00  0.00    -0.082 SA
BRANCH  76  77
ATOM     77  C   UNL     1       5.527  -8.832  -4.953  1.00  0.00     0.184 A 
ATOM     78  N   UNL     1       6.476  -9.534  -5.518  1.00  0.00    -0.201 NA
ATOM     79  N   UNL     1       5.857  -7.516  -4.989  1.00  0.00    -0.254 N 
ATOM     80  C   UNL     1       7.437  -8.589  -5.806  1.00  0.00     0.182 A 
ATOM     81  N   UNL     1       7.091  -7.332  -5.479  1.00  0.00    -0.153 NA
ATOM     82  H   UNL     1       5.264  -6.788  -4.691  1.00  0.00     0.192 HD
BRANCH  80  83
ATOM     83  C   UNL     1       8.697  -8.941  -6.437  1.00  0.00     0.021 A 
ATOM     84  C   UNL     1       9.898  -8.360  -6.013  1.00  0.00     0.012 A 
ATOM     85  C   UNL     1       8.716  -9.871  -7.485  1.00  0.00     0.012 A 
ATOM     86  C   UNL     1      11.103  -8.705  -6.629  1.00  0.00     0.001 A 
ATOM     87  C   UNL     1       9.918 -10.201  -8.112  1.00  0.00     0.001 A 
ATOM     88  C   UNL     1      11.110  -9.620  -7.682  1.00  0.00     0.000 A 
ENDBRANCH  80  83
ENDBRANCH  76  77
ENDBRANCH  75  76
ENDBRANCH  73  75
ENDBRANCH  66  69
ENDBRANCH  64  65
ENDBRANCH   1  64
TORSDOF 15
