REMARK SMILES CCn1cnc(S(=O)(=O)N2CCC(C)(C(=O)NCCCCNC(=O)c3ccc(-c4c5nc(c(-c6c(F)cccc6F)c6ccc([nH]6)c(-c6c(F)cccc6F)c6nc(c(-c7c(F)cccc7F)c7ccc4[nH]7)C=C6)C=C5)cc3)CC2)c1
REMARK SMILES IDX 19 1 18 2 17 3 15 4 16 5 13 7 10 8 11 9 80 10 12 11 79 12
REMARK SMILES IDX 14 13 7 14 8 15 9 16 6 17 3 18 4 19 81 20 5 21 2 22 1 23
REMARK SMILES IDX 20 24 21 25 22 26 23 27 24 29 25 30 26 31 78 32 27 33 77 34
REMARK SMILES IDX 28 35 29 36 30 37 71 38 31 39 76 40 70 41 72 42 32 43 75 44
REMARK SMILES IDX 69 45 68 46 33 48 59 49 42 50 58 51 43 52 46 53 57 54 73 55
REMARK SMILES IDX 44 56 45 57 56 59 74 60 47 61 34 62 35 63 40 64 36 65 37 66
REMARK SMILES IDX 39 67 41 68 38 69 60 70 61 71 66 72 62 73 63 74 65 75 67 76
REMARK SMILES IDX 64 77 48 78 49 79 54 80 50 81 51 82 53 83 55 84 52 85
REMARK H PARENT 17 6 22 28 72 47 46 58
REMARK Flexibility Score: inf
ROOT
ATOM      1  C   UNL     1       1.649  -5.926  -3.111  1.00  0.00     0.023 C 
ENDROOT
BRANCH   1   2
ATOM      2  C   UNL     1       0.938  -4.934  -2.193  1.00  0.00     0.116 C 
BRANCH   2   3
ATOM      3  N   UNL     1       1.901  -4.082  -1.537  1.00  0.00    -0.356 N 
ATOM      4  C   UNL     1       2.361  -2.854  -1.859  1.00  0.00     0.226 C 
ATOM      5  O   UNL     1       3.494  -2.595  -1.438  1.00  0.00    -0.275 OA
ATOM      6  H   UNL     1       2.288  -4.460  -0.715  1.00  0.00     0.163 HD
BRANCH   4   7
ATOM      7  C   UNL     1       1.516  -1.812  -2.615  1.00  0.00     0.049 C 
ATOM      8  N   UNL     1       2.545  -0.007  -4.642  1.00  0.00    -0.196 NA
ATOM      9  C   UNL     1       2.220  -1.351  -5.118  1.00  0.00     0.103 C 
ATOM     10  C   UNL     1       3.244  -0.024  -3.362  1.00  0.00     0.103 C 
ATOM     11  C   UNL     1       1.309  -2.087  -4.133  1.00  0.00     0.033 C 
ATOM     12  C   UNL     1       2.233  -0.465  -2.321  1.00  0.00     0.033 C 
ATOM     13  C   UNL     1       0.104  -1.724  -1.966  1.00  0.00     0.022 C 
BRANCH   8  14
ATOM     14  S   UNL     1       1.640   1.355  -5.114  1.00  0.00     0.262 S 
ATOM     15  O   UNL     1       0.373   0.897  -5.637  1.00  0.00    -0.205 OA
ATOM     16  O   UNL     1       2.518   2.223  -5.877  1.00  0.00    -0.205 OA
BRANCH  14  17
ATOM     17  C   UNL     1       1.202   2.315  -3.686  1.00  0.00     0.188 A 
ATOM     18  N   UNL     1       0.530   2.654  -1.637  1.00  0.00    -0.336 N 
ATOM     19  C   UNL     1       1.568   3.496  -1.924  1.00  0.00     0.201 A 
ATOM     20  C   UNL     1       0.149   2.056  -2.814  1.00  0.00     0.129 A 
ATOM     21  N   UNL     1       2.043   3.270  -3.127  1.00  0.00    -0.224 NA
BRANCH  18  22
ATOM     22  C   UNL     1       0.077   2.324  -0.295  1.00  0.00     0.120 C 
ATOM     23  C   UNL     1       0.972   1.309   0.415  1.00  0.00     0.027 C 
ENDBRANCH  18  22
ENDBRANCH  14  17
ENDBRANCH   8  14
ENDBRANCH   4   7
ENDBRANCH   2   3
ENDBRANCH   1   2
BRANCH   1  24
ATOM     24  C   UNL     1       2.740  -6.780  -2.449  1.00  0.00     0.023 C 
BRANCH  24  25
ATOM     25  C   UNL     1       2.291  -7.522  -1.199  1.00  0.00     0.116 C 
BRANCH  25  26
ATOM     26  N   UNL     1       1.148  -8.395  -1.449  1.00  0.00    -0.352 N 
ATOM     27  C   UNL     1       0.445  -9.154  -0.538  1.00  0.00     0.251 C 
ATOM     28  H   UNL     1       0.841  -8.447  -2.383  1.00  0.00     0.163 HD
ATOM     29  O   UNL     1      -0.260 -10.087  -0.901  1.00  0.00    -0.269 OA
BRANCH  27  30
ATOM     30  C   UNL     1       0.550  -8.815   0.889  1.00  0.00     0.039 A 
ATOM     31  C   UNL     1       0.739  -9.807   1.856  1.00  0.00     0.014 A 
ATOM     32  C   UNL     1       0.486  -7.470   1.241  1.00  0.00     0.014 A 
ATOM     33  C   UNL     1       0.937  -9.426   3.181  1.00  0.00     0.010 A 
ATOM     34  C   UNL     1       0.821  -7.091   2.513  1.00  0.00     0.010 A 
ATOM     35  C   UNL     1       0.989  -8.063   3.498  1.00  0.00    -0.014 A 
BRANCH  35  36
ATOM     36  C   UNL     1       1.349  -7.610   4.839  1.00  0.00     0.031 A 
ATOM     37  C   UNL     1       2.704  -8.035   5.300  1.00  0.00     0.074 A 
ATOM     38  C   UNL     1       0.633  -6.641   5.452  1.00  0.00     0.049 A 
ATOM     39  N   UNL     1       3.017  -8.686   6.372  1.00  0.00    -0.248 NA
ATOM     40  C   UNL     1       3.849  -7.803   4.397  1.00  0.00     0.031 C 
ATOM     41  C   UNL     1      -0.541  -5.927   4.930  1.00  0.00     0.029 A 
ATOM     42  N   UNL     1       0.890  -5.970   6.607  1.00  0.00    -0.354 N 
ATOM     43  C   UNL     1       4.410  -8.759   6.385  1.00  0.00     0.074 A 
ATOM     44  C   UNL     1       4.848  -8.374   5.071  1.00  0.00     0.031 C 
ATOM     45  C   UNL     1      -0.718  -4.780   5.618  1.00  0.00     0.029 A 
ATOM     46  C   UNL     1       0.217  -4.757   6.726  1.00  0.00     0.049 A 
ATOM     47  H   UNL     1       1.499  -6.312   7.300  1.00  0.00     0.167 HD
ATOM     48  C   UNL     1       5.100  -8.873   7.555  1.00  0.00     0.037 A 
ATOM     49  C   UNL     1       0.455  -3.782   7.638  1.00  0.00     0.037 A 
ATOM     50  C   UNL     1       4.242  -9.334   8.618  1.00  0.00     0.049 A 
ATOM     51  C   UNL     1       1.237  -4.394   8.741  1.00  0.00     0.074 A 
ATOM     52  C   UNL     1       3.450 -10.449   8.812  1.00  0.00     0.029 A 
ATOM     53  N   UNL     1       3.815  -8.412   9.541  1.00  0.00    -0.354 N 
ATOM     54  N   UNL     1       0.760  -5.293   9.556  1.00  0.00    -0.248 NA
ATOM     55  C   UNL     1       2.688  -4.352   8.637  1.00  0.00     0.031 C 
ATOM     56  C   UNL     1       2.282  -9.957   9.466  1.00  0.00     0.029 A 
ATOM     57  C   UNL     1       2.467  -8.595   9.704  1.00  0.00     0.049 A 
ATOM     58  H   UNL     1       4.373  -7.744  10.001  1.00  0.00     0.167 HD
ATOM     59  C   UNL     1       1.794  -6.204   9.717  1.00  0.00     0.074 A 
ATOM     60  C   UNL     1       2.982  -5.528   9.197  1.00  0.00     0.031 C 
ATOM     61  C   UNL     1       1.540  -7.521   9.974  1.00  0.00     0.037 A 
BRANCH  48  62
ATOM     62  C   UNL     1       6.425  -8.196   7.834  1.00  0.00     0.057 A 
ATOM     63  C   UNL     1       7.081  -8.455   9.053  1.00  0.00     0.134 A 
ATOM     64  C   UNL     1       6.924  -7.089   7.117  1.00  0.00     0.134 A 
ATOM     65  F   UNL     1       6.702  -9.478   9.835  1.00  0.00    -0.206 F 
ATOM     66  C   UNL     1       8.084  -7.620   9.561  1.00  0.00     0.040 A 
ATOM     67  C   UNL     1       7.961  -6.280   7.591  1.00  0.00     0.040 A 
ATOM     68  F   UNL     1       6.377  -6.661   5.974  1.00  0.00    -0.206 F 
ATOM     69  C   UNL     1       8.520  -6.521   8.835  1.00  0.00     0.006 A 
ENDBRANCH  48  62
BRANCH  49  70
ATOM     70  C   UNL     1       0.325  -2.313   7.476  1.00  0.00     0.057 A 
ATOM     71  C   UNL     1       0.332  -1.459   8.588  1.00  0.00     0.134 A 
ATOM     72  C   UNL     1       0.460  -1.689   6.223  1.00  0.00     0.134 A 
ATOM     73  F   UNL     1       0.247  -1.958   9.830  1.00  0.00    -0.206 F 
ATOM     74  C   UNL     1       0.490  -0.071   8.464  1.00  0.00     0.040 A 
ATOM     75  C   UNL     1       0.611  -0.305   6.084  1.00  0.00     0.040 A 
ATOM     76  F   UNL     1       0.540  -2.406   5.093  1.00  0.00    -0.206 F 
ATOM     77  C   UNL     1       0.643   0.509   7.208  1.00  0.00     0.006 A 
ENDBRANCH  49  70
BRANCH  61  78
ATOM     78  C   UNL     1       0.132  -7.919  10.325  1.00  0.00     0.057 A 
ATOM     79  C   UNL     1      -0.968  -7.782   9.464  1.00  0.00     0.134 A 
ATOM     80  C   UNL     1      -0.088  -8.617  11.517  1.00  0.00     0.134 A 
ATOM     81  F   UNL     1      -0.840  -7.222   8.256  1.00  0.00    -0.206 F 
ATOM     82  C   UNL     1      -2.234  -8.278   9.793  1.00  0.00     0.040 A 
ATOM     83  C   UNL     1      -1.338  -9.148  11.843  1.00  0.00     0.040 A 
ATOM     84  F   UNL     1       0.928  -8.839  12.366  1.00  0.00    -0.206 F 
ATOM     85  C   UNL     1      -2.419  -8.970  10.985  1.00  0.00     0.006 A 
ENDBRANCH  61  78
ENDBRANCH  35  36
ENDBRANCH  27  30
ENDBRANCH  25  26
ENDBRANCH  24  25
ENDBRANCH   1  24
TORSDOF 14
