REMARK SMILES O=C(NCc1ccsc1)NC[C@H]1CC[C@@H](C(=O)NCCCCNC(=O)c2ccc(-c3c4nc(c(-c5c(F)cccc5F)c5ccc([nH]5)c(-c5c(F)cccc5F)c5nc(c(-c6c(F)cccc6F)c6ccc3[nH]6)C=C5)C=C4)cc2)CC1
REMARK SMILES IDX 19 1 18 2 16 3 17 4 15 6 12 7 13 8 81 9 14 10 80 11 11 12
REMARK SMILES IDX 10 13 1 14 2 15 3 16 4 19 5 20 6 21 9 22 7 23 8 24 20 25
REMARK SMILES IDX 21 26 22 27 23 28 24 29 25 31 26 32 27 33 79 34 28 35 78 36
REMARK SMILES IDX 29 37 30 38 31 39 72 40 32 41 77 42 71 43 73 44 33 45 76 46
REMARK SMILES IDX 70 47 69 48 34 50 60 51 43 52 59 53 44 54 47 55 58 56 74 57
REMARK SMILES IDX 45 58 46 59 57 61 75 62 48 63 35 64 36 65 41 66 37 67 38 68
REMARK SMILES IDX 40 69 42 70 39 71 61 72 62 73 67 74 63 75 64 76 66 77 68 78
REMARK SMILES IDX 65 79 49 80 50 81 55 82 51 83 52 84 54 85 56 86 53 87
REMARK H PARENT 18 5 3 17 10 18 23 30 73 49 47 60
REMARK Flexibility Score: inf
ROOT
ATOM      1  C   UNL     1       2.102  -3.871   4.174  1.00  0.00     0.116 C 
ENDROOT
BRANCH   1   2
ATOM      2  N   UNL     1       2.342  -5.283   4.332  1.00  0.00    -0.356 N 
ATOM      3  C   UNL     1       2.899  -6.208   3.513  1.00  0.00     0.223 C 
ATOM      4  O   UNL     1       3.078  -7.325   4.016  1.00  0.00    -0.275 OA
ATOM      5  H   UNL     1       2.046  -5.644   5.199  1.00  0.00     0.163 HD
BRANCH   3   6
ATOM      6  C   UNL     1       3.285  -5.980   2.040  1.00  0.00     0.078 C 
ATOM      7  C   UNL     1       2.819  -3.394   0.534  1.00  0.00     0.008 C 
ATOM      8  C   UNL     1       4.109  -3.598   1.350  1.00  0.00     0.006 C 
ATOM      9  C   UNL     1       1.688  -4.398   0.814  1.00  0.00     0.006 C 
ATOM     10  C   UNL     1       4.447  -5.036   1.739  1.00  0.00     0.014 C 
ATOM     11  C   UNL     1       2.115  -5.827   1.078  1.00  0.00     0.014 C 
BRANCH   7  12
ATOM     12  C   UNL     1       2.237  -1.980   0.756  1.00  0.00     0.121 C 
BRANCH  12  13
ATOM     13  N   UNL     1       3.024  -0.915   0.183  1.00  0.00    -0.338 N 
ATOM     14  O   UNL     1       1.194   0.316  -0.402  1.00  0.00    -0.249 OA
ATOM     15  C   UNL     1       2.413   0.187  -0.333  1.00  0.00     0.315 C 
ATOM     16  N   UNL     1       3.202   1.178  -0.797  1.00  0.00    -0.334 N 
ATOM     17  H   UNL     1       2.715   1.967  -1.128  1.00  0.00     0.165 HD
ATOM     18  H   UNL     1       4.005  -0.985   0.166  1.00  0.00     0.165 HD
BRANCH  16  19
ATOM     19  C   UNL     1       4.638   1.279  -0.892  1.00  0.00     0.154 C 
BRANCH  19  20
ATOM     20  C   UNL     1       5.047   0.887  -2.275  1.00  0.00    -0.018 A 
ATOM     21  C   UNL     1       5.038  -0.456  -2.785  1.00  0.00     0.017 A 
ATOM     22  C   UNL     1       5.480   1.772  -3.247  1.00  0.00     0.070 A 
ATOM     23  C   UNL     1       5.456  -0.531  -4.095  1.00  0.00     0.065 A 
ATOM     24  S   UNL     1       5.869   1.002  -4.723  1.00  0.00    -0.152 S 
ENDBRANCH  19  20
ENDBRANCH  16  19
ENDBRANCH  12  13
ENDBRANCH   7  12
ENDBRANCH   3   6
ENDBRANCH   1   2
BRANCH   1  25
ATOM     25  C   UNL     1       0.620  -3.506   4.136  1.00  0.00     0.023 C 
BRANCH  25  26
ATOM     26  C   UNL     1       0.058  -2.949   5.438  1.00  0.00     0.023 C 
BRANCH  26  27
ATOM     27  C   UNL     1       0.756  -1.704   5.976  1.00  0.00     0.116 C 
BRANCH  27  28
ATOM     28  N   UNL     1       0.818  -0.578   5.054  1.00  0.00    -0.352 N 
ATOM     29  C   UNL     1       0.816   0.767   5.369  1.00  0.00     0.251 C 
ATOM     30  H   UNL     1       0.867  -0.801   4.096  1.00  0.00     0.163 HD
ATOM     31  O   UNL     1       0.863   1.625   4.503  1.00  0.00    -0.269 OA
BRANCH  29  32
ATOM     32  C   UNL     1       0.693   1.148   6.791  1.00  0.00     0.039 A 
ATOM     33  C   UNL     1      -0.386   1.943   7.183  1.00  0.00     0.014 A 
ATOM     34  C   UNL     1       1.566   0.610   7.739  1.00  0.00     0.014 A 
ATOM     35  C   UNL     1      -0.652   2.112   8.542  1.00  0.00     0.010 A 
ATOM     36  C   UNL     1       1.252   0.713   9.088  1.00  0.00     0.010 A 
ATOM     37  C   UNL     1       0.131   1.451   9.502  1.00  0.00    -0.014 A 
BRANCH  37  38
ATOM     38  C   UNL     1      -0.214   1.494  10.945  1.00  0.00     0.031 A 
ATOM     39  C   UNL     1       0.747   2.099  11.928  1.00  0.00     0.074 A 
ATOM     40  C   UNL     1      -1.345   0.904  11.381  1.00  0.00     0.049 A 
ATOM     41  N   UNL     1       0.680   2.135  13.234  1.00  0.00    -0.248 NA
ATOM     42  C   UNL     1       1.963   2.711  11.370  1.00  0.00     0.031 C 
ATOM     43  C   UNL     1      -2.329   0.222  10.537  1.00  0.00     0.029 A 
ATOM     44  N   UNL     1      -1.851   0.771  12.650  1.00  0.00    -0.354 N 
ATOM     45  C   UNL     1       1.855   2.745  13.653  1.00  0.00     0.074 A 
ATOM     46  C   UNL     1       2.637   3.019  12.467  1.00  0.00     0.031 C 
ATOM     47  C   UNL     1      -3.331  -0.233  11.307  1.00  0.00     0.029 A 
ATOM     48  C   UNL     1      -3.045   0.094  12.701  1.00  0.00     0.049 A 
ATOM     49  H   UNL     1      -1.399   1.127  13.450  1.00  0.00     0.167 HD
ATOM     50  C   UNL     1       2.238   3.071  14.910  1.00  0.00     0.037 A 
ATOM     51  C   UNL     1      -3.822  -0.226  13.752  1.00  0.00     0.037 A 
ATOM     52  C   UNL     1       1.438   2.843  16.084  1.00  0.00     0.049 A 
ATOM     53  C   UNL     1      -3.397   0.186  15.134  1.00  0.00     0.074 A 
ATOM     54  C   UNL     1       1.705   3.205  17.392  1.00  0.00     0.029 A 
ATOM     55  N   UNL     1       0.210   2.201  16.087  1.00  0.00    -0.354 N 
ATOM     56  N   UNL     1      -2.313   0.821  15.508  1.00  0.00    -0.248 NA
ATOM     57  C   UNL     1      -4.304  -0.159  16.238  1.00  0.00     0.031 C 
ATOM     58  C   UNL     1       0.647   2.759  18.192  1.00  0.00     0.029 A 
ATOM     59  C   UNL     1      -0.291   2.148  17.376  1.00  0.00     0.049 A 
ATOM     60  H   UNL     1      -0.239   1.836  15.290  1.00  0.00     0.167 HD
ATOM     61  C   UNL     1      -2.420   0.975  16.884  1.00  0.00     0.074 A 
ATOM     62  C   UNL     1      -3.679   0.376  17.277  1.00  0.00     0.031 C 
ATOM     63  C   UNL     1      -1.552   1.558  17.745  1.00  0.00     0.037 A 
BRANCH  50  64
ATOM     64  C   UNL     1       3.578   3.723  15.071  1.00  0.00     0.057 A 
ATOM     65  C   UNL     1       3.810   5.041  14.658  1.00  0.00     0.134 A 
ATOM     66  C   UNL     1       4.645   3.031  15.658  1.00  0.00     0.134 A 
ATOM     67  F   UNL     1       2.833   5.752  14.073  1.00  0.00    -0.206 F 
ATOM     68  C   UNL     1       5.063   5.639  14.795  1.00  0.00     0.040 A 
ATOM     69  C   UNL     1       5.896   3.627  15.824  1.00  0.00     0.040 A 
ATOM     70  F   UNL     1       4.489   1.767  16.078  1.00  0.00    -0.206 F 
ATOM     71  C   UNL     1       6.109   4.933  15.385  1.00  0.00     0.006 A 
ENDBRANCH  50  64
BRANCH  51  72
ATOM     72  C   UNL     1      -5.103  -0.945  13.540  1.00  0.00     0.057 A 
ATOM     73  C   UNL     1      -6.328  -0.283  13.684  1.00  0.00     0.134 A 
ATOM     74  C   UNL     1      -5.136  -2.301  13.197  1.00  0.00     0.134 A 
ATOM     75  F   UNL     1      -6.359   1.012  14.030  1.00  0.00    -0.206 F 
ATOM     76  C   UNL     1      -7.543  -0.949  13.513  1.00  0.00     0.040 A 
ATOM     77  C   UNL     1      -6.343  -2.974  13.004  1.00  0.00     0.040 A 
ATOM     78  F   UNL     1      -3.995  -2.987  13.038  1.00  0.00    -0.206 F 
ATOM     79  C   UNL     1      -7.552  -2.299  13.168  1.00  0.00     0.006 A 
ENDBRANCH  51  72
BRANCH  63  80
ATOM     80  C   UNL     1      -1.949   1.607  19.189  1.00  0.00     0.057 A 
ATOM     81  C   UNL     1      -1.891   0.473  20.007  1.00  0.00     0.134 A 
ATOM     82  C   UNL     1      -2.354   2.812  19.776  1.00  0.00     0.134 A 
ATOM     83  F   UNL     1      -1.524  -0.714  19.499  1.00  0.00    -0.206 F 
ATOM     84  C   UNL     1      -2.238   0.532  21.358  1.00  0.00     0.040 A 
ATOM     85  C   UNL     1      -2.683   2.889  21.129  1.00  0.00     0.040 A 
ATOM     86  F   UNL     1      -2.423   3.936  19.046  1.00  0.00    -0.206 F 
ATOM     87  C   UNL     1      -2.629   1.745  21.923  1.00  0.00     0.006 A 
ENDBRANCH  63  80
ENDBRANCH  37  38
ENDBRANCH  29  32
ENDBRANCH  27  28
ENDBRANCH  26  27
ENDBRANCH  25  26
ENDBRANCH   1  25
TORSDOF 15
