REMARK SMILES C[C@H](C(=O)NCCCCNC(=O)c1ccc(-c2c3nc(c(-c4c(F)cccc4F)c4ccc([nH]4)c(-c4c(F)cccc4F)c4nc(c(-c5c(F)cccc5F)c5ccc2[nH]5)C=C4)C=C3)cc1)c1ccc2c3cc(Cl)ccc3n(C(=O)c3cocn3)c2c1
REMARK SMILES IDX 7 1 6 2 5 3 3 4 4 5 2 7 1 8 67 9 68 10 87 11 69 12 86 13
REMARK SMILES IDX 70 14 78 15 71 16 77 17 72 18 76 19 73 20 75 21 74 22 79 23
REMARK SMILES IDX 80 24 81 25 82 26 85 27 83 28 84 29 8 30 9 31 10 32 11 33
REMARK SMILES IDX 12 35 13 36 14 37 66 38 15 39 65 40 16 41 17 42 18 43 59 44
REMARK SMILES IDX 19 45 64 46 58 47 60 48 20 49 63 50 57 51 56 52 21 54 47 55
REMARK SMILES IDX 30 56 46 57 31 58 34 59 45 60 61 61 32 62 33 63 44 65 62 66
REMARK SMILES IDX 35 67 22 68 23 69 28 70 24 71 25 72 27 73 29 74 26 75 48 76
REMARK SMILES IDX 49 77 54 78 50 79 51 80 53 81 55 82 52 83 36 84 37 85 42 86
REMARK SMILES IDX 38 87 39 88 41 89 43 90 40 91
REMARK H PARENT 5 6 10 34 60 53 34 64
REMARK Flexibility Score: inf
ROOT
ATOM      1  C   UNL     1      -1.694   1.679   0.272  1.00  0.00     0.023 C 
ENDROOT
BRANCH   1   2
ATOM      2  C   UNL     1      -0.276   1.775  -0.295  1.00  0.00     0.116 C 
BRANCH   2   3
ATOM      3  N   UNL     1       0.635   0.932   0.447  1.00  0.00    -0.356 N 
ATOM      4  C   UNL     1       0.937  -0.391   0.301  1.00  0.00     0.227 C 
ATOM      5  O   UNL     1       1.685  -0.864   1.163  1.00  0.00    -0.274 OA
ATOM      6  H   UNL     1       1.115   1.387   1.176  1.00  0.00     0.163 HD
BRANCH   4   7
ATOM      7  C   UNL     1       0.482  -1.214  -0.923  1.00  0.00     0.105 C 
ATOM      8  C   UNL     1       1.158  -2.597  -0.870  1.00  0.00     0.023 C 
BRANCH   7   9
ATOM      9  C   UNL     1      -1.030  -1.366  -1.104  1.00  0.00    -0.034 A 
ATOM     10  C   UNL     1      -1.690  -0.610  -2.082  1.00  0.00     0.005 A 
ATOM     11  C   UNL     1      -1.779  -2.282  -0.344  1.00  0.00     0.032 A 
ATOM     12  C   UNL     1      -3.084  -0.625  -2.205  1.00  0.00     0.011 A 
ATOM     13  C   UNL     1      -3.173  -2.373  -0.549  1.00  0.00     0.058 A 
ATOM     14  C   UNL     1      -3.840  -1.505  -1.411  1.00  0.00     0.008 A 
ATOM     15  N   UNL     1      -4.117  -3.307  -0.105  1.00  0.00    -0.274 N 
ATOM     16  C   UNL     1      -5.236  -1.695  -1.210  1.00  0.00     0.009 A 
ATOM     17  C   UNL     1      -5.393  -2.800  -0.369  1.00  0.00     0.057 A 
ATOM     18  C   UNL     1      -6.378  -0.989  -1.647  1.00  0.00     0.031 A 
ATOM     19  C   UNL     1      -6.667  -3.198   0.085  1.00  0.00     0.029 A 
ATOM     20  C   UNL     1      -7.637  -1.376  -1.188  1.00  0.00     0.041 A 
ATOM     21  C   UNL     1      -7.782  -2.464  -0.336  1.00  0.00     0.023 A 
ATOM     22  Cl  UNL     1      -9.024  -0.469  -1.656  1.00  0.00    -0.084 Cl
BRANCH  15  23
ATOM     23  C   UNL     1      -3.797  -4.564   0.469  1.00  0.00     0.284 C 
ATOM     24  O   UNL     1      -2.812  -4.591   1.202  1.00  0.00    -0.266 OA
BRANCH  23  25
ATOM     25  C   UNL     1      -4.525  -5.796   0.149  1.00  0.00     0.167 A 
ATOM     26  C   UNL     1      -5.381  -6.046  -0.905  1.00  0.00     0.231 A 
ATOM     27  N   UNL     1      -4.333  -6.983   0.843  1.00  0.00    -0.211 NA
ATOM     28  O   UNL     1      -5.735  -7.362  -0.876  1.00  0.00    -0.451 OA
ATOM     29  C   UNL     1      -5.056  -7.862   0.190  1.00  0.00     0.308 A 
ENDBRANCH  23  25
ENDBRANCH  15  23
ENDBRANCH   7   9
ENDBRANCH   4   7
ENDBRANCH   2   3
ENDBRANCH   1   2
BRANCH   1  30
ATOM     30  C   UNL     1      -2.052   2.787   1.263  1.00  0.00     0.023 C 
BRANCH  30  31
ATOM     31  C   UNL     1      -2.212   4.163   0.628  1.00  0.00     0.116 C 
BRANCH  31  32
ATOM     32  N   UNL     1      -3.272   4.231  -0.369  1.00  0.00    -0.352 N 
ATOM     33  C   UNL     1      -4.021   5.320  -0.749  1.00  0.00     0.251 C 
ATOM     34  H   UNL     1      -3.479   3.386  -0.832  1.00  0.00     0.163 HD
ATOM     35  O   UNL     1      -4.928   5.199  -1.565  1.00  0.00    -0.269 OA
BRANCH  33  36
ATOM     36  C   UNL     1      -3.761   6.629  -0.114  1.00  0.00     0.039 A 
ATOM     37  C   UNL     1      -4.837   7.335   0.428  1.00  0.00     0.014 A 
ATOM     38  C   UNL     1      -2.459   7.120   0.012  1.00  0.00     0.014 A 
ATOM     39  C   UNL     1      -4.596   8.488   1.175  1.00  0.00     0.010 A 
ATOM     40  C   UNL     1      -2.214   8.223   0.823  1.00  0.00     0.010 A 
ATOM     41  C   UNL     1      -3.279   8.912   1.421  1.00  0.00    -0.014 A 
BRANCH  41  42
ATOM     42  C   UNL     1      -3.002  10.057   2.325  1.00  0.00     0.031 A 
ATOM     43  C   UNL     1      -2.336  11.298   1.799  1.00  0.00     0.074 A 
ATOM     44  C   UNL     1      -3.297   9.951   3.636  1.00  0.00     0.049 A 
ATOM     45  N   UNL     1      -1.984  12.381   2.444  1.00  0.00    -0.248 NA
ATOM     46  C   UNL     1      -1.993  11.313   0.368  1.00  0.00     0.031 C 
ATOM     47  C   UNL     1      -3.875   8.770   4.283  1.00  0.00     0.029 A 
ATOM     48  N   UNL     1      -3.147  10.848   4.663  1.00  0.00    -0.354 N 
ATOM     49  C   UNL     1      -1.375  13.199   1.502  1.00  0.00     0.074 A 
ATOM     50  C   UNL     1      -1.349  12.465   0.256  1.00  0.00     0.031 C 
ATOM     51  C   UNL     1      -4.059   9.028   5.588  1.00  0.00     0.029 A 
ATOM     52  C   UNL     1      -3.588  10.378   5.876  1.00  0.00     0.049 A 
ATOM     53  H   UNL     1      -2.760  11.746   4.541  1.00  0.00     0.167 HD
ATOM     54  C   UNL     1      -0.906  14.461   1.653  1.00  0.00     0.037 A 
ATOM     55  C   UNL     1      -3.613  10.971   7.084  1.00  0.00     0.037 A 
ATOM     56  C   UNL     1      -0.958  15.202   2.885  1.00  0.00     0.049 A 
ATOM     57  C   UNL     1      -3.114  12.383   7.216  1.00  0.00     0.074 A 
ATOM     58  C   UNL     1      -0.556  16.504   3.127  1.00  0.00     0.029 A 
ATOM     59  N   UNL     1      -1.448  14.705   4.083  1.00  0.00    -0.354 N 
ATOM     60  N   UNL     1      -2.606  13.170   6.299  1.00  0.00    -0.248 NA
ATOM     61  C   UNL     1      -3.203  12.993   8.550  1.00  0.00     0.031 C 
ATOM     62  C   UNL     1      -0.778  16.786   4.480  1.00  0.00     0.029 A 
ATOM     63  C   UNL     1      -1.351  15.672   5.070  1.00  0.00     0.049 A 
ATOM     64  H   UNL     1      -1.810  13.799   4.214  1.00  0.00     0.167 HD
ATOM     65  C   UNL     1      -2.336  14.372   6.938  1.00  0.00     0.074 A 
ATOM     66  C   UNL     1      -2.758  14.219   8.315  1.00  0.00     0.031 C 
ATOM     67  C   UNL     1      -1.782  15.501   6.433  1.00  0.00     0.037 A 
BRANCH  54  68
ATOM     68  C   UNL     1      -0.321  15.129   0.444  1.00  0.00     0.057 A 
ATOM     69  C   UNL     1      -1.126  15.553  -0.621  1.00  0.00     0.134 A 
ATOM     70  C   UNL     1       1.052  15.389   0.359  1.00  0.00     0.134 A 
ATOM     71  F   UNL     1      -2.448  15.320  -0.608  1.00  0.00    -0.206 F 
ATOM     72  C   UNL     1      -0.585  16.192  -1.737  1.00  0.00     0.040 A 
ATOM     73  C   UNL     1       1.602  16.051  -0.740  1.00  0.00     0.040 A 
ATOM     74  F   UNL     1       1.880  15.014   1.346  1.00  0.00    -0.206 F 
ATOM     75  C   UNL     1       0.783  16.450  -1.795  1.00  0.00     0.006 A 
ENDBRANCH  54  68
BRANCH  55  76
ATOM     76  C   UNL     1      -4.155  10.249   8.263  1.00  0.00     0.057 A 
ATOM     77  C   UNL     1      -5.369  10.632   8.847  1.00  0.00     0.134 A 
ATOM     78  C   UNL     1      -3.465   9.182   8.849  1.00  0.00     0.134 A 
ATOM     79  F   UNL     1      -6.067  11.659   8.341  1.00  0.00    -0.206 F 
ATOM     80  C   UNL     1      -5.863   9.998   9.988  1.00  0.00     0.040 A 
ATOM     81  C   UNL     1      -3.960   8.524   9.976  1.00  0.00     0.040 A 
ATOM     82  F   UNL     1      -2.302   8.762   8.332  1.00  0.00    -0.206 F 
ATOM     83  C   UNL     1      -5.158   8.938  10.555  1.00  0.00     0.006 A 
ENDBRANCH  55  76
BRANCH  67  84
ATOM     84  C   UNL     1      -1.627  16.660   7.372  1.00  0.00     0.057 A 
ATOM     85  C   UNL     1      -0.663  16.662   8.388  1.00  0.00     0.134 A 
ATOM     86  C   UNL     1      -2.440  17.793   7.247  1.00  0.00     0.134 A 
ATOM     87  F   UNL     1       0.137  15.600   8.567  1.00  0.00    -0.206 F 
ATOM     88  C   UNL     1      -0.532  17.738   9.266  1.00  0.00     0.040 A 
ATOM     89  C   UNL     1      -2.301  18.887   8.103  1.00  0.00     0.040 A 
ATOM     90  F   UNL     1      -3.377  17.858   6.290  1.00  0.00    -0.206 F 
ATOM     91  C   UNL     1      -1.350  18.857   9.121  1.00  0.00     0.006 A 
ENDBRANCH  67  84
ENDBRANCH  41  42
ENDBRANCH  33  36
ENDBRANCH  31  32
ENDBRANCH  30  31
ENDBRANCH   1  30
TORSDOF 14
