REMARK SMILES CC[NH2+][C@]1(C(=O)NCCCCNC(=O)c2ccc(-c3c4nc(c(-c5c(F)cccc5F)c5ccc([nH]5)c(-c5c(F)cccc5F)c5nc(c(-c6c(F)cccc6F)c6ccc3[nH]6)C=C5)C=C4)cc2)CC[C@H](OCC)C1
REMARK SMILES IDX 9 1 8 2 7 3 5 4 6 5 4 7 69 8 75 9 70 10 71 11 3 12 2 15 1 16
REMARK SMILES IDX 72 17 73 18 74 19 10 20 11 21 12 22 13 23 14 25 15 26 16 27
REMARK SMILES IDX 68 28 17 29 67 30 18 31 19 32 20 33 61 34 21 35 66 36 60 37
REMARK SMILES IDX 62 38 22 39 65 40 59 41 58 42 23 44 49 45 32 46 48 47 33 48
REMARK SMILES IDX 36 49 47 50 63 51 34 52 35 53 46 55 64 56 37 57 24 58 25 59
REMARK SMILES IDX 30 60 26 61 27 62 29 63 31 64 28 65 50 66 51 67 56 68 52 69
REMARK SMILES IDX 53 70 55 71 57 72 54 73 38 74 39 75 44 76 40 77 41 78 43 79
REMARK SMILES IDX 45 80 42 81
REMARK H PARENT 7 6 3 13 3 14 12 24 62 43 36 54
REMARK Flexibility Score: inf
ROOT
ATOM      1  C   UNL     1       2.407   1.279  -2.608  1.00  0.00     0.023 C 
ENDROOT
BRANCH   1   2
ATOM      2  C   UNL     1       2.641  -0.225  -2.600  1.00  0.00     0.116 C 
BRANCH   2   3
ATOM      3  N   UNL     1       1.850  -0.931  -1.612  1.00  0.00    -0.351 N 
ATOM      4  C   UNL     1       1.081  -2.056  -1.654  1.00  0.00     0.281 C 
ATOM      5  O   UNL     1       0.789  -2.516  -0.539  1.00  0.00    -0.268 OA
ATOM      6  H   UNL     1       1.874  -0.510  -0.723  1.00  0.00     0.163 HD
BRANCH   4   7
ATOM      7  C   UNL     1       0.474  -2.694  -2.962  1.00  0.00     0.178 C 
ATOM      8  C   UNL     1       1.272  -2.470  -4.250  1.00  0.00     0.082 C 
ATOM      9  C   UNL     1       0.575  -4.237  -2.804  1.00  0.00     0.111 C 
ATOM     10  C   UNL     1       1.002  -3.654  -5.150  1.00  0.00     0.039 C 
ATOM     11  C   UNL     1       0.872  -4.829  -4.193  1.00  0.00     0.125 C 
BRANCH   7  12
ATOM     12  N   UNL     1      -0.923  -2.193  -3.029  1.00  0.00    -0.334 N 
ATOM     13  H   UNL     1      -1.300  -2.228  -2.082  1.00  0.00     0.347 HD
ATOM     14  H   UNL     1      -0.834  -1.267  -3.446  1.00  0.00     0.347 HD
BRANCH  12  15
ATOM     15  C   UNL     1      -1.873  -2.880  -3.893  1.00  0.00     0.257 C 
ATOM     16  C   UNL     1      -3.291  -2.401  -3.609  1.00  0.00     0.071 C 
ENDBRANCH  12  15
ENDBRANCH   7  12
BRANCH  11  17
ATOM     17  O   UNL     1      -0.167  -5.668  -4.682  1.00  0.00    -0.378 OA
BRANCH  17  18
ATOM     18  C   UNL     1      -0.191  -6.975  -4.121  1.00  0.00     0.157 C 
ATOM     19  C   UNL     1       0.878  -7.855  -4.744  1.00  0.00     0.035 C 
ENDBRANCH  17  18
ENDBRANCH  11  17
ENDBRANCH   4   7
ENDBRANCH   2   3
ENDBRANCH   1   2
BRANCH   1  20
ATOM     20  C   UNL     1       2.984   2.042  -1.421  1.00  0.00     0.023 C 
BRANCH  20  21
ATOM     21  C   UNL     1       4.458   1.794  -1.119  1.00  0.00     0.116 C 
BRANCH  21  22
ATOM     22  N   UNL     1       5.338   1.973  -2.266  1.00  0.00    -0.352 N 
ATOM     23  C   UNL     1       6.550   2.623  -2.339  1.00  0.00     0.251 C 
ATOM     24  H   UNL     1       5.022   1.572  -3.108  1.00  0.00     0.163 HD
ATOM     25  O   UNL     1       7.132   2.735  -3.409  1.00  0.00    -0.269 OA
BRANCH  23  26
ATOM     26  C   UNL     1       7.119   3.229  -1.117  1.00  0.00     0.039 A 
ATOM     27  C   UNL     1       7.518   4.567  -1.154  1.00  0.00     0.014 A 
ATOM     28  C   UNL     1       7.201   2.497   0.069  1.00  0.00     0.014 A 
ATOM     29  C   UNL     1       7.915   5.199   0.026  1.00  0.00     0.010 A 
ATOM     30  C   UNL     1       7.524   3.147   1.255  1.00  0.00     0.010 A 
ATOM     31  C   UNL     1       7.875   4.507   1.247  1.00  0.00    -0.014 A 
BRANCH  31  32
ATOM     32  C   UNL     1       8.177   5.188   2.531  1.00  0.00     0.031 A 
ATOM     33  C   UNL     1       9.351   4.746   3.359  1.00  0.00     0.074 A 
ATOM     34  C   UNL     1       7.346   6.145   2.991  1.00  0.00     0.049 A 
ATOM     35  N   UNL     1       9.725   5.152   4.546  1.00  0.00    -0.248 NA
ATOM     36  C   UNL     1      10.201   3.686   2.793  1.00  0.00     0.031 C 
ATOM     37  C   UNL     1       6.141   6.624   2.310  1.00  0.00     0.029 A 
ATOM     38  N   UNL     1       7.381   6.879   4.151  1.00  0.00    -0.354 N 
ATOM     39  C   UNL     1      10.830   4.379   4.878  1.00  0.00     0.074 A 
ATOM     40  C   UNL     1      11.046   3.455   3.788  1.00  0.00     0.031 C 
ATOM     41  C   UNL     1       5.564   7.582   3.054  1.00  0.00     0.029 A 
ATOM     42  C   UNL     1       6.335   7.761   4.280  1.00  0.00     0.049 A 
ATOM     43  H   UNL     1       8.090   6.781   4.828  1.00  0.00     0.167 HD
ATOM     44  C   UNL     1      11.607   4.450   5.984  1.00  0.00     0.037 A 
ATOM     45  C   UNL     1       6.030   8.612   5.277  1.00  0.00     0.037 A 
ATOM     46  C   UNL     1      11.423   5.405   7.043  1.00  0.00     0.049 A 
ATOM     47  C   UNL     1       6.926   8.683   6.483  1.00  0.00     0.074 A 
ATOM     48  C   UNL     1      12.216   5.617   8.158  1.00  0.00     0.029 A 
ATOM     49  N   UNL     1      10.375   6.309   7.118  1.00  0.00    -0.354 N 
ATOM     50  N   UNL     1       8.020   8.008   6.741  1.00  0.00    -0.248 NA
ATOM     51  C   UNL     1       6.548   9.637   7.536  1.00  0.00     0.031 C 
ATOM     52  C   UNL     1      11.626   6.624   8.928  1.00  0.00     0.029 A 
ATOM     53  C   UNL     1      10.489   7.066   8.271  1.00  0.00     0.049 A 
ATOM     54  H   UNL     1       9.657   6.398   6.451  1.00  0.00     0.167 HD
ATOM     55  C   UNL     1       8.478   8.480   7.964  1.00  0.00     0.074 A 
ATOM     56  C   UNL     1       7.551   9.506   8.392  1.00  0.00     0.031 C 
ATOM     57  C   UNL     1       9.569   8.098   8.671  1.00  0.00     0.037 A 
BRANCH  44  58
ATOM     58  C   UNL     1      12.740   3.475   6.106  1.00  0.00     0.057 A 
ATOM     59  C   UNL     1      13.897   3.586   5.324  1.00  0.00     0.134 A 
ATOM     60  C   UNL     1      12.700   2.452   7.061  1.00  0.00     0.134 A 
ATOM     61  F   UNL     1      13.992   4.538   4.383  1.00  0.00    -0.206 F 
ATOM     62  C   UNL     1      14.968   2.706   5.479  1.00  0.00     0.040 A 
ATOM     63  C   UNL     1      13.775   1.580   7.242  1.00  0.00     0.040 A 
ATOM     64  F   UNL     1      11.623   2.294   7.846  1.00  0.00    -0.206 F 
ATOM     65  C   UNL     1      14.912   1.705   6.447  1.00  0.00     0.006 A 
ENDBRANCH  44  58
BRANCH  45  66
ATOM     66  C   UNL     1       4.832   9.486   5.184  1.00  0.00     0.057 A 
ATOM     67  C   UNL     1       4.963  10.872   5.033  1.00  0.00     0.134 A 
ATOM     68  C   UNL     1       3.536   8.968   5.285  1.00  0.00     0.134 A 
ATOM     69  F   UNL     1       6.179  11.430   4.951  1.00  0.00    -0.206 F 
ATOM     70  C   UNL     1       3.850  11.715   5.019  1.00  0.00     0.040 A 
ATOM     71  C   UNL     1       2.413   9.796   5.247  1.00  0.00     0.040 A 
ATOM     72  F   UNL     1       3.343   7.648   5.424  1.00  0.00    -0.206 F 
ATOM     73  C   UNL     1       2.570  11.176   5.125  1.00  0.00     0.006 A 
ENDBRANCH  45  66
BRANCH  57  74
ATOM     74  C   UNL     1       9.845   8.823   9.954  1.00  0.00     0.057 A 
ATOM     75  C   UNL     1       9.076   8.609  11.104  1.00  0.00     0.134 A 
ATOM     76  C   UNL     1      10.921   9.716  10.048  1.00  0.00     0.134 A 
ATOM     77  F   UNL     1       8.025   7.777  11.073  1.00  0.00    -0.206 F 
ATOM     78  C   UNL     1       9.355   9.274  12.299  1.00  0.00     0.040 A 
ATOM     79  C   UNL     1      11.225  10.366  11.244  1.00  0.00     0.040 A 
ATOM     80  F   UNL     1      11.701   9.957   8.984  1.00  0.00    -0.206 F 
ATOM     81  C   UNL     1      10.437  10.150  12.372  1.00  0.00     0.006 A 
ENDBRANCH  57  74
ENDBRANCH  31  32
ENDBRANCH  23  26
ENDBRANCH  21  22
ENDBRANCH  20  21
ENDBRANCH   1  20
TORSDOF 15
