REMARK SMILES O=C(NCCCCNC(=O)c1nnn(-c2cccc(Br)c2)c1[C@@H]1COc2ccccc2O1)c1ccc(-c2c3nc(c(-c4c(F)cccc4F)c4ccc([nH]4)c(-c4c(F)cccc4F)c4nc(c(-c5c(F)cccc5F)c5ccc2[nH]5)C=C4)C=C3)cc1
REMARK SMILES IDX 5 1 4 2 3 3 1 4 2 5 33 7 34 8 86 9 35 10 85 11 36 12 37 13
REMARK SMILES IDX 38 14 79 15 39 16 84 17 78 18 80 19 40 20 83 21 77 22 76 23
REMARK SMILES IDX 41 25 67 26 50 27 66 28 51 29 54 30 65 31 81 32 52 33 53 34
REMARK SMILES IDX 64 36 82 37 55 38 42 39 43 40 48 41 44 42 45 43 47 44 49 45
REMARK SMILES IDX 46 46 68 47 69 48 74 49 70 50 71 51 73 52 75 53 72 54 56 55
REMARK SMILES IDX 57 56 62 57 58 58 59 59 61 60 63 61 60 62 6 63 7 64 8 65
REMARK SMILES IDX 9 66 10 68 11 69 12 70 22 71 13 72 14 73 23 74 24 75 32 76
REMARK SMILES IDX 25 77 31 78 26 79 30 80 27 81 29 82 28 83 15 84 16 85 21 86
REMARK SMILES IDX 17 87 19 88 18 89 20 90
REMARK H PARENT 3 6 80 24 54 35 8 67
REMARK Flexibility Score: inf
ROOT
ATOM      1  C   UNL     1       5.795   0.851   0.653  1.00  0.00     0.023 C 
ENDROOT
BRANCH   1   2
ATOM      2  C   UNL     1       4.919  -0.401   0.710  1.00  0.00     0.116 C 
BRANCH   2   3
ATOM      3  N   UNL     1       3.507  -0.166   0.967  1.00  0.00    -0.352 N 
ATOM      4  O   UNL     1       1.311  -0.208   0.730  1.00  0.00    -0.269 OA
ATOM      5  C   UNL     1       2.387  -0.045   0.171  1.00  0.00     0.251 C 
ATOM      6  H   UNL     1       3.304  -0.073   1.926  1.00  0.00     0.163 HD
BRANCH   5   7
ATOM      7  C   UNL     1       2.389   0.304  -1.285  1.00  0.00     0.039 A 
ATOM      8  C   UNL     1       3.522   0.549  -2.057  1.00  0.00     0.014 A 
ATOM      9  C   UNL     1       1.125   0.452  -1.899  1.00  0.00     0.014 A 
ATOM     10  C   UNL     1       3.404   0.957  -3.387  1.00  0.00     0.010 A 
ATOM     11  C   UNL     1       1.001   0.857  -3.232  1.00  0.00     0.010 A 
ATOM     12  C   UNL     1       2.146   1.125  -3.976  1.00  0.00    -0.014 A 
BRANCH  12  13
ATOM     13  C   UNL     1       2.101   1.444  -5.408  1.00  0.00     0.031 A 
ATOM     14  C   UNL     1       2.644   0.394  -6.326  1.00  0.00     0.074 A 
ATOM     15  C   UNL     1       1.475   2.514  -5.939  1.00  0.00     0.049 A 
ATOM     16  N   UNL     1       3.560   0.501  -7.238  1.00  0.00    -0.248 NA
ATOM     17  C   UNL     1       2.110  -0.969  -6.174  1.00  0.00     0.031 C 
ATOM     18  C   UNL     1       0.602   3.475  -5.265  1.00  0.00     0.029 A 
ATOM     19  N   UNL     1       1.413   2.900  -7.249  1.00  0.00    -0.354 N 
ATOM     20  C   UNL     1       3.616  -0.738  -7.878  1.00  0.00     0.074 A 
ATOM     21  C   UNL     1       2.769  -1.628  -7.126  1.00  0.00     0.031 C 
ATOM     22  C   UNL     1      -0.059   4.201  -6.195  1.00  0.00     0.029 A 
ATOM     23  C   UNL     1       0.430   3.839  -7.517  1.00  0.00     0.049 A 
ATOM     24  H   UNL     1       2.015   2.542  -7.941  1.00  0.00     0.167 HD
ATOM     25  C   UNL     1       4.228  -0.927  -9.080  1.00  0.00     0.037 A 
ATOM     26  C   UNL     1      -0.004   4.240  -8.737  1.00  0.00     0.037 A 
ATOM     27  C   UNL     1       5.165   0.115  -9.389  1.00  0.00     0.049 A 
ATOM     28  C   UNL     1       1.018   3.870  -9.744  1.00  0.00     0.074 A 
ATOM     29  C   UNL     1       6.316   0.600  -8.799  1.00  0.00     0.029 A 
ATOM     30  N   UNL     1       4.828   1.041 -10.342  1.00  0.00    -0.354 N 
ATOM     31  N   UNL     1       2.181   4.443  -9.870  1.00  0.00    -0.248 NA
ATOM     32  C   UNL     1       0.877   2.589 -10.419  1.00  0.00     0.031 C 
ATOM     33  C   UNL     1       6.316   1.998  -9.076  1.00  0.00     0.029 A 
ATOM     34  C   UNL     1       5.172   2.265  -9.829  1.00  0.00     0.049 A 
ATOM     35  H   UNL     1       4.421   0.863 -11.220  1.00  0.00     0.167 HD
ATOM     36  C   UNL     1       3.033   3.427 -10.276  1.00  0.00     0.074 A 
ATOM     37  C   UNL     1       2.156   2.347 -10.712  1.00  0.00     0.031 C 
ATOM     38  C   UNL     1       4.361   3.451  -9.965  1.00  0.00     0.037 A 
BRANCH  25  39
ATOM     39  C   UNL     1       3.771  -1.927 -10.110  1.00  0.00     0.057 A 
ATOM     40  C   UNL     1       4.600  -2.253 -11.198  1.00  0.00     0.134 A 
ATOM     41  C   UNL     1       2.437  -2.371 -10.216  1.00  0.00     0.134 A 
ATOM     42  F   UNL     1       5.881  -1.855 -11.231  1.00  0.00    -0.206 F 
ATOM     43  C   UNL     1       4.125  -2.936 -12.325  1.00  0.00     0.040 A 
ATOM     44  C   UNL     1       1.965  -3.096 -11.314  1.00  0.00     0.040 A 
ATOM     45  F   UNL     1       1.507  -2.042  -9.310  1.00  0.00    -0.206 F 
ATOM     46  C   UNL     1       2.803  -3.359 -12.386  1.00  0.00     0.006 A 
ENDBRANCH  25  39
BRANCH  26  47
ATOM     47  C   UNL     1      -1.355   4.698  -9.130  1.00  0.00     0.057 A 
ATOM     48  C   UNL     1      -1.568   5.418 -10.314  1.00  0.00     0.134 A 
ATOM     49  C   UNL     1      -2.507   4.216  -8.485  1.00  0.00     0.134 A 
ATOM     50  F   UNL     1      -0.531   5.877 -11.029  1.00  0.00    -0.206 F 
ATOM     51  C   UNL     1      -2.852   5.636 -10.832  1.00  0.00     0.040 A 
ATOM     52  C   UNL     1      -3.794   4.436  -8.983  1.00  0.00     0.040 A 
ATOM     53  F   UNL     1      -2.418   3.440  -7.395  1.00  0.00    -0.206 F 
ATOM     54  C   UNL     1      -3.970   5.138 -10.169  1.00  0.00     0.006 A 
ENDBRANCH  26  47
BRANCH  38  55
ATOM     55  C   UNL     1       4.937   4.731  -9.432  1.00  0.00     0.057 A 
ATOM     56  C   UNL     1       4.530   5.324  -8.227  1.00  0.00     0.134 A 
ATOM     57  C   UNL     1       6.037   5.304 -10.081  1.00  0.00     0.134 A 
ATOM     58  F   UNL     1       3.559   4.782  -7.481  1.00  0.00    -0.206 F 
ATOM     59  C   UNL     1       5.156   6.467  -7.722  1.00  0.00     0.040 A 
ATOM     60  C   UNL     1       6.694   6.425  -9.567  1.00  0.00     0.040 A 
ATOM     61  F   UNL     1       6.523   4.752 -11.204  1.00  0.00    -0.206 F 
ATOM     62  C   UNL     1       6.245   7.018  -8.390  1.00  0.00     0.006 A 
ENDBRANCH  38  55
ENDBRANCH  12  13
ENDBRANCH   5   7
ENDBRANCH   2   3
ENDBRANCH   1   2
BRANCH   1  63
ATOM     63  C   UNL     1       6.072   1.545   1.989  1.00  0.00     0.023 C 
BRANCH  63  64
ATOM     64  C   UNL     1       6.690   0.763   3.196  1.00  0.00     0.116 C 
BRANCH  64  65
ATOM     65  N   UNL     1       7.542   1.541   4.177  1.00  0.00    -0.351 N 
ATOM     66  C   UNL     1       7.641   2.237   5.386  1.00  0.00     0.273 C 
ATOM     67  H   UNL     1       8.443   1.569   3.780  1.00  0.00     0.163 HD
ATOM     68  O   UNL     1       8.856   2.432   5.592  1.00  0.00    -0.267 OA
BRANCH  66  69
ATOM     69  C   UNL     1       6.701   2.782   6.459  1.00  0.00     0.178 A 
ATOM     70  N   UNL     1       7.378   3.194   7.616  1.00  0.00    -0.124 NA
ATOM     71  C   UNL     1       5.335   3.082   6.710  1.00  0.00     0.122 A 
ATOM     72  N   UNL     1       6.530   3.627   8.528  1.00  0.00    -0.061 NA
ATOM     73  N   UNL     1       5.311   3.655   7.980  1.00  0.00    -0.213 N 
BRANCH  71  74
ATOM     74  C   UNL     1       4.011   2.856   5.994  1.00  0.00     0.262 C 
ATOM     75  C   UNL     1       4.236   2.015   4.793  1.00  0.00     0.281 C 
ATOM     76  O   UNL     1       3.377   4.098   5.541  1.00  0.00    -0.477 OA
ATOM     77  O   UNL     1       5.276   2.705   4.103  1.00  0.00    -0.485 OA
ATOM     78  C   UNL     1       3.998   4.657   4.454  1.00  0.00     0.162 A 
ATOM     79  C   UNL     1       5.093   4.033   3.907  1.00  0.00     0.161 A 
ATOM     80  C   UNL     1       3.593   5.855   3.898  1.00  0.00     0.050 A 
ATOM     81  C   UNL     1       6.024   4.718   3.143  1.00  0.00     0.050 A 
ATOM     82  C   UNL     1       4.424   6.488   2.958  1.00  0.00     0.004 A 
ATOM     83  C   UNL     1       5.684   5.966   2.658  1.00  0.00     0.004 A 
ENDBRANCH  71  74
BRANCH  73  84
ATOM     84  C   UNL     1       4.154   3.782   8.787  1.00  0.00     0.068 A 
ATOM     85  C   UNL     1       3.960   2.812   9.777  1.00  0.00     0.028 A 
ATOM     86  C   UNL     1       3.104   4.612   8.379  1.00  0.00     0.044 A 
ATOM     87  C   UNL     1       2.674   2.588  10.265  1.00  0.00     0.003 A 
ATOM     88  C   UNL     1       1.825   4.375   8.873  1.00  0.00     0.020 A 
ATOM     89  C   UNL     1       1.601   3.349   9.792  1.00  0.00     0.016 A 
ATOM     90  Br  UNL     1       0.363   5.370   8.204  1.00  0.00    -0.051 Br
ENDBRANCH  73  84
ENDBRANCH  66  69
ENDBRANCH  64  65
ENDBRANCH  63  64
ENDBRANCH   1  63
TORSDOF 13
