REMARK SMILES Cc1nc(-c2cccc(N3C[C@H](C(=O)NCCCCNC(=O)c4ccc(-c5c6nc(c(-c7c(F)cccc7F)c7ccc([nH]7)c(-c7c(F)cccc7F)c7nc(c(-c8c(F)cccc8F)c8ccc5[nH]8)C=C7)C=C6)cc4)CC3=O)c2)no1
REMARK SMILES IDX 17 1 16 2 15 3 13 4 14 5 12 7 10 8 11 9 78 10 77 11 79 12
REMARK SMILES IDX 9 13 5 14 6 15 80 16 7 17 8 18 4 19 1 20 2 21 3 22 82 23
REMARK SMILES IDX 81 24 18 25 19 26 20 27 21 28 22 30 23 31 24 32 76 33 25 34
REMARK SMILES IDX 75 35 26 36 27 37 28 38 69 39 29 40 74 41 68 42 70 43 30 44
REMARK SMILES IDX 73 45 67 46 66 47 31 49 57 50 40 51 56 52 41 53 44 54 55 55
REMARK SMILES IDX 71 56 42 57 43 58 54 60 72 61 45 62 32 63 33 64 38 65 34 66
REMARK SMILES IDX 35 67 37 68 39 69 36 70 58 71 59 72 64 73 60 74 61 75 63 76
REMARK SMILES IDX 65 77 62 78 46 79 47 80 52 81 48 82 49 83 51 84 53 85 50 86
REMARK H PARENT 15 6 20 29 70 48 44 59
REMARK Flexibility Score: inf
ROOT
ATOM      1  C   UNL     1       5.994   9.491   4.406  1.00  0.00     0.023 C 
ENDROOT
BRANCH   1   2
ATOM      2  C   UNL     1       5.814   8.551   3.215  1.00  0.00     0.116 C 
BRANCH   2   3
ATOM      3  N   UNL     1       6.485   7.284   3.445  1.00  0.00    -0.356 N 
ATOM      4  C   UNL     1       5.961   6.068   3.776  1.00  0.00     0.225 C 
ATOM      5  O   UNL     1       6.734   5.159   4.067  1.00  0.00    -0.275 OA
ATOM      6  H   UNL     1       7.464   7.305   3.349  1.00  0.00     0.163 HD
BRANCH   4   7
ATOM      7  C   UNL     1       4.464   5.865   3.671  1.00  0.00     0.107 C 
ATOM      8  N   UNL     1       3.918   4.004   2.347  1.00  0.00    -0.312 N 
ATOM      9  C   UNL     1       4.149   5.421   2.252  1.00  0.00     0.139 C 
ATOM     10  C   UNL     1       3.736   3.576   3.659  1.00  0.00     0.227 C 
ATOM     11  C   UNL     1       3.942   4.753   4.573  1.00  0.00     0.116 C 
ATOM     12  O   UNL     1       3.439   2.458   4.055  1.00  0.00    -0.274 OA
BRANCH   8  13
ATOM     13  C   UNL     1       3.748   3.184   1.214  1.00  0.00     0.044 A 
ATOM     14  C   UNL     1       2.507   1.453   0.042  1.00  0.00     0.025 A 
ATOM     15  C   UNL     1       3.449   1.484  -0.992  1.00  0.00     0.012 A 
ATOM     16  C   UNL     1       2.678   2.287   1.153  1.00  0.00     0.038 A 
ATOM     17  C   UNL     1       4.518   2.379  -0.939  1.00  0.00     0.003 A 
ATOM     18  C   UNL     1       4.653   3.245   0.149  1.00  0.00     0.026 A 
BRANCH  14  19
ATOM     19  C   UNL     1       1.331   0.606  -0.044  1.00  0.00     0.202 A 
ATOM     20  C   UNL     1      -2.155  -0.074   0.065  1.00  0.00     0.114 C 
ATOM     21  C   UNL     1      -0.689   0.052  -0.002  1.00  0.00     0.223 A 
ATOM     22  N   UNL     1       0.075   1.085   0.263  1.00  0.00    -0.191 NA
ATOM     23  O   UNL     1       0.005  -1.042  -0.426  1.00  0.00    -0.339 OA
ATOM     24  N   UNL     1       1.347  -0.665  -0.473  1.00  0.00    -0.057 NA
ENDBRANCH  14  19
ENDBRANCH   8  13
ENDBRANCH   4   7
ENDBRANCH   2   3
ENDBRANCH   1   2
BRANCH   1  25
ATOM     25  C   UNL     1       7.442   9.930   4.653  1.00  0.00     0.023 C 
BRANCH  25  26
ATOM     26  C   UNL     1       8.135  10.590   3.464  1.00  0.00     0.116 C 
BRANCH  26  27
ATOM     27  N   UNL     1       7.452  11.788   3.006  1.00  0.00    -0.352 N 
ATOM     28  C   UNL     1       7.968  13.020   2.686  1.00  0.00     0.251 C 
ATOM     29  H   UNL     1       6.475  11.704   2.911  1.00  0.00     0.163 HD
ATOM     30  O   UNL     1       7.208  13.956   2.454  1.00  0.00    -0.269 OA
BRANCH  28  31
ATOM     31  C   UNL     1       9.432  13.233   2.655  1.00  0.00     0.039 A 
ATOM     32  C   UNL     1       9.950  14.392   3.239  1.00  0.00     0.014 A 
ATOM     33  C   UNL     1      10.292  12.307   2.058  1.00  0.00     0.014 A 
ATOM     34  C   UNL     1      11.331  14.587   3.286  1.00  0.00     0.010 A 
ATOM     35  C   UNL     1      11.673  12.468   2.170  1.00  0.00     0.010 A 
ATOM     36  C   UNL     1      12.207  13.607   2.790  1.00  0.00    -0.014 A 
BRANCH  36  37
ATOM     37  C   UNL     1      13.678  13.753   2.948  1.00  0.00     0.031 A 
ATOM     38  C   UNL     1      14.574  13.870   1.745  1.00  0.00     0.074 A 
ATOM     39  C   UNL     1      14.214  13.737   4.185  1.00  0.00     0.049 A 
ATOM     40  N   UNL     1      15.878  13.979   1.694  1.00  0.00    -0.248 NA
ATOM     41  C   UNL     1      13.924  13.840   0.425  1.00  0.00     0.031 C 
ATOM     42  C   UNL     1      13.461  13.577   5.431  1.00  0.00     0.029 A 
ATOM     43  N   UNL     1      15.518  13.853   4.600  1.00  0.00    -0.354 N 
ATOM     44  C   UNL     1      16.203  14.031   0.345  1.00  0.00     0.074 A 
ATOM     45  C   UNL     1      14.967  13.883  -0.392  1.00  0.00     0.031 C 
ATOM     46  C   UNL     1      14.310  13.632   6.470  1.00  0.00     0.029 A 
ATOM     47  C   UNL     1      15.670  13.791   5.965  1.00  0.00     0.049 A 
ATOM     48  H   UNL     1      16.272  13.970   3.979  1.00  0.00     0.167 HD
ATOM     49  C   UNL     1      17.417  14.212  -0.228  1.00  0.00     0.037 A 
ATOM     50  C   UNL     1      16.780  13.847   6.725  1.00  0.00     0.037 A 
ATOM     51  C   UNL     1      18.647  14.370   0.506  1.00  0.00     0.049 A 
ATOM     52  C   UNL     1      18.116  14.027   6.060  1.00  0.00     0.074 A 
ATOM     53  C   UNL     1      19.920  14.603   0.014  1.00  0.00     0.029 A 
ATOM     54  N   UNL     1      18.759  14.307   1.886  1.00  0.00    -0.354 N 
ATOM     55  N   UNL     1      18.397  14.147   4.785  1.00  0.00    -0.248 NA
ATOM     56  C   UNL     1      19.291  14.088   6.941  1.00  0.00     0.031 C 
ATOM     57  C   UNL     1      20.809  14.632   1.093  1.00  0.00     0.029 A 
ATOM     58  C   UNL     1      20.083  14.473   2.261  1.00  0.00     0.049 A 
ATOM     59  H   UNL     1      18.009  14.165   2.508  1.00  0.00     0.167 HD
ATOM     60  C   UNL     1      19.773  14.326   4.714  1.00  0.00     0.074 A 
ATOM     61  C   UNL     1      20.265  14.323   6.076  1.00  0.00     0.031 C 
ATOM     62  C   UNL     1      20.560  14.473   3.620  1.00  0.00     0.037 A 
BRANCH  49  63
ATOM     63  C   UNL     1      17.480  14.262  -1.728  1.00  0.00     0.057 A 
ATOM     64  C   UNL     1      16.965  15.347  -2.451  1.00  0.00     0.134 A 
ATOM     65  C   UNL     1      18.117  13.248  -2.455  1.00  0.00     0.134 A 
ATOM     66  F   UNL     1      16.333  16.347  -1.818  1.00  0.00    -0.206 F 
ATOM     67  C   UNL     1      17.065  15.412  -3.842  1.00  0.00     0.040 A 
ATOM     68  C   UNL     1      18.248  13.316  -3.843  1.00  0.00     0.040 A 
ATOM     69  F   UNL     1      18.639  12.184  -1.826  1.00  0.00    -0.206 F 
ATOM     70  C   UNL     1      17.717  14.399  -4.541  1.00  0.00     0.006 A 
ENDBRANCH  49  63
BRANCH  50  71
ATOM     71  C   UNL     1      16.683  13.737   8.204  1.00  0.00     0.057 A 
ATOM     72  C   UNL     1      16.999  14.820   9.034  1.00  0.00     0.134 A 
ATOM     73  C   UNL     1      16.311  12.539   8.825  1.00  0.00     0.134 A 
ATOM     74  F   UNL     1      17.381  15.990   8.502  1.00  0.00    -0.206 F 
ATOM     75  C   UNL     1      16.980  14.706  10.425  1.00  0.00     0.040 A 
ATOM     76  C   UNL     1      16.257  12.419  10.214  1.00  0.00     0.040 A 
ATOM     77  F   UNL     1      15.987  11.466   8.088  1.00  0.00    -0.206 F 
ATOM     78  C   UNL     1      16.605  13.502  11.019  1.00  0.00     0.006 A 
ENDBRANCH  50  71
BRANCH  62  79
ATOM     79  C   UNL     1      22.029  14.679   3.857  1.00  0.00     0.057 A 
ATOM     80  C   UNL     1      22.854  13.654   4.338  1.00  0.00     0.134 A 
ATOM     81  C   UNL     1      22.629  15.915   3.585  1.00  0.00     0.134 A 
ATOM     82  F   UNL     1      22.341  12.449   4.631  1.00  0.00    -0.206 F 
ATOM     83  C   UNL     1      24.214  13.861   4.574  1.00  0.00     0.040 A 
ATOM     84  C   UNL     1      23.994  16.126   3.786  1.00  0.00     0.040 A 
ATOM     85  F   UNL     1      21.900  16.938   3.111  1.00  0.00    -0.206 F 
ATOM     86  C   UNL     1      24.789  15.099   4.292  1.00  0.00     0.006 A 
ENDBRANCH  62  79
ENDBRANCH  36  37
ENDBRANCH  28  31
ENDBRANCH  26  27
ENDBRANCH  25  26
ENDBRANCH   1  25
TORSDOF 13
