REMARK SMILES C[C@@H](C(=O)NCCCCNC(=O)c1ccc(-c2c3nc(c(-c4c(F)cccc4F)c4ccc([nH]4)c(-c4c(F)cccc4F)c4nc(c(-c5c(F)cccc5F)c5ccc2[nH]5)C=C4)C=C3)cc1)c1cccn(C(F)F)c1=O
REMARK SMILES IDX 7 1 6 2 5 3 3 4 4 5 2 7 1 8 67 9 68 10 75 11 69 12 71 13
REMARK SMILES IDX 76 14 70 15 72 16 73 17 74 18 8 19 9 20 10 21 11 22 12 24
REMARK SMILES IDX 13 25 14 26 66 27 15 28 65 29 16 30 17 31 18 32 59 33 19 34
REMARK SMILES IDX 64 35 58 36 60 37 20 38 63 39 57 40 56 41 21 43 47 44 30 45
REMARK SMILES IDX 46 46 31 47 34 48 45 49 61 50 32 51 33 52 44 54 62 55 35 56
REMARK SMILES IDX 22 57 23 58 28 59 24 60 25 61 27 62 29 63 26 64 48 65 49 66
REMARK SMILES IDX 54 67 50 68 51 69 53 70 55 71 52 72 36 73 37 74 42 75 38 76
REMARK SMILES IDX 39 77 41 78 43 79 40 80
REMARK H PARENT 5 6 10 23 60 42 34 53
REMARK Flexibility Score: inf
ROOT
ATOM      1  C   UNL     1       4.114   1.146   0.450  1.00  0.00     0.023 C 
ENDROOT
BRANCH   1   2
ATOM      2  C   UNL     1       3.363   0.460   1.590  1.00  0.00     0.116 C 
BRANCH   2   3
ATOM      3  N   UNL     1       2.323   1.297   2.150  1.00  0.00    -0.356 N 
ATOM      4  C   UNL     1       0.965   1.160   2.100  1.00  0.00     0.227 C 
ATOM      5  O   UNL     1       0.320   1.852   2.892  1.00  0.00    -0.274 OA
ATOM      6  H   UNL     1       2.644   2.087   2.642  1.00  0.00     0.163 HD
BRANCH   4   7
ATOM      7  C   UNL     1       0.321   0.099   1.180  1.00  0.00     0.111 C 
ATOM      8  C   UNL     1       0.669   0.230  -0.303  1.00  0.00     0.023 C 
BRANCH   7   9
ATOM      9  C   UNL     1      -1.186   0.075   1.334  1.00  0.00     0.030 A 
ATOM     10  C   UNL     1      -1.870  -1.036   1.663  1.00  0.00     0.012 A 
ATOM     11  C   UNL     1      -1.956   1.351   1.098  1.00  0.00     0.258 A 
ATOM     12  C   UNL     1      -3.301  -1.019   1.815  1.00  0.00     0.019 A 
ATOM     13  N   UNL     1      -3.306   1.307   1.401  1.00  0.00    -0.258 N 
ATOM     14  O   UNL     1      -1.399   2.346   0.639  1.00  0.00    -0.269 OA
ATOM     15  C   UNL     1      -3.967   0.135   1.710  1.00  0.00     0.095 A 
BRANCH  13  16
ATOM     16  C   UNL     1      -4.043   2.539   1.298  1.00  0.00     0.451 C 
ATOM     17  F   UNL     1      -4.819   2.510   0.181  1.00  0.00    -0.185 F 
ATOM     18  F   UNL     1      -4.902   2.654   2.348  1.00  0.00    -0.185 F 
ENDBRANCH  13  16
ENDBRANCH   7   9
ENDBRANCH   4   7
ENDBRANCH   2   3
ENDBRANCH   1   2
BRANCH   1  19
ATOM     19  C   UNL     1       4.890   2.402   0.848  1.00  0.00     0.023 C 
BRANCH  19  20
ATOM     20  C   UNL     1       5.875   2.224   1.994  1.00  0.00     0.116 C 
BRANCH  20  21
ATOM     21  N   UNL     1       6.877   1.204   1.731  1.00  0.00    -0.352 N 
ATOM     22  C   UNL     1       8.230   1.237   1.966  1.00  0.00     0.251 C 
ATOM     23  H   UNL     1       6.538   0.373   1.326  1.00  0.00     0.163 HD
ATOM     24  O   UNL     1       8.945   0.331   1.554  1.00  0.00    -0.269 OA
BRANCH  22  25
ATOM     25  C   UNL     1       8.826   2.377   2.696  1.00  0.00     0.039 A 
ATOM     26  C   UNL     1      10.032   2.914   2.237  1.00  0.00     0.014 A 
ATOM     27  C   UNL     1       8.213   2.907   3.834  1.00  0.00     0.014 A 
ATOM     28  C   UNL     1      10.602   4.002   2.899  1.00  0.00     0.010 A 
ATOM     29  C   UNL     1       8.734   4.047   4.437  1.00  0.00     0.010 A 
ATOM     30  C   UNL     1       9.949   4.590   3.994  1.00  0.00    -0.014 A 
BRANCH  30  31
ATOM     31  C   UNL     1      10.552   5.735   4.722  1.00  0.00     0.031 A 
ATOM     32  C   UNL     1      10.956   5.578   6.164  1.00  0.00     0.074 A 
ATOM     33  C   UNL     1      10.703   6.922   4.104  1.00  0.00     0.049 A 
ATOM     34  N   UNL     1      11.484   6.458   6.978  1.00  0.00    -0.248 NA
ATOM     35  C   UNL     1      10.706   4.267   6.785  1.00  0.00     0.031 C 
ATOM     36  C   UNL     1      10.308   7.216   2.726  1.00  0.00     0.029 A 
ATOM     37  N   UNL     1      11.231   8.104   4.559  1.00  0.00    -0.354 N 
ATOM     38  C   UNL     1      11.608   5.813   8.203  1.00  0.00     0.074 A 
ATOM     39  C   UNL     1      11.043   4.492   8.044  1.00  0.00     0.031 C 
ATOM     40  C   UNL     1      10.645   8.483   2.434  1.00  0.00     0.029 A 
ATOM     41  C   UNL     1      11.245   9.100   3.613  1.00  0.00     0.049 A 
ATOM     42  H   UNL     1      11.568   8.226   5.475  1.00  0.00     0.167 HD
ATOM     43  C   UNL     1      12.167   6.269   9.349  1.00  0.00     0.037 A 
ATOM     44  C   UNL     1      11.699  10.366   3.688  1.00  0.00     0.037 A 
ATOM     45  C   UNL     1      12.755   7.574   9.495  1.00  0.00     0.049 A 
ATOM     46  C   UNL     1      12.318  10.848   4.972  1.00  0.00     0.074 A 
ATOM     47  C   UNL     1      13.404   8.111  10.592  1.00  0.00     0.029 A 
ATOM     48  N   UNL     1      12.760   8.550   8.509  1.00  0.00    -0.354 N 
ATOM     49  N   UNL     1      12.499  10.203   6.099  1.00  0.00    -0.248 NA
ATOM     50  C   UNL     1      12.809  12.233   4.987  1.00  0.00     0.031 C 
ATOM     51  C   UNL     1      13.755   9.431  10.290  1.00  0.00     0.029 A 
ATOM     52  C   UNL     1      13.382   9.695   8.982  1.00  0.00     0.049 A 
ATOM     53  H   UNL     1      12.378   8.446   7.608  1.00  0.00     0.167 HD
ATOM     54  C   UNL     1      13.165  11.087   6.941  1.00  0.00     0.074 A 
ATOM     55  C   UNL     1      13.359  12.310   6.189  1.00  0.00     0.031 C 
ATOM     56  C   UNL     1      13.584  10.900   8.217  1.00  0.00     0.037 A 
BRANCH  43  57
ATOM     57  C   UNL     1      12.159   5.346  10.536  1.00  0.00     0.057 A 
ATOM     58  C   UNL     1      12.921   4.170  10.570  1.00  0.00     0.134 A 
ATOM     59  C   UNL     1      11.388   5.645  11.666  1.00  0.00     0.134 A 
ATOM     60  F   UNL     1      13.673   3.815   9.516  1.00  0.00    -0.206 F 
ATOM     61  C   UNL     1      12.887   3.307  11.667  1.00  0.00     0.040 A 
ATOM     62  C   UNL     1      11.371   4.807  12.783  1.00  0.00     0.040 A 
ATOM     63  F   UNL     1      10.639   6.757  11.707  1.00  0.00    -0.206 F 
ATOM     64  C   UNL     1      12.114   3.628  12.780  1.00  0.00     0.006 A 
ENDBRANCH  43  57
BRANCH  44  65
ATOM     65  C   UNL     1      11.633  11.254   2.500  1.00  0.00     0.057 A 
ATOM     66  C   UNL     1      12.799  11.645   1.829  1.00  0.00     0.134 A 
ATOM     67  C   UNL     1      10.415  11.743   2.014  1.00  0.00     0.134 A 
ATOM     68  F   UNL     1      13.997  11.223   2.257  1.00  0.00    -0.206 F 
ATOM     69  C   UNL     1      12.759  12.511   0.735  1.00  0.00     0.040 A 
ATOM     70  C   UNL     1      10.358  12.588   0.903  1.00  0.00     0.040 A 
ATOM     71  F   UNL     1       9.262  11.399   2.605  1.00  0.00    -0.206 F 
ATOM     72  C   UNL     1      11.534  12.981   0.266  1.00  0.00     0.006 A 
ENDBRANCH  44  65
BRANCH  56  73
ATOM     73  C   UNL     1      14.353  12.019   8.859  1.00  0.00     0.057 A 
ATOM     74  C   UNL     1      13.751  13.230   9.222  1.00  0.00     0.134 A 
ATOM     75  C   UNL     1      15.718  11.867   9.140  1.00  0.00     0.134 A 
ATOM     76  F   UNL     1      12.451  13.446   8.973  1.00  0.00    -0.206 F 
ATOM     77  C   UNL     1      14.486  14.263   9.808  1.00  0.00     0.040 A 
ATOM     78  C   UNL     1      16.455  12.879   9.755  1.00  0.00     0.040 A 
ATOM     79  F   UNL     1      16.355  10.728   8.830  1.00  0.00    -0.206 F 
ATOM     80  C   UNL     1      15.841  14.086  10.081  1.00  0.00     0.006 A 
ENDBRANCH  56  73
ENDBRANCH  30  31
ENDBRANCH  22  25
ENDBRANCH  20  21
ENDBRANCH  19  20
ENDBRANCH   1  19
TORSDOF 13
