REMARK SMILES O=C(NCCCCNC(=O)C1(Cc2ccncc2)Cc2ccccc2C1)c1ccc(-c2c3nc(c(-c4c(F)cccc4F)c4ccc([nH]4)c(-c4c(F)cccc4F)c4nc(c(-c5c(F)cccc5F)c5ccc2[nH]5)C=C4)C=C3)cc1
REMARK SMILES IDX 5 1 4 2 3 3 1 4 2 5 27 7 28 8 80 9 29 10 79 11 30 12 31 13
REMARK SMILES IDX 32 14 73 15 33 16 78 17 72 18 74 19 34 20 77 21 71 22 70 23
REMARK SMILES IDX 35 25 61 26 44 27 60 28 45 29 48 30 59 31 75 32 46 33 47 34
REMARK SMILES IDX 58 36 76 37 49 38 36 39 37 40 42 41 38 42 39 43 41 44 43 45
REMARK SMILES IDX 40 46 62 47 63 48 68 49 64 50 65 51 67 52 69 53 66 54 50 55
REMARK SMILES IDX 51 56 56 57 52 58 53 59 55 60 57 61 54 62 6 63 7 64 8 65
REMARK SMILES IDX 9 66 10 68 11 69 19 70 26 71 20 72 25 73 21 74 24 75 22 76
REMARK SMILES IDX 23 77 12 78 13 79 14 80 18 81 15 82 17 83 16 84
REMARK H PARENT 3 6 74 24 48 35 8 67
REMARK Flexibility Score: inf
ROOT
ATOM      1  C   UNL     1       4.463   0.976   2.225  1.00  0.00     0.023 C 
ENDROOT
BRANCH   1   2
ATOM      2  C   UNL     1       4.213   0.029   1.067  1.00  0.00     0.116 C 
BRANCH   2   3
ATOM      3  N   UNL     1       2.792  -0.203   0.847  1.00  0.00    -0.352 N 
ATOM      4  O   UNL     1       0.888  -0.371  -0.347  1.00  0.00    -0.269 OA
ATOM      5  C   UNL     1       2.107  -0.318  -0.339  1.00  0.00     0.251 C 
ATOM      6  H   UNL     1       2.246  -0.290   1.661  1.00  0.00     0.163 HD
BRANCH   5   7
ATOM      7  C   UNL     1       2.865  -0.352  -1.607  1.00  0.00     0.039 A 
ATOM      8  C   UNL     1       4.030  -1.114  -1.714  1.00  0.00     0.014 A 
ATOM      9  C   UNL     1       2.394   0.382  -2.699  1.00  0.00     0.014 A 
ATOM     10  C   UNL     1       4.792  -1.046  -2.869  1.00  0.00     0.010 A 
ATOM     11  C   UNL     1       3.112   0.373  -3.896  1.00  0.00     0.010 A 
ATOM     12  C   UNL     1       4.322  -0.332  -3.982  1.00  0.00    -0.014 A 
BRANCH  12  13
ATOM     13  C   UNL     1       5.064  -0.438  -5.257  1.00  0.00     0.031 A 
ATOM     14  C   UNL     1       5.746   0.751  -5.863  1.00  0.00     0.074 A 
ATOM     15  C   UNL     1       5.139  -1.650  -5.839  1.00  0.00     0.049 A 
ATOM     16  N   UNL     1       6.439   0.821  -6.970  1.00  0.00    -0.248 NA
ATOM     17  C   UNL     1       5.631   2.028  -5.142  1.00  0.00     0.031 C 
ATOM     18  C   UNL     1       4.505  -2.869  -5.326  1.00  0.00     0.029 A 
ATOM     19  N   UNL     1       5.797  -2.069  -6.964  1.00  0.00    -0.354 N 
ATOM     20  C   UNL     1       6.827   2.148  -7.092  1.00  0.00     0.074 A 
ATOM     21  C   UNL     1       6.278   2.854  -5.953  1.00  0.00     0.031 C 
ATOM     22  C   UNL     1       4.856  -3.906  -6.096  1.00  0.00     0.029 A 
ATOM     23  C   UNL     1       5.674  -3.417  -7.197  1.00  0.00     0.049 A 
ATOM     24  H   UNL     1       6.308  -1.464  -7.548  1.00  0.00     0.167 HD
ATOM     25  C   UNL     1       7.574   2.717  -8.068  1.00  0.00     0.037 A 
ATOM     26  C   UNL     1       6.153  -4.174  -8.199  1.00  0.00     0.037 A 
ATOM     27  C   UNL     1       8.120   1.995  -9.189  1.00  0.00     0.049 A 
ATOM     28  C   UNL     1       6.959  -3.511  -9.274  1.00  0.00     0.074 A 
ATOM     29  C   UNL     1       8.898   2.473 -10.229  1.00  0.00     0.029 A 
ATOM     30  N   UNL     1       7.942   0.637  -9.415  1.00  0.00    -0.354 N 
ATOM     31  N   UNL     1       7.318  -2.255  -9.377  1.00  0.00    -0.248 NA
ATOM     32  C   UNL     1       7.413  -4.365 -10.378  1.00  0.00     0.031 C 
ATOM     33  C   UNL     1       9.162   1.411 -11.101  1.00  0.00     0.029 A 
ATOM     34  C   UNL     1       8.583   0.263 -10.585  1.00  0.00     0.049 A 
ATOM     35  H   UNL     1       7.435   0.029  -8.829  1.00  0.00     0.167 HD
ATOM     36  C   UNL     1       8.045  -2.164 -10.553  1.00  0.00     0.074 A 
ATOM     37  C   UNL     1       8.097  -3.501 -11.115  1.00  0.00     0.031 C 
ATOM     38  C   UNL     1       8.613  -1.074 -11.123  1.00  0.00     0.037 A 
BRANCH  25  39
ATOM     39  C   UNL     1       7.825   4.194  -7.979  1.00  0.00     0.057 A 
ATOM     40  C   UNL     1       8.709   4.741  -7.040  1.00  0.00     0.134 A 
ATOM     41  C   UNL     1       7.202   5.078  -8.870  1.00  0.00     0.134 A 
ATOM     42  F   UNL     1       9.327   3.951  -6.149  1.00  0.00    -0.206 F 
ATOM     43  C   UNL     1       8.951   6.115  -6.979  1.00  0.00     0.040 A 
ATOM     44  C   UNL     1       7.453   6.451  -8.833  1.00  0.00     0.040 A 
ATOM     45  F   UNL     1       6.347   4.621  -9.797  1.00  0.00    -0.206 F 
ATOM     46  C   UNL     1       8.327   6.974  -7.882  1.00  0.00     0.006 A 
ENDBRANCH  25  39
BRANCH  26  47
ATOM     47  C   UNL     1       5.869  -5.628  -8.223  1.00  0.00     0.057 A 
ATOM     48  C   UNL     1       6.880  -6.566  -7.992  1.00  0.00     0.134 A 
ATOM     49  C   UNL     1       4.573  -6.114  -8.440  1.00  0.00     0.134 A 
ATOM     50  F   UNL     1       8.143  -6.162  -7.791  1.00  0.00    -0.206 F 
ATOM     51  C   UNL     1       6.615  -7.937  -7.981  1.00  0.00     0.040 A 
ATOM     52  C   UNL     1       4.288  -7.479  -8.405  1.00  0.00     0.040 A 
ATOM     53  F   UNL     1       3.558  -5.264  -8.655  1.00  0.00    -0.206 F 
ATOM     54  C   UNL     1       5.313  -8.396  -8.179  1.00  0.00     0.006 A 
ENDBRANCH  26  47
BRANCH  38  55
ATOM     55  C   UNL     1       9.350  -1.296 -12.408  1.00  0.00     0.057 A 
ATOM     56  C   UNL     1       8.672  -1.519 -13.613  1.00  0.00     0.134 A 
ATOM     57  C   UNL     1      10.749  -1.271 -12.441  1.00  0.00     0.134 A 
ATOM     58  F   UNL     1       7.332  -1.572 -13.640  1.00  0.00    -0.206 F 
ATOM     59  C   UNL     1       9.363  -1.732 -14.806  1.00  0.00     0.040 A 
ATOM     60  C   UNL     1      11.450  -1.459 -13.632  1.00  0.00     0.040 A 
ATOM     61  F   UNL     1      11.454  -1.058 -11.320  1.00  0.00    -0.206 F 
ATOM     62  C   UNL     1      10.757  -1.696 -14.818  1.00  0.00     0.006 A 
ENDBRANCH  38  55
ENDBRANCH  12  13
ENDBRANCH   5   7
ENDBRANCH   2   3
ENDBRANCH   1   2
BRANCH   1  63
ATOM     63  C   UNL     1       4.043   0.393   3.574  1.00  0.00     0.023 C 
BRANCH  63  64
ATOM     64  C   UNL     1       5.042  -0.571   4.219  1.00  0.00     0.116 C 
BRANCH  64  65
ATOM     65  N   UNL     1       6.373  -0.013   4.373  1.00  0.00    -0.356 N 
ATOM     66  C   UNL     1       6.992   0.689   5.356  1.00  0.00     0.227 C 
ATOM     67  H   UNL     1       6.953  -0.181   3.595  1.00  0.00     0.163 HD
ATOM     68  O   UNL     1       8.146   1.046   5.095  1.00  0.00    -0.274 OA
BRANCH  66  69
ATOM     69  C   UNL     1       6.359   1.004   6.719  1.00  0.00     0.061 C 
ATOM     70  C   UNL     1       6.347  -0.311   7.565  1.00  0.00     0.053 C 
ATOM     71  C   UNL     1       7.283   1.946   7.561  1.00  0.00     0.053 C 
ATOM     72  C   UNL     1       6.444   0.218   8.966  1.00  0.00    -0.044 A 
ATOM     73  C   UNL     1       6.940   1.526   8.959  1.00  0.00    -0.044 A 
ATOM     74  C   UNL     1       6.082  -0.399  10.149  1.00  0.00     0.004 A 
ATOM     75  C   UNL     1       7.033   2.267  10.122  1.00  0.00     0.004 A 
ATOM     76  C   UNL     1       6.173   0.340  11.331  1.00  0.00     0.000 A 
ATOM     77  C   UNL     1       6.630   1.668  11.316  1.00  0.00     0.000 A 
BRANCH  69  78
ATOM     78  C   UNL     1       4.939   1.638   6.673  1.00  0.00     0.053 C 
BRANCH  78  79
ATOM     79  C   UNL     1       4.671   2.890   5.859  1.00  0.00    -0.044 A 
ATOM     80  C   UNL     1       5.587   3.499   4.998  1.00  0.00     0.024 A 
ATOM     81  C   UNL     1       3.371   3.418   5.899  1.00  0.00     0.024 A 
ATOM     82  C   UNL     1       5.162   4.553   4.201  1.00  0.00     0.111 A 
ATOM     83  C   UNL     1       3.042   4.476   5.066  1.00  0.00     0.111 A 
ATOM     84  N   UNL     1       3.908   5.049   4.208  1.00  0.00    -0.265 NA
ENDBRANCH  78  79
ENDBRANCH  69  78
ENDBRANCH  66  69
ENDBRANCH  64  65
ENDBRANCH  63  64
ENDBRANCH   1  63
TORSDOF 13
