REMARK SMILES COCC[N@H+](C)[C@H](C(=O)NCCCCNC(=O)c1ccc(-c2c3nc(c(-c4c(F)cccc4F)c4ccc([nH]4)c(-c4c(F)cccc4F)c4nc(c(-c5c(F)cccc5F)c5ccc2[nH]5)C=C4)C=C3)cc1)c1ccc(OC)nc1
REMARK SMILES IDX 11 1 10 2 8 3 9 4 7 6 5 7 6 8 4 10 3 11 2 12 1 13 72 14
REMARK SMILES IDX 73 15 79 16 74 17 78 18 75 19 76 20 77 21 12 22 13 23 14 24
REMARK SMILES IDX 15 25 16 26 17 28 18 29 19 30 71 31 20 32 70 33 21 34 22 35
REMARK SMILES IDX 23 36 64 37 24 38 69 39 63 40 65 41 25 42 68 43 62 44 61 45
REMARK SMILES IDX 26 47 52 48 35 49 51 50 36 51 39 52 50 53 66 54 37 55 38 56
REMARK SMILES IDX 49 58 67 59 40 60 27 61 28 62 33 63 29 64 30 65 32 66 34 67
REMARK SMILES IDX 31 68 53 69 54 70 59 71 55 72 56 73 58 74 60 75 57 76 41 77
REMARK SMILES IDX 42 78 47 79 43 80 44 81 46 82 48 83 45 84
REMARK H PARENT 10 5 5 9 15 27 65 46 39 57
REMARK Flexibility Score: inf
ROOT
ATOM      1  C   UNL     1      -1.783   0.062  -3.320  1.00  0.00     0.116 C 
ENDROOT
BRANCH   1   2
ATOM      2  N   UNL     1      -0.356  -0.204  -3.368  1.00  0.00    -0.351 N 
ATOM      3  C   UNL     1       0.564  -0.249  -2.349  1.00  0.00     0.283 C 
ATOM      4  O   UNL     1       1.681  -0.682  -2.663  1.00  0.00    -0.268 OA
ATOM      5  H   UNL     1       0.007  -0.378  -4.266  1.00  0.00     0.163 HD
BRANCH   3   6
ATOM      6  C   UNL     1       0.296   0.324  -0.910  1.00  0.00     0.306 C 
BRANCH   6   7
ATOM      7  N   UNL     1      -1.148   0.339  -0.547  1.00  0.00    -0.321 N 
ATOM      8  C   UNL     1      -1.685  -0.993  -0.237  1.00  0.00     0.333 C 
ATOM      9  H   UNL     1      -1.574   0.686  -1.406  1.00  0.00     0.348 HD
BRANCH   7  10
ATOM     10  C   UNL     1      -1.534   1.282   0.524  1.00  0.00     0.291 C 
BRANCH  10  11
ATOM     11  C   UNL     1      -1.106   2.762   0.417  1.00  0.00     0.221 C 
BRANCH  11  12
ATOM     12  O   UNL     1      -1.830   3.487  -0.574  1.00  0.00    -0.379 OA
ATOM     13  C   UNL     1      -1.106   3.675  -1.780  1.00  0.00     0.195 C 
ENDBRANCH  11  12
ENDBRANCH  10  11
ENDBRANCH   7  10
ENDBRANCH   6   7
BRANCH   6  14
ATOM     14  C   UNL     1       1.167  -0.293   0.183  1.00  0.00     0.038 A 
ATOM     15  C   UNL     1       1.655   0.483   1.240  1.00  0.00     0.017 A 
ATOM     16  C   UNL     1       1.382  -1.665   0.277  1.00  0.00     0.125 A 
ATOM     17  C   UNL     1       2.207  -0.129   2.364  1.00  0.00     0.069 A 
ATOM     18  N   UNL     1       1.906  -2.283   1.361  1.00  0.00    -0.222 NA
ATOM     19  C   UNL     1       2.270  -1.513   2.406  1.00  0.00     0.212 A 
BRANCH  19  20
ATOM     20  O   UNL     1       2.689  -2.232   3.490  1.00  0.00    -0.481 OA
ATOM     21  C   UNL     1       2.538  -1.592   4.750  1.00  0.00     0.280 C 
ENDBRANCH  19  20
ENDBRANCH   6  14
ENDBRANCH   3   6
ENDBRANCH   1   2
BRANCH   1  22
ATOM     22  C   UNL     1      -2.421   0.357  -4.673  1.00  0.00     0.023 C 
BRANCH  22  23
ATOM     23  C   UNL     1      -2.337  -0.762  -5.708  1.00  0.00     0.023 C 
BRANCH  23  24
ATOM     24  C   UNL     1      -2.651  -2.166  -5.203  1.00  0.00     0.116 C 
BRANCH  24  25
ATOM     25  N   UNL     1      -3.987  -2.301  -4.637  1.00  0.00    -0.352 N 
ATOM     26  C   UNL     1      -5.048  -3.075  -5.041  1.00  0.00     0.251 C 
ATOM     27  H   UNL     1      -4.156  -1.750  -3.838  1.00  0.00     0.163 HD
ATOM     28  O   UNL     1      -6.132  -2.983  -4.473  1.00  0.00    -0.269 OA
BRANCH  26  29
ATOM     29  C   UNL     1      -4.900  -3.985  -6.196  1.00  0.00     0.039 A 
ATOM     30  C   UNL     1      -5.861  -3.948  -7.209  1.00  0.00     0.014 A 
ATOM     31  C   UNL     1      -3.799  -4.836  -6.301  1.00  0.00     0.014 A 
ATOM     32  C   UNL     1      -5.661  -4.686  -8.377  1.00  0.00     0.010 A 
ATOM     33  C   UNL     1      -3.556  -5.499  -7.500  1.00  0.00     0.010 A 
ATOM     34  C   UNL     1      -4.478  -5.421  -8.555  1.00  0.00    -0.014 A 
BRANCH  34  35
ATOM     35  C   UNL     1      -4.172  -6.097  -9.842  1.00  0.00     0.031 A 
ATOM     36  C   UNL     1      -4.000  -7.590  -9.890  1.00  0.00     0.074 A 
ATOM     37  C   UNL     1      -3.962  -5.359 -10.950  1.00  0.00     0.049 A 
ATOM     38  N   UNL     1      -3.637  -8.348 -10.893  1.00  0.00    -0.248 NA
ATOM     39  C   UNL     1      -4.235  -8.323  -8.636  1.00  0.00     0.031 C 
ATOM     40  C   UNL     1      -4.040  -3.898 -11.025  1.00  0.00     0.029 A 
ATOM     41  N   UNL     1      -3.626  -5.737 -12.226  1.00  0.00    -0.354 N 
ATOM     42  C   UNL     1      -3.574  -9.639 -10.385  1.00  0.00     0.074 A 
ATOM     43  C   UNL     1      -3.890  -9.556  -8.976  1.00  0.00     0.031 C 
ATOM     44  C   UNL     1      -3.787  -3.507 -12.284  1.00  0.00     0.029 A 
ATOM     45  C   UNL     1      -3.491  -4.682 -13.097  1.00  0.00     0.049 A 
ATOM     46  H   UNL     1      -3.494  -6.675 -12.492  1.00  0.00     0.167 HD
ATOM     47  C   UNL     1      -3.301 -10.793 -11.038  1.00  0.00     0.037 A 
ATOM     48  C   UNL     1      -3.162  -4.665 -14.402  1.00  0.00     0.037 A 
ATOM     49  C   UNL     1      -3.027 -10.881 -12.448  1.00  0.00     0.049 A 
ATOM     50  C   UNL     1      -2.882  -5.961 -15.108  1.00  0.00     0.074 A 
ATOM     51  C   UNL     1      -2.815 -12.013 -13.216  1.00  0.00     0.029 A 
ATOM     52  N   UNL     1      -2.932  -9.793 -13.302  1.00  0.00    -0.354 N 
ATOM     53  N   UNL     1      -2.896  -7.182 -14.631  1.00  0.00    -0.248 NA
ATOM     54  C   UNL     1      -2.543  -5.878 -16.537  1.00  0.00     0.031 C 
ATOM     55  C   UNL     1      -2.557 -11.607 -14.530  1.00  0.00     0.029 A 
ATOM     56  C   UNL     1      -2.647 -10.225 -14.586  1.00  0.00     0.049 A 
ATOM     57  H   UNL     1      -3.049  -8.853 -13.035  1.00  0.00     0.167 HD
ATOM     58  C   UNL     1      -2.597  -8.012 -15.703  1.00  0.00     0.074 A 
ATOM     59  C   UNL     1      -2.417  -7.158 -16.858  1.00  0.00     0.031 C 
ATOM     60  C   UNL     1      -2.482  -9.362 -15.727  1.00  0.00     0.037 A 
BRANCH  47  61
ATOM     61  C   UNL     1      -3.294 -12.057 -10.230  1.00  0.00     0.057 A 
ATOM     62  C   UNL     1      -4.476 -12.617  -9.726  1.00  0.00     0.134 A 
ATOM     63  C   UNL     1      -2.097 -12.737  -9.975  1.00  0.00     0.134 A 
ATOM     64  F   UNL     1      -5.655 -12.008  -9.924  1.00  0.00    -0.206 F 
ATOM     65  C   UNL     1      -4.463 -13.792  -8.973  1.00  0.00     0.040 A 
ATOM     66  C   UNL     1      -2.075 -13.927  -9.246  1.00  0.00     0.040 A 
ATOM     67  F   UNL     1      -0.930 -12.259 -10.434  1.00  0.00    -0.206 F 
ATOM     68  C   UNL     1      -3.260 -14.454  -8.736  1.00  0.00     0.006 A 
ENDBRANCH  47  61
BRANCH  48  69
ATOM     69  C   UNL     1      -3.109  -3.377 -15.139  1.00  0.00     0.057 A 
ATOM     70  C   UNL     1      -4.086  -3.054 -16.088  1.00  0.00     0.134 A 
ATOM     71  C   UNL     1      -2.086  -2.448 -14.924  1.00  0.00     0.134 A 
ATOM     72  F   UNL     1      -5.081  -3.914 -16.352  1.00  0.00    -0.206 F 
ATOM     73  C   UNL     1      -4.037  -1.861 -16.811  1.00  0.00     0.040 A 
ATOM     74  C   UNL     1      -2.037  -1.241 -15.623  1.00  0.00     0.040 A 
ATOM     75  F   UNL     1      -1.124  -2.696 -14.022  1.00  0.00    -0.206 F 
ATOM     76  C   UNL     1      -3.011  -0.948 -16.576  1.00  0.00     0.006 A 
ENDBRANCH  48  69
BRANCH  60  77
ATOM     77  C   UNL     1      -2.183 -10.001 -17.051  1.00  0.00     0.057 A 
ATOM     78  C   UNL     1      -0.912  -9.931 -17.633  1.00  0.00     0.134 A 
ATOM     79  C   UNL     1      -3.170 -10.727 -17.729  1.00  0.00     0.134 A 
ATOM     80  F   UNL     1       0.072  -9.239 -17.038  1.00  0.00    -0.206 F 
ATOM     81  C   UNL     1      -0.636 -10.547 -18.855  1.00  0.00     0.040 A 
ATOM     82  C   UNL     1      -2.900 -11.367 -18.939  1.00  0.00     0.040 A 
ATOM     83  F   UNL     1      -4.406 -10.837 -17.221  1.00  0.00    -0.206 F 
ATOM     84  C   UNL     1      -1.631 -11.274 -19.508  1.00  0.00     0.006 A 
ENDBRANCH  60  77
ENDBRANCH  34  35
ENDBRANCH  26  29
ENDBRANCH  24  25
ENDBRANCH  23  24
ENDBRANCH  22  23
ENDBRANCH   1  22
TORSDOF 17
