REMARK SMILES COc1cc(C(=O)NCCCCNC(=O)c2ccc(-c3c4nc(c(-c5c(F)cccc5F)c5ccc([nH]5)c(-c5c(F)cccc5F)c5nc(c(-c6c(F)cccc6F)c6ccc3[nH]6)C=C5)C=C4)cc2)c([N+](=O)[O-])cc1O[C@H](C)[C@@H](C)O
REMARK SMILES IDX 9 1 8 2 6 3 7 4 5 6 3 7 4 8 75 9 74 10 70 11 2 12 1 13 76 14
REMARK SMILES IDX 77 15 78 16 79 17 80 18 81 19 71 21 72 22 73 23 10 24 11 25
REMARK SMILES IDX 12 26 13 27 14 28 15 30 16 31 17 32 69 33 18 34 68 35 19 36
REMARK SMILES IDX 20 37 21 38 62 39 22 40 67 41 61 42 63 43 23 44 66 45 60 46
REMARK SMILES IDX 59 47 24 49 50 50 33 51 49 52 34 53 37 54 48 55 64 56 35 57
REMARK SMILES IDX 36 58 47 60 65 61 38 62 25 63 26 64 31 65 27 66 28 67 30 68
REMARK SMILES IDX 32 69 29 70 51 71 52 72 57 73 53 74 54 75 56 76 58 77 55 78
REMARK SMILES IDX 39 79 40 80 45 81 41 82 42 83 44 84 46 85 43 86
REMARK H PARENT 8 5 81 20 13 29 63 48 37 59
REMARK Flexibility Score: inf
ROOT
ATOM      1  C   UNL     1      -1.058  -4.108   4.011  1.00  0.00     0.116 C 
ENDROOT
BRANCH   1   2
ATOM      2  N   UNL     1      -1.749  -4.910   3.014  1.00  0.00    -0.352 N 
ATOM      3  C   UNL     1      -1.554  -4.980   1.650  1.00  0.00     0.258 C 
ATOM      4  O   UNL     1      -2.240  -5.737   0.971  1.00  0.00    -0.269 OA
ATOM      5  H   UNL     1      -2.463  -5.491   3.365  1.00  0.00     0.163 HD
BRANCH   3   6
ATOM      6  C   UNL     1      -0.590  -4.077   0.979  1.00  0.00     0.121 A 
ATOM      7  C   UNL     1      -0.204  -2.378  -0.736  1.00  0.00     0.162 A 
ATOM      8  C   UNL     1      -1.022  -3.361  -0.142  1.00  0.00     0.071 A 
ATOM      9  C   UNL     1       1.024  -2.019  -0.139  1.00  0.00     0.168 A 
ATOM     10  C   UNL     1       1.461  -2.773   0.945  1.00  0.00     0.136 A 
ATOM     11  C   UNL     1       0.704  -3.850   1.423  1.00  0.00     0.286 A 
BRANCH   7  12
ATOM     12  O   UNL     1      -0.764  -1.834  -1.864  1.00  0.00    -0.493 OA
ATOM     13  C   UNL     1       0.126  -1.313  -2.845  1.00  0.00     0.278 C 
ENDBRANCH   7  12
BRANCH   9  14
ATOM     14  O   UNL     1       1.758  -1.023  -0.708  1.00  0.00    -0.484 OA
BRANCH  14  15
ATOM     15  C   UNL     1       2.805  -0.269  -0.062  1.00  0.00     0.198 C 
ATOM     16  C   UNL     1       3.983  -1.089   0.464  1.00  0.00     0.056 C 
BRANCH  15  17
ATOM     17  C   UNL     1       2.239   0.794   0.913  1.00  0.00     0.151 C 
ATOM     18  C   UNL     1       3.309   1.538   1.707  1.00  0.00     0.042 C 
BRANCH  17  19
ATOM     19  O   UNL     1       1.492   1.775   0.177  1.00  0.00    -0.390 OA
ATOM     20  H   UNL     1       2.084   2.238  -0.437  1.00  0.00     0.211 HD
ENDBRANCH  17  19
ENDBRANCH  15  17
ENDBRANCH  14  15
ENDBRANCH   9  14
BRANCH  11  21
ATOM     21  N   UNL     1       1.371  -4.782   2.314  1.00  0.00     0.063 N 
ATOM     22  O   UNL     1       1.210  -5.991   2.111  1.00  0.00    -0.258 OA
ATOM     23  O   UNL     1       2.082  -4.295   3.206  1.00  0.00    -0.258 OA
ENDBRANCH  11  21
ENDBRANCH   3   6
ENDBRANCH   1   2
BRANCH   1  24
ATOM     24  C   UNL     1      -1.869  -3.735   5.242  1.00  0.00     0.023 C 
BRANCH  24  25
ATOM     25  C   UNL     1      -2.388  -4.901   6.078  1.00  0.00     0.023 C 
BRANCH  25  26
ATOM     26  C   UNL     1      -1.398  -6.024   6.373  1.00  0.00     0.116 C 
BRANCH  26  27
ATOM     27  N   UNL     1      -0.241  -5.607   7.153  1.00  0.00    -0.352 N 
ATOM     28  C   UNL     1       0.168  -5.987   8.411  1.00  0.00     0.251 C 
ATOM     29  H   UNL     1       0.342  -4.948   6.710  1.00  0.00     0.163 HD
ATOM     30  O   UNL     1       1.138  -5.441   8.932  1.00  0.00    -0.269 OA
BRANCH  28  31
ATOM     31  C   UNL     1      -0.581  -7.017   9.165  1.00  0.00     0.039 A 
ATOM     32  C   UNL     1      -0.888  -6.779  10.508  1.00  0.00     0.014 A 
ATOM     33  C   UNL     1      -0.995  -8.202   8.556  1.00  0.00     0.014 A 
ATOM     34  C   UNL     1      -1.696  -7.681  11.206  1.00  0.00     0.010 A 
ATOM     35  C   UNL     1      -1.878  -9.050   9.221  1.00  0.00     0.010 A 
ATOM     36  C   UNL     1      -2.243  -8.798  10.552  1.00  0.00    -0.014 A 
BRANCH  36  37
ATOM     37  C   UNL     1      -3.202  -9.705  11.238  1.00  0.00     0.031 A 
ATOM     38  C   UNL     1      -2.870 -11.162  11.422  1.00  0.00     0.074 A 
ATOM     39  C   UNL     1      -4.407  -9.238  11.624  1.00  0.00     0.049 A 
ATOM     40  N   UNL     1      -3.607 -12.121  11.924  1.00  0.00    -0.248 NA
ATOM     41  C   UNL     1      -1.549 -11.608  10.951  1.00  0.00     0.031 C 
ATOM     42  C   UNL     1      -4.883  -7.863  11.448  1.00  0.00     0.029 A 
ATOM     43  N   UNL     1      -5.461  -9.873  12.236  1.00  0.00    -0.354 N 
ATOM     44  C   UNL     1      -2.853 -13.282  11.801  1.00  0.00     0.074 A 
ATOM     45  C   UNL     1      -1.620 -12.918  11.138  1.00  0.00     0.031 C 
ATOM     46  C   UNL     1      -6.119  -7.754  11.960  1.00  0.00     0.029 A 
ATOM     47  C   UNL     1      -6.541  -9.055  12.467  1.00  0.00     0.049 A 
ATOM     48  H   UNL     1      -5.443 -10.825  12.485  1.00  0.00     0.167 HD
ATOM     49  C   UNL     1      -3.151 -14.534  12.221  1.00  0.00     0.037 A 
ATOM     50  C   UNL     1      -7.739  -9.325  13.021  1.00  0.00     0.037 A 
ATOM     51  C   UNL     1      -4.354 -14.888  12.927  1.00  0.00     0.049 A 
ATOM     52  C   UNL     1      -8.029 -10.719  13.506  1.00  0.00     0.074 A 
ATOM     53  C   UNL     1      -4.701 -16.110  13.477  1.00  0.00     0.029 A 
ATOM     54  N   UNL     1      -5.404 -14.021  13.181  1.00  0.00    -0.354 N 
ATOM     55  N   UNL     1      -7.266 -11.784  13.467  1.00  0.00    -0.248 NA
ATOM     56  C   UNL     1      -9.344 -10.947  14.122  1.00  0.00     0.031 C 
ATOM     57  C   UNL     1      -5.981 -15.993  14.027  1.00  0.00     0.029 A 
ATOM     58  C   UNL     1      -6.410 -14.687  13.862  1.00  0.00     0.049 A 
ATOM     59  H   UNL     1      -5.431 -13.072  12.918  1.00  0.00     0.167 HD
ATOM     60  C   UNL     1      -7.992 -12.795  14.085  1.00  0.00     0.074 A 
ATOM     61  C   UNL     1      -9.250 -12.213  14.501  1.00  0.00     0.031 C 
ATOM     62  C   UNL     1      -7.648 -14.089  14.289  1.00  0.00     0.037 A 
BRANCH  49  63
ATOM     63  C   UNL     1      -2.155 -15.621  11.940  1.00  0.00     0.057 A 
ATOM     64  C   UNL     1      -0.930 -15.697  12.617  1.00  0.00     0.134 A 
ATOM     65  C   UNL     1      -2.451 -16.639  11.024  1.00  0.00     0.134 A 
ATOM     66  F   UNL     1      -0.581 -14.749  13.499  1.00  0.00    -0.206 F 
ATOM     67  C   UNL     1      -0.028 -16.735  12.378  1.00  0.00     0.040 A 
ATOM     68  C   UNL     1      -1.569 -17.696  10.797  1.00  0.00     0.040 A 
ATOM     69  F   UNL     1      -3.610 -16.631  10.347  1.00  0.00    -0.206 F 
ATOM     70  C   UNL     1      -0.351 -17.744  11.472  1.00  0.00     0.006 A 
ENDBRANCH  49  63
BRANCH  50  71
ATOM     71  C   UNL     1      -8.759  -8.254  13.171  1.00  0.00     0.057 A 
ATOM     72  C   UNL     1      -9.120  -7.774  14.436  1.00  0.00     0.134 A 
ATOM     73  C   UNL     1      -9.428  -7.718  12.065  1.00  0.00     0.134 A 
ATOM     74  F   UNL     1      -8.529  -8.263  15.537  1.00  0.00    -0.206 F 
ATOM     75  C   UNL     1     -10.130  -6.825  14.599  1.00  0.00     0.040 A 
ATOM     76  C   UNL     1     -10.422  -6.748  12.211  1.00  0.00     0.040 A 
ATOM     77  F   UNL     1      -9.125  -8.129  10.825  1.00  0.00    -0.206 F 
ATOM     78  C   UNL     1     -10.784  -6.308  13.482  1.00  0.00     0.006 A 
ENDBRANCH  50  71
BRANCH  62  79
ATOM     79  C   UNL     1      -8.621 -14.949  15.040  1.00  0.00     0.057 A 
ATOM     80  C   UNL     1      -9.826 -15.378  14.470  1.00  0.00     0.134 A 
ATOM     81  C   UNL     1      -8.332 -15.379  16.341  1.00  0.00     0.134 A 
ATOM     82  F   UNL     1     -10.169 -14.991  13.232  1.00  0.00    -0.206 F 
ATOM     83  C   UNL     1     -10.722 -16.182  15.178  1.00  0.00     0.040 A 
ATOM     84  C   UNL     1      -9.205 -16.206  17.048  1.00  0.00     0.040 A 
ATOM     85  F   UNL     1      -7.189 -15.013  16.942  1.00  0.00    -0.206 F 
ATOM     86  C   UNL     1     -10.408 -16.603  16.469  1.00  0.00     0.006 A 
ENDBRANCH  62  79
ENDBRANCH  36  37
ENDBRANCH  28  31
ENDBRANCH  26  27
ENDBRANCH  25  26
ENDBRANCH  24  25
ENDBRANCH   1  24
TORSDOF 17
