REMARK SMILES O=C(NCCCCNC(=O)c1ccc(-c2c3nc(c(-c4c(F)cccc4F)c4ccc([nH]4)c(-c4c(F)cccc4F)c4nc(c(-c5c(F)cccc5F)c5ccc2[nH]5)C=C4)C=C3)cc1)c1ccc(NS(=O)(=O)C2=Cc3ccccc3CC2)cc1
REMARK SMILES IDX 5 1 4 2 3 3 1 4 2 5 65 7 66 8 84 9 67 10 83 11 68 12 69 13
REMARK SMILES IDX 70 15 71 16 72 17 73 18 74 19 82 20 75 21 81 22 76 23 80 24
REMARK SMILES IDX 77 25 79 26 78 27 6 28 7 29 8 30 9 31 10 33 11 34 12 35
REMARK SMILES IDX 64 36 13 37 63 38 14 39 15 40 16 41 57 42 17 43 62 44 56 45
REMARK SMILES IDX 58 46 18 47 61 48 55 49 54 50 19 52 45 53 28 54 44 55 29 56
REMARK SMILES IDX 32 57 43 58 59 59 30 60 31 61 42 63 60 64 33 65 20 66 21 67
REMARK SMILES IDX 26 68 22 69 23 70 25 71 27 72 24 73 46 74 47 75 52 76 48 77
REMARK SMILES IDX 49 78 51 79 53 80 50 81 34 82 35 83 40 84 36 85 37 86 39 87
REMARK SMILES IDX 41 88 38 89
REMARK H PARENT 3 6 69 14 8 32 58 51 32 62
REMARK Flexibility Score: inf
ROOT
ATOM      1  C   UNL     1       4.984   0.855  -2.562  1.00  0.00     0.023 C 
ENDROOT
BRANCH   1   2
ATOM      2  C   UNL     1       4.517   0.761  -1.113  1.00  0.00     0.116 C 
BRANCH   2   3
ATOM      3  N   UNL     1       3.070   0.688  -1.000  1.00  0.00    -0.352 N 
ATOM      4  O   UNL     1       1.099  -0.250  -0.413  1.00  0.00    -0.269 OA
ATOM      5  C   UNL     1       2.318  -0.214  -0.289  1.00  0.00     0.251 C 
ATOM      6  H   UNL     1       2.566   1.371  -1.498  1.00  0.00     0.163 HD
BRANCH   5   7
ATOM      7  C   UNL     1       2.992  -1.146   0.637  1.00  0.00     0.039 A 
ATOM      8  C   UNL     1       3.824  -0.651   1.645  1.00  0.00     0.016 A 
ATOM      9  C   UNL     1       2.754  -2.519   0.531  1.00  0.00     0.016 A 
ATOM     10  C   UNL     1       4.449  -1.535   2.520  1.00  0.00     0.027 A 
ATOM     11  C   UNL     1       3.398  -3.405   1.404  1.00  0.00     0.027 A 
ATOM     12  C   UNL     1       4.254  -2.912   2.394  1.00  0.00     0.049 A 
BRANCH  12  13
ATOM     13  N   UNL     1       4.821  -3.791   3.365  1.00  0.00    -0.280 N 
ATOM     14  H   UNL     1       4.242  -4.238   4.023  1.00  0.00     0.180 HD
BRANCH  13  15
ATOM     15  S   UNL     1       6.503  -4.066   3.384  1.00  0.00     0.258 S 
ATOM     16  O   UNL     1       6.754  -4.639   4.690  1.00  0.00    -0.202 OA
ATOM     17  O   UNL     1       6.762  -4.871   2.203  1.00  0.00    -0.202 OA
BRANCH  15  18
ATOM     18  C   UNL     1       7.336  -2.512   3.220  1.00  0.00     0.066 C 
ATOM     19  C   UNL     1       7.860  -2.002   4.358  1.00  0.00     0.026 C 
ATOM     20  C   UNL     1       8.190  -2.387   1.980  1.00  0.00     0.055 C 
ATOM     21  C   UNL     1       9.283  -2.369   4.612  1.00  0.00    -0.021 A 
ATOM     22  C   UNL     1       9.537  -3.094   2.186  1.00  0.00     0.041 C 
ATOM     23  C   UNL     1       9.817  -2.189   5.892  1.00  0.00     0.008 A 
ATOM     24  C   UNL     1      10.086  -2.907   3.584  1.00  0.00    -0.040 A 
ATOM     25  C   UNL     1      11.126  -2.586   6.166  1.00  0.00     0.001 A 
ATOM     26  C   UNL     1      11.391  -3.321   3.878  1.00  0.00     0.004 A 
ATOM     27  C   UNL     1      11.906  -3.165   5.166  1.00  0.00     0.000 A 
ENDBRANCH  15  18
ENDBRANCH  13  15
ENDBRANCH  12  13
ENDBRANCH   5   7
ENDBRANCH   2   3
ENDBRANCH   1   2
BRANCH   1  28
ATOM     28  C   UNL     1       4.549   2.114  -3.309  1.00  0.00     0.023 C 
BRANCH  28  29
ATOM     29  C   UNL     1       4.906   3.434  -2.631  1.00  0.00     0.116 C 
BRANCH  29  30
ATOM     30  N   UNL     1       6.339   3.608  -2.437  1.00  0.00    -0.352 N 
ATOM     31  C   UNL     1       7.171   4.607  -2.885  1.00  0.00     0.251 C 
ATOM     32  H   UNL     1       6.777   2.905  -1.905  1.00  0.00     0.163 HD
ATOM     33  O   UNL     1       8.384   4.518  -2.722  1.00  0.00    -0.269 OA
BRANCH  31  34
ATOM     34  C   UNL     1       6.606   5.769  -3.602  1.00  0.00     0.039 A 
ATOM     35  C   UNL     1       7.173   6.147  -4.822  1.00  0.00     0.014 A 
ATOM     36  C   UNL     1       5.497   6.451  -3.098  1.00  0.00     0.014 A 
ATOM     37  C   UNL     1       6.557   7.137  -5.591  1.00  0.00     0.010 A 
ATOM     38  C   UNL     1       4.844   7.386  -3.896  1.00  0.00     0.010 A 
ATOM     39  C   UNL     1       5.354   7.720  -5.160  1.00  0.00    -0.014 A 
BRANCH  39  40
ATOM     40  C   UNL     1       4.574   8.624  -6.042  1.00  0.00     0.031 A 
ATOM     41  C   UNL     1       4.333  10.052  -5.650  1.00  0.00     0.074 A 
ATOM     42  C   UNL     1       3.990   8.121  -7.146  1.00  0.00     0.049 A 
ATOM     43  N   UNL     1       3.587  10.954  -6.236  1.00  0.00    -0.248 NA
ATOM     44  C   UNL     1       4.995  10.519  -4.423  1.00  0.00     0.031 C 
ATOM     45  C   UNL     1       4.093   6.733  -7.601  1.00  0.00     0.029 A 
ATOM     46  N   UNL     1       3.169   8.714  -8.073  1.00  0.00    -0.354 N 
ATOM     47  C   UNL     1       3.678  12.090  -5.444  1.00  0.00     0.074 A 
ATOM     48  C   UNL     1       4.513  11.749  -4.311  1.00  0.00     0.031 C 
ATOM     49  C   UNL     1       3.368   6.582  -8.720  1.00  0.00     0.029 A 
ATOM     50  C   UNL     1       2.720   7.849  -9.042  1.00  0.00     0.049 A 
ATOM     51  H   UNL     1       2.925   9.667  -8.047  1.00  0.00     0.167 HD
ATOM     52  C   UNL     1       3.131  13.311  -5.652  1.00  0.00     0.037 A 
ATOM     53  C   UNL     1       1.867   8.046 -10.064  1.00  0.00     0.037 A 
ATOM     54  C   UNL     1       2.315  13.653  -6.787  1.00  0.00     0.049 A 
ATOM     55  C   UNL     1       1.266   9.406 -10.273  1.00  0.00     0.074 A 
ATOM     56  C   UNL     1       1.788  14.886  -7.131  1.00  0.00     0.029 A 
ATOM     57  N   UNL     1       1.897  12.755  -7.758  1.00  0.00    -0.354 N 
ATOM     58  N   UNL     1       1.427  10.495  -9.562  1.00  0.00    -0.248 NA
ATOM     59  C   UNL     1       0.366   9.564 -11.423  1.00  0.00     0.031 C 
ATOM     60  C   UNL     1       1.015  14.725  -8.287  1.00  0.00     0.029 A 
ATOM     61  C   UNL     1       1.092  13.399  -8.684  1.00  0.00     0.049 A 
ATOM     62  H   UNL     1       2.137  11.801  -7.785  1.00  0.00     0.167 HD
ATOM     63  C   UNL     1       0.656  11.469 -10.179  1.00  0.00     0.074 A 
ATOM     64  C   UNL     1       0.043  10.847 -11.335  1.00  0.00     0.031 C 
ATOM     65  C   UNL     1       0.471  12.763  -9.818  1.00  0.00     0.037 A 
BRANCH  52  66
ATOM     66  C   UNL     1       3.404  14.367  -4.622  1.00  0.00     0.057 A 
ATOM     67  C   UNL     1       4.673  14.945  -4.477  1.00  0.00     0.134 A 
ATOM     68  C   UNL     1       2.387  14.819  -3.773  1.00  0.00     0.134 A 
ATOM     69  F   UNL     1       5.693  14.547  -5.252  1.00  0.00    -0.206 F 
ATOM     70  C   UNL     1       4.928  15.911  -3.503  1.00  0.00     0.040 A 
ATOM     71  C   UNL     1       2.624  15.803  -2.811  1.00  0.00     0.040 A 
ATOM     72  F   UNL     1       1.149  14.312  -3.862  1.00  0.00    -0.206 F 
ATOM     73  C   UNL     1       3.900  16.346  -2.669  1.00  0.00     0.006 A 
ENDBRANCH  52  66
BRANCH  53  74
ATOM     74  C   UNL     1       1.537   6.918 -10.967  1.00  0.00     0.057 A 
ATOM     75  C   UNL     1       2.061   6.853 -12.262  1.00  0.00     0.134 A 
ATOM     76  C   UNL     1       0.720   5.862 -10.545  1.00  0.00     0.134 A 
ATOM     77  F   UNL     1       2.836   7.844 -12.727  1.00  0.00    -0.206 F 
ATOM     78  C   UNL     1       1.780   5.780 -13.110  1.00  0.00     0.040 A 
ATOM     79  C   UNL     1       0.447   4.774 -11.374  1.00  0.00     0.040 A 
ATOM     80  F   UNL     1       0.196   5.864  -9.310  1.00  0.00    -0.206 F 
ATOM     81  C   UNL     1       0.977   4.732 -12.662  1.00  0.00     0.006 A 
ENDBRANCH  53  74
BRANCH  65  82
ATOM     82  C   UNL     1      -0.436  13.589 -10.680  1.00  0.00     0.057 A 
ATOM     83  C   UNL     1      -1.827  13.433 -10.637  1.00  0.00     0.134 A 
ATOM     84  C   UNL     1       0.081  14.573 -11.530  1.00  0.00     0.134 A 
ATOM     85  F   UNL     1      -2.383  12.496  -9.854  1.00  0.00    -0.206 F 
ATOM     86  C   UNL     1      -2.672  14.220 -11.422  1.00  0.00     0.040 A 
ATOM     87  C   UNL     1      -0.755  15.380 -12.304  1.00  0.00     0.040 A 
ATOM     88  F   UNL     1       1.405  14.775 -11.614  1.00  0.00    -0.206 F 
ATOM     89  C   UNL     1      -2.136  15.201 -12.253  1.00  0.00     0.006 A 
ENDBRANCH  65  82
ENDBRANCH  39  40
ENDBRANCH  31  34
ENDBRANCH  29  30
ENDBRANCH  28  29
ENDBRANCH   1  28
TORSDOF 14
