REMARK SMILES C[C@@H]1CC[C@@H](C(=O)NCCCCNC(=O)c2ccc(-c3c4nc(c(-c5c(F)cccc5F)c5ccc([nH]5)c(-c5c(F)cccc5F)c5nc(c(-c6c(F)cccc6F)c6ccc3[nH]6)C=C5)C=C4)cc2)[C@H]2C(=O)N(c3ccccc3)C(=O)[C@@H]21
REMARK SMILES IDX 11 1 10 2 9 3 8 4 6 5 7 6 5 8 1 9 2 10 3 11 82 12 4 13 70 14
REMARK SMILES IDX 80 15 71 16 73 17 81 18 72 19 74 20 75 21 79 22 76 23 78 24
REMARK SMILES IDX 77 25 12 26 13 27 14 28 15 30 16 31 17 32 69 33 18 34 68 35
REMARK SMILES IDX 19 36 20 37 21 38 62 39 22 40 67 41 61 42 63 43 23 44 66 45
REMARK SMILES IDX 60 46 59 47 24 49 50 50 33 51 49 52 34 53 37 54 48 55 64 56
REMARK SMILES IDX 35 57 36 58 47 60 65 61 38 62 25 63 26 64 31 65 27 66 28 67
REMARK SMILES IDX 30 68 32 69 29 70 51 71 52 72 57 73 53 74 54 75 56 76 58 77
REMARK SMILES IDX 55 78 39 79 40 80 45 81 41 82 42 83 44 84 46 85 43 86
REMARK H PARENT 8 7 13 29 63 48 37 59
REMARK Flexibility Score: inf
ROOT
ATOM      1  C   UNL     1      -7.165   0.248   3.046  1.00  0.00     0.023 C 
ENDROOT
BRANCH   1   2
ATOM      2  C   UNL     1      -6.529   0.590   1.698  1.00  0.00     0.023 C 
BRANCH   2   3
ATOM      3  C   UNL     1      -5.007   0.667   1.691  1.00  0.00     0.116 C 
BRANCH   3   4
ATOM      4  N   UNL     1      -4.349  -0.566   2.079  1.00  0.00    -0.356 N 
ATOM      5  C   UNL     1      -3.162  -1.092   1.672  1.00  0.00     0.223 C 
ATOM      6  O   UNL     1      -2.762  -2.095   2.265  1.00  0.00    -0.275 OA
ATOM      7  H   UNL     1      -4.838  -1.108   2.740  1.00  0.00     0.163 HD
BRANCH   5   8
ATOM      8  C   UNL     1      -2.350  -0.447   0.543  1.00  0.00     0.092 C 
ATOM      9  C   UNL     1       1.433  -0.093  -0.013  1.00  0.00     0.008 C 
ATOM     10  C   UNL     1       0.648  -0.823   1.082  1.00  0.00    -0.001 C 
ATOM     11  C   UNL     1      -0.203  -1.969   0.486  1.00  0.00     0.005 C 
ATOM     12  C   UNL     1      -0.287   0.074   1.882  1.00  0.00     0.095 C 
ATOM     13  C   UNL     1      -1.511  -1.518  -0.212  1.00  0.00     0.014 C 
ATOM     14  C   UNL     1      -1.391   0.640   1.011  1.00  0.00     0.104 C 
ATOM     15  C   UNL     1       0.231   1.304   2.582  1.00  0.00     0.237 C 
ATOM     16  C   UNL     1      -1.867   1.811   1.821  1.00  0.00     0.238 C 
ATOM     17  N   UNL     1      -0.867   2.137   2.718  1.00  0.00    -0.250 N 
ATOM     18  O   UNL     1       1.364   1.427   3.019  1.00  0.00    -0.274 OA
ATOM     19  O   UNL     1      -2.858   2.467   1.533  1.00  0.00    -0.274 OA
BRANCH  17  20
ATOM     20  C   UNL     1      -0.947   3.255   3.583  1.00  0.00     0.052 A 
ATOM     21  C   UNL     1       0.176   4.030   3.888  1.00  0.00     0.027 A 
ATOM     22  C   UNL     1      -2.176   3.593   4.174  1.00  0.00     0.027 A 
ATOM     23  C   UNL     1       0.065   5.136   4.736  1.00  0.00     0.002 A 
ATOM     24  C   UNL     1      -2.279   4.674   5.052  1.00  0.00     0.002 A 
ATOM     25  C   UNL     1      -1.159   5.452   5.324  1.00  0.00     0.000 A 
ENDBRANCH  17  20
ENDBRANCH   5   8
ENDBRANCH   3   4
ENDBRANCH   2   3
ENDBRANCH   1   2
BRANCH   1  26
ATOM     26  C   UNL     1      -6.672   1.051   4.248  1.00  0.00     0.116 C 
BRANCH  26  27
ATOM     27  N   UNL     1      -6.924   2.481   4.137  1.00  0.00    -0.352 N 
ATOM     28  C   UNL     1      -7.670   3.308   4.944  1.00  0.00     0.251 C 
ATOM     29  H   UNL     1      -6.495   2.922   3.368  1.00  0.00     0.163 HD
ATOM     30  O   UNL     1      -7.856   4.479   4.627  1.00  0.00    -0.269 OA
BRANCH  28  31
ATOM     31  C   UNL     1      -8.284   2.780   6.182  1.00  0.00     0.039 A 
ATOM     32  C   UNL     1      -9.637   3.033   6.425  1.00  0.00     0.014 A 
ATOM     33  C   UNL     1      -7.538   2.024   7.090  1.00  0.00     0.014 A 
ATOM     34  C   UNL     1     -10.266   2.445   7.525  1.00  0.00     0.010 A 
ATOM     35  C   UNL     1      -8.181   1.381   8.144  1.00  0.00     0.010 A 
ATOM     36  C   UNL     1      -9.554   1.573   8.364  1.00  0.00    -0.014 A 
BRANCH  36  37
ATOM     37  C   UNL     1     -10.230   0.824   9.455  1.00  0.00     0.031 A 
ATOM     38  C   UNL     1      -9.845   1.054  10.888  1.00  0.00     0.074 A 
ATOM     39  C   UNL     1     -11.126  -0.134   9.146  1.00  0.00     0.049 A 
ATOM     40  N   UNL     1     -10.243   0.422  11.963  1.00  0.00    -0.248 NA
ATOM     41  C   UNL     1      -8.858   2.114  11.144  1.00  0.00     0.031 C 
ATOM     42  C   UNL     1     -11.545  -0.498   7.791  1.00  0.00     0.029 A 
ATOM     43  N   UNL     1     -11.830  -0.994   9.953  1.00  0.00    -0.354 N 
ATOM     44  C   UNL     1      -9.543   0.993  13.018  1.00  0.00     0.074 A 
ATOM     45  C   UNL     1      -8.663   1.991  12.448  1.00  0.00     0.031 C 
ATOM     46  C   UNL     1     -12.437  -1.499   7.861  1.00  0.00     0.029 A 
ATOM     47  C   UNL     1     -12.629  -1.870   9.259  1.00  0.00     0.049 A 
ATOM     48  H   UNL     1     -11.768  -0.983  10.935  1.00  0.00     0.167 HD
ATOM     49  C   UNL     1      -9.639   0.726  14.342  1.00  0.00     0.037 A 
ATOM     50  C   UNL     1     -13.416  -2.870   9.697  1.00  0.00     0.037 A 
ATOM     51  C   UNL     1     -10.534  -0.247  14.912  1.00  0.00     0.049 A 
ATOM     52  C   UNL     1     -13.518  -3.140  11.171  1.00  0.00     0.074 A 
ATOM     53  C   UNL     1     -10.755  -0.538  16.247  1.00  0.00     0.029 A 
ATOM     54  N   UNL     1     -11.355  -1.090  14.178  1.00  0.00    -0.354 N 
ATOM     55  N   UNL     1     -12.902  -2.544  12.163  1.00  0.00    -0.248 NA
ATOM     56  C   UNL     1     -14.426  -4.218  11.587  1.00  0.00     0.031 C 
ATOM     57  C   UNL     1     -11.685  -1.581  16.320  1.00  0.00     0.029 A 
ATOM     58  C   UNL     1     -12.070  -1.915  15.031  1.00  0.00     0.049 A 
ATOM     59  H   UNL     1     -11.420  -1.101  13.196  1.00  0.00     0.167 HD
ATOM     60  C   UNL     1     -13.360  -3.160  13.319  1.00  0.00     0.074 A 
ATOM     61  C   UNL     1     -14.316  -4.168  12.908  1.00  0.00     0.031 C 
ATOM     62  C   UNL     1     -13.016  -2.914  14.607  1.00  0.00     0.037 A 
BRANCH  49  63
ATOM     63  C   UNL     1      -8.751   1.506  15.266  1.00  0.00     0.057 A 
ATOM     64  C   UNL     1      -8.968   2.866  15.521  1.00  0.00     0.134 A 
ATOM     65  C   UNL     1      -7.678   0.888  15.920  1.00  0.00     0.134 A 
ATOM     66  F   UNL     1      -9.972   3.520  14.916  1.00  0.00    -0.206 F 
ATOM     67  C   UNL     1      -8.132   3.591  16.372  1.00  0.00     0.040 A 
ATOM     68  C   UNL     1      -6.850   1.597  16.792  1.00  0.00     0.040 A 
ATOM     69  F   UNL     1      -7.419  -0.414  15.724  1.00  0.00    -0.206 F 
ATOM     70  C   UNL     1      -7.072   2.955  17.013  1.00  0.00     0.006 A 
ENDBRANCH  49  63
BRANCH  50  71
ATOM     71  C   UNL     1     -14.184  -3.682   8.722  1.00  0.00     0.057 A 
ATOM     72  C   UNL     1     -15.569  -3.535   8.593  1.00  0.00     0.134 A 
ATOM     73  C   UNL     1     -13.552  -4.614   7.891  1.00  0.00     0.134 A 
ATOM     74  F   UNL     1     -16.231  -2.670   9.376  1.00  0.00    -0.206 F 
ATOM     75  C   UNL     1     -16.303  -4.293   7.679  1.00  0.00     0.040 A 
ATOM     76  C   UNL     1     -14.270  -5.365   6.958  1.00  0.00     0.040 A 
ATOM     77  F   UNL     1     -12.225  -4.795   7.962  1.00  0.00    -0.206 F 
ATOM     78  C   UNL     1     -15.651  -5.208   6.854  1.00  0.00     0.006 A 
ENDBRANCH  50  71
BRANCH  62  79
ATOM     79  C   UNL     1     -13.691  -3.736  15.664  1.00  0.00     0.057 A 
ATOM     80  C   UNL     1     -13.344  -5.073  15.889  1.00  0.00     0.134 A 
ATOM     81  C   UNL     1     -14.670  -3.171  16.491  1.00  0.00     0.134 A 
ATOM     82  F   UNL     1     -12.423  -5.675  15.120  1.00  0.00    -0.206 F 
ATOM     83  C   UNL     1     -13.958  -5.826  16.891  1.00  0.00     0.040 A 
ATOM     84  C   UNL     1     -15.276  -3.908  17.510  1.00  0.00     0.040 A 
ATOM     85  F   UNL     1     -15.043  -1.893  16.331  1.00  0.00    -0.206 F 
ATOM     86  C   UNL     1     -14.923  -5.241  17.709  1.00  0.00     0.006 A 
ENDBRANCH  62  79
ENDBRANCH  36  37
ENDBRANCH  28  31
ENDBRANCH  26  27
ENDBRANCH   1  26
TORSDOF 12
