REMARK SMILES O=C(CSc1nc(O)cc(=O)[nH]1)Nc1cccc(C(=O)NCCCCNC(=O)c2ccc(-c3c4nc(c(-c5c(F)cccc5F)c5ccc([nH]5)c(-c5c(F)cccc5F)c5nc(c(-c6c(F)cccc6F)c6ccc3[nH]6)C=C5)C=C4)cc2)c1
REMARK SMILES IDX 22 1 21 2 19 3 20 4 18 6 14 7 15 8 83 9 16 10 17 11 13 12
REMARK SMILES IDX 1 13 2 14 3 16 4 17 5 18 6 19 12 20 7 21 10 22 9 24 11 25
REMARK SMILES IDX 8 26 23 28 24 29 25 30 26 31 27 32 28 34 29 35 30 36 82 37
REMARK SMILES IDX 31 38 81 39 32 40 33 41 34 42 75 43 35 44 80 45 74 46 76 47
REMARK SMILES IDX 36 48 79 49 73 50 72 51 37 53 63 54 46 55 62 56 47 57 50 58
REMARK SMILES IDX 61 59 77 60 48 61 49 62 60 64 78 65 51 66 38 67 39 68 44 69
REMARK SMILES IDX 40 70 41 71 43 72 45 73 42 74 64 75 65 76 70 77 66 78 67 79
REMARK SMILES IDX 69 80 71 81 68 82 52 83 53 84 58 85 54 86 55 87 57 88 59 89
REMARK SMILES IDX 56 90
REMARK H PARENT 21 5 13 15 12 23 8 27 26 33 76 52 50 63
REMARK Flexibility Score: inf
ROOT
ATOM      1  C   UNL     1       0.030   2.057   2.663  1.00  0.00     0.116 C 
ENDROOT
BRANCH   1   2
ATOM      2  N   UNL     1      -0.711   3.255   2.289  1.00  0.00    -0.352 N 
ATOM      3  C   UNL     1      -0.560   4.090   1.199  1.00  0.00     0.251 C 
ATOM      4  O   UNL     1      -1.286   5.075   1.088  1.00  0.00    -0.269 OA
ATOM      5  H   UNL     1      -1.431   3.509   2.911  1.00  0.00     0.163 HD
BRANCH   3   6
ATOM      6  C   UNL     1       0.514   3.857   0.199  1.00  0.00     0.041 A 
ATOM      7  C   UNL     1       2.068   2.333  -0.855  1.00  0.00     0.041 A 
ATOM      8  C   UNL     1       2.795   3.426  -1.339  1.00  0.00     0.026 A 
ATOM      9  C   UNL     1       0.864   2.566  -0.198  1.00  0.00     0.040 A 
ATOM     10  C   UNL     1       2.357   4.731  -1.090  1.00  0.00     0.003 A 
ATOM     11  C   UNL     1       1.234   4.949  -0.291  1.00  0.00     0.014 A 
BRANCH   7  12
ATOM     12  N   UNL     1       2.653   1.052  -0.940  1.00  0.00    -0.325 N 
ATOM     13  O   UNL     1       1.051  -0.283   0.099  1.00  0.00    -0.274 OA
ATOM     14  C   UNL     1       2.163  -0.128  -0.405  1.00  0.00     0.234 C 
ATOM     15  H   UNL     1       3.503   0.990  -1.434  1.00  0.00     0.169 HD
BRANCH  14  16
ATOM     16  C   UNL     1       3.172  -1.263  -0.312  1.00  0.00     0.178 C 
BRANCH  16  17
ATOM     17  S   UNL     1       4.299  -1.417  -1.718  1.00  0.00    -0.078 SA
BRANCH  17  18
ATOM     18  C   UNL     1       3.131  -1.524  -2.991  1.00  0.00     0.172 A 
ATOM     19  N   UNL     1       2.655  -0.452  -3.526  1.00  0.00    -0.189 NA
ATOM     20  N   UNL     1       2.804  -2.789  -3.348  1.00  0.00    -0.301 N 
ATOM     21  C   UNL     1       1.738  -0.641  -4.517  1.00  0.00     0.218 A 
ATOM     22  C   UNL     1       1.910  -3.030  -4.348  1.00  0.00     0.255 A 
ATOM     23  H   UNL     1       3.219  -3.547  -2.877  1.00  0.00     0.172 HD
ATOM     24  C   UNL     1       1.333  -1.829  -4.970  1.00  0.00     0.139 A 
ATOM     25  O   UNL     1       1.603  -4.154  -4.708  1.00  0.00    -0.269 OA
BRANCH  21  26
ATOM     26  O   UNL     1       1.213   0.504  -5.052  1.00  0.00    -0.493 OA
ATOM     27  H   UNL     1       1.494   1.340  -4.737  1.00  0.00     0.295 HD
ENDBRANCH  21  26
ENDBRANCH  17  18
ENDBRANCH  16  17
ENDBRANCH  14  16
ENDBRANCH   7  12
ENDBRANCH   3   6
ENDBRANCH   1   2
BRANCH   1  28
ATOM     28  C   UNL     1       0.409   1.978   4.136  1.00  0.00     0.023 C 
BRANCH  28  29
ATOM     29  C   UNL     1      -0.745   1.908   5.128  1.00  0.00     0.023 C 
BRANCH  29  30
ATOM     30  C   UNL     1      -1.800   0.843   4.854  1.00  0.00     0.116 C 
BRANCH  30  31
ATOM     31  N   UNL     1      -1.270  -0.511   4.790  1.00  0.00    -0.352 N 
ATOM     32  C   UNL     1      -1.654  -1.645   5.471  1.00  0.00     0.251 C 
ATOM     33  H   UNL     1      -0.521  -0.636   4.163  1.00  0.00     0.163 HD
ATOM     34  O   UNL     1      -1.019  -2.684   5.340  1.00  0.00    -0.269 OA
BRANCH  32  35
ATOM     35  C   UNL     1      -2.808  -1.601   6.398  1.00  0.00     0.039 A 
ATOM     36  C   UNL     1      -2.676  -2.185   7.662  1.00  0.00     0.014 A 
ATOM     37  C   UNL     1      -4.002  -0.972   6.041  1.00  0.00     0.014 A 
ATOM     38  C   UNL     1      -3.706  -2.053   8.598  1.00  0.00     0.010 A 
ATOM     39  C   UNL     1      -4.992  -0.771   7.000  1.00  0.00     0.010 A 
ATOM     40  C   UNL     1      -4.851  -1.300   8.291  1.00  0.00    -0.014 A 
BRANCH  40  41
ATOM     41  C   UNL     1      -5.900  -1.037   9.312  1.00  0.00     0.031 A 
ATOM     42  C   UNL     1      -7.303  -1.538   9.105  1.00  0.00     0.074 A 
ATOM     43  C   UNL     1      -5.610  -0.273  10.384  1.00  0.00     0.049 A 
ATOM     44  N   UNL     1      -8.369  -1.333   9.837  1.00  0.00    -0.248 NA
ATOM     45  C   UNL     1      -7.548  -2.348   7.902  1.00  0.00     0.031 C 
ATOM     46  C   UNL     1      -4.305   0.329  10.669  1.00  0.00     0.029 A 
ATOM     47  N   UNL     1      -6.400   0.143  11.427  1.00  0.00    -0.354 N 
ATOM     48  C   UNL     1      -9.411  -1.966   9.172  1.00  0.00     0.074 A 
ATOM     49  C   UNL     1      -8.860  -2.525   7.957  1.00  0.00     0.031 C 
ATOM     50  C   UNL     1      -4.381   1.023  11.816  1.00  0.00     0.029 A 
ATOM     51  C   UNL     1      -5.744   0.944  12.331  1.00  0.00     0.049 A 
ATOM     52  H   UNL     1      -7.347  -0.108  11.518  1.00  0.00     0.167 HD
ATOM     53  C   UNL     1     -10.706  -2.089   9.549  1.00  0.00     0.037 A 
ATOM     54  C   UNL     1      -6.192   1.554  13.445  1.00  0.00     0.037 A 
ATOM     55  C   UNL     1     -11.246  -1.570  10.778  1.00  0.00     0.049 A 
ATOM     56  C   UNL     1      -7.627   1.374  13.858  1.00  0.00     0.074 A 
ATOM     57  C   UNL     1     -12.524  -1.718  11.287  1.00  0.00     0.029 A 
ATOM     58  N   UNL     1     -10.537  -0.805  11.691  1.00  0.00    -0.354 N 
ATOM     59  N   UNL     1      -8.580   0.701  13.260  1.00  0.00    -0.248 NA
ATOM     60  C   UNL     1      -8.047   2.031  15.104  1.00  0.00     0.031 C 
ATOM     61  C   UNL     1     -12.600  -1.011  12.491  1.00  0.00     0.029 A 
ATOM     62  C   UNL     1     -11.357  -0.458  12.752  1.00  0.00     0.049 A 
ATOM     63  H   UNL     1      -9.591  -0.547  11.599  1.00  0.00     0.167 HD
ATOM     64  C   UNL     1      -9.702   0.832  14.069  1.00  0.00     0.074 A 
ATOM     65  C   UNL     1      -9.307   1.635  15.207  1.00  0.00     0.031 C 
ATOM     66  C   UNL     1     -10.947   0.332  13.883  1.00  0.00     0.037 A 
BRANCH  53  67
ATOM     67  C   UNL     1     -11.633  -2.824   8.626  1.00  0.00     0.057 A 
ATOM     68  C   UNL     1     -11.563  -4.213   8.464  1.00  0.00     0.134 A 
ATOM     69  C   UNL     1     -12.639  -2.141   7.931  1.00  0.00     0.134 A 
ATOM     70  F   UNL     1     -10.615  -4.925   9.094  1.00  0.00    -0.206 F 
ATOM     71  C   UNL     1     -12.448  -4.896   7.628  1.00  0.00     0.040 A 
ATOM     72  C   UNL     1     -13.545  -2.815   7.111  1.00  0.00     0.040 A 
ATOM     73  F   UNL     1     -12.765  -0.810   8.047  1.00  0.00    -0.206 F 
ATOM     74  C   UNL     1     -13.448  -4.196   6.954  1.00  0.00     0.006 A 
ENDBRANCH  53  67
BRANCH  54  75
ATOM     75  C   UNL     1      -5.271   2.380  14.265  1.00  0.00     0.057 A 
ATOM     76  C   UNL     1      -4.846   1.951  15.528  1.00  0.00     0.134 A 
ATOM     77  C   UNL     1      -4.811   3.624  13.819  1.00  0.00     0.134 A 
ATOM     78  F   UNL     1      -5.269   0.776  16.019  1.00  0.00    -0.206 F 
ATOM     79  C   UNL     1      -4.017   2.738  16.328  1.00  0.00     0.040 A 
ATOM     80  C   UNL     1      -3.962   4.412  14.598  1.00  0.00     0.040 A 
ATOM     81  F   UNL     1      -5.176   4.089  12.615  1.00  0.00    -0.206 F 
ATOM     82  C   UNL     1      -3.569   3.972  15.861  1.00  0.00     0.006 A 
ENDBRANCH  54  75
BRANCH  66  83
ATOM     83  C   UNL     1     -11.964   0.610  14.951  1.00  0.00     0.057 A 
ATOM     84  C   UNL     1     -12.537   1.876  15.113  1.00  0.00     0.134 A 
ATOM     85  C   UNL     1     -12.402  -0.414  15.800  1.00  0.00     0.134 A 
ATOM     86  F   UNL     1     -12.151   2.902  14.339  1.00  0.00    -0.206 F 
ATOM     87  C   UNL     1     -13.496   2.121  16.097  1.00  0.00     0.040 A 
ATOM     88  C   UNL     1     -13.377  -0.189  16.771  1.00  0.00     0.040 A 
ATOM     89  F   UNL     1     -11.897  -1.653  15.691  1.00  0.00    -0.206 F 
ATOM     90  C   UNL     1     -13.924   1.084  16.925  1.00  0.00     0.006 A 
ENDBRANCH  66  83
ENDBRANCH  40  41
ENDBRANCH  32  35
ENDBRANCH  30  31
ENDBRANCH  29  30
ENDBRANCH  28  29
ENDBRANCH   1  28
TORSDOF 16
