REMARK SMILES COc1ccc(-c2[nH]nc3nc(-c4ccc(C(F)(F)F)cc4)cc(C(=O)NCCCCNC(=O)c4ccc(-c5c6nc(c(-c7c(F)cccc7F)c7ccc([nH]7)c(-c7c(F)cccc7F)c7nc(c(-c8c(F)cccc8F)c8ccc5[nH]8)C=C7)C=C6)cc4)c23)cc1
REMARK SMILES IDX 29 1 28 2 27 3 25 4 26 5 24 7 7 8 8 9 89 10 9 11 10 13 11 14
REMARK SMILES IDX 23 15 12 16 6 17 3 18 4 19 91 20 5 21 90 22 2 23 1 24 13 25
REMARK SMILES IDX 14 26 22 27 15 28 21 29 16 30 17 31 18 32 19 33 20 34 30 35
REMARK SMILES IDX 31 36 32 37 33 38 34 40 35 41 36 42 88 43 37 44 87 45 38 46
REMARK SMILES IDX 39 47 40 48 81 49 41 50 86 51 80 52 82 53 42 54 85 55 79 56
REMARK SMILES IDX 78 57 43 59 69 60 52 61 68 62 53 63 56 64 67 65 83 66 54 67
REMARK SMILES IDX 55 68 66 70 84 71 57 72 44 73 45 74 50 75 46 76 47 77 49 78
REMARK SMILES IDX 51 79 48 80 70 81 71 82 76 83 72 84 73 85 75 86 77 87 74 88
REMARK SMILES IDX 58 89 59 90 64 91 60 92 61 93 63 94 65 95 62 96
REMARK H PARENT 27 6 8 12 32 39 82 58 56 69
REMARK Flexibility Score: inf
ROOT
ATOM      1  C   UNL     1       7.116  -6.750  -2.479  1.00  0.00     0.023 C 
ENDROOT
BRANCH   1   2
ATOM      2  C   UNL     1       5.739  -7.280  -2.083  1.00  0.00     0.116 C 
BRANCH   2   3
ATOM      3  N   UNL     1       4.744  -6.243  -1.911  1.00  0.00    -0.352 N 
ATOM      4  C   UNL     1       3.728  -5.724  -2.672  1.00  0.00     0.252 C 
ATOM      5  O   UNL     1       2.905  -5.086  -2.023  1.00  0.00    -0.269 OA
ATOM      6  H   UNL     1       4.814  -5.802  -1.033  1.00  0.00     0.163 HD
BRANCH   4   7
ATOM      7  C   UNL     1       3.547  -5.936  -4.128  1.00  0.00     0.055 A 
ATOM      8  C   UNL     1       1.662  -4.329  -4.734  1.00  0.00     0.075 A 
ATOM      9  N   UNL     1       0.964  -4.204  -5.915  1.00  0.00    -0.275 N 
ATOM     10  C   UNL     1       2.567  -5.357  -4.965  1.00  0.00     0.059 A 
ATOM     11  N   UNL     1       1.333  -5.042  -6.889  1.00  0.00    -0.154 NA
ATOM     12  H   UNL     1       0.243  -3.544  -6.033  1.00  0.00     0.190 HD
ATOM     13  C   UNL     1       2.316  -5.750  -6.338  1.00  0.00     0.182 A 
ATOM     14  N   UNL     1       3.004  -6.738  -6.965  1.00  0.00    -0.226 NA
ATOM     15  C   UNL     1       4.298  -6.852  -4.873  1.00  0.00     0.043 A 
ATOM     16  C   UNL     1       3.977  -7.267  -6.189  1.00  0.00     0.074 A 
BRANCH   8  17
ATOM     17  C   UNL     1       1.355  -3.432  -3.625  1.00  0.00     0.001 A 
ATOM     18  C   UNL     1       0.782  -1.815  -1.395  1.00  0.00     0.118 A 
ATOM     19  C   UNL     1      -0.186  -2.678  -1.908  1.00  0.00     0.047 A 
ATOM     20  C   UNL     1       2.034  -1.746  -2.008  1.00  0.00     0.047 A 
ATOM     21  C   UNL     1       0.092  -3.476  -3.021  1.00  0.00     0.014 A 
ATOM     22  C   UNL     1       2.312  -2.538  -3.130  1.00  0.00     0.014 A 
BRANCH  18  23
ATOM     23  O   UNL     1       0.415  -1.140  -0.264  1.00  0.00    -0.497 OA
ATOM     24  C   UNL     1       1.051   0.116  -0.064  1.00  0.00     0.278 C 
ENDBRANCH  18  23
ENDBRANCH   8  17
BRANCH  16  25
ATOM     25  C   UNL     1       4.710  -8.427  -6.725  1.00  0.00     0.000 A 
ATOM     26  C   UNL     1       5.523  -8.330  -7.859  1.00  0.00     0.011 A 
ATOM     27  C   UNL     1       4.687  -9.650  -6.024  1.00  0.00     0.011 A 
ATOM     28  C   UNL     1       6.336  -9.404  -8.244  1.00  0.00     0.014 A 
ATOM     29  C   UNL     1       5.495 -10.722  -6.406  1.00  0.00     0.014 A 
ATOM     30  C   UNL     1       6.342 -10.604  -7.513  1.00  0.00     0.056 A 
BRANCH  30  31
ATOM     31  C   UNL     1       7.256 -11.738  -7.912  1.00  0.00     0.416 C 
ATOM     32  F   UNL     1       7.000 -12.201  -9.166  1.00  0.00    -0.166 F 
ATOM     33  F   UNL     1       8.568 -11.370  -7.907  1.00  0.00    -0.166 F 
ATOM     34  F   UNL     1       7.172 -12.820  -7.088  1.00  0.00    -0.166 F 
ENDBRANCH  30  31
ENDBRANCH  16  25
ENDBRANCH   4   7
ENDBRANCH   2   3
ENDBRANCH   1   2
BRANCH   1  35
ATOM     35  C   UNL     1       7.927  -6.113  -1.337  1.00  0.00     0.023 C 
BRANCH  35  36
ATOM     36  C   UNL     1       8.248  -7.029  -0.155  1.00  0.00     0.116 C 
BRANCH  36  37
ATOM     37  N   UNL     1       8.971  -8.248  -0.533  1.00  0.00    -0.352 N 
ATOM     38  C   UNL     1       9.149  -9.416   0.198  1.00  0.00     0.251 C 
ATOM     39  H   UNL     1       9.386  -8.237  -1.426  1.00  0.00     0.163 HD
ATOM     40  O   UNL     1      10.064 -10.184  -0.047  1.00  0.00    -0.269 OA
BRANCH  38  41
ATOM     41  C   UNL     1       8.174  -9.736   1.255  1.00  0.00     0.039 A 
ATOM     42  C   UNL     1       8.523 -10.297   2.485  1.00  0.00     0.014 A 
ATOM     43  C   UNL     1       6.852  -9.432   0.972  1.00  0.00     0.014 A 
ATOM     44  C   UNL     1       7.524 -10.473   3.445  1.00  0.00     0.010 A 
ATOM     45  C   UNL     1       5.931  -9.384   1.973  1.00  0.00     0.010 A 
ATOM     46  C   UNL     1       6.230 -10.002   3.175  1.00  0.00    -0.014 A 
BRANCH  46  47
ATOM     47  C   UNL     1       5.147 -10.063   4.143  1.00  0.00     0.031 A 
ATOM     48  C   UNL     1       5.389  -9.278   5.381  1.00  0.00     0.074 A 
ATOM     49  C   UNL     1       3.925 -10.529   3.799  1.00  0.00     0.049 A 
ATOM     50  N   UNL     1       5.569  -9.724   6.579  1.00  0.00    -0.248 NA
ATOM     51  C   UNL     1       5.618  -7.829   5.249  1.00  0.00     0.031 C 
ATOM     52  C   UNL     1       3.453 -10.987   2.483  1.00  0.00     0.029 A 
ATOM     53  N   UNL     1       2.791 -10.576   4.545  1.00  0.00    -0.354 N 
ATOM     54  C   UNL     1       5.707  -8.598   7.389  1.00  0.00     0.074 A 
ATOM     55  C   UNL     1       5.954  -7.499   6.497  1.00  0.00     0.031 C 
ATOM     56  C   UNL     1       2.102 -11.030   2.471  1.00  0.00     0.029 A 
ATOM     57  C   UNL     1       1.622 -10.780   3.815  1.00  0.00     0.049 A 
ATOM     58  H   UNL     1       2.795 -10.473   5.524  1.00  0.00     0.167 HD
ATOM     59  C   UNL     1       5.339  -8.631   8.702  1.00  0.00     0.037 A 
ATOM     60  C   UNL     1       0.357 -10.702   4.300  1.00  0.00     0.037 A 
ATOM     61  C   UNL     1       5.155  -9.995   9.141  1.00  0.00     0.049 A 
ATOM     62  C   UNL     1       0.456 -10.803   5.781  1.00  0.00     0.074 A 
ATOM     63  C   UNL     1       5.962 -11.115   9.205  1.00  0.00     0.029 A 
ATOM     64  N   UNL     1       3.865 -10.462   9.229  1.00  0.00    -0.354 N 
ATOM     65  N   UNL     1       0.840 -11.882   6.407  1.00  0.00    -0.248 NA
ATOM     66  C   UNL     1       0.613  -9.559   6.522  1.00  0.00     0.031 C 
ATOM     67  C   UNL     1       5.116 -12.196   8.818  1.00  0.00     0.029 A 
ATOM     68  C   UNL     1       3.830 -11.690   8.625  1.00  0.00     0.049 A 
ATOM     69  H   UNL     1       3.105  -9.998   9.650  1.00  0.00     0.167 HD
ATOM     70  C   UNL     1       1.667 -11.426   7.425  1.00  0.00     0.074 A 
ATOM     71  C   UNL     1       1.438  -9.983   7.485  1.00  0.00     0.031 C 
ATOM     72  C   UNL     1       2.680 -12.201   7.915  1.00  0.00     0.037 A 
BRANCH  59  73
ATOM     73  C   UNL     1       4.747  -7.469   9.475  1.00  0.00     0.057 A 
ATOM     74  C   UNL     1       4.423  -7.663  10.833  1.00  0.00     0.134 A 
ATOM     75  C   UNL     1       4.207  -6.300   8.903  1.00  0.00     0.134 A 
ATOM     76  F   UNL     1       4.892  -8.723  11.511  1.00  0.00    -0.206 F 
ATOM     77  C   UNL     1       3.532  -6.834  11.524  1.00  0.00     0.040 A 
ATOM     78  C   UNL     1       3.355  -5.438   9.600  1.00  0.00     0.040 A 
ATOM     79  F   UNL     1       4.387  -5.965   7.622  1.00  0.00    -0.206 F 
ATOM     80  C   UNL     1       2.979  -5.725  10.900  1.00  0.00     0.006 A 
ENDBRANCH  59  73
BRANCH  60  81
ATOM     81  C   UNL     1      -0.872 -10.230   3.621  1.00  0.00     0.057 A 
ATOM     82  C   UNL     1      -2.143 -10.496   4.152  1.00  0.00     0.134 A 
ATOM     83  C   UNL     1      -0.823  -9.268   2.596  1.00  0.00     0.134 A 
ATOM     84  F   UNL     1      -2.288 -11.369   5.159  1.00  0.00    -0.206 F 
ATOM     85  C   UNL     1      -3.293  -9.826   3.710  1.00  0.00     0.040 A 
ATOM     86  C   UNL     1      -1.964  -8.594   2.143  1.00  0.00     0.040 A 
ATOM     87  F   UNL     1       0.346  -8.885   2.063  1.00  0.00    -0.206 F 
ATOM     88  C   UNL     1      -3.203  -8.862   2.711  1.00  0.00     0.006 A 
ENDBRANCH  60  81
BRANCH  72  89
ATOM     89  C   UNL     1       2.746 -13.644   7.495  1.00  0.00     0.057 A 
ATOM     90  C   UNL     1       2.983 -14.074   6.180  1.00  0.00     0.134 A 
ATOM     91  C   UNL     1       2.765 -14.626   8.491  1.00  0.00     0.134 A 
ATOM     92  F   UNL     1       3.078 -13.201   5.170  1.00  0.00    -0.206 F 
ATOM     93  C   UNL     1       3.203 -15.421   5.870  1.00  0.00     0.040 A 
ATOM     94  C   UNL     1       3.015 -15.968   8.200  1.00  0.00     0.040 A 
ATOM     95  F   UNL     1       2.601 -14.282   9.778  1.00  0.00    -0.206 F 
ATOM     96  C   UNL     1       3.230 -16.371   6.885  1.00  0.00     0.006 A 
ENDBRANCH  72  89
ENDBRANCH  46  47
ENDBRANCH  38  41
ENDBRANCH  36  37
ENDBRANCH  35  36
ENDBRANCH   1  35
TORSDOF 15
