REMARK SMILES Cc1ccc(-c2ncc(C(=O)NCCCCNC(=O)c3ccc(-c4c5nc(c(-c6c(F)cccc6F)c6ccc([nH]6)c(-c6c(F)cccc6F)c6nc(c(-c7c(F)cccc7F)c7ccc4[nH]7)C=C6)C=C5)cc3)c(Nc3ccccc3)n2)cc1
REMARK SMILES IDX 14 1 13 2 12 3 10 4 11 5 9 7 6 8 7 9 82 10 8 11 74 12 5 13
REMARK SMILES IDX 1 14 2 15 3 16 84 17 4 18 83 19 75 20 76 22 77 23 81 24
REMARK SMILES IDX 78 25 80 26 79 27 15 28 16 29 17 30 18 31 19 33 20 34 21 35
REMARK SMILES IDX 73 36 22 37 72 38 23 39 24 40 25 41 66 42 26 43 71 44 65 45
REMARK SMILES IDX 67 46 27 47 70 48 64 49 63 50 28 52 54 53 37 54 53 55 38 56
REMARK SMILES IDX 41 57 52 58 68 59 39 60 40 61 51 63 69 64 42 65 29 66 30 67
REMARK SMILES IDX 35 68 31 69 32 70 34 71 36 72 33 73 55 74 56 75 61 76 57 77
REMARK SMILES IDX 58 78 60 79 62 80 59 81 43 82 44 83 49 84 45 85 46 86 48 87
REMARK SMILES IDX 50 88 47 89
REMARK H PARENT 12 6 75 21 17 32 67 51 41 62
REMARK Flexibility Score: inf
ROOT
ATOM      1  C   UNL     1      -7.692  -0.473   3.407  1.00  0.00     0.023 C 
ENDROOT
BRANCH   1   2
ATOM      2  C   UNL     1      -7.824  -1.264   2.092  1.00  0.00     0.116 C 
BRANCH   2   3
ATOM      3  N   UNL     1      -8.062  -0.388   0.956  1.00  0.00    -0.352 N 
ATOM      4  C   UNL     1      -7.256   0.271   0.059  1.00  0.00     0.256 C 
ATOM      5  O   UNL     1      -7.840   0.988  -0.760  1.00  0.00    -0.269 OA
ATOM      6  H   UNL     1      -9.020  -0.230   0.792  1.00  0.00     0.163 HD
BRANCH   4   7
ATOM      7  C   UNL     1      -5.774   0.184   0.006  1.00  0.00     0.100 A 
ATOM      8  C   UNL     1      -3.050   0.091  -0.085  1.00  0.00     0.161 A 
ATOM      9  N   UNL     1      -3.646  -0.371   1.020  1.00  0.00    -0.236 NA
ATOM     10  N   UNL     1      -3.698   0.612  -1.132  1.00  0.00    -0.210 NA
ATOM     11  C   UNL     1      -4.991  -0.284   1.040  1.00  0.00     0.131 A 
ATOM     12  C   UNL     1      -5.052   0.660  -1.096  1.00  0.00     0.147 A 
BRANCH   8  13
ATOM     13  C   UNL     1      -1.592   0.069  -0.118  1.00  0.00     0.019 A 
ATOM     14  C   UNL     1       2.730   0.007  -0.034  1.00  0.00     0.044 C 
ATOM     15  C   UNL     1       1.232   0.037  -0.073  1.00  0.00    -0.051 A 
ATOM     16  C   UNL     1       0.508  -1.157   0.016  1.00  0.00     0.004 A 
ATOM     17  C   UNL     1       0.539   1.245  -0.211  1.00  0.00     0.004 A 
ATOM     18  C   UNL     1      -0.889  -1.139   0.004  1.00  0.00     0.012 A 
ATOM     19  C   UNL     1      -0.858   1.258  -0.241  1.00  0.00     0.012 A 
ENDBRANCH   8  13
BRANCH  12  20
ATOM     20  N   UNL     1      -5.704   1.220  -2.216  1.00  0.00    -0.339 N 
ATOM     21  H   UNL     1      -6.686   1.270  -2.163  1.00  0.00     0.168 HD
BRANCH  20  22
ATOM     22  C   UNL     1      -5.124   1.716  -3.396  1.00  0.00     0.040 A 
ATOM     23  C   UNL     1      -5.426   3.015  -3.822  1.00  0.00     0.026 A 
ATOM     24  C   UNL     1      -4.155   0.994  -4.104  1.00  0.00     0.026 A 
ATOM     25  C   UNL     1      -4.777   3.578  -4.925  1.00  0.00     0.002 A 
ATOM     26  C   UNL     1      -3.520   1.544  -5.220  1.00  0.00     0.002 A 
ATOM     27  C   UNL     1      -3.826   2.840  -5.626  1.00  0.00     0.000 A 
ENDBRANCH  20  22
ENDBRANCH  12  20
ENDBRANCH   4   7
ENDBRANCH   2   3
ENDBRANCH   1   2
BRANCH   1  28
ATOM     28  C   UNL     1      -8.984   0.214   3.871  1.00  0.00     0.023 C 
BRANCH  28  29
ATOM     29  C   UNL     1     -10.052  -0.759   4.352  1.00  0.00     0.116 C 
BRANCH  29  30
ATOM     30  N   UNL     1      -9.955  -1.139   5.754  1.00  0.00    -0.352 N 
ATOM     31  C   UNL     1     -10.539  -2.202   6.429  1.00  0.00     0.251 C 
ATOM     32  H   UNL     1      -9.390  -0.553   6.307  1.00  0.00     0.163 HD
ATOM     33  O   UNL     1     -10.403  -2.300   7.635  1.00  0.00    -0.269 OA
BRANCH  31  34
ATOM     34  C   UNL     1     -11.203  -3.296   5.665  1.00  0.00     0.039 A 
ATOM     35  C   UNL     1     -10.956  -4.614   6.069  1.00  0.00     0.014 A 
ATOM     36  C   UNL     1     -11.867  -3.055   4.467  1.00  0.00     0.014 A 
ATOM     37  C   UNL     1     -11.117  -5.653   5.154  1.00  0.00     0.010 A 
ATOM     38  C   UNL     1     -11.924  -4.059   3.521  1.00  0.00     0.010 A 
ATOM     39  C   UNL     1     -11.482  -5.343   3.844  1.00  0.00    -0.014 A 
BRANCH  39  40
ATOM     40  C   UNL     1     -11.308  -6.268   2.733  1.00  0.00     0.031 A 
ATOM     41  C   UNL     1     -12.466  -6.966   2.144  1.00  0.00     0.074 A 
ATOM     42  C   UNL     1     -10.077  -6.465   2.210  1.00  0.00     0.049 A 
ATOM     43  N   UNL     1     -12.399  -8.146   1.625  1.00  0.00    -0.248 NA
ATOM     44  C   UNL     1     -13.808  -6.392   2.118  1.00  0.00     0.031 C 
ATOM     45  C   UNL     1      -9.743  -7.178   0.980  1.00  0.00     0.029 A 
ATOM     46  N   UNL     1      -8.840  -6.216   2.816  1.00  0.00    -0.354 N 
ATOM     47  C   UNL     1     -13.586  -8.373   0.976  1.00  0.00     0.074 A 
ATOM     48  C   UNL     1     -14.458  -7.288   1.368  1.00  0.00     0.031 C 
ATOM     49  C   UNL     1      -8.458  -7.561   1.037  1.00  0.00     0.029 A 
ATOM     50  C   UNL     1      -7.962  -7.221   2.359  1.00  0.00     0.049 A 
ATOM     51  H   UNL     1      -8.625  -5.483   3.438  1.00  0.00     0.167 HD
ATOM     52  C   UNL     1     -13.684  -9.368   0.053  1.00  0.00     0.037 A 
ATOM     53  C   UNL     1      -7.366  -8.093   3.222  1.00  0.00     0.037 A 
ATOM     54  C   UNL     1     -12.422 -10.068  -0.131  1.00  0.00     0.049 A 
ATOM     55  C   UNL     1      -7.714  -9.540   2.965  1.00  0.00     0.074 A 
ATOM     56  C   UNL     1     -11.395  -9.900  -1.046  1.00  0.00     0.029 A 
ATOM     57  N   UNL     1     -11.912 -10.860   0.891  1.00  0.00    -0.354 N 
ATOM     58  N   UNL     1      -8.731  -9.922   2.242  1.00  0.00    -0.248 NA
ATOM     59  C   UNL     1      -6.972 -10.670   3.518  1.00  0.00     0.031 C 
ATOM     60  C   UNL     1     -10.244 -10.550  -0.544  1.00  0.00     0.029 A 
ATOM     61  C   UNL     1     -10.577 -11.136   0.664  1.00  0.00     0.049 A 
ATOM     62  H   UNL     1     -12.428 -11.178   1.667  1.00  0.00     0.167 HD
ATOM     63  C   UNL     1      -8.809 -11.291   2.244  1.00  0.00     0.074 A 
ATOM     64  C   UNL     1      -7.673 -11.714   3.040  1.00  0.00     0.031 C 
ATOM     65  C   UNL     1      -9.811 -11.951   1.592  1.00  0.00     0.037 A 
BRANCH  52  66
ATOM     66  C   UNL     1     -14.858  -9.449  -0.880  1.00  0.00     0.057 A 
ATOM     67  C   UNL     1     -14.692  -9.665  -2.259  1.00  0.00     0.134 A 
ATOM     68  C   UNL     1     -16.185  -9.262  -0.459  1.00  0.00     0.134 A 
ATOM     69  F   UNL     1     -13.491  -9.916  -2.794  1.00  0.00    -0.206 F 
ATOM     70  C   UNL     1     -15.756  -9.603  -3.166  1.00  0.00     0.040 A 
ATOM     71  C   UNL     1     -17.253  -9.154  -1.359  1.00  0.00     0.040 A 
ATOM     72  F   UNL     1     -16.486  -9.167   0.846  1.00  0.00    -0.206 F 
ATOM     73  C   UNL     1     -17.038  -9.313  -2.721  1.00  0.00     0.006 A 
ENDBRANCH  52  66
BRANCH  53  74
ATOM     74  C   UNL     1      -7.089  -7.496   4.553  1.00  0.00     0.057 A 
ATOM     75  C   UNL     1      -6.143  -6.458   4.635  1.00  0.00     0.134 A 
ATOM     76  C   UNL     1      -7.983  -7.628   5.619  1.00  0.00     0.134 A 
ATOM     77  F   UNL     1      -5.257  -6.276   3.642  1.00  0.00    -0.206 F 
ATOM     78  C   UNL     1      -6.163  -5.519   5.669  1.00  0.00     0.040 A 
ATOM     79  C   UNL     1      -8.005  -6.698   6.666  1.00  0.00     0.040 A 
ATOM     80  F   UNL     1      -8.927  -8.580   5.604  1.00  0.00    -0.206 F 
ATOM     81  C   UNL     1      -7.123  -5.618   6.670  1.00  0.00     0.006 A 
ENDBRANCH  53  74
BRANCH  65  82
ATOM     82  C   UNL     1     -10.123 -13.425   1.678  1.00  0.00     0.057 A 
ATOM     83  C   UNL     1      -9.875 -14.221   2.803  1.00  0.00     0.134 A 
ATOM     84  C   UNL     1     -10.852 -14.059   0.643  1.00  0.00     0.134 A 
ATOM     85  F   UNL     1      -9.280 -13.725   3.896  1.00  0.00    -0.206 F 
ATOM     86  C   UNL     1     -10.284 -15.560   2.879  1.00  0.00     0.040 A 
ATOM     87  C   UNL     1     -11.310 -15.375   0.730  1.00  0.00     0.040 A 
ATOM     88  F   UNL     1     -11.172 -13.417  -0.491  1.00  0.00    -0.206 F 
ATOM     89  C   UNL     1     -11.017 -16.137   1.849  1.00  0.00     0.006 A 
ENDBRANCH  65  82
ENDBRANCH  39  40
ENDBRANCH  31  34
ENDBRANCH  29  30
ENDBRANCH  28  29
ENDBRANCH   1  28
TORSDOF 14
