REMARK SMILES N#Cc1ccc(C(=O)N2CCC[C@H]2C(=O)NCCCCNC(=O)c2ccc(-c3c4nc(c(-c5c(F)cccc5F)c5ccc([nH]5)c(-c5c(F)cccc5F)c5nc(c(-c6c(F)cccc6F)c6ccc3[nH]6)C=C5)C=C4)cc2)cc1
REMARK SMILES IDX 18 1 17 2 16 3 14 4 15 5 13 7 9 8 10 9 11 10 12 11 7 12 8 13
REMARK SMILES IDX 6 14 3 15 4 16 79 17 5 18 78 19 2 20 1 21 19 22 20 23 21 24
REMARK SMILES IDX 22 25 23 27 24 28 25 29 77 30 26 31 76 32 27 33 28 34 29 35
REMARK SMILES IDX 70 36 30 37 75 38 69 39 71 40 31 41 74 42 68 43 67 44 32 46
REMARK SMILES IDX 58 47 41 48 57 49 42 50 45 51 56 52 72 53 43 54 44 55 55 57
REMARK SMILES IDX 73 58 46 59 33 60 34 61 39 62 35 63 36 64 38 65 40 66 37 67
REMARK SMILES IDX 59 68 60 69 65 70 61 71 62 72 64 73 66 74 63 75 47 76 48 77
REMARK SMILES IDX 53 78 49 79 50 80 52 81 54 82 51 83
REMARK H PARENT 16 6 21 26 71 45 45 56
REMARK Flexibility Score: inf
ROOT
ATOM      1  C   UNL     1       6.547   1.836   3.619  1.00  0.00     0.023 C 
ENDROOT
BRANCH   1   2
ATOM      2  C   UNL     1       6.117   1.302   2.260  1.00  0.00     0.116 C 
BRANCH   2   3
ATOM      3  N   UNL     1       7.078   0.392   1.661  1.00  0.00    -0.354 N 
ATOM      4  C   UNL     1       6.853  -0.812   1.052  1.00  0.00     0.242 C 
ATOM      5  O   UNL     1       7.756  -1.270   0.346  1.00  0.00    -0.273 OA
ATOM      6  H   UNL     1       8.018   0.681   1.697  1.00  0.00     0.163 HD
BRANCH   4   7
ATOM      7  C   UNL     1       5.499  -1.538   1.236  1.00  0.00     0.174 C 
ATOM      8  N   UNL     1       4.537  -1.311   0.152  1.00  0.00    -0.327 N 
ATOM      9  C   UNL     1       4.536  -2.424  -0.772  1.00  0.00     0.121 C 
ATOM     10  C   UNL     1       4.753  -3.609   0.144  1.00  0.00     0.024 C 
ATOM     11  C   UNL     1       5.711  -3.072   1.211  1.00  0.00     0.037 C 
BRANCH   8  12
ATOM     12  C   UNL     1       3.842  -0.133   0.005  1.00  0.00     0.254 C 
ATOM     13  O   UNL     1       4.391   0.962   0.079  1.00  0.00    -0.269 OA
BRANCH  12  14
ATOM     14  C   UNL     1       2.347  -0.162  -0.087  1.00  0.00     0.040 A 
ATOM     15  C   UNL     1      -0.470  -0.029  -0.060  1.00  0.00     0.052 A 
ATOM     16  C   UNL     1       0.283   1.142  -0.147  1.00  0.00     0.020 A 
ATOM     17  C   UNL     1       0.181  -1.263   0.030  1.00  0.00     0.020 A 
ATOM     18  C   UNL     1       1.680   1.073  -0.166  1.00  0.00     0.015 A 
ATOM     19  C   UNL     1       1.581  -1.327   0.038  1.00  0.00     0.015 A 
BRANCH  15  20
ATOM     20  C   UNL     1      -1.903   0.032  -0.043  1.00  0.00     0.099 C 
ATOM     21  N   UNL     1      -3.061   0.076  -0.027  1.00  0.00    -0.192 NA
ENDBRANCH  15  20
ENDBRANCH  12  14
ENDBRANCH   8  12
ENDBRANCH   4   7
ENDBRANCH   2   3
ENDBRANCH   1   2
BRANCH   1  22
ATOM     22  C   UNL     1       7.893   2.557   3.639  1.00  0.00     0.023 C 
BRANCH  22  23
ATOM     23  C   UNL     1       8.036   3.709   2.650  1.00  0.00     0.116 C 
BRANCH  23  24
ATOM     24  N   UNL     1       7.123   4.808   2.922  1.00  0.00    -0.352 N 
ATOM     25  C   UNL     1       7.388   6.132   3.178  1.00  0.00     0.251 C 
ATOM     26  H   UNL     1       6.168   4.566   2.923  1.00  0.00     0.163 HD
ATOM     27  O   UNL     1       6.482   6.876   3.545  1.00  0.00    -0.269 OA
BRANCH  25  28
ATOM     28  C   UNL     1       8.764   6.664   3.044  1.00  0.00     0.039 A 
ATOM     29  C   UNL     1       9.238   7.552   4.013  1.00  0.00     0.014 A 
ATOM     30  C   UNL     1       9.584   6.308   1.970  1.00  0.00     0.014 A 
ATOM     31  C   UNL     1      10.552   8.023   3.942  1.00  0.00     0.010 A 
ATOM     32  C   UNL     1      10.920   6.703   1.952  1.00  0.00     0.010 A 
ATOM     33  C   UNL     1      11.421   7.568   2.935  1.00  0.00    -0.014 A 
BRANCH  33  34
ATOM     34  C   UNL     1      12.849   7.985   2.910  1.00  0.00     0.031 A 
ATOM     35  C   UNL     1      13.401   8.760   1.744  1.00  0.00     0.074 A 
ATOM     36  C   UNL     1      13.663   7.635   3.928  1.00  0.00     0.049 A 
ATOM     37  N   UNL     1      14.622   9.190   1.540  1.00  0.00    -0.248 NA
ATOM     38  C   UNL     1      12.466   9.079   0.654  1.00  0.00     0.031 C 
ATOM     39  C   UNL     1      13.265   6.851   5.098  1.00  0.00     0.029 A 
ATOM     40  N   UNL     1      14.994   7.895   4.142  1.00  0.00    -0.354 N 
ATOM     41  C   UNL     1      14.599   9.830   0.307  1.00  0.00     0.074 A 
ATOM     42  C   UNL     1      13.263   9.671  -0.224  1.00  0.00     0.031 C 
ATOM     43  C   UNL     1      14.316   6.728   5.925  1.00  0.00     0.029 A 
ATOM     44  C   UNL     1      15.474   7.379   5.322  1.00  0.00     0.049 A 
ATOM     45  H   UNL     1      15.552   8.404   3.510  1.00  0.00     0.167 HD
ATOM     46  C   UNL     1      15.590  10.514  -0.314  1.00  0.00     0.037 A 
ATOM     47  C   UNL     1      16.711   7.417   5.856  1.00  0.00     0.037 A 
ATOM     48  C   UNL     1      16.921  10.671   0.214  1.00  0.00     0.049 A 
ATOM     49  C   UNL     1      17.807   8.133   5.114  1.00  0.00     0.074 A 
ATOM     50  C   UNL     1      17.986  11.369  -0.329  1.00  0.00     0.029 A 
ATOM     51  N   UNL     1      17.372  10.116   1.402  1.00  0.00    -0.354 N 
ATOM     52  N   UNL     1      17.752   8.789   3.980  1.00  0.00    -0.248 NA
ATOM     53  C   UNL     1      19.141   8.120   5.733  1.00  0.00     0.031 C 
ATOM     54  C   UNL     1      19.098  11.185   0.498  1.00  0.00     0.029 A 
ATOM     55  C   UNL     1      18.707  10.434   1.595  1.00  0.00     0.049 A 
ATOM     56  H   UNL     1      16.825   9.576   2.017  1.00  0.00     0.167 HD
ATOM     57  C   UNL     1      19.028   9.299   3.772  1.00  0.00     0.074 A 
ATOM     58  C   UNL     1      19.829   8.893   4.907  1.00  0.00     0.031 C 
ATOM     59  C   UNL     1      19.494  10.037   2.735  1.00  0.00     0.037 A 
BRANCH  46  60
ATOM     60  C   UNL     1      15.270  11.152  -1.637  1.00  0.00     0.057 A 
ATOM     61  C   UNL     1      14.389  12.238  -1.739  1.00  0.00     0.134 A 
ATOM     62  C   UNL     1      15.885  10.711  -2.816  1.00  0.00     0.134 A 
ATOM     63  F   UNL     1      13.758  12.707  -0.652  1.00  0.00    -0.206 F 
ATOM     64  C   UNL     1      14.110  12.842  -2.967  1.00  0.00     0.040 A 
ATOM     65  C   UNL     1      15.639  11.328  -4.044  1.00  0.00     0.040 A 
ATOM     66  F   UNL     1      16.747   9.684  -2.793  1.00  0.00    -0.206 F 
ATOM     67  C   UNL     1      14.743  12.392  -4.123  1.00  0.00     0.006 A 
ENDBRANCH  46  60
BRANCH  47  68
ATOM     68  C   UNL     1      16.989   6.769   7.166  1.00  0.00     0.057 A 
ATOM     69  C   UNL     1      17.363   7.526   8.283  1.00  0.00     0.134 A 
ATOM     70  C   UNL     1      16.938   5.378   7.322  1.00  0.00     0.134 A 
ATOM     71  F   UNL     1      17.449   8.862   8.196  1.00  0.00    -0.206 F 
ATOM     72  C   UNL     1      17.713   6.924   9.493  1.00  0.00     0.040 A 
ATOM     73  C   UNL     1      17.251   4.765   8.536  1.00  0.00     0.040 A 
ATOM     74  F   UNL     1      16.579   4.593   6.295  1.00  0.00    -0.206 F 
ATOM     75  C   UNL     1      17.655   5.538   9.622  1.00  0.00     0.006 A 
ENDBRANCH  47  68
BRANCH  59  76
ATOM     76  C   UNL     1      20.922  10.502   2.805  1.00  0.00     0.057 A 
ATOM     77  C   UNL     1      22.003   9.616   2.708  1.00  0.00     0.134 A 
ATOM     78  C   UNL     1      21.218  11.864   2.948  1.00  0.00     0.134 A 
ATOM     79  F   UNL     1      21.793   8.297   2.580  1.00  0.00    -0.206 F 
ATOM     80  C   UNL     1      23.324  10.063   2.788  1.00  0.00     0.040 A 
ATOM     81  C   UNL     1      22.534  12.327   2.992  1.00  0.00     0.040 A 
ATOM     82  F   UNL     1      20.233  12.771   3.035  1.00  0.00    -0.206 F 
ATOM     83  C   UNL     1      23.591  11.424   2.924  1.00  0.00     0.006 A 
ENDBRANCH  59  76
ENDBRANCH  33  34
ENDBRANCH  25  28
ENDBRANCH  23  24
ENDBRANCH  22  23
ENDBRANCH   1  22
TORSDOF 14
