REMARK SMILES O=C(NCCCCNC(=O)c1ccc(-c2c3nc(c(-c4c(F)cccc4F)c4ccc([nH]4)c(-c4c(F)cccc4F)c4nc(c(-c5c(F)cccc5F)c5ccc2[nH]5)C=C4)C=C3)cc1)c1ccc(N/C=C\C(=O)c2ccco2)cc1
REMARK SMILES IDX 4 1 3 2 1 3 2 4 65 6 66 7 80 8 67 9 79 10 68 11 69 12 70 14
REMARK SMILES IDX 71 15 72 16 73 17 74 18 75 19 78 20 76 21 77 22 5 23 6 24
REMARK SMILES IDX 7 25 8 26 9 27 10 29 11 30 12 31 64 32 13 33 63 34 14 35
REMARK SMILES IDX 15 36 16 37 57 38 17 39 62 40 56 41 58 42 18 43 61 44 55 45
REMARK SMILES IDX 54 46 19 48 45 49 28 50 44 51 29 52 32 53 43 54 59 55 30 56
REMARK SMILES IDX 31 57 42 59 60 60 33 61 20 62 21 63 26 64 22 65 23 66 25 67
REMARK SMILES IDX 27 68 24 69 46 70 47 71 52 72 48 73 49 74 51 75 53 76 50 77
REMARK SMILES IDX 34 78 35 79 40 80 36 81 37 82 39 83 41 84 38 85
REMARK H PARENT 3 5 69 13 8 28 58 47 32 58
REMARK Flexibility Score: inf
ROOT
ATOM      1  C   UNL     1       4.621   1.016   0.742  1.00  0.00     0.116 C 
ENDROOT
BRANCH   1   2
ATOM      2  N   UNL     1       3.179   0.853   0.802  1.00  0.00    -0.352 N 
ATOM      3  O   UNL     1       1.172  -0.003   0.219  1.00  0.00    -0.269 OA
ATOM      4  C   UNL     1       2.396  -0.082   0.174  1.00  0.00     0.251 C 
ATOM      5  H   UNL     1       2.699   1.500   1.369  1.00  0.00     0.163 HD
BRANCH   4   6
ATOM      6  C   UNL     1       3.035  -1.170  -0.591  1.00  0.00     0.039 A 
ATOM      7  C   UNL     1       3.974  -2.016   0.006  1.00  0.00     0.016 A 
ATOM      8  C   UNL     1       2.692  -1.334  -1.930  1.00  0.00     0.016 A 
ATOM      9  C   UNL     1       4.628  -2.982  -0.763  1.00  0.00     0.027 A 
ATOM     10  C   UNL     1       3.335  -2.315  -2.685  1.00  0.00     0.027 A 
ATOM     11  C   UNL     1       4.317  -3.147  -2.117  1.00  0.00     0.038 A 
BRANCH  11  12
ATOM     12  N   UNL     1       4.997  -4.033  -2.968  1.00  0.00    -0.362 N 
ATOM     13  H   UNL     1       4.506  -4.297  -3.780  1.00  0.00     0.166 HD
BRANCH  12  14
ATOM     14  C   UNL     1       6.244  -4.583  -2.834  1.00  0.00     0.087 C 
ATOM     15  C   UNL     1       6.958  -5.308  -3.708  1.00  0.00     0.074 C 
BRANCH  15  16
ATOM     16  C   UNL     1       6.575  -5.694  -5.099  1.00  0.00     0.222 C 
ATOM     17  O   UNL     1       7.051  -6.739  -5.543  1.00  0.00    -0.286 OA
BRANCH  16  18
ATOM     18  C   UNL     1       5.687  -4.836  -5.853  1.00  0.00     0.173 A 
ATOM     19  C   UNL     1       5.636  -3.463  -6.029  1.00  0.00     0.054 A 
ATOM     20  O   UNL     1       4.630  -5.411  -6.504  1.00  0.00    -0.461 OA
ATOM     21  C   UNL     1       4.475  -3.191  -6.793  1.00  0.00     0.043 A 
ATOM     22  C   UNL     1       3.899  -4.410  -7.056  1.00  0.00     0.196 A 
ENDBRANCH  16  18
ENDBRANCH  15  16
ENDBRANCH  12  14
ENDBRANCH  11  12
ENDBRANCH   4   6
ENDBRANCH   1   2
BRANCH   1  23
ATOM     23  C   UNL     1       5.037   2.446   0.409  1.00  0.00     0.023 C 
BRANCH  23  24
ATOM     24  C   UNL     1       4.596   3.511   1.413  1.00  0.00     0.023 C 
BRANCH  24  25
ATOM     25  C   UNL     1       4.943   3.232   2.872  1.00  0.00     0.116 C 
BRANCH  25  26
ATOM     26  N   UNL     1       6.366   3.038   3.096  1.00  0.00    -0.352 N 
ATOM     27  C   UNL     1       7.192   3.584   4.048  1.00  0.00     0.251 C 
ATOM     28  H   UNL     1       6.806   2.420   2.469  1.00  0.00     0.163 HD
ATOM     29  O   UNL     1       8.399   3.368   3.997  1.00  0.00    -0.269 OA
BRANCH  27  30
ATOM     30  C   UNL     1       6.648   4.461   5.110  1.00  0.00     0.039 A 
ATOM     31  C   UNL     1       7.354   5.622   5.437  1.00  0.00     0.014 A 
ATOM     32  C   UNL     1       5.467   4.150   5.790  1.00  0.00     0.014 A 
ATOM     33  C   UNL     1       6.842   6.502   6.392  1.00  0.00     0.010 A 
ATOM     34  C   UNL     1       4.920   5.064   6.690  1.00  0.00     0.010 A 
ATOM     35  C   UNL     1       5.601   6.250   7.000  1.00  0.00    -0.014 A 
BRANCH  35  36
ATOM     36  C   UNL     1       5.007   7.238   7.936  1.00  0.00     0.031 A 
ATOM     37  C   UNL     1       4.813   6.906   9.389  1.00  0.00     0.074 A 
ATOM     38  C   UNL     1       4.607   8.434   7.464  1.00  0.00     0.049 A 
ATOM     39  N   UNL     1       4.353   7.663  10.354  1.00  0.00    -0.248 NA
ATOM     40  C   UNL     1       5.156   5.539   9.811  1.00  0.00     0.031 C 
ATOM     41  C   UNL     1       4.673   8.855   6.062  1.00  0.00     0.029 A 
ATOM     42  N   UNL     1       4.071   9.519   8.111  1.00  0.00    -0.354 N 
ATOM     43  C   UNL     1       4.339   6.864  11.490  1.00  0.00     0.074 A 
ATOM     44  C   UNL     1       4.789   5.549  11.084  1.00  0.00     0.031 C 
ATOM     45  C   UNL     1       4.240  10.122   5.964  1.00  0.00     0.029 A 
ATOM     46  C   UNL     1       3.846  10.594   7.287  1.00  0.00     0.049 A 
ATOM     47  H   UNL     1       3.868   9.526   9.074  1.00  0.00     0.167 HD
ATOM     48  C   UNL     1       4.002   7.198  12.759  1.00  0.00     0.037 A 
ATOM     49  C   UNL     1       3.391  11.829   7.569  1.00  0.00     0.037 A 
ATOM     50  C   UNL     1       3.582   8.513  13.168  1.00  0.00     0.049 A 
ATOM     51  C   UNL     1       3.061  12.187   8.989  1.00  0.00     0.074 A 
ATOM     52  C   UNL     1       3.300   8.972  14.444  1.00  0.00     0.029 A 
ATOM     53  N   UNL     1       3.380   9.581  12.307  1.00  0.00    -0.354 N 
ATOM     54  N   UNL     1       3.142  11.449  10.069  1.00  0.00    -0.248 NA
ATOM     55  C   UNL     1       2.587  13.557   9.230  1.00  0.00     0.031 C 
ATOM     56  C   UNL     1       2.890  10.307  14.350  1.00  0.00     0.029 A 
ATOM     57  C   UNL     1       2.957  10.691  13.021  1.00  0.00     0.049 A 
ATOM     58  H   UNL     1       3.517   9.554  11.333  1.00  0.00     0.167 HD
ATOM     59  C   UNL     1       2.756  12.270  11.120  1.00  0.00     0.074 A 
ATOM     60  C   UNL     1       2.456  13.567  10.549  1.00  0.00     0.031 C 
ATOM     61  C   UNL     1       2.659  11.976  12.440  1.00  0.00     0.037 A 
BRANCH  48  62
ATOM     62  C   UNL     1       4.081   6.119  13.799  1.00  0.00     0.057 A 
ATOM     63  C   UNL     1       5.309   5.619  14.253  1.00  0.00     0.134 A 
ATOM     64  C   UNL     1       2.917   5.590  14.371  1.00  0.00     0.134 A 
ATOM     65  F   UNL     1       6.461   6.074  13.737  1.00  0.00    -0.206 F 
ATOM     66  C   UNL     1       5.376   4.612  15.217  1.00  0.00     0.040 A 
ATOM     67  C   UNL     1       2.972   4.601  15.354  1.00  0.00     0.040 A 
ATOM     68  F   UNL     1       1.709   6.028  13.986  1.00  0.00    -0.206 F 
ATOM     69  C   UNL     1       4.204   4.103  15.774  1.00  0.00     0.006 A 
ENDBRANCH  48  62
BRANCH  49  70
ATOM     70  C   UNL     1       3.282  12.841   6.490  1.00  0.00     0.057 A 
ATOM     71  C   UNL     1       4.183  13.910   6.418  1.00  0.00     0.134 A 
ATOM     72  C   UNL     1       2.283  12.769   5.513  1.00  0.00     0.134 A 
ATOM     73  F   UNL     1       5.150  14.040   7.338  1.00  0.00    -0.206 F 
ATOM     74  C   UNL     1       4.086  14.881   5.421  1.00  0.00     0.040 A 
ATOM     75  C   UNL     1       2.187  13.722   4.498  1.00  0.00     0.040 A 
ATOM     76  F   UNL     1       1.395  11.764   5.525  1.00  0.00    -0.206 F 
ATOM     77  C   UNL     1       3.088  14.785   4.454  1.00  0.00     0.006 A 
ENDBRANCH  49  70
BRANCH  61  78
ATOM     78  C   UNL     1       2.235  13.088  13.352  1.00  0.00     0.057 A 
ATOM     79  C   UNL     1       0.918  13.563  13.375  1.00  0.00     0.134 A 
ATOM     80  C   UNL     1       3.156  13.689  14.220  1.00  0.00     0.134 A 
ATOM     81  F   UNL     1      -0.008  13.040  12.557  1.00  0.00    -0.206 F 
ATOM     82  C   UNL     1       0.538  14.619  14.206  1.00  0.00     0.040 A 
ATOM     83  C   UNL     1       2.782  14.728  15.073  1.00  0.00     0.040 A 
ATOM     84  F   UNL     1       4.432  13.276  14.253  1.00  0.00    -0.206 F 
ATOM     85  C   UNL     1       1.472  15.202  15.060  1.00  0.00     0.006 A 
ENDBRANCH  61  78
ENDBRANCH  35  36
ENDBRANCH  27  30
ENDBRANCH  25  26
ENDBRANCH  24  25
ENDBRANCH  23  24
ENDBRANCH   1  23
TORSDOF 15
