REMARK SMILES CC(=O)O[C@@H]1CC[C@@]23C(=O)O[C@]4(CC[C@]2(O)C1)[C@H]3CC[C@]1(C)[C@H](C(=O)NCCCCNC(=O)c2ccc(-c3c5nc(c(-c6c(F)cccc6F)c6ccc([nH]6)c(-c6c(F)cccc6F)c6nc(c(-c7c(F)cccc7F)c7ccc3[nH]7)C=C6)C=C5)cc2)CC[C@@H]14
REMARK SMILES IDX 28 1 27 2 26 3 24 4 25 5 23 7 5 8 6 9 17 10 7 11 15 12 8 13
REMARK SMILES IDX 14 14 9 15 18 16 13 17 10 18 11 19 12 20 19 21 90 22 20 23
REMARK SMILES IDX 21 24 89 25 22 26 88 27 4 28 2 29 1 30 3 31 16 32 29 34
REMARK SMILES IDX 30 35 31 36 32 37 33 39 34 40 35 41 87 42 36 43 86 44 37 45
REMARK SMILES IDX 38 46 39 47 80 48 40 49 85 50 79 51 81 52 41 53 84 54 78 55
REMARK SMILES IDX 77 56 42 58 68 59 51 60 67 61 52 62 55 63 66 64 82 65 53 66
REMARK SMILES IDX 54 67 65 69 83 70 56 71 43 72 44 73 49 74 45 75 46 76 48 77
REMARK SMILES IDX 50 78 47 79 69 80 70 81 75 82 71 83 72 84 74 85 76 86 73 87
REMARK SMILES IDX 57 88 58 89 63 90 59 91 60 92 62 93 64 94 61 95
REMARK H PARENT 26 6 16 33 31 38 81 57 55 68
REMARK Flexibility Score: inf
ROOT
ATOM      1  C   UNL     1      -5.568   8.283  -3.696  1.00  0.00     0.023 C 
ENDROOT
BRANCH   1   2
ATOM      2  C   UNL     1      -4.205   8.822  -3.225  1.00  0.00     0.116 C 
BRANCH   2   3
ATOM      3  N   UNL     1      -4.402   9.752  -2.130  1.00  0.00    -0.356 N 
ATOM      4  C   UNL     1      -4.452   9.623  -0.784  1.00  0.00     0.223 C 
ATOM      5  O   UNL     1      -4.898  10.618  -0.193  1.00  0.00    -0.275 OA
ATOM      6  H   UNL     1      -4.526  10.681  -2.432  1.00  0.00     0.163 HD
BRANCH   4   7
ATOM      7  C   UNL     1      -3.944   8.444   0.063  1.00  0.00     0.085 C 
ATOM      8  C   UNL     1      -0.180   1.856  -2.737  1.00  0.00     0.179 C 
ATOM      9  C   UNL     1      -0.020   3.354  -2.888  1.00  0.00     0.047 C 
ATOM     10  C   UNL     1      -1.664   1.506  -2.862  1.00  0.00     0.081 C 
ATOM     11  C   UNL     1      -0.923   4.062  -1.888  1.00  0.00     0.026 C 
ATOM     12  C   UNL     1      -2.666   2.327  -2.012  1.00  0.00     0.085 C 
ATOM     13  C   UNL     1      -2.616   3.799  -2.172  1.00  0.00     0.103 C 
ATOM     14  C   UNL     1      -2.465   2.234  -0.418  1.00  0.00     0.041 C 
ATOM     15  C   UNL     1      -2.706   5.144  -2.683  1.00  0.00     0.316 C 
ATOM     16  C   UNL     1      -3.969   4.242  -1.148  1.00  0.00     0.054 C 
ATOM     17  C   UNL     1      -2.433   3.703   0.418  1.00  0.00     0.052 C 
ATOM     18  O   UNL     1      -2.675   5.620  -3.803  1.00  0.00    -0.251 OA
ATOM     19  O   UNL     1      -2.546   5.812  -1.454  1.00  0.00    -0.458 OA
ATOM     20  C   UNL     1      -3.071   5.012  -0.308  1.00  0.00     0.120 C 
ATOM     21  C   UNL     1      -5.223   5.032  -1.564  1.00  0.00     0.009 C 
ATOM     22  C   UNL     1      -3.497   6.077   0.689  1.00  0.00     0.040 C 
ATOM     23  C   UNL     1      -5.294   6.502  -1.109  1.00  0.00     0.008 C 
ATOM     24  C   UNL     1      -4.631   7.021   0.181  1.00  0.00    -0.014 C 
ATOM     25  C   UNL     1      -2.273   7.008   0.929  1.00  0.00     0.009 C 
ATOM     26  C   UNL     1      -5.709   7.142   1.282  1.00  0.00     0.012 C 
ATOM     27  C   UNL     1      -2.447   8.194  -0.026  1.00  0.00     0.014 C 
BRANCH   8  28
ATOM     28  O   UNL     1       0.355   1.493  -1.446  1.00  0.00    -0.462 OA
BRANCH  28  29
ATOM     29  C   UNL     1       0.643   0.181  -1.241  1.00  0.00     0.302 C 
ATOM     30  C   UNL     1       1.137  -0.028   0.161  1.00  0.00     0.139 C 
ATOM     31  O   UNL     1       0.526  -0.707  -2.072  1.00  0.00    -0.253 OA
ENDBRANCH  28  29
ENDBRANCH   8  28
BRANCH  12  32
ATOM     32  O   UNL     1      -3.968   1.845  -2.363  1.00  0.00    -0.389 OA
ATOM     33  H   UNL     1      -4.639   2.329  -1.856  1.00  0.00     0.211 HD
ENDBRANCH  12  32
ENDBRANCH   4   7
ENDBRANCH   2   3
ENDBRANCH   1   2
BRANCH   1  34
ATOM     34  C   UNL     1      -6.317   9.172  -4.673  1.00  0.00     0.023 C 
BRANCH  34  35
ATOM     35  C   UNL     1      -5.624   9.332  -6.010  1.00  0.00     0.116 C 
BRANCH  35  36
ATOM     36  N   UNL     1      -5.411   8.068  -6.707  1.00  0.00    -0.352 N 
ATOM     37  C   UNL     1      -5.694   7.760  -8.017  1.00  0.00     0.251 C 
ATOM     38  H   UNL     1      -5.014   7.344  -6.171  1.00  0.00     0.163 HD
ATOM     39  O   UNL     1      -5.579   6.619  -8.446  1.00  0.00    -0.269 OA
BRANCH  37  40
ATOM     40  C   UNL     1      -6.192   8.840  -8.889  1.00  0.00     0.039 A 
ATOM     41  C   UNL     1      -7.396   8.659  -9.570  1.00  0.00     0.014 A 
ATOM     42  C   UNL     1      -5.535  10.073  -8.907  1.00  0.00     0.014 A 
ATOM     43  C   UNL     1      -8.000   9.755 -10.183  1.00  0.00     0.010 A 
ATOM     44  C   UNL     1      -6.189  11.181  -9.425  1.00  0.00     0.010 A 
ATOM     45  C   UNL     1      -7.433  11.035 -10.057  1.00  0.00    -0.014 A 
BRANCH  45  46
ATOM     46  C   UNL     1      -8.141  12.244 -10.545  1.00  0.00     0.031 A 
ATOM     47  C   UNL     1      -7.510  13.106 -11.600  1.00  0.00     0.074 A 
ATOM     48  C   UNL     1      -9.306  12.608  -9.973  1.00  0.00     0.049 A 
ATOM     49  N   UNL     1      -7.929  14.241 -12.097  1.00  0.00    -0.248 NA
ATOM     50  C   UNL     1      -6.222  12.649 -12.147  1.00  0.00     0.031 C 
ATOM     51  C   UNL     1      -9.984  11.888  -8.892  1.00  0.00     0.029 A 
ATOM     52  N   UNL     1     -10.121  13.685 -10.213  1.00  0.00    -0.354 N 
ATOM     53  C   UNL     1      -6.954  14.636 -13.002  1.00  0.00     0.074 A 
ATOM     54  C   UNL     1      -5.894  13.656 -12.942  1.00  0.00     0.031 C 
ATOM     55  C   UNL     1     -11.124  12.526  -8.584  1.00  0.00     0.029 A 
ATOM     56  C   UNL     1     -11.236  13.723  -9.410  1.00  0.00     0.049 A 
ATOM     57  H   UNL     1      -9.925  14.367 -10.895  1.00  0.00     0.167 HD
ATOM     58  C   UNL     1      -6.956  15.708 -13.829  1.00  0.00     0.037 A 
ATOM     59  C   UNL     1     -12.232  14.627  -9.342  1.00  0.00     0.037 A 
ATOM     60  C   UNL     1      -8.024  16.668 -13.901  1.00  0.00     0.049 A 
ATOM     61  C   UNL     1     -12.202  15.816 -10.262  1.00  0.00     0.074 A 
ATOM     62  C   UNL     1      -8.156  17.747 -14.756  1.00  0.00     0.029 A 
ATOM     63  N   UNL     1      -9.142  16.667 -13.080  1.00  0.00    -0.354 N 
ATOM     64  N   UNL     1     -11.315  16.133 -11.174  1.00  0.00    -0.248 NA
ATOM     65  C   UNL     1     -13.311  16.772 -10.144  1.00  0.00     0.031 C 
ATOM     66  C   UNL     1      -9.329  18.430 -14.418  1.00  0.00     0.029 A 
ATOM     67  C   UNL     1      -9.953  17.747 -13.387  1.00  0.00     0.049 A 
ATOM     68  H   UNL     1      -9.331  15.998 -12.382  1.00  0.00     0.167 HD
ATOM     69  C   UNL     1     -11.766  17.313 -11.750  1.00  0.00     0.074 A 
ATOM     70  C   UNL     1     -13.018  17.642 -11.100  1.00  0.00     0.031 C 
ATOM     71  C   UNL     1     -11.194  18.060 -12.725  1.00  0.00     0.037 A 
BRANCH  58  72
ATOM     72  C   UNL     1      -5.767  15.890 -14.727  1.00  0.00     0.057 A 
ATOM     73  C   UNL     1      -5.516  15.029 -15.803  1.00  0.00     0.134 A 
ATOM     74  C   UNL     1      -4.882  16.958 -14.534  1.00  0.00     0.134 A 
ATOM     75  F   UNL     1      -6.317  13.977 -16.035  1.00  0.00    -0.206 F 
ATOM     76  C   UNL     1      -4.413  15.208 -16.640  1.00  0.00     0.040 A 
ATOM     77  C   UNL     1      -3.792  17.164 -15.381  1.00  0.00     0.040 A 
ATOM     78  F   UNL     1      -5.066  17.822 -13.524  1.00  0.00    -0.206 F 
ATOM     79  C   UNL     1      -3.552  16.284 -16.435  1.00  0.00     0.006 A 
ENDBRANCH  58  72
BRANCH  59  80
ATOM     80  C   UNL     1     -13.345  14.441  -8.377  1.00  0.00     0.057 A 
ATOM     81  C   UNL     1     -14.640  14.142  -8.817  1.00  0.00     0.134 A 
ATOM     82  C   UNL     1     -13.148  14.569  -6.997  1.00  0.00     0.134 A 
ATOM     83  F   UNL     1     -14.897  14.026 -10.129  1.00  0.00    -0.206 F 
ATOM     84  C   UNL     1     -15.702  13.996  -7.923  1.00  0.00     0.040 A 
ATOM     85  C   UNL     1     -14.196  14.399  -6.090  1.00  0.00     0.040 A 
ATOM     86  F   UNL     1     -11.931  14.848  -6.509  1.00  0.00    -0.206 F 
ATOM     87  C   UNL     1     -15.479  14.120  -6.553  1.00  0.00     0.006 A 
ENDBRANCH  59  80
BRANCH  71  88
ATOM     88  C   UNL     1     -11.925  19.297 -13.156  1.00  0.00     0.057 A 
ATOM     89  C   UNL     1     -11.992  20.434 -12.342  1.00  0.00     0.134 A 
ATOM     90  C   UNL     1     -12.535  19.365 -14.415  1.00  0.00     0.134 A 
ATOM     91  F   UNL     1     -11.440  20.429 -11.119  1.00  0.00    -0.206 F 
ATOM     92  C   UNL     1     -12.659  21.588 -12.755  1.00  0.00     0.040 A 
ATOM     93  C   UNL     1     -13.180  20.523 -14.851  1.00  0.00     0.040 A 
ATOM     94  F   UNL     1     -12.499  18.314 -15.248  1.00  0.00    -0.206 F 
ATOM     95  C   UNL     1     -13.249  21.637 -14.017  1.00  0.00     0.006 A 
ENDBRANCH  71  88
ENDBRANCH  45  46
ENDBRANCH  37  40
ENDBRANCH  35  36
ENDBRANCH  34  35
ENDBRANCH   1  34
TORSDOF 14
