REMARK SMILES O=C(CCCc1nc2cc(Cl)ccc2[nH]1)NCCCCNC(=O)c1ccc(-c2c3nc(c(-c4c(F)cccc4F)c4ccc([nH]4)c(-c4c(F)cccc4F)c4nc(c(-c5c(F)cccc5F)c5ccc2[nH]5)C=C4)C=C3)cc1
REMARK SMILES IDX 18 1 17 2 16 3 1 4 2 5 3 7 4 8 5 9 6 10 7 11 15 12 8 13
REMARK SMILES IDX 14 14 9 16 13 17 10 18 12 19 11 20 19 21 20 22 21 23 22 24
REMARK SMILES IDX 23 26 24 27 25 28 77 29 26 30 76 31 27 32 28 33 29 34 70 35
REMARK SMILES IDX 30 36 75 37 69 38 71 39 31 40 74 41 68 42 67 43 32 45 58 46
REMARK SMILES IDX 41 47 57 48 42 49 45 50 56 51 72 52 43 53 44 54 55 56 73 57
REMARK SMILES IDX 46 58 33 59 34 60 39 61 35 62 36 63 38 64 40 65 37 66 59 67
REMARK SMILES IDX 60 68 65 69 61 70 62 71 64 72 66 73 63 74 47 75 48 76 53 77
REMARK SMILES IDX 49 78 50 79 52 80 54 81 51 82
REMARK H PARENT 16 6 15 15 21 25 71 44 45 55
REMARK Flexibility Score: inf
ROOT
ATOM      1  C   UNL     1       2.338  -2.336   2.817  1.00  0.00     0.023 C 
ENDROOT
BRANCH   1   2
ATOM      2  C   UNL     1       1.969  -0.967   2.253  1.00  0.00     0.116 C 
BRANCH   2   3
ATOM      3  N   UNL     1       2.583  -0.691   0.973  1.00  0.00    -0.356 N 
ATOM      4  O   UNL     1       0.976   0.809   0.304  1.00  0.00    -0.275 OA
ATOM      5  C   UNL     1       2.027   0.211   0.095  1.00  0.00     0.220 C 
ATOM      6  H   UNL     1       3.414  -1.157   0.725  1.00  0.00     0.163 HD
BRANCH   5   7
ATOM      7  C   UNL     1       2.851   0.460  -1.150  1.00  0.00     0.100 C 
BRANCH   7   8
ATOM      8  C   UNL     1       3.843   1.611  -0.959  1.00  0.00     0.018 C 
BRANCH   8   9
ATOM      9  C   UNL     1       4.937   1.380   0.092  1.00  0.00     0.076 C 
BRANCH   9  10
ATOM     10  C   UNL     1       5.746   0.162  -0.196  1.00  0.00     0.107 A 
ATOM     11  N   UNL     1       5.391  -1.084   0.052  1.00  0.00    -0.233 NA
ATOM     12  N   UNL     1       6.973   0.213  -0.810  1.00  0.00    -0.342 N 
ATOM     13  C   UNL     1       6.390  -1.864  -0.482  1.00  0.00     0.090 A 
ATOM     14  C   UNL     1       7.399  -1.074  -1.023  1.00  0.00     0.066 A 
ATOM     15  H   UNL     1       7.463   1.031  -1.055  1.00  0.00     0.168 HD
ATOM     16  C   UNL     1       6.495  -3.259  -0.551  1.00  0.00     0.051 A 
ATOM     17  C   UNL     1       8.540  -1.595  -1.635  1.00  0.00     0.030 A 
ATOM     18  C   UNL     1       7.625  -3.803  -1.169  1.00  0.00     0.043 A 
ATOM     19  C   UNL     1       8.631  -2.990  -1.699  1.00  0.00     0.023 A 
ATOM     20  Cl  UNL     1       7.776  -5.516  -1.288  1.00  0.00    -0.084 Cl
ENDBRANCH   9  10
ENDBRANCH   8   9
ENDBRANCH   7   8
ENDBRANCH   5   7
ENDBRANCH   2   3
ENDBRANCH   1   2
BRANCH   1  21
ATOM     21  C   UNL     1       3.821  -2.536   3.143  1.00  0.00     0.023 C 
BRANCH  21  22
ATOM     22  C   UNL     1       4.415  -1.551   4.146  1.00  0.00     0.116 C 
BRANCH  22  23
ATOM     23  N   UNL     1       3.833  -1.683   5.474  1.00  0.00    -0.352 N 
ATOM     24  C   UNL     1       4.444  -1.892   6.686  1.00  0.00     0.251 C 
ATOM     25  H   UNL     1       2.851  -1.612   5.509  1.00  0.00     0.163 HD
ATOM     26  O   UNL     1       3.762  -2.134   7.682  1.00  0.00    -0.269 OA
BRANCH  24  27
ATOM     27  C   UNL     1       5.918  -1.853   6.808  1.00  0.00     0.039 A 
ATOM     28  C   UNL     1       6.557  -2.832   7.575  1.00  0.00     0.014 A 
ATOM     29  C   UNL     1       6.672  -0.849   6.194  1.00  0.00     0.014 A 
ATOM     30  C   UNL     1       7.952  -2.847   7.668  1.00  0.00     0.010 A 
ATOM     31  C   UNL     1       8.065  -0.902   6.233  1.00  0.00     0.010 A 
ATOM     32  C   UNL     1       8.720  -1.904   6.966  1.00  0.00    -0.014 A 
BRANCH  32  33
ATOM     33  C   UNL     1      10.206  -1.959   6.975  1.00  0.00     0.031 A 
ATOM     34  C   UNL     1      11.007  -0.844   7.585  1.00  0.00     0.074 A 
ATOM     35  C   UNL     1      10.838  -2.984   6.369  1.00  0.00     0.049 A 
ATOM     36  N   UNL     1      12.306  -0.675   7.611  1.00  0.00    -0.248 NA
ATOM     37  C   UNL     1      10.248   0.239   8.230  1.00  0.00     0.031 C 
ATOM     38  C   UNL     1      10.180  -4.107   5.699  1.00  0.00     0.029 A 
ATOM     39  N   UNL     1      12.177  -3.238   6.205  1.00  0.00    -0.354 N 
ATOM     40  C   UNL     1      12.518   0.534   8.261  1.00  0.00     0.074 A 
ATOM     41  C   UNL     1      11.214   1.080   8.570  1.00  0.00     0.031 C 
ATOM     42  C   UNL     1      11.116  -4.937   5.211  1.00  0.00     0.029 A 
ATOM     43  C   UNL     1      12.437  -4.388   5.500  1.00  0.00     0.049 A 
ATOM     44  H   UNL     1      12.884  -2.651   6.560  1.00  0.00     0.167 HD
ATOM     45  C   UNL     1      13.692   1.126   8.588  1.00  0.00     0.037 A 
ATOM     46  C   UNL     1      13.607  -4.934   5.118  1.00  0.00     0.037 A 
ATOM     47  C   UNL     1      14.990   0.573   8.302  1.00  0.00     0.049 A 
ATOM     48  C   UNL     1      14.896  -4.258   5.492  1.00  0.00     0.074 A 
ATOM     49  C   UNL     1      16.235   1.074   8.641  1.00  0.00     0.029 A 
ATOM     50  N   UNL     1      15.211  -0.607   7.607  1.00  0.00    -0.354 N 
ATOM     51  N   UNL     1      15.082  -3.142   6.154  1.00  0.00    -0.248 NA
ATOM     52  C   UNL     1      16.139  -4.919   5.069  1.00  0.00     0.031 C 
ATOM     53  C   UNL     1      17.210   0.218   8.118  1.00  0.00     0.029 A 
ATOM     54  C   UNL     1      16.572  -0.840   7.491  1.00  0.00     0.049 A 
ATOM     55  H   UNL     1      14.505  -1.192   7.249  1.00  0.00     0.167 HD
ATOM     56  C   UNL     1      16.458  -2.981   6.250  1.00  0.00     0.074 A 
ATOM     57  C   UNL     1      17.060  -4.120   5.589  1.00  0.00     0.031 C 
ATOM     58  C   UNL     1      17.159  -1.979   6.834  1.00  0.00     0.037 A 
BRANCH  45  59
ATOM     59  C   UNL     1      13.624   2.444   9.303  1.00  0.00     0.057 A 
ATOM     60  C   UNL     1      13.199   2.540  10.635  1.00  0.00     0.134 A 
ATOM     61  C   UNL     1      14.020   3.627   8.665  1.00  0.00     0.134 A 
ATOM     62  F   UNL     1      12.796   1.446  11.299  1.00  0.00    -0.206 F 
ATOM     63  C   UNL     1      13.144   3.767  11.298  1.00  0.00     0.040 A 
ATOM     64  C   UNL     1      13.995   4.856   9.326  1.00  0.00     0.040 A 
ATOM     65  F   UNL     1      14.445   3.606   7.393  1.00  0.00    -0.206 F 
ATOM     66  C   UNL     1      13.549   4.929  10.645  1.00  0.00     0.006 A 
ENDBRANCH  45  59
BRANCH  46  67
ATOM     67  C   UNL     1      13.615  -6.205   4.351  1.00  0.00     0.057 A 
ATOM     68  C   UNL     1      14.047  -7.399   4.938  1.00  0.00     0.134 A 
ATOM     69  C   UNL     1      13.194  -6.255   3.017  1.00  0.00     0.134 A 
ATOM     70  F   UNL     1      14.481  -7.408   6.207  1.00  0.00    -0.206 F 
ATOM     71  C   UNL     1      14.077  -8.596   4.222  1.00  0.00     0.040 A 
ATOM     72  C   UNL     1      13.195  -7.450   2.296  1.00  0.00     0.040 A 
ATOM     73  F   UNL     1      12.764  -5.145   2.399  1.00  0.00    -0.206 F 
ATOM     74  C   UNL     1      13.645  -8.624   2.897  1.00  0.00     0.006 A 
ENDBRANCH  46  67
BRANCH  58  75
ATOM     75  C   UNL     1      18.655  -2.084   6.811  1.00  0.00     0.057 A 
ATOM     76  C   UNL     1      19.394  -1.869   5.641  1.00  0.00     0.134 A 
ATOM     77  C   UNL     1      19.368  -2.369   7.983  1.00  0.00     0.134 A 
ATOM     78  F   UNL     1      18.770  -1.605   4.483  1.00  0.00    -0.206 F 
ATOM     79  C   UNL     1      20.787  -1.953   5.633  1.00  0.00     0.040 A 
ATOM     80  C   UNL     1      20.762  -2.432   7.993  1.00  0.00     0.040 A 
ATOM     81  F   UNL     1      18.721  -2.579   9.140  1.00  0.00    -0.206 F 
ATOM     82  C   UNL     1      21.475  -2.229   6.813  1.00  0.00     0.006 A 
ENDBRANCH  58  75
ENDBRANCH  32  33
ENDBRANCH  24  27
ENDBRANCH  22  23
ENDBRANCH  21  22
ENDBRANCH   1  21
TORSDOF 14
