REMARK SMILES Cc1ncccc1NC(=O)Nc1ccc(C(=O)NCCCCNC(=O)c2ccc(-c3c4nc(c(-c5c(F)cccc5F)c5ccc([nH]5)c(-c5c(F)cccc5F)c5nc(c(-c6c(F)cccc6F)c6ccc3[nH]6)C=C5)C=C4)cc2)c(O)c1
REMARK SMILES IDX 20 1 19 2 18 3 16 4 17 5 15 7 12 8 13 9 82 10 14 11 80 12
REMARK SMILES IDX 11 13 8 14 9 15 10 17 7 19 1 20 2 21 3 22 4 23 6 24 5 25
REMARK SMILES IDX 81 26 21 28 22 29 23 30 24 31 25 33 26 34 27 35 79 36 28 37
REMARK SMILES IDX 78 38 29 39 30 40 31 41 72 42 32 43 77 44 71 45 73 46 33 47
REMARK SMILES IDX 76 48 70 49 69 50 34 52 60 53 43 54 59 55 44 56 47 57 58 58
REMARK SMILES IDX 74 59 45 60 46 61 57 63 75 64 48 65 35 66 36 67 41 68 37 69
REMARK SMILES IDX 38 70 40 71 42 72 39 73 61 74 62 75 67 76 63 77 64 78 66 79
REMARK SMILES IDX 68 80 65 81 49 82 50 83 55 84 51 85 52 86 54 87 56 88 53 89
REMARK H PARENT 18 6 8 16 11 18 81 27 23 32 73 51 47 62
REMARK Flexibility Score: inf
ROOT
ATOM      1  C   UNL     1      -5.196   1.468   3.298  1.00  0.00     0.023 C 
ENDROOT
BRANCH   1   2
ATOM      2  C   UNL     1      -5.246   0.550   2.077  1.00  0.00     0.116 C 
BRANCH   2   3
ATOM      3  N   UNL     1      -5.200   1.230   0.791  1.00  0.00    -0.352 N 
ATOM      4  C   UNL     1      -4.750   0.794  -0.438  1.00  0.00     0.255 C 
ATOM      5  O   UNL     1      -4.866   1.540  -1.407  1.00  0.00    -0.269 OA
ATOM      6  H   UNL     1      -5.547   2.151   0.799  1.00  0.00     0.163 HD
BRANCH   4   7
ATOM      7  C   UNL     1      -4.049  -0.504  -0.598  1.00  0.00     0.081 A 
ATOM      8  C   UNL     1      -2.263  -2.646  -0.451  1.00  0.00     0.046 A 
ATOM      9  C   UNL     1      -1.978  -1.567  -1.286  1.00  0.00     0.027 A 
ATOM     10  C   UNL     1      -3.547  -2.769   0.086  1.00  0.00     0.073 A 
ATOM     11  C   UNL     1      -2.859  -0.483  -1.339  1.00  0.00     0.020 A 
ATOM     12  C   UNL     1      -4.443  -1.704  -0.004  1.00  0.00     0.130 A 
BRANCH   8  13
ATOM     13  N   UNL     1      -1.301  -3.585  -0.051  1.00  0.00    -0.308 N 
ATOM     14  N   UNL     1       0.784  -2.409   0.107  1.00  0.00    -0.306 N 
ATOM     15  C   UNL     1       0.049  -3.543   0.025  1.00  0.00     0.323 C 
ATOM     16  H   UNL     1       1.718  -2.539  -0.175  1.00  0.00     0.171 HD
ATOM     17  O   UNL     1       0.659  -4.617   0.030  1.00  0.00    -0.248 OA
ATOM     18  H   UNL     1      -1.685  -4.447   0.232  1.00  0.00     0.171 HD
BRANCH  14  19
ATOM     19  C   UNL     1       0.511  -1.081   0.507  1.00  0.00     0.064 A 
ATOM     20  C   UNL     1       2.705  -0.202  -0.498  1.00  0.00     0.069 C 
ATOM     21  C   UNL     1       1.350  -0.022   0.121  1.00  0.00     0.061 A 
ATOM     22  N   UNL     1       1.014   1.286   0.309  1.00  0.00    -0.259 NA
ATOM     23  C   UNL     1      -0.146   1.558   0.938  1.00  0.00     0.111 A 
ATOM     24  C   UNL     1      -0.599  -0.750   1.287  1.00  0.00     0.030 A 
ATOM     25  C   UNL     1      -0.957   0.584   1.478  1.00  0.00     0.022 A 
ENDBRANCH  14  19
ENDBRANCH   8  13
BRANCH  12  26
ATOM     26  O   UNL     1      -5.679  -1.908   0.540  1.00  0.00    -0.507 OA
ATOM     27  H   UNL     1      -6.323  -1.228   0.509  1.00  0.00     0.293 HD
ENDBRANCH  12  26
ENDBRANCH   4   7
ENDBRANCH   2   3
ENDBRANCH   1   2
BRANCH   1  28
ATOM     28  C   UNL     1      -6.221   2.601   3.360  1.00  0.00     0.023 C 
BRANCH  28  29
ATOM     29  C   UNL     1      -7.662   2.252   2.999  1.00  0.00     0.116 C 
BRANCH  29  30
ATOM     30  N   UNL     1      -8.272   1.269   3.877  1.00  0.00    -0.352 N 
ATOM     31  C   UNL     1      -9.420   1.336   4.638  1.00  0.00     0.251 C 
ATOM     32  H   UNL     1      -7.786   0.415   3.940  1.00  0.00     0.163 HD
ATOM     33  O   UNL     1      -9.719   0.399   5.364  1.00  0.00    -0.269 OA
BRANCH  31  34
ATOM     34  C   UNL     1     -10.271   2.552   4.625  1.00  0.00     0.039 A 
ATOM     35  C   UNL     1     -10.743   3.046   5.845  1.00  0.00     0.014 A 
ATOM     36  C   UNL     1     -10.606   3.206   3.438  1.00  0.00     0.014 A 
ATOM     37  C   UNL     1     -11.462   4.245   5.883  1.00  0.00     0.010 A 
ATOM     38  C   UNL     1     -11.252   4.442   3.484  1.00  0.00     0.010 A 
ATOM     39  C   UNL     1     -11.676   4.982   4.708  1.00  0.00    -0.014 A 
BRANCH  39  40
ATOM     40  C   UNL     1     -12.313   6.327   4.739  1.00  0.00     0.031 A 
ATOM     41  C   UNL     1     -13.608   6.575   4.015  1.00  0.00     0.074 A 
ATOM     42  C   UNL     1     -11.682   7.351   5.349  1.00  0.00     0.049 A 
ATOM     43  N   UNL     1     -14.258   7.699   3.843  1.00  0.00    -0.248 NA
ATOM     44  C   UNL     1     -14.243   5.411   3.376  1.00  0.00     0.031 C 
ATOM     45  C   UNL     1     -10.395   7.262   6.043  1.00  0.00     0.029 A 
ATOM     46  N   UNL     1     -12.030   8.674   5.469  1.00  0.00    -0.354 N 
ATOM     47  C   UNL     1     -15.360   7.383   3.058  1.00  0.00     0.074 A 
ATOM     48  C   UNL     1     -15.269   5.972   2.752  1.00  0.00     0.031 C 
ATOM     49  C   UNL     1     -10.072   8.471   6.529  1.00  0.00     0.029 A 
ATOM     50  C   UNL     1     -11.105   9.429   6.150  1.00  0.00     0.049 A 
ATOM     51  H   UNL     1     -12.864   9.047   5.102  1.00  0.00     0.167 HD
ATOM     52  C   UNL     1     -16.367   8.190   2.647  1.00  0.00     0.037 A 
ATOM     53  C   UNL     1     -11.083  10.747   6.428  1.00  0.00     0.037 A 
ATOM     54  C   UNL     1     -16.480   9.586   2.981  1.00  0.00     0.049 A 
ATOM     55  C   UNL     1     -12.221  11.617   5.972  1.00  0.00     0.074 A 
ATOM     56  C   UNL     1     -17.502  10.466   2.670  1.00  0.00     0.029 A 
ATOM     57  N   UNL     1     -15.540  10.303   3.705  1.00  0.00    -0.354 N 
ATOM     58  N   UNL     1     -13.290  11.289   5.289  1.00  0.00    -0.248 NA
ATOM     59  C   UNL     1     -12.152  13.042   6.331  1.00  0.00     0.031 C 
ATOM     60  C   UNL     1     -17.163  11.727   3.172  1.00  0.00     0.029 A 
ATOM     61  C   UNL     1     -15.951  11.620   3.835  1.00  0.00     0.049 A 
ATOM     62  H   UNL     1     -14.706   9.932   4.072  1.00  0.00     0.167 HD
ATOM     63  C   UNL     1     -14.033  12.455   5.162  1.00  0.00     0.074 A 
ATOM     64  C   UNL     1     -13.300  13.498   5.849  1.00  0.00     0.031 C 
ATOM     65  C   UNL     1     -15.218  12.645   4.532  1.00  0.00     0.037 A 
BRANCH  52  66
ATOM     66  C   UNL     1     -17.439   7.580   1.791  1.00  0.00     0.057 A 
ATOM     67  C   UNL     1     -18.379   6.683   2.313  1.00  0.00     0.134 A 
ATOM     68  C   UNL     1     -17.560   7.930   0.440  1.00  0.00     0.134 A 
ATOM     69  F   UNL     1     -18.311   6.299   3.597  1.00  0.00    -0.206 F 
ATOM     70  C   UNL     1     -19.387   6.136   1.518  1.00  0.00     0.040 A 
ATOM     71  C   UNL     1     -18.580   7.410  -0.359  1.00  0.00     0.040 A 
ATOM     72  F   UNL     1     -16.698   8.790  -0.122  1.00  0.00    -0.206 F 
ATOM     73  C   UNL     1     -19.493   6.505   0.178  1.00  0.00     0.006 A 
ENDBRANCH  52  66
BRANCH  53  74
ATOM     74  C   UNL     1      -9.952  11.328   7.195  1.00  0.00     0.057 A 
ATOM     75  C   UNL     1     -10.128  11.775   8.510  1.00  0.00     0.134 A 
ATOM     76  C   UNL     1      -8.679  11.465   6.631  1.00  0.00     0.134 A 
ATOM     77  F   UNL     1     -11.330  11.688   9.097  1.00  0.00    -0.206 F 
ATOM     78  C   UNL     1      -9.084  12.357   9.230  1.00  0.00     0.040 A 
ATOM     79  C   UNL     1      -7.619  12.024   7.348  1.00  0.00     0.040 A 
ATOM     80  F   UNL     1      -8.444  11.049   5.378  1.00  0.00    -0.206 F 
ATOM     81  C   UNL     1      -7.823  12.479   8.649  1.00  0.00     0.006 A 
ENDBRANCH  53  74
BRANCH  65  82
ATOM     82  C   UNL     1     -15.817  14.019   4.591  1.00  0.00     0.057 A 
ATOM     83  C   UNL     1     -15.298  15.084   3.845  1.00  0.00     0.134 A 
ATOM     84  C   UNL     1     -16.952  14.267   5.373  1.00  0.00     0.134 A 
ATOM     85  F   UNL     1     -14.204  14.915   3.087  1.00  0.00    -0.206 F 
ATOM     86  C   UNL     1     -15.876  16.354   3.889  1.00  0.00     0.040 A 
ATOM     87  C   UNL     1     -17.554  15.526   5.406  1.00  0.00     0.040 A 
ATOM     88  F   UNL     1     -17.503  13.287   6.105  1.00  0.00    -0.206 F 
ATOM     89  C   UNL     1     -17.012  16.575   4.666  1.00  0.00     0.006 A 
ENDBRANCH  65  82
ENDBRANCH  39  40
ENDBRANCH  31  34
ENDBRANCH  29  30
ENDBRANCH  28  29
ENDBRANCH   1  28
TORSDOF 14
