REMARK SMILES O=C(NCCCCNC(=O)c1ccc(Cl)nc1C(F)(F)F)c1ccc(-c2c3nc(c(-c4c(F)cccc4F)c4ccc([nH]4)c(-c4c(F)cccc4F)c4nc(c(-c5c(F)cccc5F)c5ccc2[nH]5)C=C4)C=C3)cc1
REMARK SMILES IDX 5 1 4 2 3 3 1 4 2 5 22 7 23 8 75 9 24 10 74 11 25 12 26 13
REMARK SMILES IDX 27 14 68 15 28 16 73 17 67 18 69 19 29 20 72 21 66 22 65 23
REMARK SMILES IDX 30 25 56 26 39 27 55 28 40 29 43 30 54 31 70 32 41 33 42 34
REMARK SMILES IDX 53 36 71 37 44 38 31 39 32 40 37 41 33 42 34 43 36 44 38 45
REMARK SMILES IDX 35 46 57 47 58 48 63 49 59 50 60 51 62 52 64 53 61 54 45 55
REMARK SMILES IDX 46 56 51 57 47 58 48 59 50 60 52 61 49 62 6 63 7 64 8 65
REMARK SMILES IDX 9 66 10 68 11 69 12 70 17 71 13 72 16 73 14 74 15 75 18 76
REMARK SMILES IDX 19 77 20 78 21 79
REMARK H PARENT 3 6 69 24 43 35 8 67
REMARK Flexibility Score: inf
ROOT
ATOM      1  C   UNL     1       5.001   0.005  -2.608  1.00  0.00     0.023 C 
ENDROOT
BRANCH   1   2
ATOM      2  C   UNL     1       4.632   0.542  -1.235  1.00  0.00     0.116 C 
BRANCH   2   3
ATOM      3  N   UNL     1       3.196   0.584  -0.988  1.00  0.00    -0.352 N 
ATOM      4  O   UNL     1       1.244   0.047   0.021  1.00  0.00    -0.269 OA
ATOM      5  C   UNL     1       2.469  -0.004   0.025  1.00  0.00     0.251 C 
ATOM      6  H   UNL     1       2.671   1.107  -1.637  1.00  0.00     0.163 HD
BRANCH   5   7
ATOM      7  C   UNL     1       3.180  -0.728   1.100  1.00  0.00     0.039 A 
ATOM      8  C   UNL     1       4.322  -0.173   1.673  1.00  0.00     0.014 A 
ATOM      9  C   UNL     1       2.739  -1.993   1.500  1.00  0.00     0.014 A 
ATOM     10  C   UNL     1       5.137  -0.960   2.471  1.00  0.00     0.010 A 
ATOM     11  C   UNL     1       3.494  -2.734   2.417  1.00  0.00     0.010 A 
ATOM     12  C   UNL     1       4.723  -2.240   2.879  1.00  0.00    -0.014 A 
BRANCH  12  13
ATOM     13  C   UNL     1       5.576  -2.976   3.850  1.00  0.00     0.031 A 
ATOM     14  C   UNL     1       6.206  -4.300   3.516  1.00  0.00     0.074 A 
ATOM     15  C   UNL     1       5.842  -2.380   5.030  1.00  0.00     0.049 A 
ATOM     16  N   UNL     1       7.039  -5.015   4.233  1.00  0.00    -0.248 NA
ATOM     17  C   UNL     1       5.858  -4.909   2.224  1.00  0.00     0.031 C 
ATOM     18  C   UNL     1       5.268  -1.105   5.474  1.00  0.00     0.029 A 
ATOM     19  N   UNL     1       6.684  -2.735   6.051  1.00  0.00    -0.354 N 
ATOM     20  C   UNL     1       7.311  -6.154   3.485  1.00  0.00     0.074 A 
ATOM     21  C   UNL     1       6.524  -6.056   2.274  1.00  0.00     0.031 C 
ATOM     22  C   UNL     1       5.827  -0.751   6.638  1.00  0.00     0.029 A 
ATOM     23  C   UNL     1       6.730  -1.810   7.066  1.00  0.00     0.049 A 
ATOM     24  H   UNL     1       7.204  -3.571   6.057  1.00  0.00     0.167 HD
ATOM     25  C   UNL     1       8.150  -7.178   3.778  1.00  0.00     0.037 A 
ATOM     26  C   UNL     1       7.405  -1.818   8.229  1.00  0.00     0.037 A 
ATOM     27  C   UNL     1       8.929  -7.270   4.989  1.00  0.00     0.049 A 
ATOM     28  C   UNL     1       8.302  -2.979   8.535  1.00  0.00     0.074 A 
ATOM     29  C   UNL     1       9.811  -8.266   5.374  1.00  0.00     0.029 A 
ATOM     30  N   UNL     1       8.919  -6.333   6.012  1.00  0.00    -0.354 N 
ATOM     31  N   UNL     1       8.566  -4.035   7.804  1.00  0.00    -0.248 NA
ATOM     32  C   UNL     1       8.996  -2.951   9.828  1.00  0.00     0.031 C 
ATOM     33  C   UNL     1      10.297  -7.956   6.649  1.00  0.00     0.029 A 
ATOM     34  C   UNL     1       9.765  -6.737   7.035  1.00  0.00     0.049 A 
ATOM     35  H   UNL     1       8.390  -5.503   6.012  1.00  0.00     0.167 HD
ATOM     36  C   UNL     1       9.464  -4.792   8.542  1.00  0.00     0.074 A 
ATOM     37  C   UNL     1       9.728  -4.053   9.761  1.00  0.00     0.031 C 
ATOM     38  C   UNL     1      10.013  -5.995   8.245  1.00  0.00     0.037 A 
BRANCH  25  39
ATOM     39  C   UNL     1       8.270  -8.294   2.776  1.00  0.00     0.057 A 
ATOM     40  C   UNL     1       8.920  -8.116   1.548  1.00  0.00     0.134 A 
ATOM     41  C   UNL     1       7.791  -9.578   3.069  1.00  0.00     0.134 A 
ATOM     42  F   UNL     1       9.396  -6.912   1.198  1.00  0.00    -0.206 F 
ATOM     43  C   UNL     1       9.074  -9.169   0.642  1.00  0.00     0.040 A 
ATOM     44  C   UNL     1       7.962 -10.644   2.183  1.00  0.00     0.040 A 
ATOM     45  F   UNL     1       7.167  -9.823   4.231  1.00  0.00    -0.206 F 
ATOM     46  C   UNL     1       8.602 -10.440   0.963  1.00  0.00     0.006 A 
ENDBRANCH  25  39
BRANCH  26  47
ATOM     47  C   UNL     1       7.227  -0.706   9.197  1.00  0.00     0.057 A 
ATOM     48  C   UNL     1       8.277   0.160   9.520  1.00  0.00     0.134 A 
ATOM     49  C   UNL     1       5.996  -0.490   9.829  1.00  0.00     0.134 A 
ATOM     50  F   UNL     1       9.484  -0.002   8.958  1.00  0.00    -0.206 F 
ATOM     51  C   UNL     1       8.118   1.182  10.457  1.00  0.00     0.040 A 
ATOM     52  C   UNL     1       5.812   0.550  10.739  1.00  0.00     0.040 A 
ATOM     53  F   UNL     1       4.944  -1.276   9.554  1.00  0.00    -0.206 F 
ATOM     54  C   UNL     1       6.880   1.383  11.065  1.00  0.00     0.006 A 
ENDBRANCH  26  47
BRANCH  38  55
ATOM     55  C   UNL     1      10.973  -6.564   9.249  1.00  0.00     0.057 A 
ATOM     56  C   UNL     1      10.547  -7.024  10.503  1.00  0.00     0.134 A 
ATOM     57  C   UNL     1      12.341  -6.645   8.962  1.00  0.00     0.134 A 
ATOM     58  F   UNL     1       9.252  -6.959  10.848  1.00  0.00    -0.206 F 
ATOM     59  C   UNL     1      11.453  -7.505  11.450  1.00  0.00     0.040 A 
ATOM     60  C   UNL     1      13.252  -7.155   9.888  1.00  0.00     0.040 A 
ATOM     61  F   UNL     1      12.816  -6.231   7.778  1.00  0.00    -0.206 F 
ATOM     62  C   UNL     1      12.810  -7.575  11.141  1.00  0.00     0.006 A 
ENDBRANCH  38  55
ENDBRANCH  12  13
ENDBRANCH   5   7
ENDBRANCH   2   3
ENDBRANCH   1   2
BRANCH   1  63
ATOM     63  C   UNL     1       4.548   0.862  -3.783  1.00  0.00     0.023 C 
BRANCH  63  64
ATOM     64  C   UNL     1       4.945   2.333  -3.709  1.00  0.00     0.116 C 
BRANCH  64  65
ATOM     65  N   UNL     1       6.385   2.545  -3.643  1.00  0.00    -0.352 N 
ATOM     66  C   UNL     1       7.170   3.360  -4.418  1.00  0.00     0.253 C 
ATOM     67  H   UNL     1       6.859   2.033  -2.948  1.00  0.00     0.163 HD
ATOM     68  O   UNL     1       8.380   3.452  -4.241  1.00  0.00    -0.269 OA
BRANCH  66  69
ATOM     69  C   UNL     1       6.547   4.146  -5.489  1.00  0.00     0.070 A 
ATOM     70  C   UNL     1       5.580   5.103  -5.147  1.00  0.00     0.019 A 
ATOM     71  C   UNL     1       6.890   3.960  -6.828  1.00  0.00     0.158 A 
ATOM     72  C   UNL     1       4.927   5.803  -6.153  1.00  0.00     0.042 A 
ATOM     73  N   UNL     1       6.252   4.664  -7.818  1.00  0.00    -0.231 NA
ATOM     74  C   UNL     1       5.294   5.543  -7.458  1.00  0.00     0.129 A 
ATOM     75  Cl  UNL     1       4.520   6.335  -8.764  1.00  0.00    -0.062 Cl
BRANCH  71  76
ATOM     76  C   UNL     1       7.988   2.992  -7.246  1.00  0.00     0.434 C 
ATOM     77  F   UNL     1       7.763   2.457  -8.485  1.00  0.00    -0.164 F 
ATOM     78  F   UNL     1       9.213   3.585  -7.325  1.00  0.00    -0.164 F 
ATOM     79  F   UNL     1       8.134   1.906  -6.435  1.00  0.00    -0.164 F 
ENDBRANCH  71  76
ENDBRANCH  66  69
ENDBRANCH  64  65
ENDBRANCH  63  64
ENDBRANCH   1  63
TORSDOF 12
