REMARK SMILES Cc1nn(C)c(=O)c(C(=O)N[C@H]2C=C[C@H](C(=O)NCCCCNC(=O)c3ccc(-c4c5nc(c(-c6c(F)cccc6F)c6ccc([nH]6)c(-c6c(F)cccc6F)c6nc(c(-c7c(F)cccc7F)c7ccc4[nH]7)C=C6)C=C5)cc3)C2)c1C
REMARK SMILES IDX 20 1 19 2 18 3 16 4 17 5 15 7 12 8 13 9 80 10 14 11 11 12
REMARK SMILES IDX 9 13 10 14 8 16 1 17 2 18 3 19 81 20 4 21 82 22 5 23 6 24
REMARK SMILES IDX 7 25 21 26 22 27 23 28 24 29 25 31 26 32 27 33 79 34 28 35
REMARK SMILES IDX 78 36 29 37 30 38 31 39 72 40 32 41 77 42 71 43 73 44 33 45
REMARK SMILES IDX 76 46 70 47 69 48 34 50 60 51 43 52 59 53 44 54 47 55 58 56
REMARK SMILES IDX 74 57 45 58 46 59 57 61 75 62 48 63 35 64 36 65 41 66 37 67
REMARK SMILES IDX 38 68 40 69 42 70 39 71 61 72 62 73 67 74 63 75 64 76 66 77
REMARK SMILES IDX 68 78 65 79 49 80 50 81 55 82 51 83 52 84 54 85 56 86 53 87
REMARK H PARENT 18 6 11 15 23 30 73 49 47 60
REMARK Flexibility Score: inf
ROOT
ATOM      1  C   UNL     1       4.202   6.372  -1.308  1.00  0.00     0.023 C 
ENDROOT
BRANCH   1   2
ATOM      2  C   UNL     1       2.857   5.989  -0.704  1.00  0.00     0.116 C 
BRANCH   2   3
ATOM      3  N   UNL     1       2.648   4.558  -0.719  1.00  0.00    -0.356 N 
ATOM      4  C   UNL     1       2.612   3.630   0.268  1.00  0.00     0.227 C 
ATOM      5  O   UNL     1       2.392   2.470  -0.105  1.00  0.00    -0.274 OA
ATOM      6  H   UNL     1       2.506   4.186  -1.620  1.00  0.00     0.163 HD
BRANCH   4   7
ATOM      7  C   UNL     1       2.858   3.940   1.769  1.00  0.00     0.103 C 
ATOM      8  C   UNL     1       0.636   3.674   2.620  1.00  0.00     0.106 C 
ATOM      9  C   UNL     1       1.085   5.086   2.813  1.00  0.00    -0.006 C 
ATOM     10  C   UNL     1       1.992   2.962   2.600  1.00  0.00     0.047 C 
ATOM     11  C   UNL     1       2.329   5.231   2.334  1.00  0.00    -0.016 C 
BRANCH   8  12
ATOM     12  N   UNL     1      -0.310   3.285   3.626  1.00  0.00    -0.346 N 
ATOM     13  C   UNL     1      -1.035   2.128   3.721  1.00  0.00     0.257 C 
ATOM     14  O   UNL     1      -2.055   2.125   4.408  1.00  0.00    -0.269 OA
ATOM     15  H   UNL     1      -0.458   3.940   4.346  1.00  0.00     0.164 HD
BRANCH  13  16
ATOM     16  C   UNL     1      -0.570   0.892   3.041  1.00  0.00     0.111 A 
ATOM     17  C   UNL     1       0.679  -0.564  -0.168  1.00  0.00     0.069 C 
ATOM     18  C   UNL     1       0.051  -0.521   1.209  1.00  0.00     0.062 A 
ATOM     19  N   UNL     1       0.166  -1.596   1.921  1.00  0.00    -0.175 NA
ATOM     20  C   UNL     1      -0.558   0.746   1.702  1.00  0.00    -0.010 A 
ATOM     21  N   UNL     1      -0.174  -1.510   3.243  1.00  0.00    -0.232 N 
ATOM     22  C   UNL     1      -1.140   1.678   0.688  1.00  0.00     0.047 C 
ATOM     23  C   UNL     1      -0.185  -2.761   3.976  1.00  0.00     0.178 C 
ATOM     24  C   UNL     1      -0.312  -0.298   3.909  1.00  0.00     0.279 A 
ATOM     25  O   UNL     1      -0.281  -0.194   5.134  1.00  0.00    -0.267 OA
ENDBRANCH  13  16
ENDBRANCH   8  12
ENDBRANCH   4   7
ENDBRANCH   2   3
ENDBRANCH   1   2
BRANCH   1  26
ATOM     26  C   UNL     1       4.295   6.196  -2.824  1.00  0.00     0.023 C 
BRANCH  26  27
ATOM     27  C   UNL     1       3.205   6.891  -3.636  1.00  0.00     0.116 C 
BRANCH  27  28
ATOM     28  N   UNL     1       3.044   8.299  -3.302  1.00  0.00    -0.352 N 
ATOM     29  C   UNL     1       2.961   9.390  -4.133  1.00  0.00     0.251 C 
ATOM     30  H   UNL     1       2.986   8.498  -2.339  1.00  0.00     0.163 HD
ATOM     31  O   UNL     1       2.928  10.521  -3.671  1.00  0.00    -0.269 OA
BRANCH  29  32
ATOM     32  C   UNL     1       2.949   9.184  -5.595  1.00  0.00     0.039 A 
ATOM     33  C   UNL     1       3.844   9.911  -6.382  1.00  0.00     0.014 A 
ATOM     34  C   UNL     1       2.081   8.255  -6.176  1.00  0.00     0.014 A 
ATOM     35  C   UNL     1       3.922   9.650  -7.750  1.00  0.00     0.010 A 
ATOM     36  C   UNL     1       2.208   7.949  -7.527  1.00  0.00     0.010 A 
ATOM     37  C   UNL     1       3.131   8.642  -8.324  1.00  0.00    -0.014 A 
BRANCH  37  38
ATOM     38  C   UNL     1       3.255   8.300  -9.761  1.00  0.00     0.031 A 
ATOM     39  C   UNL     1       2.107   8.557 -10.695  1.00  0.00     0.074 A 
ATOM     40  C   UNL     1       4.382   7.717 -10.213  1.00  0.00     0.049 A 
ATOM     41  N   UNL     1       2.002   8.281 -11.969  1.00  0.00    -0.248 NA
ATOM     42  C   UNL     1       0.910   9.187 -10.115  1.00  0.00     0.031 C 
ATOM     43  C   UNL     1       5.550   7.385  -9.396  1.00  0.00     0.029 A 
ATOM     44  N   UNL     1       4.729   7.299 -11.473  1.00  0.00    -0.354 N 
ATOM     45  C   UNL     1       0.732   8.699 -12.341  1.00  0.00     0.074 A 
ATOM     46  C   UNL     1       0.080   9.192 -11.147  1.00  0.00     0.031 C 
ATOM     47  C   UNL     1       6.497   6.848 -10.181  1.00  0.00     0.029 A 
ATOM     48  C   UNL     1       5.992   6.765 -11.548  1.00  0.00     0.049 A 
ATOM     49  H   UNL     1       4.129   7.375 -12.250  1.00  0.00     0.167 HD
ATOM     50  C   UNL     1       0.171   8.700 -13.572  1.00  0.00     0.037 A 
ATOM     51  C   UNL     1       6.667   6.268 -12.602  1.00  0.00     0.037 A 
ATOM     52  C   UNL     1       0.830   8.232 -14.761  1.00  0.00     0.049 A 
ATOM     53  C   UNL     1       6.012   6.258 -13.955  1.00  0.00     0.074 A 
ATOM     54  C   UNL     1       0.358   8.228 -16.062  1.00  0.00     0.029 A 
ATOM     55  N   UNL     1       2.105   7.689 -14.794  1.00  0.00    -0.354 N 
ATOM     56  N   UNL     1       4.825   6.696 -14.300  1.00  0.00    -0.248 NA
ATOM     57  C   UNL     1       6.788   5.686 -15.065  1.00  0.00     0.031 C 
ATOM     58  C   UNL     1       1.336   7.651 -16.878  1.00  0.00     0.029 A 
ATOM     59  C   UNL     1       2.431   7.332 -16.091  1.00  0.00     0.049 A 
ATOM     60  H   UNL     1       2.691   7.574 -14.011  1.00  0.00     0.167 HD
ATOM     61  C   UNL     1       4.720   6.473 -15.666  1.00  0.00     0.074 A 
ATOM     62  C   UNL     1       5.968   5.872 -16.091  1.00  0.00     0.031 C 
ATOM     63  C   UNL     1       3.681   6.741 -16.494  1.00  0.00     0.037 A 
BRANCH  50  64
ATOM     64  C   UNL     1      -1.220   9.246 -13.696  1.00  0.00     0.057 A 
ATOM     65  C   UNL     1      -1.480  10.619 -13.582  1.00  0.00     0.134 A 
ATOM     66  C   UNL     1      -2.302   8.403 -13.976  1.00  0.00     0.134 A 
ATOM     67  F   UNL     1      -0.488  11.477 -13.301  1.00  0.00    -0.206 F 
ATOM     68  C   UNL     1      -2.770  11.131 -13.723  1.00  0.00     0.040 A 
ATOM     69  C   UNL     1      -3.593   8.907 -14.143  1.00  0.00     0.040 A 
ATOM     70  F   UNL     1      -2.121   7.080 -14.101  1.00  0.00    -0.206 F 
ATOM     71  C   UNL     1      -3.830  10.274 -14.012  1.00  0.00     0.006 A 
ENDBRANCH  50  64
BRANCH  51  72
ATOM     72  C   UNL     1       8.056   5.777 -12.427  1.00  0.00     0.057 A 
ATOM     73  C   UNL     1       9.140   6.500 -12.937  1.00  0.00     0.134 A 
ATOM     74  C   UNL     1       8.336   4.591 -11.739  1.00  0.00     0.134 A 
ATOM     75  F   UNL     1       8.932   7.635 -13.620  1.00  0.00    -0.206 F 
ATOM     76  C   UNL     1      10.454   6.056 -12.779  1.00  0.00     0.040 A 
ATOM     77  C   UNL     1       9.647   4.146 -11.555  1.00  0.00     0.040 A 
ATOM     78  F   UNL     1       7.341   3.857 -11.220  1.00  0.00    -0.206 F 
ATOM     79  C   UNL     1      10.710   4.878 -12.080  1.00  0.00     0.006 A 
ENDBRANCH  51  72
BRANCH  63  80
ATOM     80  C   UNL     1       3.849   6.405 -17.946  1.00  0.00     0.057 A 
ATOM     81  C   UNL     1       3.785   5.084 -18.405  1.00  0.00     0.134 A 
ATOM     82  C   UNL     1       3.997   7.419 -18.901  1.00  0.00     0.134 A 
ATOM     83  F   UNL     1       3.655   4.069 -17.538  1.00  0.00    -0.206 F 
ATOM     84  C   UNL     1       3.871   4.782 -19.765  1.00  0.00     0.040 A 
ATOM     85  C   UNL     1       4.061   7.131 -20.264  1.00  0.00     0.040 A 
ATOM     86  F   UNL     1       4.055   8.706 -18.525  1.00  0.00    -0.206 F 
ATOM     87  C   UNL     1       3.999   5.809 -20.699  1.00  0.00     0.006 A 
ENDBRANCH  63  80
ENDBRANCH  37  38
ENDBRANCH  29  32
ENDBRANCH  27  28
ENDBRANCH  26  27
ENDBRANCH   1  26
TORSDOF 13
