REMARK SMILES Cc1ccc([C@@]23C[C@@H]4C[C@@H](C[C@@](C(=O)N5CCC(C(=O)NCCCCNC(=O)c6ccc(-c7c8nc(c(-c9c(F)cccc9F)c9ccc([nH]9)c(-c9c(F)cccc9F)c9nc(c(-c%10c(F)cccc%10F)c%10ccc7[nH]%10)C=C9)C=C8)cc6)CC5)(C4)C2)C3)cc1
REMARK SMILES IDX 23 1 22 2 21 3 19 4 20 5 18 7 13 8 14 9 15 10 16 11 84 12
REMARK SMILES IDX 17 13 83 14 12 15 6 16 7 17 86 18 87 19 8 20 10 21 9 22
REMARK SMILES IDX 85 23 11 24 5 25 1 26 2 27 3 28 89 29 4 30 88 31 24 32 25 33
REMARK SMILES IDX 26 34 27 35 28 37 29 38 30 39 82 40 31 41 81 42 32 43 33 44
REMARK SMILES IDX 34 45 75 46 35 47 80 48 74 49 76 50 36 51 79 52 73 53 72 54
REMARK SMILES IDX 37 56 63 57 46 58 62 59 47 60 50 61 61 62 77 63 48 64 49 65
REMARK SMILES IDX 60 67 78 68 51 69 38 70 39 71 44 72 40 73 41 74 43 75 45 76
REMARK SMILES IDX 42 77 64 78 65 79 70 80 66 81 67 82 69 83 71 84 68 85 52 86
REMARK SMILES IDX 53 87 58 88 54 89 55 90 57 91 59 92 56 93
REMARK H PARENT 21 6 26 36 76 55 50 66
REMARK Flexibility Score: inf
ROOT
ATOM      1  C   UNL     1      -8.992  -1.545  -3.812  1.00  0.00     0.023 C 
ENDROOT
BRANCH   1   2
ATOM      2  C   UNL     1      -8.807  -3.001  -3.359  1.00  0.00     0.116 C 
BRANCH   2   3
ATOM      3  N   UNL     1      -8.420  -3.899  -4.441  1.00  0.00    -0.356 N 
ATOM      4  C   UNL     1      -7.283  -4.611  -4.674  1.00  0.00     0.223 C 
ATOM      5  O   UNL     1      -7.247  -5.316  -5.686  1.00  0.00    -0.275 OA
ATOM      6  H   UNL     1      -9.111  -4.011  -5.133  1.00  0.00     0.163 HD
BRANCH   4   7
ATOM      7  C   UNL     1      -6.082  -4.551  -3.742  1.00  0.00     0.082 C 
ATOM      8  C   UNL     1      -5.817  -2.449  -0.403  1.00  0.00     0.228 C 
ATOM      9  O   UNL     1      -6.725  -2.870   0.319  1.00  0.00    -0.274 OA
ATOM     10  N   UNL     1      -5.214  -3.289  -1.338  1.00  0.00    -0.342 N 
ATOM     11  C   UNL     1      -5.469  -4.721  -1.261  1.00  0.00     0.120 C 
ATOM     12  C   UNL     1      -4.530  -2.915  -2.574  1.00  0.00     0.120 C 
ATOM     13  C   UNL     1      -6.418  -5.159  -2.366  1.00  0.00     0.035 C 
ATOM     14  C   UNL     1      -5.471  -3.143  -3.743  1.00  0.00     0.035 C 
BRANCH   8  15
ATOM     15  C   UNL     1      -5.321  -0.994  -0.235  1.00  0.00     0.051 C 
ATOM     16  C   UNL     1      -3.174   0.399   0.065  1.00  0.00    -0.003 C 
ATOM     17  C   UNL     1      -3.660   1.229  -1.163  1.00  0.00     0.015 C 
ATOM     18  C   UNL     1      -3.791  -1.011  -0.066  1.00  0.00     0.028 C 
ATOM     19  C   UNL     1      -3.764   1.026   1.353  1.00  0.00     0.015 C 
ATOM     20  C   UNL     1      -5.197   1.326  -1.213  1.00  0.00    -0.009 C 
ATOM     21  C   UNL     1      -5.305   1.064   1.280  1.00  0.00    -0.009 C 
ATOM     22  C   UNL     1      -5.720   1.943   0.091  1.00  0.00     0.007 C 
ATOM     23  C   UNL     1      -5.795  -0.076  -1.379  1.00  0.00     0.020 C 
ATOM     24  C   UNL     1      -5.871  -0.361   1.082  1.00  0.00     0.020 C 
BRANCH  16  25
ATOM     25  C   UNL     1      -1.637   0.335   0.116  1.00  0.00    -0.042 A 
ATOM     26  C   UNL     1       2.703   0.157   0.015  1.00  0.00     0.044 C 
ATOM     27  C   UNL     1       1.208   0.237   0.075  1.00  0.00    -0.051 A 
ATOM     28  C   UNL     1       0.460  -0.936   0.139  1.00  0.00     0.004 A 
ATOM     29  C   UNL     1       0.534   1.461   0.058  1.00  0.00     0.004 A 
ATOM     30  C   UNL     1      -0.935  -0.885   0.168  1.00  0.00     0.004 A 
ATOM     31  C   UNL     1      -0.866   1.509   0.084  1.00  0.00     0.004 A 
ENDBRANCH  16  25
ENDBRANCH   8  15
ENDBRANCH   4   7
ENDBRANCH   2   3
ENDBRANCH   1   2
BRANCH   1  32
ATOM     32  C   UNL     1      -9.958  -1.330  -4.979  1.00  0.00     0.023 C 
BRANCH  32  33
ATOM     33  C   UNL     1     -11.407  -1.675  -4.668  1.00  0.00     0.116 C 
BRANCH  33  34
ATOM     34  N   UNL     1     -12.201  -0.568  -4.151  1.00  0.00    -0.352 N 
ATOM     35  C   UNL     1     -13.475  -0.586  -3.605  1.00  0.00     0.251 C 
ATOM     36  H   UNL     1     -11.772   0.318  -4.196  1.00  0.00     0.163 HD
ATOM     37  O   UNL     1     -14.011   0.456  -3.257  1.00  0.00    -0.269 OA
BRANCH  35  38
ATOM     38  C   UNL     1     -14.124  -1.890  -3.315  1.00  0.00     0.039 A 
ATOM     39  C   UNL     1     -14.677  -2.069  -2.042  1.00  0.00     0.014 A 
ATOM     40  C   UNL     1     -13.989  -2.974  -4.178  1.00  0.00     0.014 A 
ATOM     41  C   UNL     1     -14.830  -3.359  -1.542  1.00  0.00     0.010 A 
ATOM     42  C   UNL     1     -14.048  -4.251  -3.655  1.00  0.00     0.010 A 
ATOM     43  C   UNL     1     -14.387  -4.434  -2.312  1.00  0.00    -0.014 A 
BRANCH  43  44
ATOM     44  C   UNL     1     -14.121  -5.751  -1.748  1.00  0.00     0.031 A 
ATOM     45  C   UNL     1     -15.054  -6.870  -1.979  1.00  0.00     0.074 A 
ATOM     46  C   UNL     1     -12.993  -5.947  -1.029  1.00  0.00     0.049 A 
ATOM     47  N   UNL     1     -15.134  -7.913  -1.224  1.00  0.00    -0.248 NA
ATOM     48  C   UNL     1     -16.055  -6.852  -3.039  1.00  0.00     0.031 C 
ATOM     49  C   UNL     1     -12.430  -7.221  -0.592  1.00  0.00     0.029 A 
ATOM     50  N   UNL     1     -12.247  -4.980  -0.339  1.00  0.00    -0.354 N 
ATOM     51  C   UNL     1     -15.962  -8.819  -1.845  1.00  0.00     0.074 A 
ATOM     52  C   UNL     1     -16.616  -8.054  -2.876  1.00  0.00     0.031 C 
ATOM     53  C   UNL     1     -11.656  -7.004   0.482  1.00  0.00     0.029 A 
ATOM     54  C   UNL     1     -11.808  -5.607   0.848  1.00  0.00     0.049 A 
ATOM     55  H   UNL     1     -12.067  -4.055  -0.623  1.00  0.00     0.167 HD
ATOM     56  C   UNL     1     -15.873 -10.134  -1.493  1.00  0.00     0.037 A 
ATOM     57  C   UNL     1     -12.186  -5.158   2.079  1.00  0.00     0.037 A 
ATOM     58  C   UNL     1     -15.085 -10.286  -0.263  1.00  0.00     0.049 A 
ATOM     59  C   UNL     1     -12.910  -6.184   2.916  1.00  0.00     0.074 A 
ATOM     60  C   UNL     1     -13.795 -10.723  -0.009  1.00  0.00     0.029 A 
ATOM     61  N   UNL     1     -15.542  -9.707   0.919  1.00  0.00    -0.354 N 
ATOM     62  N   UNL     1     -13.449  -7.268   2.431  1.00  0.00    -0.248 NA
ATOM     63  C   UNL     1     -13.115  -6.056   4.356  1.00  0.00     0.031 C 
ATOM     64  C   UNL     1     -13.452 -10.333   1.312  1.00  0.00     0.029 A 
ATOM     65  C   UNL     1     -14.544  -9.692   1.873  1.00  0.00     0.049 A 
ATOM     66  H   UNL     1     -16.452  -9.357   1.055  1.00  0.00     0.167 HD
ATOM     67  C   UNL     1     -14.080  -7.956   3.434  1.00  0.00     0.074 A 
ATOM     68  C   UNL     1     -13.819  -7.170   4.626  1.00  0.00     0.031 C 
ATOM     69  C   UNL     1     -14.776  -9.105   3.187  1.00  0.00     0.037 A 
BRANCH  56  70
ATOM     70  C   UNL     1     -16.266 -11.318  -2.371  1.00  0.00     0.057 A 
ATOM     71  C   UNL     1     -15.889 -12.629  -2.002  1.00  0.00     0.134 A 
ATOM     72  C   UNL     1     -16.893 -11.255  -3.632  1.00  0.00     0.134 A 
ATOM     73  F   UNL     1     -15.326 -12.893  -0.815  1.00  0.00    -0.206 F 
ATOM     74  C   UNL     1     -16.053 -13.747  -2.838  1.00  0.00     0.040 A 
ATOM     75  C   UNL     1     -17.079 -12.366  -4.469  1.00  0.00     0.040 A 
ATOM     76  F   UNL     1     -17.358 -10.122  -4.156  1.00  0.00    -0.206 F 
ATOM     77  C   UNL     1     -16.641 -13.617  -4.084  1.00  0.00     0.006 A 
ENDBRANCH  56  70
BRANCH  57  78
ATOM     78  C   UNL     1     -12.414  -3.692   2.131  1.00  0.00     0.057 A 
ATOM     79  C   UNL     1     -11.316  -2.837   1.936  1.00  0.00     0.134 A 
ATOM     80  C   UNL     1     -13.688  -3.136   1.988  1.00  0.00     0.134 A 
ATOM     81  F   UNL     1     -10.066  -3.310   2.065  1.00  0.00    -0.206 F 
ATOM     82  C   UNL     1     -11.473  -1.519   1.504  1.00  0.00     0.040 A 
ATOM     83  C   UNL     1     -13.858  -1.812   1.568  1.00  0.00     0.040 A 
ATOM     84  F   UNL     1     -14.784  -3.894   2.137  1.00  0.00    -0.206 F 
ATOM     85  C   UNL     1     -12.750  -1.012   1.286  1.00  0.00     0.006 A 
ENDBRANCH  57  78
BRANCH  69  86
ATOM     86  C   UNL     1     -15.675  -9.831   4.162  1.00  0.00     0.057 A 
ATOM     87  C   UNL     1     -16.372  -9.215   5.213  1.00  0.00     0.134 A 
ATOM     88  C   UNL     1     -15.979 -11.198   3.968  1.00  0.00     0.134 A 
ATOM     89  F   UNL     1     -16.273  -7.900   5.446  1.00  0.00    -0.206 F 
ATOM     90  C   UNL     1     -17.258  -9.917   6.044  1.00  0.00     0.040 A 
ATOM     91  C   UNL     1     -16.901 -11.894   4.756  1.00  0.00     0.040 A 
ATOM     92  F   UNL     1     -15.410 -11.915   2.988  1.00  0.00    -0.206 F 
ATOM     93  C   UNL     1     -17.535 -11.258   5.810  1.00  0.00     0.006 A 
ENDBRANCH  69  86
ENDBRANCH  43  44
ENDBRANCH  35  38
ENDBRANCH  33  34
ENDBRANCH  32  33
ENDBRANCH   1  32
TORSDOF 13
