REMARK SMILES CC(C)[C@H](NC(N)=O)C(=O)N[C@H](C)C(=O)NCCCCNC(=O)c1ccc(-c2c3nc(c(-c4c(F)cccc4F)c4ccc([nH]4)c(-c4c(F)cccc4F)c4nc(c(-c5c(F)cccc5F)c5ccc2[nH]5)C=C4)C=C3)cc1
REMARK SMILES IDX 18 1 17 2 16 3 14 4 15 5 12 7 13 8 11 9 9 10 10 11 4 13 2 14
REMARK SMILES IDX 1 15 3 16 5 17 6 18 7 20 8 21 19 24 20 25 21 26 22 27 23 29
REMARK SMILES IDX 24 30 25 31 77 32 26 33 76 34 27 35 28 36 29 37 70 38 30 39
REMARK SMILES IDX 75 40 69 41 71 42 31 43 74 44 68 45 67 46 32 48 58 49 41 50
REMARK SMILES IDX 57 51 42 52 45 53 56 54 72 55 43 56 44 57 55 59 73 60 46 61
REMARK SMILES IDX 33 62 34 63 39 64 35 65 36 66 38 67 40 68 37 69 59 70 60 71
REMARK SMILES IDX 65 72 61 73 62 74 64 75 66 76 63 77 47 78 48 79 53 80 49 81
REMARK SMILES IDX 50 82 52 83 54 84 51 85
REMARK H PARENT 16 6 11 12 5 19 7 22 7 23 21 28 71 47 45 58
REMARK Flexibility Score: inf
ROOT
ATOM      1  C   UNL     1      -2.942   4.901  -5.400  1.00  0.00     0.023 C 
ENDROOT
BRANCH   1   2
ATOM      2  C   UNL     1      -1.713   4.864  -4.499  1.00  0.00     0.116 C 
BRANCH   2   3
ATOM      3  N   UNL     1      -2.121   4.949  -3.111  1.00  0.00    -0.354 N 
ATOM      4  C   UNL     1      -1.755   4.185  -2.050  1.00  0.00     0.242 C 
ATOM      5  O   UNL     1      -2.309   4.404  -0.969  1.00  0.00    -0.273 OA
ATOM      6  H   UNL     1      -2.760   5.670  -2.907  1.00  0.00     0.163 HD
BRANCH   4   7
ATOM      7  C   UNL     1      -0.714   3.071  -2.209  1.00  0.00     0.168 C 
ATOM      8  C   UNL     1      -1.304   1.897  -2.995  1.00  0.00     0.041 C 
BRANCH   7   9
ATOM      9  N   UNL     1       0.527   3.554  -2.813  1.00  0.00    -0.343 N 
ATOM     10  C   UNL     1       1.515   4.332  -2.288  1.00  0.00     0.243 C 
ATOM     11  O   UNL     1       2.618   4.245  -2.842  1.00  0.00    -0.273 OA
ATOM     12  H   UNL     1       0.671   3.273  -3.746  1.00  0.00     0.164 HD
BRANCH  10  13
ATOM     13  C   UNL     1       1.350   5.185  -0.998  1.00  0.00     0.175 C 
BRANCH  13  14
ATOM     14  C   UNL     1       1.492   4.405   0.349  1.00  0.00     0.015 C 
ATOM     15  C   UNL     1       0.216   4.232   1.183  1.00  0.00     0.010 C 
ATOM     16  C   UNL     1       2.197   3.050   0.204  1.00  0.00     0.010 C 
ENDBRANCH  13  14
BRANCH  13  17
ATOM     17  N   UNL     1       0.184   6.063  -1.061  1.00  0.00    -0.326 N 
ATOM     18  C   UNL     1       0.095   7.083  -1.960  1.00  0.00     0.312 C 
ATOM     19  H   UNL     1      -0.561   5.913  -0.435  1.00  0.00     0.166 HD
ATOM     20  N   UNL     1      -1.055   7.790  -1.842  1.00  0.00    -0.352 N 
ATOM     21  O   UNL     1       0.912   7.346  -2.824  1.00  0.00    -0.249 OA
ATOM     22  H   UNL     1      -1.704   7.562  -1.138  1.00  0.00     0.161 HD
ATOM     23  H   UNL     1      -1.242   8.532  -2.462  1.00  0.00     0.161 HD
ENDBRANCH  13  17
ENDBRANCH  10  13
ENDBRANCH   7   9
ENDBRANCH   4   7
ENDBRANCH   2   3
ENDBRANCH   1   2
BRANCH   1  24
ATOM     24  C   UNL     1      -3.749   6.197  -5.294  1.00  0.00     0.023 C 
BRANCH  24  25
ATOM     25  C   UNL     1      -2.944   7.458  -5.584  1.00  0.00     0.116 C 
BRANCH  25  26
ATOM     26  N   UNL     1      -2.424   7.462  -6.941  1.00  0.00    -0.352 N 
ATOM     27  C   UNL     1      -2.684   8.338  -7.965  1.00  0.00     0.251 C 
ATOM     28  H   UNL     1      -1.797   6.734  -7.157  1.00  0.00     0.163 HD
ATOM     29  O   UNL     1      -2.363   8.061  -9.115  1.00  0.00    -0.269 OA
BRANCH  27  30
ATOM     30  C   UNL     1      -3.376   9.609  -7.673  1.00  0.00     0.039 A 
ATOM     31  C   UNL     1      -4.417  10.018  -8.507  1.00  0.00     0.014 A 
ATOM     32  C   UNL     1      -3.000  10.390  -6.575  1.00  0.00     0.014 A 
ATOM     33  C   UNL     1      -5.123  11.181  -8.204  1.00  0.00     0.010 A 
ATOM     34  C   UNL     1      -3.759  11.503  -6.227  1.00  0.00     0.010 A 
ATOM     35  C   UNL     1      -4.825  11.913  -7.040  1.00  0.00    -0.014 A 
BRANCH  35  36
ATOM     36  C   UNL     1      -5.635  13.099  -6.664  1.00  0.00     0.031 A 
ATOM     37  C   UNL     1      -5.008  14.464  -6.604  1.00  0.00     0.074 A 
ATOM     38  C   UNL     1      -6.933  12.935  -6.339  1.00  0.00     0.049 A 
ATOM     39  N   UNL     1      -5.558  15.610  -6.293  1.00  0.00    -0.248 NA
ATOM     40  C   UNL     1      -3.572  14.551  -6.912  1.00  0.00     0.031 C 
ATOM     41  C   UNL     1      -7.642  11.654  -6.308  1.00  0.00     0.029 A 
ATOM     42  N   UNL     1      -7.887  13.851  -5.975  1.00  0.00    -0.354 N 
ATOM     43  C   UNL     1      -4.538  16.550  -6.363  1.00  0.00     0.074 A 
ATOM     44  C   UNL     1      -3.324  15.833  -6.686  1.00  0.00     0.031 C 
ATOM     45  C   UNL     1      -8.925  11.870  -5.980  1.00  0.00     0.029 A 
ATOM     46  C   UNL     1      -9.121  13.296  -5.737  1.00  0.00     0.049 A 
ATOM     47  H   UNL     1      -7.705  14.815  -5.891  1.00  0.00     0.167 HD
ATOM     48  C   UNL     1      -4.611  17.893  -6.200  1.00  0.00     0.037 A 
ATOM     49  C   UNL     1     -10.280  13.870  -5.364  1.00  0.00     0.037 A 
ATOM     50  C   UNL     1      -5.824  18.604  -5.891  1.00  0.00     0.049 A 
ATOM     51  C   UNL     1     -10.329  15.360  -5.170  1.00  0.00     0.074 A 
ATOM     52  C   UNL     1      -6.013  19.969  -5.760  1.00  0.00     0.029 A 
ATOM     53  N   UNL     1      -7.053  18.007  -5.654  1.00  0.00    -0.354 N 
ATOM     54  N   UNL     1      -9.374  16.246  -5.317  1.00  0.00    -0.248 NA
ATOM     55  C   UNL     1     -11.621  15.931  -4.764  1.00  0.00     0.031 C 
ATOM     56  C   UNL     1      -7.342  20.193  -5.388  1.00  0.00     0.029 A 
ATOM     57  C   UNL     1      -7.997  18.973  -5.347  1.00  0.00     0.049 A 
ATOM     58  H   UNL     1      -7.229  17.039  -5.697  1.00  0.00     0.167 HD
ATOM     59  C   UNL     1      -9.954  17.479  -5.049  1.00  0.00     0.074 A 
ATOM     60  C   UNL     1     -11.348  17.228  -4.750  1.00  0.00     0.031 C 
ATOM     61  C   UNL     1      -9.383  18.709  -5.050  1.00  0.00     0.037 A 
BRANCH  48  62
ATOM     62  C   UNL     1      -3.341  18.681  -6.353  1.00  0.00     0.057 A 
ATOM     63  C   UNL     1      -2.707  18.832  -7.594  1.00  0.00     0.134 A 
ATOM     64  C   UNL     1      -2.764  19.329  -5.253  1.00  0.00     0.134 A 
ATOM     65  F   UNL     1      -3.200  18.229  -8.687  1.00  0.00    -0.206 F 
ATOM     66  C   UNL     1      -1.533  19.575  -7.731  1.00  0.00     0.040 A 
ATOM     67  C   UNL     1      -1.607  20.099  -5.383  1.00  0.00     0.040 A 
ATOM     68  F   UNL     1      -3.321  19.233  -4.036  1.00  0.00    -0.206 F 
ATOM     69  C   UNL     1      -0.984  20.218  -6.623  1.00  0.00     0.006 A 
ENDBRANCH  48  62
BRANCH  49  70
ATOM     70  C   UNL     1     -11.494  13.037  -5.165  1.00  0.00     0.057 A 
ATOM     71  C   UNL     1     -12.591  13.138  -6.027  1.00  0.00     0.134 A 
ATOM     72  C   UNL     1     -11.591  12.128  -4.104  1.00  0.00     0.134 A 
ATOM     73  F   UNL     1     -12.567  14.003  -7.053  1.00  0.00    -0.206 F 
ATOM     74  C   UNL     1     -13.750  12.386  -5.829  1.00  0.00     0.040 A 
ATOM     75  C   UNL     1     -12.732  11.348  -3.911  1.00  0.00     0.040 A 
ATOM     76  F   UNL     1     -10.570  11.976  -3.247  1.00  0.00    -0.206 F 
ATOM     77  C   UNL     1     -13.820  11.483  -4.770  1.00  0.00     0.006 A 
ENDBRANCH  49  70
BRANCH  61  78
ATOM     78  C   UNL     1     -10.274  19.879  -4.746  1.00  0.00     0.057 A 
ATOM     79  C   UNL     1     -10.792  20.105  -3.464  1.00  0.00     0.134 A 
ATOM     80  C   UNL     1     -10.595  20.809  -5.744  1.00  0.00     0.134 A 
ATOM     81  F   UNL     1     -10.534  19.247  -2.465  1.00  0.00    -0.206 F 
ATOM     82  C   UNL     1     -11.620  21.196  -3.193  1.00  0.00     0.040 A 
ATOM     83  C   UNL     1     -11.396  21.920  -5.478  1.00  0.00     0.040 A 
ATOM     84  F   UNL     1     -10.125  20.659  -6.992  1.00  0.00    -0.206 F 
ATOM     85  C   UNL     1     -11.918  22.111  -4.200  1.00  0.00     0.006 A 
ENDBRANCH  61  78
ENDBRANCH  35  36
ENDBRANCH  27  30
ENDBRANCH  25  26
ENDBRANCH  24  25
ENDBRANCH   1  24
TORSDOF 15
