REMARK SMILES CC1=C(C)C[C@@H](C(=O)NCCCCNC(=O)c2ccc(-c3c4nc(c(-c5c(F)cccc5F)c5ccc([nH]5)c(-c5c(F)cccc5F)c5nc(c(-c6c(F)cccc6F)c6ccc3[nH]6)C=C5)C=C4)cc2)[C@@H](C(=O)NCC[NH+]2CCOCC2)C1
REMARK SMILES IDX 10 1 9 2 7 3 8 4 6 6 1 7 2 8 3 9 83 10 4 11 5 12 71 13 72 14
REMARK SMILES IDX 73 15 74 16 75 18 76 19 77 20 78 21 82 22 79 24 81 25 80 26
REMARK SMILES IDX 11 27 12 28 13 29 14 30 15 31 16 33 17 34 18 35 70 36 19 37
REMARK SMILES IDX 69 38 20 39 21 40 22 41 63 42 23 43 68 44 62 45 64 46 24 47
REMARK SMILES IDX 67 48 61 49 60 50 25 52 51 53 34 54 50 55 35 56 38 57 49 58
REMARK SMILES IDX 65 59 36 60 37 61 48 63 66 64 39 65 26 66 27 67 32 68 28 69
REMARK SMILES IDX 29 70 31 71 33 72 30 73 52 74 53 75 58 76 54 77 55 78 57 79
REMARK SMILES IDX 59 80 56 81 40 82 41 83 46 84 42 85 43 86 45 87 47 88 44 89
REMARK H PARENT 9 5 74 17 77 23 14 32 64 51 38 62
REMARK Flexibility Score: inf
ROOT
ATOM      1  C   UNL     1       2.670   0.004   3.408  1.00  0.00     0.116 C 
ENDROOT
BRANCH   1   2
ATOM      2  N   UNL     1       2.041   0.135   4.698  1.00  0.00    -0.356 N 
ATOM      3  C   UNL     1       0.738   0.255   5.057  1.00  0.00     0.224 C 
ATOM      4  O   UNL     1       0.483   0.044   6.250  1.00  0.00    -0.275 OA
ATOM      5  H   UNL     1       2.671   0.138   5.455  1.00  0.00     0.163 HD
BRANCH   3   6
ATOM      6  C   UNL     1      -0.414   0.560   4.080  1.00  0.00     0.095 C 
ATOM      7  C   UNL     1       0.532   0.083  -0.222  1.00  0.00     0.039 C 
ATOM      8  C   UNL     1       0.015   0.180   1.194  1.00  0.00    -0.074 C 
ATOM      9  C   UNL     1      -0.386  -0.875   1.935  1.00  0.00    -0.074 C 
ATOM     10  C   UNL     1       0.077   1.589   1.749  1.00  0.00     0.045 C 
ATOM     11  C   UNL     1      -0.335  -2.319   1.498  1.00  0.00     0.039 C 
ATOM     12  C   UNL     1      -0.866  -0.708   3.355  1.00  0.00     0.045 C 
ATOM     13  C   UNL     1      -0.353   1.836   3.207  1.00  0.00     0.095 C 
BRANCH  13  14
ATOM     14  C   UNL     1       0.455   2.918   3.926  1.00  0.00     0.224 C 
ATOM     15  O   UNL     1       0.604   2.935   5.149  1.00  0.00    -0.275 OA
ATOM     16  N   UNL     1       1.050   3.933   3.264  1.00  0.00    -0.350 N 
ATOM     17  H   UNL     1       1.965   4.137   3.565  1.00  0.00     0.163 HD
BRANCH  16  18
ATOM     18  C   UNL     1       0.572   4.771   2.190  1.00  0.00     0.177 C 
BRANCH  18  19
ATOM     19  C   UNL     1       0.365   6.215   2.706  1.00  0.00     0.283 C 
BRANCH  19  20
ATOM     20  N   UNL     1       1.485   6.880   3.369  1.00  0.00    -0.330 N 
ATOM     21  C   UNL     1       2.786   6.940   2.716  1.00  0.00     0.291 C 
ATOM     22  C   UNL     1       1.553   6.905   4.831  1.00  0.00     0.291 C 
ATOM     23  H   UNL     1       1.087   7.792   3.145  1.00  0.00     0.348 HD
ATOM     24  C   UNL     1       3.846   6.044   3.377  1.00  0.00     0.221 C 
ATOM     25  C   UNL     1       2.706   6.095   5.456  1.00  0.00     0.221 C 
ATOM     26  O   UNL     1       3.952   6.306   4.780  1.00  0.00    -0.370 OA
ENDBRANCH  19  20
ENDBRANCH  18  19
ENDBRANCH  16  18
ENDBRANCH  13  14
ENDBRANCH   3   6
ENDBRANCH   1   2
BRANCH   1  27
ATOM     27  C   UNL     1       3.479   1.226   2.993  1.00  0.00     0.023 C 
BRANCH  27  28
ATOM     28  C   UNL     1       4.805   1.400   3.723  1.00  0.00     0.023 C 
BRANCH  28  29
ATOM     29  C   UNL     1       5.731   0.196   3.657  1.00  0.00     0.116 C 
BRANCH  29  30
ATOM     30  N   UNL     1       5.997  -0.264   2.299  1.00  0.00    -0.352 N 
ATOM     31  C   UNL     1       7.161  -0.790   1.795  1.00  0.00     0.251 C 
ATOM     32  H   UNL     1       5.248  -0.187   1.665  1.00  0.00     0.163 HD
ATOM     33  O   UNL     1       7.269  -1.051   0.601  1.00  0.00    -0.269 OA
BRANCH  31  34
ATOM     34  C   UNL     1       8.299  -0.993   2.711  1.00  0.00     0.039 A 
ATOM     35  C   UNL     1       9.542  -0.452   2.377  1.00  0.00     0.014 A 
ATOM     36  C   UNL     1       8.108  -1.642   3.933  1.00  0.00     0.014 A 
ATOM     37  C   UNL     1      10.578  -0.493   3.309  1.00  0.00     0.010 A 
ATOM     38  C   UNL     1       9.114  -1.607   4.890  1.00  0.00     0.010 A 
ATOM     39  C   UNL     1      10.357  -1.031   4.588  1.00  0.00    -0.014 A 
BRANCH  39  40
ATOM     40  C   UNL     1      11.412  -1.006   5.629  1.00  0.00     0.031 A 
ATOM     41  C   UNL     1      11.961  -2.297   6.168  1.00  0.00     0.074 A 
ATOM     42  C   UNL     1      11.816   0.172   6.143  1.00  0.00     0.049 A 
ATOM     43  N   UNL     1      12.822  -2.490   7.134  1.00  0.00    -0.248 NA
ATOM     44  C   UNL     1      11.446  -3.538   5.566  1.00  0.00     0.031 C 
ATOM     45  C   UNL     1      11.315   1.489   5.744  1.00  0.00     0.029 A 
ATOM     46  N   UNL     1      12.735   0.450   7.123  1.00  0.00    -0.354 N 
ATOM     47  C   UNL     1      12.931  -3.867   7.271  1.00  0.00     0.074 A 
ATOM     48  C   UNL     1      12.013  -4.463   6.325  1.00  0.00     0.031 C 
ATOM     49  C   UNL     1      11.956   2.436   6.450  1.00  0.00     0.029 A 
ATOM     50  C   UNL     1      12.883   1.792   7.375  1.00  0.00     0.049 A 
ATOM     51  H   UNL     1      13.241  -0.247   7.601  1.00  0.00     0.167 HD
ATOM     52  C   UNL     1      13.740  -4.573   8.095  1.00  0.00     0.037 A 
ATOM     53  C   UNL     1      13.678   2.430   8.255  1.00  0.00     0.037 A 
ATOM     54  C   UNL     1      14.685  -3.977   9.001  1.00  0.00     0.049 A 
ATOM     55  C   UNL     1      14.582   1.623   9.144  1.00  0.00     0.074 A 
ATOM     56  C   UNL     1      15.610  -4.604   9.816  1.00  0.00     0.029 A 
ATOM     57  N   UNL     1      14.825  -2.613   9.208  1.00  0.00    -0.354 N 
ATOM     58  N   UNL     1      14.731   0.323   9.209  1.00  0.00    -0.248 NA
ATOM     59  C   UNL     1      15.433   2.374  10.078  1.00  0.00     0.031 C 
ATOM     60  C   UNL     1      16.286  -3.620  10.545  1.00  0.00     0.029 A 
ATOM     61  C   UNL     1      15.809  -2.379  10.153  1.00  0.00     0.049 A 
ATOM     62  H   UNL     1      14.302  -1.915   8.751  1.00  0.00     0.167 HD
ATOM     63  C   UNL     1      15.710   0.100  10.168  1.00  0.00     0.074 A 
ATOM     64  C   UNL     1      16.128   1.400  10.650  1.00  0.00     0.031 C 
ATOM     65  C   UNL     1      16.219  -1.076  10.610  1.00  0.00     0.037 A 
BRANCH  52  66
ATOM     66  C   UNL     1      13.644  -6.069   8.045  1.00  0.00     0.057 A 
ATOM     67  C   UNL     1      14.113  -6.803   6.948  1.00  0.00     0.134 A 
ATOM     68  C   UNL     1      13.103  -6.785   9.120  1.00  0.00     0.134 A 
ATOM     69  F   UNL     1      14.629  -6.176   5.880  1.00  0.00    -0.206 F 
ATOM     70  C   UNL     1      14.024  -8.196   6.911  1.00  0.00     0.040 A 
ATOM     71  C   UNL     1      13.033  -8.179   9.105  1.00  0.00     0.040 A 
ATOM     72  F   UNL     1      12.639  -6.143  10.202  1.00  0.00    -0.206 F 
ATOM     73  C   UNL     1      13.490  -8.888   7.996  1.00  0.00     0.006 A 
ENDBRANCH  52  66
BRANCH  53  74
ATOM     74  C   UNL     1      13.685   3.913   8.315  1.00  0.00     0.057 A 
ATOM     75  C   UNL     1      14.784   4.644   7.848  1.00  0.00     0.134 A 
ATOM     76  C   UNL     1      12.607   4.634   8.842  1.00  0.00     0.134 A 
ATOM     77  F   UNL     1      15.854   4.007   7.349  1.00  0.00    -0.206 F 
ATOM     78  C   UNL     1      14.821   6.037   7.921  1.00  0.00     0.040 A 
ATOM     79  C   UNL     1      12.621   6.028   8.900  1.00  0.00     0.040 A 
ATOM     80  F   UNL     1      11.522   3.992   9.299  1.00  0.00    -0.206 F 
ATOM     81  C   UNL     1      13.734   6.733   8.444  1.00  0.00     0.006 A 
ENDBRANCH  53  74
BRANCH  65  82
ATOM     82  C   UNL     1      17.308  -1.009  11.638  1.00  0.00     0.057 A 
ATOM     83  C   UNL     1      17.046  -0.672  12.971  1.00  0.00     0.134 A 
ATOM     84  C   UNL     1      18.628  -1.328  11.296  1.00  0.00     0.134 A 
ATOM     85  F   UNL     1      15.804  -0.344  13.358  1.00  0.00    -0.206 F 
ATOM     86  C   UNL     1      18.063  -0.637  13.926  1.00  0.00     0.040 A 
ATOM     87  C   UNL     1      19.649  -1.321  12.247  1.00  0.00     0.040 A 
ATOM     88  F   UNL     1      18.944  -1.667  10.037  1.00  0.00    -0.206 F 
ATOM     89  C   UNL     1      19.368  -0.970  13.566  1.00  0.00     0.006 A 
ENDBRANCH  65  82
ENDBRANCH  39  40
ENDBRANCH  31  34
ENDBRANCH  29  30
ENDBRANCH  28  29
ENDBRANCH  27  28
ENDBRANCH   1  27
TORSDOF 15
