REMARK SMILES Cn1c(SCC(=O)NCCCCNC(=O)c2ccc(-c3c4nc(c(-c5c(F)cccc5F)c5ccc([nH]5)c(-c5c(F)cccc5F)c5nc(c(-c6c(F)cccc6F)c6ccc3[nH]6)C=C5)C=C4)cc2)nnc1-c1ccccc1Br
REMARK SMILES IDX 10 1 9 2 8 3 6 4 7 5 5 7 4 8 3 9 1 10 2 11 72 12 70 13 71 14
REMARK SMILES IDX 73 15 74 16 78 17 75 18 77 19 79 20 76 21 11 22 12 23 13 24
REMARK SMILES IDX 14 25 15 27 16 28 17 29 69 30 18 31 68 32 19 33 20 34 21 35
REMARK SMILES IDX 62 36 22 37 67 38 61 39 63 40 23 41 66 42 60 43 59 44 24 46
REMARK SMILES IDX 50 47 33 48 49 49 34 50 37 51 48 52 64 53 35 54 36 55 47 57
REMARK SMILES IDX 65 58 38 59 25 60 26 61 31 62 27 63 28 64 30 65 32 66 29 67
REMARK SMILES IDX 51 68 52 69 57 70 53 71 54 72 56 73 58 74 55 75 39 76 40 77
REMARK SMILES IDX 45 78 41 79 42 80 44 81 46 82 43 83
REMARK H PARENT 8 6 13 26 63 45 37 56
REMARK Flexibility Score: inf
ROOT
ATOM      1  C   UNL     1       0.280   3.538   3.240  1.00  0.00     0.023 C 
ENDROOT
BRANCH   1   2
ATOM      2  C   UNL     1       1.478   4.124   2.498  1.00  0.00     0.116 C 
BRANCH   2   3
ATOM      3  N   UNL     1       2.489   3.120   2.232  1.00  0.00    -0.355 N 
ATOM      4  C   UNL     1       2.888   2.581   1.052  1.00  0.00     0.230 C 
ATOM      5  O   UNL     1       3.825   1.778   1.083  1.00  0.00    -0.274 OA
ATOM      6  H   UNL     1       2.956   2.778   3.028  1.00  0.00     0.163 HD
BRANCH   4   7
ATOM      7  C   UNL     1       2.299   3.016  -0.268  1.00  0.00     0.178 C 
BRANCH   7   8
ATOM      8  S   UNL     1       0.570   2.660  -0.548  1.00  0.00    -0.076 SA
BRANCH   8   9
ATOM      9  C   UNL     1       0.167   1.028  -0.161  1.00  0.00     0.191 A 
ATOM     10  C   UNL     1       2.312  -0.303  -0.504  1.00  0.00     0.154 C 
ATOM     11  N   UNL     1       0.921  -0.114  -0.195  1.00  0.00    -0.305 N 
ATOM     12  C   UNL     1       0.047  -1.151   0.094  1.00  0.00     0.165 A 
ATOM     13  N   UNL     1      -1.083   0.703   0.099  1.00  0.00    -0.123 NA
ATOM     14  N   UNL     1      -1.162  -0.655   0.245  1.00  0.00    -0.129 NA
BRANCH  12  15
ATOM     15  C   UNL     1       0.399  -2.567   0.146  1.00  0.00     0.034 A 
ATOM     16  C   UNL     1       0.015  -3.387  -0.928  1.00  0.00     0.013 A 
ATOM     17  C   UNL     1       1.121  -3.135   1.207  1.00  0.00     0.029 A 
ATOM     18  C   UNL     1       0.383  -4.733  -0.965  1.00  0.00     0.001 A 
ATOM     19  C   UNL     1       1.491  -4.483   1.165  1.00  0.00     0.016 A 
ATOM     20  Br  UNL     1       1.617  -2.138   2.749  1.00  0.00    -0.050 Br
ATOM     21  C   UNL     1       1.130  -5.278   0.077  1.00  0.00     0.001 A 
ENDBRANCH  12  15
ENDBRANCH   8   9
ENDBRANCH   7   8
ENDBRANCH   4   7
ENDBRANCH   2   3
ENDBRANCH   1   2
BRANCH   1  22
ATOM     22  C   UNL     1       0.594   2.949   4.621  1.00  0.00     0.023 C 
BRANCH  22  23
ATOM     23  C   UNL     1       1.337   3.869   5.586  1.00  0.00     0.116 C 
BRANCH  23  24
ATOM     24  N   UNL     1       0.655   5.132   5.813  1.00  0.00    -0.352 N 
ATOM     25  C   UNL     1       0.449   5.823   6.978  1.00  0.00     0.251 C 
ATOM     26  H   UNL     1       0.285   5.557   5.005  1.00  0.00     0.163 HD
ATOM     27  O   UNL     1      -0.255   6.835   6.964  1.00  0.00    -0.269 OA
BRANCH  25  28
ATOM     28  C   UNL     1       1.030   5.359   8.257  1.00  0.00     0.039 A 
ATOM     29  C   UNL     1       0.239   5.426   9.408  1.00  0.00     0.014 A 
ATOM     30  C   UNL     1       2.343   4.886   8.343  1.00  0.00     0.014 A 
ATOM     31  C   UNL     1       0.744   4.973  10.629  1.00  0.00     0.010 A 
ATOM     32  C   UNL     1       2.821   4.367   9.547  1.00  0.00     0.010 A 
ATOM     33  C   UNL     1       2.028   4.409  10.704  1.00  0.00    -0.014 A 
BRANCH  33  34
ATOM     34  C   UNL     1       2.537   3.858  11.987  1.00  0.00     0.031 A 
ATOM     35  C   UNL     1       3.723   4.478  12.674  1.00  0.00     0.074 A 
ATOM     36  C   UNL     1       1.945   2.773  12.523  1.00  0.00     0.049 A 
ATOM     37  N   UNL     1       4.296   4.138  13.802  1.00  0.00    -0.248 NA
ATOM     38  C   UNL     1       4.365   5.615  11.996  1.00  0.00     0.031 C 
ATOM     39  C   UNL     1       0.822   2.043  11.929  1.00  0.00     0.029 A 
ATOM     40  N   UNL     1       2.202   2.095  13.688  1.00  0.00    -0.354 N 
ATOM     41  C   UNL     1       5.364   5.012  13.964  1.00  0.00     0.074 A 
ATOM     42  C   UNL     1       5.395   5.859  12.792  1.00  0.00     0.031 C 
ATOM     43  C   UNL     1       0.465   1.043  12.750  1.00  0.00     0.029 A 
ATOM     44  C   UNL     1       1.351   1.039  13.910  1.00  0.00     0.049 A 
ATOM     45  H   UNL     1       2.927   2.341  14.306  1.00  0.00     0.167 HD
ATOM     46  C   UNL     1       6.225   5.117  15.006  1.00  0.00     0.037 A 
ATOM     47  C   UNL     1       1.287   0.169  14.935  1.00  0.00     0.037 A 
ATOM     48  C   UNL     1       6.184   4.283  16.180  1.00  0.00     0.049 A 
ATOM     49  C   UNL     1       2.251   0.309  16.080  1.00  0.00     0.074 A 
ATOM     50  C   UNL     1       6.979   4.346  17.311  1.00  0.00     0.029 A 
ATOM     51  N   UNL     1       5.301   3.231  16.372  1.00  0.00    -0.354 N 
ATOM     52  N   UNL     1       3.208   1.187  16.254  1.00  0.00    -0.248 NA
ATOM     53  C   UNL     1       2.116  -0.658  17.178  1.00  0.00     0.031 C 
ATOM     54  C   UNL     1       6.607   3.304  18.168  1.00  0.00     0.029 A 
ATOM     55  C   UNL     1       5.545   2.625  17.594  1.00  0.00     0.049 A 
ATOM     56  H   UNL     1       4.604   2.955  15.734  1.00  0.00     0.167 HD
ATOM     57  C   UNL     1       3.770   0.898  17.491  1.00  0.00     0.074 A 
ATOM     58  C   UNL     1       3.033  -0.226  18.031  1.00  0.00     0.031 C 
ATOM     59  C   UNL     1       4.804   1.507  18.122  1.00  0.00     0.037 A 
BRANCH  46  60
ATOM     60  C   UNL     1       7.284   6.179  14.923  1.00  0.00     0.057 A 
ATOM     61  C   UNL     1       6.972   7.542  15.011  1.00  0.00     0.134 A 
ATOM     62  C   UNL     1       8.636   5.836  14.790  1.00  0.00     0.134 A 
ATOM     63  F   UNL     1       5.696   7.941  15.130  1.00  0.00    -0.206 F 
ATOM     64  C   UNL     1       7.960   8.526  14.941  1.00  0.00     0.040 A 
ATOM     65  C   UNL     1       9.636   6.809  14.747  1.00  0.00     0.040 A 
ATOM     66  F   UNL     1       9.008   4.549  14.707  1.00  0.00    -0.206 F 
ATOM     67  C   UNL     1       9.298   8.159  14.816  1.00  0.00     0.006 A 
ENDBRANCH  46  60
BRANCH  47  68
ATOM     68  C   UNL     1       0.250  -0.894  14.945  1.00  0.00     0.057 A 
ATOM     69  C   UNL     1      -0.813  -0.858  15.855  1.00  0.00     0.134 A 
ATOM     70  C   UNL     1       0.301  -1.974  14.056  1.00  0.00     0.134 A 
ATOM     71  F   UNL     1      -0.905   0.141  16.745  1.00  0.00    -0.206 F 
ATOM     72  C   UNL     1      -1.775  -1.868  15.897  1.00  0.00     0.040 A 
ATOM     73  C   UNL     1      -0.670  -2.977  14.068  1.00  0.00     0.040 A 
ATOM     74  F   UNL     1       1.289  -2.063  13.154  1.00  0.00    -0.206 F 
ATOM     75  C   UNL     1      -1.708  -2.929  14.997  1.00  0.00     0.006 A 
ENDBRANCH  47  68
BRANCH  59  76
ATOM     76  C   UNL     1       5.174   0.989  19.482  1.00  0.00     0.057 A 
ATOM     77  C   UNL     1       5.785  -0.259  19.660  1.00  0.00     0.134 A 
ATOM     78  C   UNL     1       4.925   1.755  20.628  1.00  0.00     0.134 A 
ATOM     79  F   UNL     1       6.040  -1.049  18.605  1.00  0.00    -0.206 F 
ATOM     80  C   UNL     1       6.103  -0.741  20.931  1.00  0.00     0.040 A 
ATOM     81  C   UNL     1       5.265   1.297  21.901  1.00  0.00     0.040 A 
ATOM     82  F   UNL     1       4.352   2.964  20.528  1.00  0.00    -0.206 F 
ATOM     83  C   UNL     1       5.847   0.041  22.056  1.00  0.00     0.006 A 
ENDBRANCH  59  76
ENDBRANCH  33  34
ENDBRANCH  25  28
ENDBRANCH  23  24
ENDBRANCH  22  23
ENDBRANCH   1  22
TORSDOF 14
