REMARK SMILES Cc1cccc(OC2(C(=O)NCCCCNC(=O)c3ccc(-c4c5nc(c(-c6c(F)cccc6F)c6ccc([nH]6)c(-c6c(F)cccc6F)c6nc(c(-c7c(F)cccc7F)c7ccc4[nH]7)C=C6)C=C5)cc3)CCN(C(=O)c3cnc[nH]c3=O)CC2)c1
REMARK SMILES IDX 13 1 12 2 11 3 9 4 10 5 8 7 73 8 86 9 74 10 85 11 75 12
REMARK SMILES IDX 76 13 77 14 7 15 6 16 1 17 2 18 3 19 87 20 4 21 5 22 78 23
REMARK SMILES IDX 79 24 83 25 80 26 82 27 84 28 81 29 14 31 15 32 16 33 17 34
REMARK SMILES IDX 18 36 19 37 20 38 72 39 21 40 71 41 22 42 23 43 24 44 65 45
REMARK SMILES IDX 25 46 70 47 64 48 66 49 26 50 69 51 63 52 62 53 27 55 53 56
REMARK SMILES IDX 36 57 52 58 37 59 40 60 51 61 67 62 38 63 39 64 50 66 68 67
REMARK SMILES IDX 41 68 28 69 29 70 34 71 30 72 31 73 33 74 35 75 32 76 54 77
REMARK SMILES IDX 55 78 60 79 56 80 57 81 59 82 61 83 58 84 42 85 43 86 48 87
REMARK SMILES IDX 44 88 45 89 47 90 49 91 46 92
REMARK H PARENT 11 6 82 30 16 35 66 54 40 65
REMARK Flexibility Score: inf
ROOT
ATOM      1  C   UNL     1       1.646   6.409  -1.619  1.00  0.00     0.023 C 
ENDROOT
BRANCH   1   2
ATOM      2  C   UNL     1       0.111   6.492  -1.442  1.00  0.00     0.116 C 
BRANCH   2   3
ATOM      3  N   UNL     1      -0.696   5.349  -1.877  1.00  0.00    -0.353 N 
ATOM      4  C   UNL     1      -1.229   4.249  -1.254  1.00  0.00     0.264 C 
ATOM      5  O   UNL     1      -2.187   3.740  -1.854  1.00  0.00    -0.270 OA
ATOM      6  H   UNL     1      -0.904   5.377  -2.839  1.00  0.00     0.163 HD
BRANCH   4   7
ATOM      7  C   UNL     1      -0.714   3.636   0.096  1.00  0.00     0.190 C 
ATOM      8  C   UNL     1       0.782   3.879   0.227  1.00  0.00     0.080 C 
ATOM      9  C   UNL     1      -1.447   4.312   1.291  1.00  0.00     0.080 C 
ATOM     10  C   UNL     1       1.388   3.576   1.575  1.00  0.00     0.124 C 
ATOM     11  C   UNL     1      -0.770   3.970   2.635  1.00  0.00     0.124 C 
ATOM     12  N   UNL     1       0.644   4.324   2.564  1.00  0.00    -0.338 N 
ATOM     13  C   UNL     1       1.110   5.572   2.949  1.00  0.00     0.261 C 
ATOM     14  O   UNL     1       1.808   6.289   2.235  1.00  0.00    -0.269 OA
BRANCH   7  15
ATOM     15  O   UNL     1      -1.200   2.280   0.132  1.00  0.00    -0.477 OA
BRANCH  15  16
ATOM     16  C   UNL     1      -0.582   1.085   0.003  1.00  0.00     0.121 A 
ATOM     17  C   UNL     1       2.741  -0.764  -0.088  1.00  0.00     0.044 C 
ATOM     18  C   UNL     1       1.262  -0.508  -0.075  1.00  0.00    -0.047 A 
ATOM     19  C   UNL     1       0.364  -1.572   0.007  1.00  0.00     0.003 A 
ATOM     20  C   UNL     1       0.772   0.809  -0.123  1.00  0.00     0.049 A 
ATOM     21  C   UNL     1      -1.003  -1.319   0.058  1.00  0.00     0.004 A 
ATOM     22  C   UNL     1      -1.465  -0.001   0.068  1.00  0.00     0.046 A 
ENDBRANCH  15  16
ENDBRANCH   7  15
BRANCH  13  23
ATOM     23  C   UNL     1       0.760   5.974   4.318  1.00  0.00     0.123 A 
ATOM     24  C   UNL     1       0.184   7.160   4.556  1.00  0.00     0.132 A 
ATOM     25  C   UNL     1       1.090   5.132   5.482  1.00  0.00     0.263 A 
ATOM     26  N   UNL     1      -0.174   7.625   5.800  1.00  0.00    -0.246 NA
ATOM     27  N   UNL     1       0.712   5.645   6.689  1.00  0.00    -0.312 N 
ATOM     28  O   UNL     1       1.677   4.059   5.399  1.00  0.00    -0.269 OA
ATOM     29  C   UNL     1       0.103   6.859   6.801  1.00  0.00     0.199 A 
ATOM     30  H   UNL     1       0.885   5.121   7.505  1.00  0.00     0.171 HD
ENDBRANCH  13  23
ENDBRANCH   4   7
ENDBRANCH   2   3
ENDBRANCH   1   2
BRANCH   1  31
ATOM     31  C   UNL     1       2.156   6.101  -3.020  1.00  0.00     0.023 C 
BRANCH  31  32
ATOM     32  C   UNL     1       2.287   7.350  -3.865  1.00  0.00     0.116 C 
BRANCH  32  33
ATOM     33  N   UNL     1       3.434   8.195  -3.531  1.00  0.00    -0.352 N 
ATOM     34  C   UNL     1       3.685   9.512  -3.903  1.00  0.00     0.251 C 
ATOM     35  H   UNL     1       4.121   7.774  -2.965  1.00  0.00     0.163 HD
ATOM     36  O   UNL     1       4.687  10.090  -3.537  1.00  0.00    -0.269 OA
BRANCH  34  37
ATOM     37  C   UNL     1       2.621  10.240  -4.641  1.00  0.00     0.039 A 
ATOM     38  C   UNL     1       2.163  11.441  -4.089  1.00  0.00     0.014 A 
ATOM     39  C   UNL     1       1.887   9.581  -5.620  1.00  0.00     0.014 A 
ATOM     40  C   UNL     1       0.838  11.809  -4.296  1.00  0.00     0.010 A 
ATOM     41  C   UNL     1       0.541   9.865  -5.713  1.00  0.00     0.010 A 
ATOM     42  C   UNL     1       0.003  10.936  -4.990  1.00  0.00    -0.014 A 
BRANCH  42  43
ATOM     43  C   UNL     1      -1.453  10.998  -4.909  1.00  0.00     0.031 A 
ATOM     44  C   UNL     1      -2.239  11.400  -6.092  1.00  0.00     0.074 A 
ATOM     45  C   UNL     1      -2.080  10.621  -3.772  1.00  0.00     0.049 A 
ATOM     46  N   UNL     1      -3.429  11.893  -6.043  1.00  0.00    -0.248 NA
ATOM     47  C   UNL     1      -1.707  11.318  -7.446  1.00  0.00     0.031 C 
ATOM     48  C   UNL     1      -3.507  10.368  -3.586  1.00  0.00     0.029 A 
ATOM     49  N   UNL     1      -1.552  10.598  -2.473  1.00  0.00    -0.354 N 
ATOM     50  C   UNL     1      -3.917  11.946  -7.330  1.00  0.00     0.074 A 
ATOM     51  C   UNL     1      -2.787  11.627  -8.168  1.00  0.00     0.031 C 
ATOM     52  C   UNL     1      -3.804  10.495  -2.283  1.00  0.00     0.029 A 
ATOM     53  C   UNL     1      -2.607  10.975  -1.614  1.00  0.00     0.049 A 
ATOM     54  H   UNL     1      -0.632  10.366  -2.213  1.00  0.00     0.167 HD
ATOM     55  C   UNL     1      -5.254  12.129  -7.530  1.00  0.00     0.037 A 
ATOM     56  C   UNL     1      -2.537  12.106  -0.854  1.00  0.00     0.037 A 
ATOM     57  C   UNL     1      -5.949  12.351  -6.263  1.00  0.00     0.049 A 
ATOM     58  C   UNL     1      -3.632  13.106  -1.144  1.00  0.00     0.074 A 
ATOM     59  C   UNL     1      -6.648  11.502  -5.420  1.00  0.00     0.029 A 
ATOM     60  N   UNL     1      -5.708  13.513  -5.539  1.00  0.00    -0.354 N 
ATOM     61  N   UNL     1      -4.354  13.100  -2.230  1.00  0.00    -0.248 NA
ATOM     62  C   UNL     1      -3.973  14.215  -0.255  1.00  0.00     0.031 C 
ATOM     63  C   UNL     1      -6.774  12.137  -4.161  1.00  0.00     0.029 A 
ATOM     64  C   UNL     1      -6.172  13.380  -4.245  1.00  0.00     0.049 A 
ATOM     65  H   UNL     1      -5.268  14.317  -5.899  1.00  0.00     0.167 HD
ATOM     66  C   UNL     1      -5.196  14.181  -2.226  1.00  0.00     0.074 A 
ATOM     67  C   UNL     1      -4.941  14.832  -0.955  1.00  0.00     0.031 C 
ATOM     68  C   UNL     1      -6.017  14.460  -3.281  1.00  0.00     0.037 A 
BRANCH  55  69
ATOM     69  C   UNL     1      -5.959  11.793  -8.828  1.00  0.00     0.057 A 
ATOM     70  C   UNL     1      -7.294  11.343  -8.829  1.00  0.00     0.134 A 
ATOM     71  C   UNL     1      -5.364  11.822 -10.101  1.00  0.00     0.134 A 
ATOM     72  F   UNL     1      -8.051  11.375  -7.725  1.00  0.00    -0.206 F 
ATOM     73  C   UNL     1      -7.929  10.831  -9.969  1.00  0.00     0.040 A 
ATOM     74  C   UNL     1      -5.963  11.260 -11.239  1.00  0.00     0.040 A 
ATOM     75  F   UNL     1      -4.204  12.451 -10.319  1.00  0.00    -0.206 F 
ATOM     76  C   UNL     1      -7.247  10.744 -11.172  1.00  0.00     0.006 A 
ENDBRANCH  55  69
BRANCH  56  77
ATOM     77  C   UNL     1      -1.149  12.459  -0.451  1.00  0.00     0.057 A 
ATOM     78  C   UNL     1      -0.432  11.560   0.360  1.00  0.00     0.134 A 
ATOM     79  C   UNL     1      -0.412  13.434  -1.127  1.00  0.00     0.134 A 
ATOM     80  F   UNL     1      -1.081  10.597   1.036  1.00  0.00    -0.206 F 
ATOM     81  C   UNL     1       0.964  11.555   0.402  1.00  0.00     0.040 A 
ATOM     82  C   UNL     1       0.988  13.447  -1.081  1.00  0.00     0.040 A 
ATOM     83  F   UNL     1      -1.020  14.311  -1.938  1.00  0.00    -0.206 F 
ATOM     84  C   UNL     1       1.679  12.482  -0.348  1.00  0.00     0.006 A 
ENDBRANCH  56  77
BRANCH  68  85
ATOM     85  C   UNL     1      -6.808  15.729  -3.477  1.00  0.00     0.057 A 
ATOM     86  C   UNL     1      -6.407  16.988  -3.006  1.00  0.00     0.134 A 
ATOM     87  C   UNL     1      -7.954  15.735  -4.304  1.00  0.00     0.134 A 
ATOM     88  F   UNL     1      -5.280  17.146  -2.300  1.00  0.00    -0.206 F 
ATOM     89  C   UNL     1      -7.123  18.159  -3.291  1.00  0.00     0.040 A 
ATOM     90  C   UNL     1      -8.644  16.903  -4.639  1.00  0.00     0.040 A 
ATOM     91  F   UNL     1      -8.438  14.607  -4.844  1.00  0.00    -0.206 F 
ATOM     92  C   UNL     1      -8.237  18.122  -4.120  1.00  0.00     0.006 A 
ENDBRANCH  68  85
ENDBRANCH  42  43
ENDBRANCH  34  37
ENDBRANCH  32  33
ENDBRANCH  31  32
ENDBRANCH   1  31
TORSDOF 14
