REMARK SMILES C[C@@H](C(=O)NCCCCNC(=O)c1ccc(-c2c3nc(c(-c4c(F)cccc4F)c4ccc([nH]4)c(-c4c(F)cccc4F)c4nc(c(-c5c(F)cccc5F)c5ccc2[nH]5)C=C4)C=C3)cc1)c1ccc(-c2ccccc2)c(F)c1
REMARK SMILES IDX 7 1 6 2 5 3 3 4 4 5 2 7 1 8 67 9 68 10 79 11 69 12 77 13
REMARK SMILES IDX 70 14 78 15 71 16 72 17 76 18 73 19 75 20 74 21 8 22 9 23
REMARK SMILES IDX 10 24 11 25 12 27 13 28 14 29 66 30 15 31 65 32 16 33 17 34
REMARK SMILES IDX 18 35 59 36 19 37 64 38 58 39 60 40 20 41 63 42 57 43 56 44
REMARK SMILES IDX 21 46 47 47 30 48 46 49 31 50 34 51 45 52 61 53 32 54 33 55
REMARK SMILES IDX 44 57 62 58 35 59 22 60 23 61 28 62 24 63 25 64 27 65 29 66
REMARK SMILES IDX 26 67 48 68 49 69 54 70 50 71 51 72 53 73 55 74 52 75 36 76
REMARK SMILES IDX 37 77 42 78 38 79 39 80 41 81 43 82 40 83
REMARK H PARENT 5 6 10 26 60 45 34 56
REMARK Flexibility Score: inf
ROOT
ATOM      1  C   UNL     1       4.183   1.005  -0.496  1.00  0.00     0.023 C 
ENDROOT
BRANCH   1   2
ATOM      2  C   UNL     1       3.307   1.764   0.506  1.00  0.00     0.116 C 
BRANCH   2   3
ATOM      3  N   UNL     1       2.253   2.500  -0.166  1.00  0.00    -0.356 N 
ATOM      4  C   UNL     1       0.927   2.198  -0.320  1.00  0.00     0.227 C 
ATOM      5  O   UNL     1       0.293   2.897  -1.113  1.00  0.00    -0.274 OA
ATOM      6  H   UNL     1       2.535   3.350  -0.575  1.00  0.00     0.163 HD
BRANCH   4   7
ATOM      7  C   UNL     1       0.303   1.041   0.486  1.00  0.00     0.105 C 
ATOM      8  C   UNL     1       0.729  -0.284  -0.163  1.00  0.00     0.023 C 
BRANCH   7   9
ATOM      9  C   UNL     1      -1.220   1.137   0.665  1.00  0.00    -0.033 A 
ATOM     10  C   UNL     1      -1.865   2.373   0.829  1.00  0.00     0.005 A 
ATOM     11  C   UNL     1      -2.023  -0.013   0.726  1.00  0.00     0.044 A 
ATOM     12  C   UNL     1      -3.262   2.459   0.948  1.00  0.00     0.012 A 
ATOM     13  C   UNL     1      -3.408   0.076   0.857  1.00  0.00     0.131 A 
ATOM     14  C   UNL     1      -4.061   1.308   0.946  1.00  0.00     0.017 A 
ATOM     15  F   UNL     1      -4.109  -1.069   0.872  1.00  0.00    -0.206 F 
BRANCH  14  16
ATOM     16  C   UNL     1      -5.526   1.389   1.011  1.00  0.00    -0.015 A 
ATOM     17  C   UNL     1      -6.250   2.105   0.044  1.00  0.00     0.009 A 
ATOM     18  C   UNL     1      -6.245   0.722   2.017  1.00  0.00     0.009 A 
ATOM     19  C   UNL     1      -7.646   2.147   0.076  1.00  0.00     0.001 A 
ATOM     20  C   UNL     1      -7.641   0.766   2.052  1.00  0.00     0.001 A 
ATOM     21  C   UNL     1      -8.340   1.477   1.080  1.00  0.00     0.000 A 
ENDBRANCH  14  16
ENDBRANCH   7   9
ENDBRANCH   4   7
ENDBRANCH   2   3
ENDBRANCH   1   2
BRANCH   1  22
ATOM     22  C   UNL     1       4.970   1.888  -1.464  1.00  0.00     0.023 C 
BRANCH  22  23
ATOM     23  C   UNL     1       5.963   2.832  -0.805  1.00  0.00     0.116 C 
BRANCH  23  24
ATOM     24  N   UNL     1       6.995   2.134  -0.052  1.00  0.00    -0.352 N 
ATOM     25  C   UNL     1       8.338   2.418   0.012  1.00  0.00     0.251 C 
ATOM     26  H   UNL     1       6.693   1.361   0.478  1.00  0.00     0.163 HD
ATOM     27  O   UNL     1       9.113   1.670   0.598  1.00  0.00    -0.269 OA
BRANCH  25  28
ATOM     28  C   UNL     1       8.840   3.626  -0.670  1.00  0.00     0.039 A 
ATOM     29  C   UNL     1       9.896   3.507  -1.577  1.00  0.00     0.014 A 
ATOM     30  C   UNL     1       8.214   4.857  -0.460  1.00  0.00     0.014 A 
ATOM     31  C   UNL     1      10.278   4.615  -2.336  1.00  0.00     0.010 A 
ATOM     32  C   UNL     1       8.550   5.939  -1.264  1.00  0.00     0.010 A 
ATOM     33  C   UNL     1       9.580   5.826  -2.212  1.00  0.00    -0.014 A 
BRANCH  33  34
ATOM     34  C   UNL     1       9.897   7.007  -3.050  1.00  0.00     0.031 A 
ATOM     35  C   UNL     1      10.388   8.264  -2.395  1.00  0.00     0.074 A 
ATOM     36  C   UNL     1       9.622   6.990  -4.367  1.00  0.00     0.049 A 
ATOM     37  N   UNL     1      10.531   9.461  -2.902  1.00  0.00    -0.248 NA
ATOM     38  C   UNL     1      10.723   8.168  -0.966  1.00  0.00     0.031 C 
ATOM     39  C   UNL     1       9.100   5.843  -5.111  1.00  0.00     0.029 A 
ATOM     40  N   UNL     1       9.713   7.984  -5.308  1.00  0.00    -0.354 N 
ATOM     41  C   UNL     1      10.932  10.268  -1.846  1.00  0.00     0.074 A 
ATOM     42  C   UNL     1      10.976   9.432  -0.665  1.00  0.00     0.031 C 
ATOM     43  C   UNL     1       8.915   6.199  -6.393  1.00  0.00     0.029 A 
ATOM     44  C   UNL     1       9.265   7.607  -6.550  1.00  0.00     0.049 A 
ATOM     45  H   UNL     1      10.065   8.882  -5.112  1.00  0.00     0.167 HD
ATOM     46  C   UNL     1      11.246  11.585  -1.862  1.00  0.00     0.037 A 
ATOM     47  C   UNL     1       9.131   8.322  -7.683  1.00  0.00     0.037 A 
ATOM     48  C   UNL     1      11.241  12.401  -3.046  1.00  0.00     0.049 A 
ATOM     49  C   UNL     1       9.514   9.775  -7.688  1.00  0.00     0.074 A 
ATOM     50  C   UNL     1      11.617  13.725  -3.184  1.00  0.00     0.029 A 
ATOM     51  N   UNL     1      10.841  11.964  -4.301  1.00  0.00    -0.354 N 
ATOM     52  N   UNL     1       9.943  10.517  -6.696  1.00  0.00    -0.248 NA
ATOM     53  C   UNL     1       9.399  10.489  -8.967  1.00  0.00     0.031 C 
ATOM     54  C   UNL     1      11.415  14.099  -4.517  1.00  0.00     0.029 A 
ATOM     55  C   UNL     1      10.949  12.997  -5.216  1.00  0.00     0.049 A 
ATOM     56  H   UNL     1      10.527  11.054  -4.509  1.00  0.00     0.167 HD
ATOM     57  C   UNL     1      10.173  11.776  -7.234  1.00  0.00     0.074 A 
ATOM     58  C   UNL     1       9.840  11.697  -8.641  1.00  0.00     0.031 C 
ATOM     59  C   UNL     1      10.624  12.895  -6.617  1.00  0.00     0.037 A 
BRANCH  46  60
ATOM     60  C   UNL     1      11.611  12.217  -0.552  1.00  0.00     0.057 A 
ATOM     61  C   UNL     1      12.813  11.923   0.104  1.00  0.00     0.134 A 
ATOM     62  C   UNL     1      10.745  13.130   0.064  1.00  0.00     0.134 A 
ATOM     63  F   UNL     1      13.679  11.044  -0.425  1.00  0.00    -0.206 F 
ATOM     64  C   UNL     1      13.126  12.484   1.343  1.00  0.00     0.040 A 
ATOM     65  C   UNL     1      11.059  13.719   1.290  1.00  0.00     0.040 A 
ATOM     66  F   UNL     1       9.579  13.459  -0.511  1.00  0.00    -0.206 F 
ATOM     67  C   UNL     1      12.248  13.388   1.938  1.00  0.00     0.006 A 
ENDBRANCH  46  60
BRANCH  47  68
ATOM     68  C   UNL     1       8.623   7.662  -8.909  1.00  0.00     0.057 A 
ATOM     69  C   UNL     1       9.487   7.342  -9.963  1.00  0.00     0.134 A 
ATOM     70  C   UNL     1       7.276   7.306  -9.046  1.00  0.00     0.134 A 
ATOM     71  F   UNL     1      10.784   7.673  -9.895  1.00  0.00    -0.206 F 
ATOM     72  C   UNL     1       9.029   6.697 -11.112  1.00  0.00     0.040 A 
ATOM     73  C   UNL     1       6.808   6.644 -10.181  1.00  0.00     0.040 A 
ATOM     74  F   UNL     1       6.402   7.578  -8.066  1.00  0.00    -0.206 F 
ATOM     75  C   UNL     1       7.686   6.340 -11.220  1.00  0.00     0.006 A 
ENDBRANCH  47  68
BRANCH  59  76
ATOM     76  C   UNL     1      10.824  14.115  -7.463  1.00  0.00     0.057 A 
ATOM     77  C   UNL     1       9.747  14.898  -7.897  1.00  0.00     0.134 A 
ATOM     78  C   UNL     1      12.115  14.546  -7.794  1.00  0.00     0.134 A 
ATOM     79  F   UNL     1       8.486  14.531  -7.622  1.00  0.00    -0.206 F 
ATOM     80  C   UNL     1       9.948  16.063  -8.638  1.00  0.00     0.040 A 
ATOM     81  C   UNL     1      12.329  15.719  -8.517  1.00  0.00     0.040 A 
ATOM     82  F   UNL     1      13.188  13.843  -7.401  1.00  0.00    -0.206 F 
ATOM     83  C   UNL     1      11.243  16.481  -8.943  1.00  0.00     0.006 A 
ENDBRANCH  59  76
ENDBRANCH  33  34
ENDBRANCH  25  28
ENDBRANCH  23  24
ENDBRANCH  22  23
ENDBRANCH   1  22
TORSDOF 13
