REMARK SMILES CC1(C)C[C@@H](Nc2ccc(Cl)c(C(=O)NCCCCNC(=O)c3ccc(-c4c5nc(c(-c6c(F)cccc6F)c6ccc([nH]6)c(-c6c(F)cccc6F)c6nc(c(-c7c(F)cccc7F)c7ccc4[nH]7)C=C6)C=C5)cc3)c2)C(C)(C)O1
REMARK SMILES IDX 17 1 16 2 15 3 13 4 14 5 12 7 7 8 8 9 77 10 9 11 10 12 11 13
REMARK SMILES IDX 6 14 5 16 1 17 2 18 3 19 4 20 81 21 78 22 79 23 80 24 18 25
REMARK SMILES IDX 19 26 20 27 21 28 22 30 23 31 24 32 76 33 25 34 75 35 26 36
REMARK SMILES IDX 27 37 28 38 69 39 29 40 74 41 68 42 70 43 30 44 73 45 67 46
REMARK SMILES IDX 66 47 31 49 57 50 40 51 56 52 41 53 44 54 55 55 71 56 42 57
REMARK SMILES IDX 43 58 54 60 72 61 45 62 32 63 33 64 38 65 34 66 35 67 37 68
REMARK SMILES IDX 39 69 36 70 58 71 59 72 64 73 60 74 61 75 63 76 65 77 62 78
REMARK SMILES IDX 46 79 47 80 52 81 48 82 49 83 51 84 53 85 50 86
REMARK H PARENT 15 6 6 15 20 29 70 48 44 59
REMARK Flexibility Score: inf
ROOT
ATOM      1  C   UNL     1       0.686  -6.909  10.435  1.00  0.00     0.023 C 
ENDROOT
BRANCH   1   2
ATOM      2  C   UNL     1       0.061  -5.810   9.588  1.00  0.00     0.116 C 
BRANCH   2   3
ATOM      3  N   UNL     1       0.703  -4.513   9.687  1.00  0.00    -0.352 N 
ATOM      4  C   UNL     1       0.871  -3.532   8.736  1.00  0.00     0.252 C 
ATOM      5  O   UNL     1       1.396  -2.473   9.080  1.00  0.00    -0.269 OA
ATOM      6  H   UNL     1       1.076  -4.302  10.573  1.00  0.00     0.163 HD
BRANCH   4   7
ATOM      7  C   UNL     1       0.548  -3.736   7.299  1.00  0.00     0.060 A 
ATOM      8  C   UNL     1       1.277  -3.320   5.002  1.00  0.00     0.035 A 
ATOM      9  C   UNL     1       0.196  -4.076   4.543  1.00  0.00     0.027 A 
ATOM     10  C   UNL     1       1.486  -3.220   6.380  1.00  0.00     0.041 A 
ATOM     11  C   UNL     1      -0.765  -4.543   5.431  1.00  0.00     0.023 A 
ATOM     12  C   UNL     1      -0.638  -4.284   6.798  1.00  0.00     0.053 A 
ATOM     13  Cl  UNL     1      -2.079  -4.483   7.732  1.00  0.00    -0.083 Cl
BRANCH   8  14
ATOM     14  N   UNL     1       1.973  -2.493   4.118  1.00  0.00    -0.379 N 
ATOM     15  H   UNL     1       2.945  -2.564   3.980  1.00  0.00     0.160 HD
BRANCH  14  16
ATOM     16  C   UNL     1       1.144  -1.508   3.409  1.00  0.00     0.113 C 
ATOM     17  C   UNL     1       1.237   0.036   0.041  1.00  0.00     0.042 C 
ATOM     18  C   UNL     1       0.688  -0.326   1.417  1.00  0.00     0.065 C 
ATOM     19  C   UNL     1      -0.846  -0.280   1.387  1.00  0.00     0.042 C 
ATOM     20  C   UNL     1       1.229  -1.667   1.907  1.00  0.00     0.062 C 
ATOM     21  O   UNL     1       1.141   0.652   2.374  1.00  0.00    -0.367 OA
ATOM     22  C   UNL     1       1.512  -0.020   3.609  1.00  0.00     0.083 C 
ATOM     23  C   UNL     1       3.001   0.260   3.821  1.00  0.00     0.044 C 
ATOM     24  C   UNL     1       0.702   0.609   4.745  1.00  0.00     0.044 C 
ENDBRANCH  14  16
ENDBRANCH   8  14
ENDBRANCH   4   7
ENDBRANCH   2   3
ENDBRANCH   1   2
BRANCH   1  25
ATOM     25  C   UNL     1       0.680  -6.693  11.946  1.00  0.00     0.023 C 
BRANCH  25  26
ATOM     26  C   UNL     1      -0.635  -6.237  12.573  1.00  0.00     0.116 C 
BRANCH  26  27
ATOM     27  N   UNL     1      -1.761  -7.123  12.314  1.00  0.00    -0.352 N 
ATOM     28  C   UNL     1      -2.624  -7.742  13.188  1.00  0.00     0.251 C 
ATOM     29  H   UNL     1      -1.931  -7.308  11.362  1.00  0.00     0.163 HD
ATOM     30  O   UNL     1      -3.482  -8.510  12.758  1.00  0.00    -0.269 OA
BRANCH  28  31
ATOM     31  C   UNL     1      -2.499  -7.530  14.647  1.00  0.00     0.039 A 
ATOM     32  C   UNL     1      -2.551  -8.641  15.493  1.00  0.00     0.014 A 
ATOM     33  C   UNL     1      -2.313  -6.255  15.183  1.00  0.00     0.014 A 
ATOM     34  C   UNL     1      -2.320  -8.483  16.863  1.00  0.00     0.010 A 
ATOM     35  C   UNL     1      -1.996  -6.110  16.531  1.00  0.00     0.010 A 
ATOM     36  C   UNL     1      -1.990  -7.223  17.386  1.00  0.00    -0.014 A 
BRANCH  36  37
ATOM     37  C   UNL     1      -1.626  -7.052  18.817  1.00  0.00     0.031 A 
ATOM     38  C   UNL     1      -2.459  -6.177  19.713  1.00  0.00     0.074 A 
ATOM     39  C   UNL     1      -0.506  -7.629  19.296  1.00  0.00     0.049 A 
ATOM     40  N   UNL     1      -2.266  -5.855  20.968  1.00  0.00    -0.248 NA
ATOM     41  C   UNL     1      -3.650  -5.556  19.112  1.00  0.00     0.031 C 
ATOM     42  C   UNL     1       0.423  -8.453  18.519  1.00  0.00     0.029 A 
ATOM     43  N   UNL     1       0.049  -7.602  20.552  1.00  0.00    -0.354 N 
ATOM     44  C   UNL     1      -3.296  -4.983  21.297  1.00  0.00     0.074 A 
ATOM     45  C   UNL     1      -4.079  -4.782  20.097  1.00  0.00     0.031 C 
ATOM     46  C   UNL     1       1.414  -8.875  19.321  1.00  0.00     0.029 A 
ATOM     47  C   UNL     1       1.213  -8.325  20.657  1.00  0.00     0.049 A 
ATOM     48  H   UNL     1      -0.350  -7.111  21.306  1.00  0.00     0.167 HD
ATOM     49  C   UNL     1      -3.583  -4.422  22.496  1.00  0.00     0.037 A 
ATOM     50  C   UNL     1       2.028  -8.521  21.711  1.00  0.00     0.037 A 
ATOM     51  C   UNL     1      -2.823  -4.647  23.698  1.00  0.00     0.049 A 
ATOM     52  C   UNL     1       1.683  -7.896  23.035  1.00  0.00     0.074 A 
ATOM     53  C   UNL     1      -3.070  -4.175  24.975  1.00  0.00     0.029 A 
ATOM     54  N   UNL     1      -1.666  -5.408  23.769  1.00  0.00    -0.354 N 
ATOM     55  N   UNL     1       0.663  -7.134  23.349  1.00  0.00    -0.248 NA
ATOM     56  C   UNL     1       2.597  -8.167  24.153  1.00  0.00     0.031 C 
ATOM     57  C   UNL     1      -2.040  -4.619  25.812  1.00  0.00     0.029 A 
ATOM     58  C   UNL     1      -1.178  -5.406  25.066  1.00  0.00     0.049 A 
ATOM     59  H   UNL     1      -1.253  -5.881  23.011  1.00  0.00     0.167 HD
ATOM     60  C   UNL     1       0.797  -6.859  24.703  1.00  0.00     0.074 A 
ATOM     61  C   UNL     1       1.988  -7.548  25.155  1.00  0.00     0.031 C 
ATOM     62  C   UNL     1       0.004  -6.104  25.502  1.00  0.00     0.037 A 
BRANCH  49  63
ATOM     63  C   UNL     1      -4.779  -3.517  22.567  1.00  0.00     0.057 A 
ATOM     64  C   UNL     1      -6.086  -4.011  22.458  1.00  0.00     0.134 A 
ATOM     65  C   UNL     1      -4.625  -2.140  22.771  1.00  0.00     0.134 A 
ATOM     66  F   UNL     1      -6.303  -5.319  22.249  1.00  0.00    -0.206 F 
ATOM     67  C   UNL     1      -7.194  -3.166  22.520  1.00  0.00     0.040 A 
ATOM     68  C   UNL     1      -5.727  -1.289  22.864  1.00  0.00     0.040 A 
ATOM     69  F   UNL     1      -3.402  -1.601  22.891  1.00  0.00    -0.206 F 
ATOM     70  C   UNL     1      -7.016  -1.800  22.730  1.00  0.00     0.006 A 
ENDBRANCH  49  63
BRANCH  50  71
ATOM     71  C   UNL     1       3.236  -9.373  21.571  1.00  0.00     0.057 A 
ATOM     72  C   UNL     1       3.308 -10.628  22.186  1.00  0.00     0.134 A 
ATOM     73  C   UNL     1       4.349  -8.952  20.834  1.00  0.00     0.134 A 
ATOM     74  F   UNL     1       2.280 -11.078  22.921  1.00  0.00    -0.206 F 
ATOM     75  C   UNL     1       4.449 -11.426  22.091  1.00  0.00     0.040 A 
ATOM     76  C   UNL     1       5.488  -9.750  20.710  1.00  0.00     0.040 A 
ATOM     77  F   UNL     1       4.342  -7.762  20.214  1.00  0.00    -0.206 F 
ATOM     78  C   UNL     1       5.542 -10.989  21.347  1.00  0.00     0.006 A 
ENDBRANCH  50  71
BRANCH  62  79
ATOM     79  C   UNL     1       0.377  -6.015  26.953  1.00  0.00     0.057 A 
ATOM     80  C   UNL     1       1.484  -5.276  27.389  1.00  0.00     0.134 A 
ATOM     81  C   UNL     1      -0.403  -6.650  27.928  1.00  0.00     0.134 A 
ATOM     82  F   UNL     1       2.279  -4.655  26.504  1.00  0.00    -0.206 F 
ATOM     83  C   UNL     1       1.816  -5.192  28.742  1.00  0.00     0.040 A 
ATOM     84  C   UNL     1      -0.096  -6.551  29.286  1.00  0.00     0.040 A 
ATOM     85  F   UNL     1      -1.482  -7.366  27.578  1.00  0.00    -0.206 F 
ATOM     86  C   UNL     1       1.020  -5.825  29.695  1.00  0.00     0.006 A 
ENDBRANCH  62  79
ENDBRANCH  36  37
ENDBRANCH  28  31
ENDBRANCH  26  27
ENDBRANCH  25  26
ENDBRANCH   1  25
TORSDOF 13
