REMARK SMILES [NH3+][C@@H](Cc1c[nH]c2ccccc12)C(=O)NCCC(=O)NCCCCNC(=O)c1ccc(-c2c3nc(c(-c4c(F)cccc4F)c4ccc([nH]4)c(-c4c(F)cccc4F)c4nc(c(-c5c(F)cccc5F)c5ccc2[nH]5)C=C4)C=C3)cc1
REMARK SMILES IDX 21 1 20 2 18 3 19 4 17 6 16 7 15 8 13 9 14 10 2 12 1 13 3 17
REMARK SMILES IDX 4 18 5 19 12 20 6 21 7 22 11 23 8 25 10 26 9 27 22 28 23 29
REMARK SMILES IDX 24 30 25 31 26 32 27 34 28 35 29 36 81 37 30 38 80 39 31 40
REMARK SMILES IDX 32 41 33 42 74 43 34 44 79 45 73 46 75 47 35 48 78 49 72 50
REMARK SMILES IDX 71 51 36 53 62 54 45 55 61 56 46 57 49 58 60 59 76 60 47 61
REMARK SMILES IDX 48 62 59 64 77 65 50 66 37 67 38 68 43 69 39 70 40 71 42 72
REMARK SMILES IDX 44 73 41 74 63 75 64 76 69 77 65 78 66 79 68 80 70 81 67 82
REMARK SMILES IDX 51 83 52 84 57 85 53 86 54 87 56 88 58 89 55 90
REMARK H PARENT 20 5 15 11 1 14 1 15 1 16 6 24 25 33 75 52 49 63
REMARK Flexibility Score: inf
ROOT
ATOM      1  C   UNL     1      -4.025   0.498  -0.475  1.00  0.00     0.116 C 
ENDROOT
BRANCH   1   2
ATOM      2  N   UNL     1      -4.036   1.949  -0.499  1.00  0.00    -0.356 N 
ATOM      3  C   UNL     1      -3.004   2.829  -0.640  1.00  0.00     0.221 C 
ATOM      4  O   UNL     1      -3.252   4.032  -0.544  1.00  0.00    -0.275 OA
ATOM      5  H   UNL     1      -4.924   2.361  -0.399  1.00  0.00     0.163 HD
BRANCH   3   6
ATOM      6  C   UNL     1      -1.589   2.343  -0.891  1.00  0.00     0.121 C 
BRANCH   6   7
ATOM      7  C   UNL     1      -0.836   2.080   0.410  1.00  0.00     0.126 C 
BRANCH   7   8
ATOM      8  N   UNL     1      -1.090   0.739   0.913  1.00  0.00    -0.350 N 
ATOM      9  C   UNL     1      -0.357  -0.302   1.365  1.00  0.00     0.278 C 
ATOM     10  O   UNL     1      -1.012  -1.297   1.712  1.00  0.00    -0.268 OA
ATOM     11  H   UNL     1      -2.053   0.536   0.928  1.00  0.00     0.163 HD
BRANCH   9  12
ATOM     12  C   UNL     1       1.157  -0.278   1.582  1.00  0.00     0.275 C 
BRANCH  12  13
ATOM     13  N   UNL     1       1.903   0.350   0.471  1.00  0.00    -0.347 N 
ATOM     14  H   UNL     1       2.901   0.332   0.680  1.00  0.00     0.345 HD
ATOM     15  H   UNL     1       1.596   1.316   0.359  1.00  0.00     0.345 HD
ATOM     16  H   UNL     1       1.727  -0.166  -0.391  1.00  0.00     0.345 HD
ENDBRANCH  12  13
BRANCH  12  17
ATOM     17  C   UNL     1       1.491   0.243   2.995  1.00  0.00     0.113 C 
BRANCH  17  18
ATOM     18  C   UNL     1       1.033   1.642   3.279  1.00  0.00    -0.016 A 
ATOM     19  C   UNL     1      -0.204   2.008   3.779  1.00  0.00     0.087 A 
ATOM     20  C   UNL     1       1.768   2.851   3.075  1.00  0.00     0.003 A 
ATOM     21  N   UNL     1      -0.278   3.374   3.791  1.00  0.00    -0.361 N 
ATOM     22  C   UNL     1       0.908   3.914   3.351  1.00  0.00     0.046 A 
ATOM     23  C   UNL     1       3.081   3.141   2.651  1.00  0.00     0.010 A 
ATOM     24  H   UNL     1      -1.064   3.894   4.073  1.00  0.00     0.166 HD
ATOM     25  C   UNL     1       1.277   5.252   3.180  1.00  0.00     0.026 A 
ATOM     26  C   UNL     1       3.477   4.474   2.506  1.00  0.00     0.001 A 
ATOM     27  C   UNL     1       2.583   5.512   2.754  1.00  0.00     0.002 A 
ENDBRANCH  17  18
ENDBRANCH  12  17
ENDBRANCH   9  12
ENDBRANCH   7   8
ENDBRANCH   6   7
ENDBRANCH   3   6
ENDBRANCH   1   2
BRANCH   1  28
ATOM     28  C   UNL     1      -4.281  -0.023   0.945  1.00  0.00     0.023 C 
BRANCH  28  29
ATOM     29  C   UNL     1      -5.741  -0.200   1.329  1.00  0.00     0.023 C 
BRANCH  29  30
ATOM     30  C   UNL     1      -6.517  -1.151   0.438  1.00  0.00     0.116 C 
BRANCH  30  31
ATOM     31  N   UNL     1      -5.924  -2.475   0.304  1.00  0.00    -0.352 N 
ATOM     32  C   UNL     1      -6.584  -3.656   0.049  1.00  0.00     0.251 C 
ATOM     33  H   UNL     1      -4.946  -2.531   0.406  1.00  0.00     0.163 HD
ATOM     34  O   UNL     1      -5.992  -4.728   0.008  1.00  0.00    -0.269 OA
BRANCH  32  35
ATOM     35  C   UNL     1      -8.049  -3.601  -0.114  1.00  0.00     0.039 A 
ATOM     36  C   UNL     1      -8.850  -4.356   0.742  1.00  0.00     0.014 A 
ATOM     37  C   UNL     1      -8.613  -2.688  -1.008  1.00  0.00     0.014 A 
ATOM     38  C   UNL     1     -10.226  -4.132   0.760  1.00  0.00     0.010 A 
ATOM     39  C   UNL     1      -9.966  -2.397  -0.917  1.00  0.00     0.010 A 
ATOM     40  C   UNL     1     -10.786  -3.118  -0.034  1.00  0.00    -0.014 A 
BRANCH  40  41
ATOM     41  C   UNL     1     -12.232  -2.799   0.024  1.00  0.00     0.031 A 
ATOM     42  C   UNL     1     -13.075  -2.966  -1.209  1.00  0.00     0.074 A 
ATOM     43  C   UNL     1     -12.765  -2.286   1.150  1.00  0.00     0.049 A 
ATOM     44  N   UNL     1     -14.330  -2.653  -1.401  1.00  0.00    -0.248 NA
ATOM     45  C   UNL     1     -12.406  -3.521  -2.398  1.00  0.00     0.031 C 
ATOM     46  C   UNL     1     -12.035  -2.017   2.392  1.00  0.00     0.029 A 
ATOM     47  N   UNL     1     -14.048  -1.889   1.429  1.00  0.00    -0.354 N 
ATOM     48  C   UNL     1     -14.589  -2.944  -2.734  1.00  0.00     0.074 A 
ATOM     49  C   UNL     1     -13.350  -3.405  -3.319  1.00  0.00     0.031 C 
ATOM     50  C   UNL     1     -12.889  -1.530   3.308  1.00  0.00     0.029 A 
ATOM     51  C   UNL     1     -14.215  -1.420   2.710  1.00  0.00     0.049 A 
ATOM     52  H   UNL     1     -14.781  -1.937   0.773  1.00  0.00     0.167 HD
ATOM     53  C   UNL     1     -15.761  -2.864  -3.404  1.00  0.00     0.037 A 
ATOM     54  C   UNL     1     -15.318  -0.956   3.329  1.00  0.00     0.037 A 
ATOM     55  C   UNL     1     -17.004  -2.462  -2.804  1.00  0.00     0.049 A 
ATOM     56  C   UNL     1     -16.617  -0.914   2.572  1.00  0.00     0.074 A 
ATOM     57  C   UNL     1     -18.264  -2.426  -3.373  1.00  0.00     0.029 A 
ATOM     58  N   UNL     1     -17.141  -2.037  -1.491  1.00  0.00    -0.354 N 
ATOM     59  N   UNL     1     -16.863  -1.260   1.332  1.00  0.00    -0.248 NA
ATOM     60  C   UNL     1     -17.793  -0.422   3.303  1.00  0.00     0.031 C 
ATOM     61  C   UNL     1     -19.161  -1.951  -2.411  1.00  0.00     0.029 A 
ATOM     62  C   UNL     1     -18.464  -1.725  -1.234  1.00  0.00     0.049 A 
ATOM     63  H   UNL     1     -16.406  -1.967  -0.840  1.00  0.00     0.167 HD
ATOM     64  C   UNL     1     -18.223  -1.058   1.143  1.00  0.00     0.074 A 
ATOM     65  C   UNL     1     -18.752  -0.568   2.400  1.00  0.00     0.031 C 
ATOM     66  C   UNL     1     -18.969  -1.257   0.030  1.00  0.00     0.037 A 
BRANCH  53  67
ATOM     67  C   UNL     1     -15.754  -3.237  -4.856  1.00  0.00     0.057 A 
ATOM     68  C   UNL     1     -15.600  -4.565  -5.276  1.00  0.00     0.134 A 
ATOM     69  C   UNL     1     -15.926  -2.261  -5.846  1.00  0.00     0.134 A 
ATOM     70  F   UNL     1     -15.413  -5.544  -4.378  1.00  0.00    -0.206 F 
ATOM     71  C   UNL     1     -15.592  -4.906  -6.629  1.00  0.00     0.040 A 
ATOM     72  C   UNL     1     -15.947  -2.594  -7.201  1.00  0.00     0.040 A 
ATOM     73  F   UNL     1     -16.080  -0.971  -5.511  1.00  0.00    -0.206 F 
ATOM     74  C   UNL     1     -15.774  -3.919  -7.596  1.00  0.00     0.006 A 
ENDBRANCH  53  67
BRANCH  54  75
ATOM     75  C   UNL     1     -15.257  -0.529   4.749  1.00  0.00     0.057 A 
ATOM     76  C   UNL     1     -15.866  -1.290   5.754  1.00  0.00     0.134 A 
ATOM     77  C   UNL     1     -14.614   0.652   5.135  1.00  0.00     0.134 A 
ATOM     78  F   UNL     1     -16.514  -2.422   5.443  1.00  0.00    -0.206 F 
ATOM     79  C   UNL     1     -15.858  -0.881   7.088  1.00  0.00     0.040 A 
ATOM     80  C   UNL     1     -14.578   1.062   6.469  1.00  0.00     0.040 A 
ATOM     81  F   UNL     1     -14.005   1.422   4.221  1.00  0.00    -0.206 F 
ATOM     82  C   UNL     1     -15.210   0.298   7.449  1.00  0.00     0.006 A 
ENDBRANCH  54  75
BRANCH  66  83
ATOM     83  C   UNL     1     -20.439  -0.985   0.133  1.00  0.00     0.057 A 
ATOM     84  C   UNL     1     -20.946   0.319   0.171  1.00  0.00     0.134 A 
ATOM     85  C   UNL     1     -21.358  -2.042   0.146  1.00  0.00     0.134 A 
ATOM     86  F   UNL     1     -20.115   1.372   0.173  1.00  0.00    -0.206 F 
ATOM     87  C   UNL     1     -22.319   0.563   0.237  1.00  0.00     0.040 A 
ATOM     88  C   UNL     1     -22.733  -1.810   0.189  1.00  0.00     0.040 A 
ATOM     89  F   UNL     1     -20.934  -3.314   0.103  1.00  0.00    -0.206 F 
ATOM     90  C   UNL     1     -23.216  -0.504   0.239  1.00  0.00     0.006 A 
ENDBRANCH  66  83
ENDBRANCH  40  41
ENDBRANCH  32  35
ENDBRANCH  30  31
ENDBRANCH  29  30
ENDBRANCH  28  29
ENDBRANCH   1  28
TORSDOF 17
