REMARK SMILES N#Cc1cc2c(nc1N(CC(=O)NCCCCNC(=O)c1ccc(-c3c4nc(c(-c5c(F)cccc5F)c5ccc([nH]5)c(-c5c(F)cccc5F)c5nc(c(-c6c(F)cccc6F)c6ccc3[nH]6)C=C5)C=C4)cc1)CC(F)(F)F)CCC2
REMARK SMILES IDX 15 1 14 2 13 3 11 4 12 5 10 7 9 8 8 9 3 10 4 11 5 12 7 13
REMARK SMILES IDX 6 14 82 15 80 16 81 17 2 18 1 19 75 20 76 21 77 22 78 23
REMARK SMILES IDX 79 24 16 25 17 26 18 27 19 28 20 30 21 31 22 32 74 33 23 34
REMARK SMILES IDX 73 35 24 36 25 37 26 38 67 39 27 40 72 41 66 42 68 43 28 44
REMARK SMILES IDX 71 45 65 46 64 47 29 49 55 50 38 51 54 52 39 53 42 54 53 55
REMARK SMILES IDX 69 56 40 57 41 58 52 60 70 61 43 62 30 63 31 64 36 65 32 66
REMARK SMILES IDX 33 67 35 68 37 69 34 70 56 71 57 72 62 73 58 74 59 75 61 76
REMARK SMILES IDX 63 77 60 78 44 79 45 80 50 81 46 82 47 83 49 84 51 85 48 86
REMARK H PARENT 13 6 18 29 68 48 42 59
REMARK Flexibility Score: inf
ROOT
ATOM      1  C   UNL     1       4.450  -1.779   3.249  1.00  0.00     0.023 C 
ENDROOT
BRANCH   1   2
ATOM      2  C   UNL     1       5.372  -2.797   2.583  1.00  0.00     0.116 C 
BRANCH   2   3
ATOM      3  N   UNL     1       4.662  -3.995   2.189  1.00  0.00    -0.355 N 
ATOM      4  C   UNL     1       4.223  -4.341   0.942  1.00  0.00     0.239 C 
ATOM      5  O   UNL     1       3.583  -5.387   0.812  1.00  0.00    -0.273 OA
ATOM      6  H   UNL     1       4.473  -4.641   2.907  1.00  0.00     0.163 HD
BRANCH   4   7
ATOM      7  C   UNL     1       4.517  -3.433  -0.260  1.00  0.00     0.218 C 
BRANCH   7   8
ATOM      8  N   UNL     1       3.678  -2.204  -0.272  1.00  0.00    -0.337 N 
BRANCH   8   9
ATOM      9  C   UNL     1       4.320  -0.975  -0.335  1.00  0.00     0.147 A 
ATOM     10  C   UNL     1       3.716   0.300  -0.435  1.00  0.00     0.095 A 
ATOM     11  C   UNL     1       4.494   1.476  -0.334  1.00  0.00     0.029 A 
ATOM     12  C   UNL     1       5.856   1.361  -0.209  1.00  0.00    -0.025 A 
ATOM     13  N   UNL     1       5.681  -1.035  -0.255  1.00  0.00    -0.234 NA
ATOM     14  C   UNL     1       6.399   0.099  -0.204  1.00  0.00     0.046 A 
ATOM     15  C   UNL     1       6.903   2.408  -0.043  1.00  0.00     0.038 C 
ATOM     16  C   UNL     1       7.896   0.155  -0.073  1.00  0.00     0.057 C 
ATOM     17  C   UNL     1       8.164   1.623  -0.437  1.00  0.00     0.011 C 
BRANCH  10  18
ATOM     18  C   UNL     1       2.325   0.515  -0.691  1.00  0.00     0.103 C 
ATOM     19  N   UNL     1       1.205   0.704  -0.919  1.00  0.00    -0.192 NA
ENDBRANCH  10  18
ENDBRANCH   8   9
BRANCH   8  20
ATOM     20  C   UNL     1       2.206  -2.450  -0.292  1.00  0.00     0.234 C 
BRANCH  20  21
ATOM     21  C   UNL     1       1.428  -2.195   1.016  1.00  0.00     0.405 C 
ATOM     22  F   UNL     1       1.663  -0.969   1.534  1.00  0.00    -0.169 F 
ATOM     23  F   UNL     1       0.095  -2.291   0.801  1.00  0.00    -0.169 F 
ATOM     24  F   UNL     1       1.739  -3.098   1.974  1.00  0.00    -0.169 F 
ENDBRANCH  20  21
ENDBRANCH   8  20
ENDBRANCH   7   8
ENDBRANCH   4   7
ENDBRANCH   2   3
ENDBRANCH   1   2
BRANCH   1  25
ATOM     25  C   UNL     1       3.916  -2.231   4.607  1.00  0.00     0.023 C 
BRANCH  25  26
ATOM     26  C   UNL     1       5.009  -2.524   5.621  1.00  0.00     0.116 C 
BRANCH  26  27
ATOM     27  N   UNL     1       5.847  -1.360   5.886  1.00  0.00    -0.352 N 
ATOM     28  C   UNL     1       6.142  -0.780   7.095  1.00  0.00     0.251 C 
ATOM     29  H   UNL     1       6.253  -0.936   5.097  1.00  0.00     0.163 HD
ATOM     30  O   UNL     1       6.719   0.299   7.156  1.00  0.00    -0.269 OA
BRANCH  28  31
ATOM     31  C   UNL     1       5.719  -1.477   8.322  1.00  0.00     0.039 A 
ATOM     32  C   UNL     1       4.987  -0.780   9.282  1.00  0.00     0.014 A 
ATOM     33  C   UNL     1       5.975  -2.844   8.465  1.00  0.00     0.014 A 
ATOM     34  C   UNL     1       4.461  -1.476  10.368  1.00  0.00     0.010 A 
ATOM     35  C   UNL     1       5.358  -3.551   9.486  1.00  0.00     0.010 A 
ATOM     36  C   UNL     1       4.614  -2.871  10.460  1.00  0.00    -0.014 A 
BRANCH  36  37
ATOM     37  C   UNL     1       4.044  -3.620  11.605  1.00  0.00     0.031 A 
ATOM     38  C   UNL     1       4.963  -4.326  12.561  1.00  0.00     0.074 A 
ATOM     39  C   UNL     1       2.709  -3.666  11.779  1.00  0.00     0.049 A 
ATOM     40  N   UNL     1       4.667  -4.994  13.646  1.00  0.00    -0.248 NA
ATOM     41  C   UNL     1       6.403  -4.302  12.250  1.00  0.00     0.031 C 
ATOM     42  C   UNL     1       1.717  -3.064  10.885  1.00  0.00     0.029 A 
ATOM     43  N   UNL     1       1.955  -4.233  12.776  1.00  0.00    -0.354 N 
ATOM     44  C   UNL     1       5.878  -5.455  14.144  1.00  0.00     0.074 A 
ATOM     45  C   UNL     1       6.903  -5.073  13.203  1.00  0.00     0.031 C 
ATOM     46  C   UNL     1       0.492  -3.246  11.403  1.00  0.00     0.029 A 
ATOM     47  C   UNL     1       0.606  -4.006  12.645  1.00  0.00     0.049 A 
ATOM     48  H   UNL     1       2.344  -4.753  13.515  1.00  0.00     0.167 HD
ATOM     49  C   UNL     1       6.120  -6.097  15.308  1.00  0.00     0.037 A 
ATOM     50  C   UNL     1      -0.419  -4.361  13.444  1.00  0.00     0.037 A 
ATOM     51  C   UNL     1       5.100  -6.450  16.255  1.00  0.00     0.049 A 
ATOM     52  C   UNL     1      -0.127  -5.114  14.714  1.00  0.00     0.074 A 
ATOM     53  C   UNL     1       5.247  -7.057  17.487  1.00  0.00     0.029 A 
ATOM     54  N   UNL     1       3.744  -6.228  16.070  1.00  0.00    -0.354 N 
ATOM     55  N   UNL     1       1.032  -5.463  15.218  1.00  0.00    -0.248 NA
ATOM     56  C   UNL     1      -1.282  -5.523  15.528  1.00  0.00     0.031 C 
ATOM     57  C   UNL     1       3.975  -7.256  18.025  1.00  0.00     0.029 A 
ATOM     58  C   UNL     1       3.038  -6.723  17.153  1.00  0.00     0.049 A 
ATOM     59  H   UNL     1       3.343  -5.786  15.287  1.00  0.00     0.167 HD
ATOM     60  C   UNL     1       0.749  -6.114  16.412  1.00  0.00     0.074 A 
ATOM     61  C   UNL     1      -0.690  -6.094  16.569  1.00  0.00     0.031 C 
ATOM     62  C   UNL     1       1.605  -6.684  17.294  1.00  0.00     0.037 A 
BRANCH  49  63
ATOM     63  C   UNL     1       7.545  -6.431  15.637  1.00  0.00     0.057 A 
ATOM     64  C   UNL     1       8.476  -5.435  15.960  1.00  0.00     0.134 A 
ATOM     65  C   UNL     1       7.977  -7.761  15.689  1.00  0.00     0.134 A 
ATOM     66  F   UNL     1       8.130  -4.139  15.915  1.00  0.00    -0.206 F 
ATOM     67  C   UNL     1       9.790  -5.749  16.308  1.00  0.00     0.040 A 
ATOM     68  C   UNL     1       9.281  -8.089  16.064  1.00  0.00     0.040 A 
ATOM     69  F   UNL     1       7.136  -8.764  15.394  1.00  0.00    -0.206 F 
ATOM     70  C   UNL     1      10.192  -7.081  16.371  1.00  0.00     0.006 A 
ENDBRANCH  49  63
BRANCH  50  71
ATOM     71  C   UNL     1      -1.809  -3.974  13.086  1.00  0.00     0.057 A 
ATOM     72  C   UNL     1      -2.515  -3.034  13.846  1.00  0.00     0.134 A 
ATOM     73  C   UNL     1      -2.461  -4.520  11.973  1.00  0.00     0.134 A 
ATOM     74  F   UNL     1      -1.953  -2.486  14.933  1.00  0.00    -0.206 F 
ATOM     75  C   UNL     1      -3.820  -2.660  13.521  1.00  0.00     0.040 A 
ATOM     76  C   UNL     1      -3.756  -4.136  11.620  1.00  0.00     0.040 A 
ATOM     77  F   UNL     1      -1.839  -5.422  11.199  1.00  0.00    -0.206 F 
ATOM     78  C   UNL     1      -4.442  -3.206  12.399  1.00  0.00     0.006 A 
ENDBRANCH  50  71
BRANCH  62  79
ATOM     79  C   UNL     1       1.027  -7.341  18.513  1.00  0.00     0.057 A 
ATOM     80  C   UNL     1       0.371  -8.575  18.433  1.00  0.00     0.134 A 
ATOM     81  C   UNL     1       1.247  -6.802  19.788  1.00  0.00     0.134 A 
ATOM     82  F   UNL     1       0.125  -9.139  17.241  1.00  0.00    -0.206 F 
ATOM     83  C   UNL     1      -0.042  -9.253  19.580  1.00  0.00     0.040 A 
ATOM     84  C   UNL     1       0.863  -7.484  20.942  1.00  0.00     0.040 A 
ATOM     85  F   UNL     1       1.883  -5.630  19.932  1.00  0.00    -0.206 F 
ATOM     86  C   UNL     1       0.218  -8.715  20.840  1.00  0.00     0.006 A 
ENDBRANCH  62  79
ENDBRANCH  36  37
ENDBRANCH  28  31
ENDBRANCH  26  27
ENDBRANCH  25  26
ENDBRANCH   1  25
TORSDOF 16
