REMARK SMILES CCCN1C(=O)c2ccc(C(=O)Nc3ccc(OCC(=O)NCCCCNC(=O)c4ccc(-c5c6nc(c(-c7c(F)cccc7F)c7ccc([nH]7)c(-c7c(F)cccc7F)c7nc(c(-c8c(F)cccc8F)c8ccc5[nH]8)C=C7)C=C6)cc4)cc3C)cc2C1=O
REMARK SMILES IDX 20 1 21 2 22 3 19 5 18 6 17 7 14 8 15 9 85 10 16 11 84 12
REMARK SMILES IDX 86 13 13 14 11 15 12 16 10 18 4 19 5 20 89 21 6 22 7 23
REMARK SMILES IDX 88 24 90 25 8 26 87 27 9 28 3 29 2 30 1 31 23 32 24 33 25 34
REMARK SMILES IDX 26 35 27 36 28 37 29 39 30 40 31 41 83 42 32 43 82 44 33 45
REMARK SMILES IDX 34 46 35 47 76 48 36 49 81 50 75 51 77 52 37 53 80 54 74 55
REMARK SMILES IDX 73 56 38 58 64 59 47 60 63 61 48 62 51 63 62 64 78 65 49 66
REMARK SMILES IDX 50 67 61 69 79 70 52 71 39 72 40 73 45 74 41 75 42 76 44 77
REMARK SMILES IDX 46 78 43 79 65 80 66 81 71 82 67 83 68 84 70 85 72 86 69 87
REMARK SMILES IDX 53 88 54 89 59 90 55 91 56 92 58 93 60 94 57 95
REMARK H PARENT 22 4 13 17 27 38 77 57 51 68
REMARK Flexibility Score: inf
ROOT
ATOM      1  C   UNL     1      -0.139   4.587   5.374  1.00  0.00     0.257 C 
ATOM      2  O   UNL     1      -0.692   4.154   4.360  1.00  0.00    -0.271 OA
ATOM      3  N   UNL     1       1.225   4.538   5.440  1.00  0.00    -0.353 N 
ATOM      4  H   UNL     1       1.673   4.124   4.667  1.00  0.00     0.163 HD
ENDROOT
BRANCH   1   5
ATOM      5  C   UNL     1      -0.949   5.200   6.525  1.00  0.00     0.329 C 
BRANCH   5   6
ATOM      6  O   UNL     1      -0.829   4.577   7.794  1.00  0.00    -0.484 OA
BRANCH   6   7
ATOM      7  C   UNL     1      -1.290   3.296   7.922  1.00  0.00     0.120 A 
ATOM      8  C   UNL     1      -1.861   0.577   8.308  1.00  0.00     0.044 A 
ATOM      9  C   UNL     1      -1.225   1.315   9.313  1.00  0.00     0.030 A 
ATOM     10  C   UNL     1      -2.366   1.234   7.173  1.00  0.00    -0.024 A 
ATOM     11  C   UNL     1      -0.925   2.663   9.108  1.00  0.00     0.048 A 
ATOM     12  C   UNL     1      -2.062   2.599   6.992  1.00  0.00     0.052 A 
ATOM     13  C   UNL     1      -3.304   0.579   6.194  1.00  0.00     0.047 C 
BRANCH   8  14
ATOM     14  N   UNL     1      -1.864  -0.817   8.481  1.00  0.00    -0.322 N 
ATOM     15  C   UNL     1      -1.445  -1.816   7.619  1.00  0.00     0.255 C 
ATOM     16  O   UNL     1      -1.635  -2.993   7.927  1.00  0.00    -0.269 OA
ATOM     17  H   UNL     1      -2.216  -1.131   9.345  1.00  0.00     0.170 HD
BRANCH  15  18
ATOM     18  C   UNL     1      -0.681  -1.526   6.366  1.00  0.00     0.041 A 
ATOM     19  N   UNL     1       0.716  -2.015   2.003  1.00  0.00    -0.274 N 
ATOM     20  C   UNL     1       1.191  -0.921   2.666  1.00  0.00     0.261 C 
ATOM     21  C   UNL     1      -0.051  -2.810   2.827  1.00  0.00     0.261 C 
ATOM     22  O   UNL     1       1.993  -0.072   2.314  1.00  0.00    -0.269 OA
ATOM     23  C   UNL     1       0.609  -0.954   3.997  1.00  0.00     0.053 A 
ATOM     24  C   UNL     1      -0.143  -2.106   4.113  1.00  0.00     0.054 A 
ATOM     25  O   UNL     1      -0.537  -3.893   2.614  1.00  0.00    -0.269 OA
ATOM     26  C   UNL     1       0.779  -0.073   5.039  1.00  0.00     0.015 A 
ATOM     27  C   UNL     1      -0.799  -2.427   5.290  1.00  0.00     0.028 A 
ATOM     28  C   UNL     1       0.160  -0.394   6.246  1.00  0.00     0.015 A 
BRANCH  19  29
ATOM     29  C   UNL     1       1.129  -2.389   0.663  1.00  0.00     0.129 C 
BRANCH  29  30
ATOM     30  C   UNL     1       0.471  -1.572  -0.456  1.00  0.00     0.019 C 
ATOM     31  C   UNL     1       0.899  -0.111  -0.506  1.00  0.00     0.006 C 
ENDBRANCH  29  30
ENDBRANCH  19  29
ENDBRANCH  15  18
ENDBRANCH   8  14
ENDBRANCH   6   7
ENDBRANCH   5   6
ENDBRANCH   1   5
BRANCH   3  32
ATOM     32  C   UNL     1       2.107   5.011   6.492  1.00  0.00     0.116 C 
BRANCH  32  33
ATOM     33  C   UNL     1       2.667   3.885   7.372  1.00  0.00     0.023 C 
BRANCH  33  34
ATOM     34  C   UNL     1       3.427   2.779   6.637  1.00  0.00     0.023 C 
BRANCH  34  35
ATOM     35  C   UNL     1       4.721   3.207   5.960  1.00  0.00     0.116 C 
BRANCH  35  36
ATOM     36  N   UNL     1       5.931   3.083   6.772  1.00  0.00    -0.352 N 
ATOM     37  C   UNL     1       7.253   3.344   6.433  1.00  0.00     0.251 C 
ATOM     38  H   UNL     1       5.787   2.767   7.693  1.00  0.00     0.163 HD
ATOM     39  O   UNL     1       8.141   3.168   7.263  1.00  0.00    -0.269 OA
BRANCH  37  40
ATOM     40  C   UNL     1       7.574   4.013   5.144  1.00  0.00     0.039 A 
ATOM     41  C   UNL     1       8.426   5.124   5.202  1.00  0.00     0.014 A 
ATOM     42  C   UNL     1       6.754   3.826   4.043  1.00  0.00     0.014 A 
ATOM     43  C   UNL     1       8.158   6.215   4.387  1.00  0.00     0.010 A 
ATOM     44  C   UNL     1       6.380   4.941   3.338  1.00  0.00     0.010 A 
ATOM     45  C   UNL     1       7.030   6.153   3.576  1.00  0.00    -0.014 A 
BRANCH  45  46
ATOM     46  C   UNL     1       6.479   7.285   2.862  1.00  0.00     0.031 A 
ATOM     47  C   UNL     1       6.926   7.472   1.476  1.00  0.00     0.074 A 
ATOM     48  C   UNL     1       5.512   8.033   3.436  1.00  0.00     0.049 A 
ATOM     49  N   UNL     1       6.901   8.588   0.846  1.00  0.00    -0.248 NA
ATOM     50  C   UNL     1       7.497   6.380   0.693  1.00  0.00     0.031 C 
ATOM     51  C   UNL     1       4.671   9.053   2.820  1.00  0.00     0.029 A 
ATOM     52  N   UNL     1       5.223   8.132   4.799  1.00  0.00    -0.354 N 
ATOM     53  C   UNL     1       7.171   8.323  -0.478  1.00  0.00     0.074 A 
ATOM     54  C   UNL     1       7.605   6.949  -0.508  1.00  0.00     0.031 C 
ATOM     55  C   UNL     1       4.197   9.865   3.782  1.00  0.00     0.029 A 
ATOM     56  C   UNL     1       4.812   9.463   5.035  1.00  0.00     0.049 A 
ATOM     57  H   UNL     1       5.292   7.412   5.467  1.00  0.00     0.167 HD
ATOM     58  C   UNL     1       6.847   9.268  -1.405  1.00  0.00     0.037 A 
ATOM     59  C   UNL     1       5.565  10.274   5.839  1.00  0.00     0.037 A 
ATOM     60  C   UNL     1       6.378  10.482  -0.730  1.00  0.00     0.049 A 
ATOM     61  C   UNL     1       6.252  11.362   5.050  1.00  0.00     0.074 A 
ATOM     62  C   UNL     1       5.107  10.906  -0.376  1.00  0.00     0.029 A 
ATOM     63  N   UNL     1       7.267  11.204   0.066  1.00  0.00    -0.354 N 
ATOM     64  N   UNL     1       6.412  11.322   3.754  1.00  0.00    -0.248 NA
ATOM     65  C   UNL     1       6.776  12.588   5.643  1.00  0.00     0.031 C 
ATOM     66  C   UNL     1       5.235  11.785   0.733  1.00  0.00     0.029 A 
ATOM     67  C   UNL     1       6.581  11.932   1.025  1.00  0.00     0.049 A 
ATOM     68  H   UNL     1       8.246  11.198  -0.039  1.00  0.00     0.167 HD
ATOM     69  C   UNL     1       7.015  12.472   3.332  1.00  0.00     0.074 A 
ATOM     70  C   UNL     1       7.218  13.237   4.551  1.00  0.00     0.031 C 
ATOM     71  C   UNL     1       7.292  12.727   2.019  1.00  0.00     0.037 A 
BRANCH  58  72
ATOM     72  C   UNL     1       6.644   8.954  -2.869  1.00  0.00     0.057 A 
ATOM     73  C   UNL     1       5.674   9.646  -3.621  1.00  0.00     0.134 A 
ATOM     74  C   UNL     1       7.316   7.946  -3.585  1.00  0.00     0.134 A 
ATOM     75  F   UNL     1       4.999  10.684  -3.110  1.00  0.00    -0.206 F 
ATOM     76  C   UNL     1       5.337   9.302  -4.938  1.00  0.00     0.040 A 
ATOM     77  C   UNL     1       6.954   7.556  -4.884  1.00  0.00     0.040 A 
ATOM     78  F   UNL     1       8.389   7.324  -3.082  1.00  0.00    -0.206 F 
ATOM     79  C   UNL     1       5.953   8.232  -5.565  1.00  0.00     0.006 A 
ENDBRANCH  58  72
BRANCH  59  80
ATOM     80  C   UNL     1       6.122   9.517   7.003  1.00  0.00     0.057 A 
ATOM     81  C   UNL     1       5.162   8.905   7.835  1.00  0.00     0.134 A 
ATOM     82  C   UNL     1       7.375   8.906   6.920  1.00  0.00     0.134 A 
ATOM     83  F   UNL     1       3.966   9.487   8.022  1.00  0.00    -0.206 F 
ATOM     84  C   UNL     1       5.324   7.595   8.288  1.00  0.00     0.040 A 
ATOM     85  C   UNL     1       7.567   7.617   7.428  1.00  0.00     0.040 A 
ATOM     86  F   UNL     1       8.367   9.466   6.215  1.00  0.00    -0.206 F 
ATOM     87  C   UNL     1       6.512   6.923   8.025  1.00  0.00     0.006 A 
ENDBRANCH  59  80
BRANCH  71  88
ATOM     88  C   UNL     1       8.172  13.857   1.566  1.00  0.00     0.057 A 
ATOM     89  C   UNL     1       9.258  14.338   2.312  1.00  0.00     0.134 A 
ATOM     90  C   UNL     1       8.018  14.421   0.284  1.00  0.00     0.134 A 
ATOM     91  F   UNL     1       9.604  13.785   3.483  1.00  0.00    -0.206 F 
ATOM     92  C   UNL     1      10.065  15.386   1.863  1.00  0.00     0.040 A 
ATOM     93  C   UNL     1       8.860  15.422  -0.202  1.00  0.00     0.040 A 
ATOM     94  F   UNL     1       7.057  14.010  -0.557  1.00  0.00    -0.206 F 
ATOM     95  C   UNL     1       9.870  15.930   0.600  1.00  0.00     0.006 A 
ENDBRANCH  71  88
ENDBRANCH  45  46
ENDBRANCH  37  40
ENDBRANCH  35  36
ENDBRANCH  34  35
ENDBRANCH  33  34
ENDBRANCH  32  33
ENDBRANCH   3  32
TORSDOF 17
