REMARK SMILES Cc1cc(Cl)c2c(c1)C=C(C(=O)NCCCCNC(=O)c1ccc(-c3c4nc(c(-c5c(F)cccc5F)c5ccc([nH]5)c(-c5c(F)cccc5F)c5nc(c(-c6c(F)cccc6F)c6ccc3[nH]6)C=C5)C=C4)cc1)[C@@H](C(F)(F)F)O2
REMARK SMILES IDX 16 1 15 2 14 3 13 4 11 5 12 6 10 8 1 9 2 10 3 11 8 12 4 13
REMARK SMILES IDX 7 14 5 15 6 16 9 17 80 18 75 19 76 20 77 21 78 22 79 23
REMARK SMILES IDX 17 24 18 25 19 26 20 28 21 29 22 30 74 31 23 32 73 33 24 34
REMARK SMILES IDX 25 35 26 36 67 37 27 38 72 39 66 40 68 41 28 42 71 43 65 44
REMARK SMILES IDX 64 45 29 47 55 48 38 49 54 50 39 51 42 52 53 53 69 54 40 55
REMARK SMILES IDX 41 56 52 58 70 59 43 60 30 61 31 62 36 63 32 64 33 65 35 66
REMARK SMILES IDX 37 67 34 68 56 69 57 70 62 71 58 72 59 73 61 74 63 75 60 76
REMARK SMILES IDX 44 77 45 78 50 79 46 80 47 81 49 82 51 83 48 84
REMARK H PARENT 13 7 18 27 68 46 42 57
REMARK Flexibility Score: inf
ROOT
ATOM      1  C   UNL     1      -1.220  10.644  -2.753  1.00  0.00     0.023 C 
ENDROOT
BRANCH   1   2
ATOM      2  C   UNL     1      -1.244   9.144  -3.053  1.00  0.00     0.023 C 
BRANCH   2   3
ATOM      3  C   UNL     1       0.136   8.531  -3.272  1.00  0.00     0.116 C 
BRANCH   3   4
ATOM      4  N   UNL     1       0.775   8.181  -2.017  1.00  0.00    -0.352 N 
ATOM      5  C   UNL     1       1.008   7.050  -1.311  1.00  0.00     0.251 C 
ATOM      6  O   UNL     1       1.599   7.217  -0.239  1.00  0.00    -0.270 OA
ATOM      7  H   UNL     1       1.134   8.975  -1.559  1.00  0.00     0.163 HD
BRANCH   5   8
ATOM      8  C   UNL     1       0.613   5.673  -1.729  1.00  0.00     0.067 C 
ATOM      9  C   UNL     1       1.030  -0.179   0.223  1.00  0.00     0.044 C 
ATOM     10  C   UNL     1       0.578   0.943  -0.663  1.00  0.00    -0.049 A 
ATOM     11  C   UNL     1      -0.185   0.691  -1.810  1.00  0.00     0.028 A 
ATOM     12  C   UNL     1       0.918   2.266  -0.346  1.00  0.00     0.015 A 
ATOM     13  C   UNL     1      -0.602   1.745  -2.624  1.00  0.00     0.084 A 
ATOM     14  C   UNL     1       0.508   3.325  -1.165  1.00  0.00     0.019 A 
ATOM     15  Cl  UNL     1      -1.545   1.383  -4.025  1.00  0.00    -0.080 Cl
ATOM     16  C   UNL     1      -0.248   3.061  -2.309  1.00  0.00     0.146 A 
ATOM     17  C   UNL     1       0.830   4.705  -0.819  1.00  0.00     0.025 C 
ATOM     18  O   UNL     1      -0.699   4.071  -3.115  1.00  0.00    -0.474 OA
ATOM     19  C   UNL     1       0.051   5.315  -3.076  1.00  0.00     0.314 C 
BRANCH  19  20
ATOM     20  C   UNL     1       1.124   5.303  -4.183  1.00  0.00     0.429 C 
ATOM     21  F   UNL     1       0.543   5.311  -5.408  1.00  0.00    -0.167 F 
ATOM     22  F   UNL     1       1.928   6.391  -4.135  1.00  0.00    -0.167 F 
ATOM     23  F   UNL     1       1.927   4.218  -4.118  1.00  0.00    -0.167 F 
ENDBRANCH  19  20
ENDBRANCH   5   8
ENDBRANCH   3   4
ENDBRANCH   2   3
ENDBRANCH   1   2
BRANCH   1  24
ATOM     24  C   UNL     1      -0.490  11.505  -3.782  1.00  0.00     0.116 C 
BRANCH  24  25
ATOM     25  N   UNL     1      -0.907  11.260  -5.155  1.00  0.00    -0.352 N 
ATOM     26  C   UNL     1      -1.009  12.163  -6.186  1.00  0.00     0.251 C 
ATOM     27  H   UNL     1      -1.146  10.330  -5.373  1.00  0.00     0.163 HD
ATOM     28  O   UNL     1      -1.445  11.824  -7.280  1.00  0.00    -0.269 OA
BRANCH  26  29
ATOM     29  C   UNL     1      -0.624  13.563  -5.937  1.00  0.00     0.039 A 
ATOM     30  C   UNL     1      -1.562  14.568  -6.180  1.00  0.00     0.014 A 
ATOM     31  C   UNL     1       0.630  13.864  -5.399  1.00  0.00     0.014 A 
ATOM     32  C   UNL     1      -1.263  15.880  -5.818  1.00  0.00     0.010 A 
ATOM     33  C   UNL     1       0.901  15.162  -4.982  1.00  0.00     0.010 A 
ATOM     34  C   UNL     1      -0.044  16.178  -5.187  1.00  0.00    -0.014 A 
BRANCH  34  35
ATOM     35  C   UNL     1       0.261  17.559  -4.748  1.00  0.00     0.031 A 
ATOM     36  C   UNL     1       1.345  18.337  -5.433  1.00  0.00     0.074 A 
ATOM     37  C   UNL     1      -0.413  18.093  -3.712  1.00  0.00     0.049 A 
ATOM     38  N   UNL     1       1.770  19.549  -5.187  1.00  0.00    -0.248 NA
ATOM     39  C   UNL     1       2.061  17.656  -6.524  1.00  0.00     0.031 C 
ATOM     40  C   UNL     1      -1.456  17.415  -2.939  1.00  0.00     0.029 A 
ATOM     41  N   UNL     1      -0.324  19.333  -3.133  1.00  0.00    -0.354 N 
ATOM     42  C   UNL     1       2.804  19.772  -6.085  1.00  0.00     0.074 A 
ATOM     43  C   UNL     1       2.981  18.554  -6.844  1.00  0.00     0.031 C 
ATOM     44  C   UNL     1      -1.935  18.260  -2.012  1.00  0.00     0.029 A 
ATOM     45  C   UNL     1      -1.218  19.528  -2.110  1.00  0.00     0.049 A 
ATOM     46  H   UNL     1       0.321  20.018  -3.423  1.00  0.00     0.167 HD
ATOM     47  C   UNL     1       3.519  20.903  -6.283  1.00  0.00     0.037 A 
ATOM     48  C   UNL     1      -1.440  20.614  -1.346  1.00  0.00     0.037 A 
ATOM     49  C   UNL     1       3.319  22.124  -5.553  1.00  0.00     0.049 A 
ATOM     50  C   UNL     1      -0.627  21.856  -1.579  1.00  0.00     0.074 A 
ATOM     51  C   UNL     1       3.949  23.343  -5.722  1.00  0.00     0.029 A 
ATOM     52  N   UNL     1       2.413  22.278  -4.515  1.00  0.00    -0.354 N 
ATOM     53  N   UNL     1       0.307  22.073  -2.472  1.00  0.00    -0.248 NA
ATOM     54  C   UNL     1      -0.898  23.002  -0.700  1.00  0.00     0.031 C 
ATOM     55  C   UNL     1       3.442  24.230  -4.766  1.00  0.00     0.029 A 
ATOM     56  C   UNL     1       2.478  23.569  -4.021  1.00  0.00     0.049 A 
ATOM     57  H   UNL     1       1.812  21.574  -4.179  1.00  0.00     0.167 HD
ATOM     58  C   UNL     1       0.727  23.381  -2.274  1.00  0.00     0.074 A 
ATOM     59  C   UNL     1      -0.064  23.914  -1.183  1.00  0.00     0.031 C 
ATOM     60  C   UNL     1       1.683  24.077  -2.934  1.00  0.00     0.037 A 
BRANCH  47  61
ATOM     61  C   UNL     1       4.569  20.872  -7.351  1.00  0.00     0.057 A 
ATOM     62  C   UNL     1       4.228  20.880  -8.710  1.00  0.00     0.134 A 
ATOM     63  C   UNL     1       5.929  20.854  -7.023  1.00  0.00     0.134 A 
ATOM     64  F   UNL     1       2.940  20.880  -9.087  1.00  0.00    -0.206 F 
ATOM     65  C   UNL     1       5.204  20.851  -9.706  1.00  0.00     0.040 A 
ATOM     66  C   UNL     1       6.915  20.846  -8.011  1.00  0.00     0.040 A 
ATOM     67  F   UNL     1       6.321  20.846  -5.740  1.00  0.00    -0.206 F 
ATOM     68  C   UNL     1       6.553  20.840  -9.357  1.00  0.00     0.006 A 
ENDBRANCH  47  61
BRANCH  48  69
ATOM     69  C   UNL     1      -2.509  20.589  -0.319  1.00  0.00     0.057 A 
ATOM     70  C   UNL     1      -3.712  21.275  -0.523  1.00  0.00     0.134 A 
ATOM     71  C   UNL     1      -2.364  19.878   0.877  1.00  0.00     0.134 A 
ATOM     72  F   UNL     1      -3.900  21.985  -1.645  1.00  0.00    -0.206 F 
ATOM     73  C   UNL     1      -4.731  21.262   0.430  1.00  0.00     0.040 A 
ATOM     74  C   UNL     1      -3.381  19.844   1.833  1.00  0.00     0.040 A 
ATOM     75  F   UNL     1      -1.236  19.198   1.128  1.00  0.00    -0.206 F 
ATOM     76  C   UNL     1      -4.568  20.540   1.611  1.00  0.00     0.006 A 
ENDBRANCH  48  69
BRANCH  60  77
ATOM     77  C   UNL     1       1.929  25.489  -2.501  1.00  0.00     0.057 A 
ATOM     78  C   UNL     1       2.665  25.778  -1.347  1.00  0.00     0.134 A 
ATOM     79  C   UNL     1       1.494  26.564  -3.284  1.00  0.00     0.134 A 
ATOM     80  F   UNL     1       3.099  24.788  -0.551  1.00  0.00    -0.206 F 
ATOM     81  C   UNL     1       2.959  27.092  -0.983  1.00  0.00     0.040 A 
ATOM     82  C   UNL     1       1.796  27.882  -2.941  1.00  0.00     0.040 A 
ATOM     83  F   UNL     1       0.790  26.350  -4.406  1.00  0.00    -0.206 F 
ATOM     84  C   UNL     1       2.531  28.148  -1.787  1.00  0.00     0.006 A 
ENDBRANCH  60  77
ENDBRANCH  34  35
ENDBRANCH  26  29
ENDBRANCH  24  25
ENDBRANCH   1  24
TORSDOF 12
