REMARK SMILES NC(=O)c1cc(NC(=O)/C=C\C(=O)NCCCCNC(=O)c2ccc(-c3c4nc(c(-c5c(F)cccc5F)c5ccc([nH]5)c(-c5c(F)cccc5F)c5nc(c(-c6c(F)cccc6F)c6ccc3[nH]6)C=C5)C=C4)cc2)ccc1N1CCOCC1
REMARK SMILES IDX 16 1 15 2 14 3 12 4 13 5 11 7 10 8 8 9 7 10 9 12 6 13 4 14
REMARK SMILES IDX 5 15 78 16 77 17 76 18 2 19 1 20 3 23 79 24 80 25 84 26
REMARK SMILES IDX 81 27 83 28 82 29 17 30 18 31 19 32 20 33 21 35 22 36 23 37
REMARK SMILES IDX 75 38 24 39 74 40 25 41 26 42 27 43 68 44 28 45 73 46 67 47
REMARK SMILES IDX 69 48 29 49 72 50 66 51 65 52 30 54 56 55 39 56 55 57 40 58
REMARK SMILES IDX 43 59 54 60 70 61 41 62 42 63 53 65 71 66 44 67 31 68 32 69
REMARK SMILES IDX 37 70 33 71 34 72 36 73 38 74 35 75 57 76 58 77 63 78 59 79
REMARK SMILES IDX 60 80 62 81 64 82 61 83 45 84 46 85 51 86 47 87 48 88 50 89
REMARK SMILES IDX 52 90 49 91
REMARK H PARENT 14 6 7 11 1 21 1 22 19 34 69 53 43 64
REMARK Flexibility Score: inf
ROOT
ATOM      1  C   UNL     1       0.595   3.820  -7.034  1.00  0.00     0.023 C 
ENDROOT
BRANCH   1   2
ATOM      2  C   UNL     1      -0.458   2.748  -6.779  1.00  0.00     0.116 C 
BRANCH   2   3
ATOM      3  N   UNL     1      -0.144   1.808  -5.726  1.00  0.00    -0.353 N 
ATOM      4  C   UNL     1      -0.746   1.705  -4.515  1.00  0.00     0.244 C 
ATOM      5  O   UNL     1      -0.888   0.602  -3.996  1.00  0.00    -0.270 OA
ATOM      6  H   UNL     1       0.586   1.174  -5.909  1.00  0.00     0.163 HD
BRANCH   4   7
ATOM      7  C   UNL     1      -1.276   2.897  -3.830  1.00  0.00     0.077 C 
ATOM      8  C   UNL     1      -0.603   3.983  -3.422  1.00  0.00     0.077 C 
BRANCH   8   9
ATOM      9  C   UNL     1       0.798   4.413  -3.650  1.00  0.00     0.248 C 
ATOM     10  N   UNL     1       1.855   3.563  -3.703  1.00  0.00    -0.322 N 
ATOM     11  H   UNL     1       2.638   3.932  -4.171  1.00  0.00     0.170 HD
ATOM     12  O   UNL     1       0.992   5.612  -3.867  1.00  0.00    -0.270 OA
BRANCH  10  13
ATOM     13  C   UNL     1       2.046   2.265  -3.220  1.00  0.00     0.042 A 
ATOM     14  C   UNL     1       1.537   0.404  -1.745  1.00  0.00     0.064 A 
ATOM     15  C   UNL     1       1.319   1.730  -2.166  1.00  0.00     0.042 A 
ATOM     16  C   UNL     1       2.530  -0.400  -2.334  1.00  0.00     0.050 A 
ATOM     17  C   UNL     1       3.253   0.181  -3.396  1.00  0.00     0.029 A 
ATOM     18  C   UNL     1       3.038   1.493  -3.817  1.00  0.00     0.028 A 
BRANCH  14  19
ATOM     19  C   UNL     1       0.697  -0.013  -0.605  1.00  0.00     0.250 C 
ATOM     20  N   UNL     1       0.971   0.621   0.577  1.00  0.00    -0.366 N 
ATOM     21  H   UNL     1       0.454   0.399   1.386  1.00  0.00     0.159 HD
ATOM     22  H   UNL     1       1.683   1.299   0.619  1.00  0.00     0.159 HD
ATOM     23  O   UNL     1      -0.204  -0.830  -0.697  1.00  0.00    -0.269 OA
ENDBRANCH  14  19
BRANCH  16  24
ATOM     24  N   UNL     1       2.943  -1.656  -1.925  1.00  0.00    -0.366 N 
ATOM     25  C   UNL     1       2.038  -2.735  -1.495  1.00  0.00     0.145 C 
ATOM     26  C   UNL     1       4.294  -1.754  -1.349  1.00  0.00     0.145 C 
ATOM     27  C   UNL     1       2.080  -2.937   0.035  1.00  0.00     0.181 C 
ATOM     28  C   UNL     1       4.171  -1.835   0.177  1.00  0.00     0.181 C 
ATOM     29  O   UNL     1       3.425  -3.004   0.554  1.00  0.00    -0.378 OA
ENDBRANCH  16  24
ENDBRANCH  10  13
ENDBRANCH   8   9
ENDBRANCH   4   7
ENDBRANCH   2   3
ENDBRANCH   1   2
BRANCH   1  30
ATOM     30  C   UNL     1       2.027   3.329  -7.249  1.00  0.00     0.023 C 
BRANCH  30  31
ATOM     31  C   UNL     1       2.198   2.253  -8.312  1.00  0.00     0.116 C 
BRANCH  31  32
ATOM     32  N   UNL     1       1.692   2.691  -9.599  1.00  0.00    -0.352 N 
ATOM     33  C   UNL     1       2.324   2.744 -10.812  1.00  0.00     0.251 C 
ATOM     34  H   UNL     1       0.755   2.995  -9.600  1.00  0.00     0.163 HD
ATOM     35  O   UNL     1       1.825   3.389 -11.730  1.00  0.00    -0.269 OA
BRANCH  33  36
ATOM     36  C   UNL     1       3.595   2.021 -11.027  1.00  0.00     0.039 A 
ATOM     37  C   UNL     1       4.580   2.616 -11.820  1.00  0.00     0.014 A 
ATOM     38  C   UNL     1       3.787   0.734 -10.515  1.00  0.00     0.014 A 
ATOM     39  C   UNL     1       5.763   1.926 -12.089  1.00  0.00     0.010 A 
ATOM     40  C   UNL     1       4.994   0.076 -10.725  1.00  0.00     0.010 A 
ATOM     41  C   UNL     1       5.981   0.655 -11.536  1.00  0.00    -0.014 A 
BRANCH  41  42
ATOM     42  C   UNL     1       7.219  -0.106 -11.832  1.00  0.00     0.031 A 
ATOM     43  C   UNL     1       7.140  -1.391 -12.610  1.00  0.00     0.074 A 
ATOM     44  C   UNL     1       8.397   0.329 -11.350  1.00  0.00     0.049 A 
ATOM     45  N   UNL     1       8.094  -2.234 -12.913  1.00  0.00    -0.248 NA
ATOM     46  C   UNL     1       5.807  -1.798 -13.083  1.00  0.00     0.031 C 
ATOM     47  C   UNL     1       8.586   1.534 -10.540  1.00  0.00     0.029 A 
ATOM     48  N   UNL     1       9.657  -0.202 -11.458  1.00  0.00    -0.354 N 
ATOM     49  C   UNL     1       7.473  -3.278 -13.590  1.00  0.00     0.074 A 
ATOM     50  C   UNL     1       6.056  -2.988 -13.608  1.00  0.00     0.031 C 
ATOM     51  C   UNL     1       9.888   1.658 -10.236  1.00  0.00     0.029 A 
ATOM     52  C   UNL     1      10.618   0.526 -10.800  1.00  0.00     0.049 A 
ATOM     53  H   UNL     1       9.854  -1.027 -11.958  1.00  0.00     0.167 HD
ATOM     54  C   UNL     1       8.037  -4.368 -14.162  1.00  0.00     0.037 A 
ATOM     55  C   UNL     1      11.938   0.301 -10.663  1.00  0.00     0.037 A 
ATOM     56  C   UNL     1       9.452  -4.631 -14.165  1.00  0.00     0.049 A 
ATOM     57  C   UNL     1      12.544  -0.904 -11.325  1.00  0.00     0.074 A 
ATOM     58  C   UNL     1      10.137  -5.664 -14.779  1.00  0.00     0.029 A 
ATOM     59  N   UNL     1      10.400  -3.851 -13.518  1.00  0.00    -0.354 N 
ATOM     60  N   UNL     1      11.958  -1.844 -12.027  1.00  0.00    -0.248 NA
ATOM     61  C   UNL     1      13.996  -1.077 -11.184  1.00  0.00     0.031 C 
ATOM     62  C   UNL     1      11.494  -5.535 -14.465  1.00  0.00     0.029 A 
ATOM     63  C   UNL     1      11.661  -4.393 -13.698  1.00  0.00     0.049 A 
ATOM     64  H   UNL     1      10.204  -3.033 -13.007  1.00  0.00     0.167 HD
ATOM     65  C   UNL     1      12.969  -2.705 -12.431  1.00  0.00     0.074 A 
ATOM     66  C   UNL     1      14.209  -2.166 -11.909  1.00  0.00     0.031 C 
ATOM     67  C   UNL     1      12.882  -3.839 -13.169  1.00  0.00     0.037 A 
BRANCH  54  68
ATOM     68  C   UNL     1       7.121  -5.355 -14.827  1.00  0.00     0.057 A 
ATOM     69  C   UNL     1       6.435  -5.052 -16.011  1.00  0.00     0.134 A 
ATOM     70  C   UNL     1       6.939  -6.636 -14.289  1.00  0.00     0.134 A 
ATOM     71  F   UNL     1       6.556  -3.840 -16.575  1.00  0.00    -0.206 F 
ATOM     72  C   UNL     1       5.577  -5.972 -16.617  1.00  0.00     0.040 A 
ATOM     73  C   UNL     1       6.106  -7.575 -14.901  1.00  0.00     0.040 A 
ATOM     74  F   UNL     1       7.569  -6.997 -13.161  1.00  0.00    -0.206 F 
ATOM     75  C   UNL     1       5.416  -7.241 -16.064  1.00  0.00     0.006 A 
ENDBRANCH  54  68
BRANCH  55  76
ATOM     76  C   UNL     1      12.772   1.253  -9.888  1.00  0.00     0.057 A 
ATOM     77  C   UNL     1      13.693   2.092 -10.525  1.00  0.00     0.134 A 
ATOM     78  C   UNL     1      12.659   1.358  -8.496  1.00  0.00     0.134 A 
ATOM     79  F   UNL     1      13.857   2.028 -11.854  1.00  0.00    -0.206 F 
ATOM     80  C   UNL     1      14.484   2.990  -9.806  1.00  0.00     0.040 A 
ATOM     81  C   UNL     1      13.425   2.268  -7.767  1.00  0.00     0.040 A 
ATOM     82  F   UNL     1      11.785   0.590  -7.828  1.00  0.00    -0.206 F 
ATOM     83  C   UNL     1      14.346   3.083  -8.422  1.00  0.00     0.006 A 
ENDBRANCH  55  76
BRANCH  67  84
ATOM     84  C   UNL     1      14.164  -4.557 -13.475  1.00  0.00     0.057 A 
ATOM     85  C   UNL     1      14.862  -5.272 -12.494  1.00  0.00     0.134 A 
ATOM     86  C   UNL     1      14.682  -4.564 -14.775  1.00  0.00     0.134 A 
ATOM     87  F   UNL     1      14.424  -5.294 -11.226  1.00  0.00    -0.206 F 
ATOM     88  C   UNL     1      16.044  -5.952 -12.792  1.00  0.00     0.040 A 
ATOM     89  C   UNL     1      15.848  -5.262 -15.091  1.00  0.00     0.040 A 
ATOM     90  F   UNL     1      14.057  -3.905 -15.763  1.00  0.00    -0.206 F 
ATOM     91  C   UNL     1      16.536  -5.954 -14.096  1.00  0.00     0.006 A 
ENDBRANCH  67  84
ENDBRANCH  41  42
ENDBRANCH  33  36
ENDBRANCH  31  32
ENDBRANCH  30  31
ENDBRANCH   1  30
TORSDOF 15
