REMARK SMILES C[C@@H]1C[C@@H](C)CN(C(=O)CSc2csc(C(=O)NCCCCNC(=O)c3ccc(-c4c5nc(c(-c6c(F)cccc6F)c6ccc([nH]6)c(-c6c(F)cccc6F)c6nc(c(-c7c(F)cccc7F)c7ccc4[nH]7)C=C6)C=C5)cc3)c2)C1
REMARK SMILES IDX 20 1 19 2 18 3 16 4 17 5 15 7 12 8 13 9 80 10 14 11 11 12
REMARK SMILES IDX 10 13 8 14 1 15 2 16 3 17 81 18 4 19 7 20 6 21 5 22 9 23
REMARK SMILES IDX 21 24 22 25 23 26 24 27 25 29 26 30 27 31 79 32 28 33 78 34
REMARK SMILES IDX 29 35 30 36 31 37 72 38 32 39 77 40 71 41 73 42 33 43 76 44
REMARK SMILES IDX 70 45 69 46 34 48 60 49 43 50 59 51 44 52 47 53 58 54 74 55
REMARK SMILES IDX 45 56 46 57 57 59 75 60 48 61 35 62 36 63 41 64 37 65 38 66
REMARK SMILES IDX 40 67 42 68 39 69 61 70 62 71 67 72 63 73 64 74 66 75 68 76
REMARK SMILES IDX 65 77 49 78 50 79 55 80 51 81 52 82 54 83 56 84 53 85
REMARK H PARENT 18 6 23 28 73 47 47 58
REMARK Flexibility Score: inf
ROOT
ATOM      1  C   UNL     1      -2.242   4.207  -1.902  1.00  0.00     0.023 C 
ENDROOT
BRANCH   1   2
ATOM      2  C   UNL     1      -2.042   4.123  -3.416  1.00  0.00     0.116 C 
BRANCH   2   3
ATOM      3  N   UNL     1      -0.645   4.269  -3.769  1.00  0.00    -0.351 N 
ATOM      4  C   UNL     1       0.347   3.342  -3.994  1.00  0.00     0.261 C 
ATOM      5  O   UNL     1       1.438   3.820  -4.319  1.00  0.00    -0.268 OA
ATOM      6  H   UNL     1      -0.351   5.204  -3.865  1.00  0.00     0.163 HD
BRANCH   4   7
ATOM      7  C   UNL     1       0.102   1.908  -3.880  1.00  0.00     0.093 A 
ATOM      8  C   UNL     1      -0.797  -0.224  -3.471  1.00  0.00     0.019 A 
ATOM      9  C   UNL     1       0.342  -0.546  -4.170  1.00  0.00     0.080 A 
ATOM     10  C   UNL     1      -0.902   1.177  -3.267  1.00  0.00     0.040 A 
ATOM     11  S   UNL     1       1.248   0.836  -4.598  1.00  0.00    -0.137 S 
BRANCH   8  12
ATOM     12  S   UNL     1      -1.947  -1.444  -2.954  1.00  0.00    -0.115 SA
BRANCH  12  13
ATOM     13  C   UNL     1      -3.065  -0.628  -1.783  1.00  0.00     0.175 C 
BRANCH  13  14
ATOM     14  C   UNL     1      -2.370  -0.024  -0.571  1.00  0.00     0.232 C 
ATOM     15  C   UNL     1       1.196   0.095   0.194  1.00  0.00     0.009 C 
ATOM     16  C   UNL     1       0.504  -0.657   1.336  1.00  0.00     0.006 C 
ATOM     17  C   UNL     1       0.650  -2.186   1.187  1.00  0.00     0.010 C 
ATOM     18  C   UNL     1      -0.978  -0.260   1.443  1.00  0.00     0.122 C 
ATOM     19  C   UNL     1      -0.250  -2.762   0.078  1.00  0.00     0.006 C 
ATOM     20  N   UNL     1      -1.756  -0.851   0.355  1.00  0.00    -0.341 N 
ATOM     21  C   UNL     1      -1.699  -2.308   0.299  1.00  0.00     0.122 C 
ATOM     22  C   UNL     1      -0.164  -4.284   0.003  1.00  0.00     0.009 C 
ATOM     23  O   UNL     1      -2.406   1.202  -0.416  1.00  0.00    -0.274 OA
ENDBRANCH  13  14
ENDBRANCH  12  13
ENDBRANCH   8  12
ENDBRANCH   4   7
ENDBRANCH   2   3
ENDBRANCH   1   2
BRANCH   1  24
ATOM     24  C   UNL     1      -2.321   5.638  -1.362  1.00  0.00     0.023 C 
BRANCH  24  25
ATOM     25  C   UNL     1      -3.503   6.454  -1.876  1.00  0.00     0.116 C 
BRANCH  25  26
ATOM     26  N   UNL     1      -4.796   5.852  -1.588  1.00  0.00    -0.352 N 
ATOM     27  C   UNL     1      -6.008   6.480  -1.413  1.00  0.00     0.251 C 
ATOM     28  H   UNL     1      -4.805   4.871  -1.509  1.00  0.00     0.163 HD
ATOM     29  O   UNL     1      -7.002   5.845  -1.090  1.00  0.00    -0.269 OA
BRANCH  27  30
ATOM     30  C   UNL     1      -6.083   7.947  -1.570  1.00  0.00     0.039 A 
ATOM     31  C   UNL     1      -6.655   8.702  -0.543  1.00  0.00     0.014 A 
ATOM     32  C   UNL     1      -5.554   8.574  -2.701  1.00  0.00     0.014 A 
ATOM     33  C   UNL     1      -6.632  10.096  -0.618  1.00  0.00     0.010 A 
ATOM     34  C   UNL     1      -5.473   9.962  -2.743  1.00  0.00     0.010 A 
ATOM     35  C   UNL     1      -6.008  10.736  -1.701  1.00  0.00    -0.014 A 
BRANCH  35  36
ATOM     36  C   UNL     1      -5.897  12.214  -1.761  1.00  0.00     0.031 A 
ATOM     37  C   UNL     1      -6.603  12.978  -2.844  1.00  0.00     0.074 A 
ATOM     38  C   UNL     1      -5.102  12.858  -0.885  1.00  0.00     0.049 A 
ATOM     39  N   UNL     1      -6.562  14.258  -3.114  1.00  0.00    -0.248 NA
ATOM     40  C   UNL     1      -7.444  12.196  -3.763  1.00  0.00     0.031 C 
ATOM     41  C   UNL     1      -4.326  12.223   0.182  1.00  0.00     0.029 A 
ATOM     42  N   UNL     1      -4.805  14.193  -0.762  1.00  0.00    -0.354 N 
ATOM     43  C   UNL     1      -7.355  14.431  -4.240  1.00  0.00     0.074 A 
ATOM     44  C   UNL     1      -7.824  13.120  -4.633  1.00  0.00     0.031 C 
ATOM     45  C   UNL     1      -3.656  13.169   0.861  1.00  0.00     0.029 A 
ATOM     46  C   UNL     1      -3.928  14.470   0.258  1.00  0.00     0.049 A 
ATOM     47  H   UNL     1      -5.185  14.885  -1.350  1.00  0.00     0.167 HD
ATOM     48  C   UNL     1      -7.680  15.581  -4.877  1.00  0.00     0.037 A 
ATOM     49  C   UNL     1      -3.398  15.642   0.657  1.00  0.00     0.037 A 
ATOM     50  C   UNL     1      -7.236  16.887  -4.468  1.00  0.00     0.049 A 
ATOM     51  C   UNL     1      -3.778  16.904  -0.065  1.00  0.00     0.074 A 
ATOM     52  C   UNL     1      -7.563  18.118  -5.009  1.00  0.00     0.029 A 
ATOM     53  N   UNL     1      -6.367  17.129  -3.415  1.00  0.00    -0.354 N 
ATOM     54  N   UNL     1      -4.582  17.061  -1.089  1.00  0.00    -0.248 NA
ATOM     55  C   UNL     1      -3.180  18.154   0.427  1.00  0.00     0.031 C 
ATOM     56  C   UNL     1      -6.863  19.104  -4.306  1.00  0.00     0.029 A 
ATOM     57  C   UNL     1      -6.131  18.490  -3.301  1.00  0.00     0.049 A 
ATOM     58  H   UNL     1      -5.975  16.438  -2.835  1.00  0.00     0.167 HD
ATOM     59  C   UNL     1      -4.606  18.425  -1.347  1.00  0.00     0.074 A 
ATOM     60  C   UNL     1      -3.747  19.053  -0.365  1.00  0.00     0.031 C 
ATOM     61  C   UNL     1      -5.278  19.098  -2.313  1.00  0.00     0.037 A 
BRANCH  48  62
ATOM     62  C   UNL     1      -8.567  15.473  -6.083  1.00  0.00     0.057 A 
ATOM     63  C   UNL     1      -9.924  15.142  -5.973  1.00  0.00     0.134 A 
ATOM     64  C   UNL     1      -8.066  15.728  -7.365  1.00  0.00     0.134 A 
ATOM     65  F   UNL     1     -10.463  14.873  -4.774  1.00  0.00    -0.206 F 
ATOM     66  C   UNL     1     -10.744  15.042  -7.098  1.00  0.00     0.040 A 
ATOM     67  C   UNL     1      -8.883  15.656  -8.495  1.00  0.00     0.040 A 
ATOM     68  F   UNL     1      -6.777  16.055  -7.541  1.00  0.00    -0.206 F 
ATOM     69  C   UNL     1     -10.225  15.306  -8.363  1.00  0.00     0.006 A 
ENDBRANCH  48  62
BRANCH  49  70
ATOM     70  C   UNL     1      -2.468  15.682   1.812  1.00  0.00     0.057 A 
ATOM     71  C   UNL     1      -2.860  16.243   3.033  1.00  0.00     0.134 A 
ATOM     72  C   UNL     1      -1.167  15.171   1.724  1.00  0.00     0.134 A 
ATOM     73  F   UNL     1      -4.087  16.766   3.171  1.00  0.00    -0.206 F 
ATOM     74  C   UNL     1      -1.987  16.313   4.120  1.00  0.00     0.040 A 
ATOM     75  C   UNL     1      -0.292  15.213   2.810  1.00  0.00     0.040 A 
ATOM     76  F   UNL     1      -0.734  14.614   0.584  1.00  0.00    -0.206 F 
ATOM     77  C   UNL     1      -0.699  15.793   4.011  1.00  0.00     0.006 A 
ENDBRANCH  49  70
BRANCH  61  78
ATOM     78  C   UNL     1      -5.135  20.590  -2.334  1.00  0.00     0.057 A 
ATOM     79  C   UNL     1      -3.961  21.213  -2.775  1.00  0.00     0.134 A 
ATOM     80  C   UNL     1      -6.200  21.414  -1.945  1.00  0.00     0.134 A 
ATOM     81  F   UNL     1      -2.901  20.479  -3.147  1.00  0.00    -0.206 F 
ATOM     82  C   UNL     1      -3.843  22.603  -2.809  1.00  0.00     0.040 A 
ATOM     83  C   UNL     1      -6.102  22.805  -1.998  1.00  0.00     0.040 A 
ATOM     84  F   UNL     1      -7.354  20.880  -1.520  1.00  0.00    -0.206 F 
ATOM     85  C   UNL     1      -4.919  23.403  -2.427  1.00  0.00     0.006 A 
ENDBRANCH  61  78
ENDBRANCH  35  36
ENDBRANCH  27  30
ENDBRANCH  25  26
ENDBRANCH  24  25
ENDBRANCH   1  24
TORSDOF 14
