REMARK SMILES C[C@](Nc1ccc(C(N)=O)nn1)(C(=O)NCCCCNC(=O)c1ccc(-c2c3nc(c(-c4c(F)cccc4F)c4ccc([nH]4)c(-c4c(F)cccc4F)c4nc(c(-c5c(F)cccc5F)c5ccc2[nH]5)C=C4)C=C3)cc1)c1ccccc1
REMARK SMILES IDX 17 1 16 2 15 3 13 4 14 5 2 7 1 8 77 9 78 10 82 11 79 12
REMARK SMILES IDX 81 13 80 14 3 15 4 17 5 18 12 19 6 20 11 21 7 22 8 23 9 24
REMARK SMILES IDX 10 25 18 28 19 29 20 30 21 31 22 33 23 34 24 35 76 36 25 37
REMARK SMILES IDX 75 38 26 39 27 40 28 41 69 42 29 43 74 44 68 45 70 46 30 47
REMARK SMILES IDX 73 48 67 49 66 50 31 52 57 53 40 54 56 55 41 56 44 57 55 58
REMARK SMILES IDX 71 59 42 60 43 61 54 63 72 64 45 65 32 66 33 67 38 68 34 69
REMARK SMILES IDX 35 70 37 71 39 72 36 73 58 74 59 75 64 76 60 77 61 78 63 79
REMARK SMILES IDX 65 80 62 81 46 82 47 83 52 84 48 85 49 86 51 87 53 88 50 89
REMARK H PARENT 15 6 3 16 9 26 9 27 20 32 70 51 44 62
REMARK Flexibility Score: inf
ROOT
ATOM      1  C   UNL     1      -1.350   0.464  -2.566  1.00  0.00     0.023 C 
ENDROOT
BRANCH   1   2
ATOM      2  C   UNL     1      -0.943   1.580  -1.610  1.00  0.00     0.116 C 
BRANCH   2   3
ATOM      3  N   UNL     1      -1.498   1.389  -0.282  1.00  0.00    -0.354 N 
ATOM      4  C   UNL     1      -0.893   1.253   0.941  1.00  0.00     0.250 C 
ATOM      5  O   UNL     1      -1.659   1.151   1.905  1.00  0.00    -0.272 OA
ATOM      6  H   UNL     1      -2.481   1.351  -0.255  1.00  0.00     0.163 HD
BRANCH   4   7
ATOM      7  C   UNL     1       0.689   1.245   1.078  1.00  0.00     0.140 C 
ATOM      8  C   UNL     1       1.167   2.666   0.680  1.00  0.00     0.051 C 
BRANCH   7   9
ATOM      9  C   UNL     1       1.070   0.902   2.536  1.00  0.00    -0.013 A 
ATOM     10  C   UNL     1       1.135  -0.437   2.970  1.00  0.00     0.007 A 
ATOM     11  C   UNL     1       1.288   1.905   3.501  1.00  0.00     0.007 A 
ATOM     12  C   UNL     1       1.431  -0.755   4.298  1.00  0.00     0.000 A 
ATOM     13  C   UNL     1       1.591   1.587   4.827  1.00  0.00     0.000 A 
ATOM     14  C   UNL     1       1.664   0.257   5.225  1.00  0.00     0.000 A 
ENDBRANCH   7   9
BRANCH   7  15
ATOM     15  N   UNL     1       1.206   0.186   0.175  1.00  0.00    -0.351 N 
ATOM     16  H   UNL     1       0.691  -0.652   0.138  1.00  0.00     0.163 HD
BRANCH  15  17
ATOM     17  C   UNL     1       2.325   0.254  -0.611  1.00  0.00     0.149 A 
ATOM     18  C   UNL     1       3.530   0.793  -0.194  1.00  0.00     0.051 A 
ATOM     19  N   UNL     1       2.188  -0.189  -1.883  1.00  0.00    -0.132 NA
ATOM     20  C   UNL     1       4.567   0.951  -1.111  1.00  0.00     0.040 A 
ATOM     21  N   UNL     1       3.194  -0.028  -2.804  1.00  0.00    -0.143 NA
ATOM     22  C   UNL     1       4.353   0.548  -2.415  1.00  0.00     0.150 A 
BRANCH  22  23
ATOM     23  C   UNL     1       5.383   0.768  -3.467  1.00  0.00     0.269 C 
ATOM     24  N   UNL     1       5.054   0.374  -4.736  1.00  0.00    -0.364 N 
ATOM     25  O   UNL     1       6.464   1.291  -3.218  1.00  0.00    -0.268 OA
ATOM     26  H   UNL     1       4.180  -0.043  -4.911  1.00  0.00     0.160 HD
ATOM     27  H   UNL     1       5.692   0.509  -5.474  1.00  0.00     0.160 HD
ENDBRANCH  22  23
ENDBRANCH  15  17
ENDBRANCH   7  15
ENDBRANCH   4   7
ENDBRANCH   2   3
ENDBRANCH   1   2
BRANCH   1  28
ATOM     28  C   UNL     1      -2.841   0.427  -2.893  1.00  0.00     0.023 C 
BRANCH  28  29
ATOM     29  C   UNL     1      -3.420   1.738  -3.411  1.00  0.00     0.116 C 
BRANCH  29  30
ATOM     30  N   UNL     1      -2.752   2.220  -4.611  1.00  0.00    -0.352 N 
ATOM     31  C   UNL     1      -3.304   2.654  -5.792  1.00  0.00     0.251 C 
ATOM     32  H   UNL     1      -1.768   2.237  -4.571  1.00  0.00     0.163 HD
ATOM     33  O   UNL     1      -2.590   2.895  -6.760  1.00  0.00    -0.269 OA
BRANCH  31  34
ATOM     34  C   UNL     1      -4.770   2.795  -5.899  1.00  0.00     0.039 A 
ATOM     35  C   UNL     1      -5.421   2.247  -7.006  1.00  0.00     0.014 A 
ATOM     36  C   UNL     1      -5.501   3.432  -4.892  1.00  0.00     0.014 A 
ATOM     37  C   UNL     1      -6.815   2.275  -7.067  1.00  0.00     0.010 A 
ATOM     38  C   UNL     1      -6.890   3.385  -4.915  1.00  0.00     0.010 A 
ATOM     39  C   UNL     1      -7.562   2.805  -6.002  1.00  0.00    -0.014 A 
BRANCH  39  40
ATOM     40  C   UNL     1      -9.046   2.752  -6.002  1.00  0.00     0.031 A 
ATOM     41  C   UNL     1      -9.851   4.021  -5.998  1.00  0.00     0.074 A 
ATOM     42  C   UNL     1      -9.669   1.558  -5.939  1.00  0.00     0.049 A 
ATOM     43  N   UNL     1     -11.149   4.176  -5.942  1.00  0.00    -0.248 NA
ATOM     44  C   UNL     1      -9.097   5.285  -6.037  1.00  0.00     0.031 C 
ATOM     45  C   UNL     1      -9.002   0.256  -5.892  1.00  0.00     0.029 A 
ATOM     46  N   UNL     1     -11.005   1.247  -5.901  1.00  0.00    -0.354 N 
ATOM     47  C   UNL     1     -11.365   5.548  -5.919  1.00  0.00     0.074 A 
ATOM     48  C   UNL     1     -10.065   6.182  -5.918  1.00  0.00     0.031 C 
ATOM     49  C   UNL     1      -9.930  -0.713  -5.866  1.00  0.00     0.029 A 
ATOM     50  C   UNL     1     -11.256  -0.103  -5.849  1.00  0.00     0.049 A 
ATOM     51  H   UNL     1     -11.717   1.927  -5.909  1.00  0.00     0.167 HD
ATOM     52  C   UNL     1     -12.541   6.218  -5.920  1.00  0.00     0.037 A 
ATOM     53  C   UNL     1     -12.421  -0.774  -5.790  1.00  0.00     0.037 A 
ATOM     54  C   UNL     1     -13.834   5.585  -5.949  1.00  0.00     0.049 A 
ATOM     55  C   UNL     1     -13.713  -0.005  -5.783  1.00  0.00     0.074 A 
ATOM     56  C   UNL     1     -15.081   6.179  -6.025  1.00  0.00     0.029 A 
ATOM     57  N   UNL     1     -14.046   4.215  -5.896  1.00  0.00    -0.354 N 
ATOM     58  N   UNL     1     -13.904   1.291  -5.832  1.00  0.00    -0.248 NA
ATOM     59  C   UNL     1     -14.952  -0.793  -5.715  1.00  0.00     0.031 C 
ATOM     60  C   UNL     1     -16.049   5.173  -5.958  1.00  0.00     0.029 A 
ATOM     61  C   UNL     1     -15.405   3.948  -5.906  1.00  0.00     0.049 A 
ATOM     62  H   UNL     1     -13.336   3.534  -5.857  1.00  0.00     0.167 HD
ATOM     63  C   UNL     1     -15.281   1.473  -5.832  1.00  0.00     0.074 A 
ATOM     64  C   UNL     1     -15.877   0.153  -5.791  1.00  0.00     0.031 C 
ATOM     65  C   UNL     1     -15.987   2.630  -5.867  1.00  0.00     0.037 A 
BRANCH  52  66
ATOM     66  C   UNL     1     -12.489   7.719  -5.885  1.00  0.00     0.057 A 
ATOM     67  C   UNL     1     -12.040   8.473  -6.977  1.00  0.00     0.134 A 
ATOM     68  C   UNL     1     -12.941   8.420  -4.759  1.00  0.00     0.134 A 
ATOM     69  F   UNL     1     -11.582   7.864  -8.082  1.00  0.00    -0.206 F 
ATOM     70  C   UNL     1     -12.021   9.868  -6.943  1.00  0.00     0.040 A 
ATOM     71  C   UNL     1     -12.954   9.816  -4.725  1.00  0.00     0.040 A 
ATOM     72  F   UNL     1     -13.389   7.761  -3.680  1.00  0.00    -0.206 F 
ATOM     73  C   UNL     1     -12.488  10.543  -5.817  1.00  0.00     0.006 A 
ENDBRANCH  52  66
BRANCH  53  74
ATOM     74  C   UNL     1     -12.421  -2.259  -5.767  1.00  0.00     0.057 A 
ATOM     75  C   UNL     1     -12.875  -2.996  -6.867  1.00  0.00     0.134 A 
ATOM     76  C   UNL     1     -11.966  -2.976  -4.654  1.00  0.00     0.134 A 
ATOM     77  F   UNL     1     -13.341  -2.365  -7.955  1.00  0.00    -0.206 F 
ATOM     78  C   UNL     1     -12.892  -4.391  -6.857  1.00  0.00     0.040 A 
ATOM     79  C   UNL     1     -11.952  -4.372  -4.640  1.00  0.00     0.040 A 
ATOM     80  F   UNL     1     -11.511  -2.330  -3.571  1.00  0.00    -0.206 F 
ATOM     81  C   UNL     1     -12.422  -5.083  -5.743  1.00  0.00     0.006 A 
ENDBRANCH  53  74
BRANCH  65  82
ATOM     82  C   UNL     1     -17.485   2.525  -5.901  1.00  0.00     0.057 A 
ATOM     83  C   UNL     1     -18.226   2.111  -4.787  1.00  0.00     0.134 A 
ATOM     84  C   UNL     1     -18.197   2.886  -7.053  1.00  0.00     0.134 A 
ATOM     85  F   UNL     1     -17.606   1.740  -3.657  1.00  0.00    -0.206 F 
ATOM     86  C   UNL     1     -19.620   2.039  -4.825  1.00  0.00     0.040 A 
ATOM     87  C   UNL     1     -19.591   2.847  -7.092  1.00  0.00     0.040 A 
ATOM     88  F   UNL     1     -17.550   3.301  -8.152  1.00  0.00    -0.206 F 
ATOM     89  C   UNL     1     -20.306   2.416  -5.978  1.00  0.00     0.006 A 
ENDBRANCH  65  82
ENDBRANCH  39  40
ENDBRANCH  31  34
ENDBRANCH  29  30
ENDBRANCH  28  29
ENDBRANCH   1  28
TORSDOF 15
