REMARK SMILES CC(C)c1ccc2c(c1)c(SC(C)(C)C)c(CC(C)(C)C(=O)NCCCCNC(=O)c1ccc(-c3c4nc(c(-c5c(F)cccc5F)c5ccc([nH]5)c(-c5c(F)cccc5F)c5nc(c(-c6c(F)cccc6F)c6ccc3[nH]6)C=C5)C=C4)cc1)n2Cc1ccc(Cl)cc1
REMARK SMILES IDX 24 1 23 2 21 3 22 4 18 6 19 7 20 8 17 9 16 10 4 11 5 12 9 13
REMARK SMILES IDX 6 14 8 15 7 16 10 17 85 18 2 19 1 20 3 21 11 22 12 23 13 24
REMARK SMILES IDX 14 25 15 26 86 27 87 28 88 29 93 30 89 31 92 32 90 33 91 34
REMARK SMILES IDX 25 35 26 36 27 37 28 38 29 39 30 41 31 42 32 43 84 44 33 45
REMARK SMILES IDX 83 46 34 47 35 48 36 49 77 50 37 51 82 52 76 53 78 54 38 55
REMARK SMILES IDX 81 56 75 57 74 58 39 60 65 61 48 62 64 63 49 64 52 65 63 66
REMARK SMILES IDX 79 67 50 68 51 69 62 71 80 72 53 73 40 74 41 75 46 76 42 77
REMARK SMILES IDX 43 78 45 79 47 80 44 81 66 82 67 83 72 84 68 85 69 86 71 87
REMARK SMILES IDX 73 88 70 89 54 90 55 91 60 92 56 93 57 94 59 95 61 96 58 97
REMARK H PARENT 23 5 28 40 78 59 52 70
REMARK Flexibility Score: inf
ROOT
ATOM      1  C   UNL     1      -7.050   3.275   3.328  1.00  0.00     0.116 C 
ENDROOT
BRANCH   1   2
ATOM      2  N   UNL     1      -6.971   1.852   3.023  1.00  0.00    -0.356 N 
ATOM      3  C   UNL     1      -6.648   1.276   1.822  1.00  0.00     0.226 C 
ATOM      4  O   UNL     1      -6.179   0.126   1.862  1.00  0.00    -0.275 OA
ATOM      5  H   UNL     1      -7.173   1.235   3.764  1.00  0.00     0.163 HD
BRANCH   3   6
ATOM      6  C   UNL     1      -6.652   2.151   0.574  1.00  0.00     0.049 C 
ATOM      7  C   UNL     1      -5.318   2.891   0.867  1.00  0.00     0.022 C 
ATOM      8  C   UNL     1      -8.034   2.885   0.541  1.00  0.00     0.022 C 
BRANCH   6   9
ATOM      9  C   UNL     1      -6.627   1.508  -0.844  1.00  0.00     0.071 C 
BRANCH   9  10
ATOM     10  C   UNL     1      -5.386   0.852  -1.264  1.00  0.00     0.034 A 
ATOM     11  C   UNL     1      -1.089  -0.885  -1.385  1.00  0.00    -0.045 A 
ATOM     12  C   UNL     1      -1.823  -2.055  -1.177  1.00  0.00     0.006 A 
ATOM     13  C   UNL     1      -1.800   0.312  -1.635  1.00  0.00     0.015 A 
ATOM     14  C   UNL     1      -3.222  -2.052  -1.144  1.00  0.00     0.027 A 
ATOM     15  C   UNL     1      -3.221   0.362  -1.580  1.00  0.00     0.014 A 
ATOM     16  C   UNL     1      -3.901  -0.833  -1.300  1.00  0.00     0.050 A 
ATOM     17  C   UNL     1      -4.201   1.421  -1.709  1.00  0.00     0.037 A 
ATOM     18  N   UNL     1      -5.252  -0.533  -1.220  1.00  0.00    -0.339 N 
BRANCH  11  19
ATOM     19  C   UNL     1       0.436  -0.850  -1.315  1.00  0.00     0.013 C 
ATOM     20  C   UNL     1       0.905  -0.047  -0.092  1.00  0.00     0.012 C 
ATOM     21  C   UNL     1       1.127  -2.222  -1.286  1.00  0.00     0.012 C 
ENDBRANCH  11  19
BRANCH  17  22
ATOM     22  S   UNL     1      -3.716   3.102  -2.083  1.00  0.00    -0.118 SA
BRANCH  22  23
ATOM     23  C   UNL     1      -5.024   4.415  -2.416  1.00  0.00     0.012 C 
ATOM     24  C   UNL     1      -5.798   4.086  -3.697  1.00  0.00     0.023 C 
ATOM     25  C   UNL     1      -6.038   4.919  -1.360  1.00  0.00     0.023 C 
ATOM     26  C   UNL     1      -4.169   5.694  -2.635  1.00  0.00     0.023 C 
ENDBRANCH  22  23
ENDBRANCH  17  22
BRANCH  18  27
ATOM     27  C   UNL     1      -6.340  -1.548  -1.295  1.00  0.00     0.158 C 
BRANCH  27  28
ATOM     28  C   UNL     1      -7.227  -1.747  -0.074  1.00  0.00    -0.028 A 
ATOM     29  C   UNL     1      -8.479  -1.106   0.031  1.00  0.00     0.007 A 
ATOM     30  C   UNL     1      -6.824  -2.558   1.000  1.00  0.00     0.007 A 
ATOM     31  C   UNL     1      -9.191  -1.091   1.235  1.00  0.00     0.021 A 
ATOM     32  C   UNL     1      -7.571  -2.598   2.189  1.00  0.00     0.021 A 
ATOM     33  C   UNL     1      -8.717  -1.817   2.321  1.00  0.00     0.041 A 
ATOM     34  Cl  UNL     1      -9.528  -1.711   3.836  1.00  0.00    -0.084 Cl
ENDBRANCH  27  28
ENDBRANCH  18  27
ENDBRANCH   9  10
ENDBRANCH   6   9
ENDBRANCH   3   6
ENDBRANCH   1   2
BRANCH   1  35
ATOM     35  C   UNL     1      -8.253   3.631   4.160  1.00  0.00     0.023 C 
BRANCH  35  36
ATOM     36  C   UNL     1      -8.115   3.122   5.585  1.00  0.00     0.023 C 
BRANCH  36  37
ATOM     37  C   UNL     1      -6.754   3.444   6.226  1.00  0.00     0.116 C 
BRANCH  37  38
ATOM     38  N   UNL     1      -6.395   4.851   6.160  1.00  0.00    -0.352 N 
ATOM     39  C   UNL     1      -6.702   5.933   6.929  1.00  0.00     0.251 C 
ATOM     40  H   UNL     1      -5.807   5.067   5.401  1.00  0.00     0.163 HD
ATOM     41  O   UNL     1      -6.141   7.000   6.640  1.00  0.00    -0.269 OA
BRANCH  39  42
ATOM     42  C   UNL     1      -7.701   5.923   8.024  1.00  0.00     0.039 A 
ATOM     43  C   UNL     1      -8.426   4.803   8.424  1.00  0.00     0.014 A 
ATOM     44  C   UNL     1      -7.975   7.157   8.640  1.00  0.00     0.014 A 
ATOM     45  C   UNL     1      -9.490   4.925   9.292  1.00  0.00     0.010 A 
ATOM     46  C   UNL     1      -9.007   7.278   9.561  1.00  0.00     0.010 A 
ATOM     47  C   UNL     1      -9.796   6.168   9.837  1.00  0.00    -0.014 A 
BRANCH  47  48
ATOM     48  C   UNL     1     -10.899   6.192  10.782  1.00  0.00     0.031 A 
ATOM     49  C   UNL     1     -10.704   5.283  11.943  1.00  0.00     0.074 A 
ATOM     50  C   UNL     1     -11.980   6.978  10.631  1.00  0.00     0.049 A 
ATOM     51  N   UNL     1     -11.365   4.211  12.230  1.00  0.00    -0.248 NA
ATOM     52  C   UNL     1      -9.524   5.503  12.792  1.00  0.00     0.031 C 
ATOM     53  C   UNL     1     -12.157   8.081   9.684  1.00  0.00     0.029 A 
ATOM     54  N   UNL     1     -13.127   7.010  11.366  1.00  0.00    -0.354 N 
ATOM     55  C   UNL     1     -10.816   3.734  13.420  1.00  0.00     0.074 A 
ATOM     56  C   UNL     1      -9.597   4.465  13.627  1.00  0.00     0.031 C 
ATOM     57  C   UNL     1     -13.225   8.819  10.057  1.00  0.00     0.029 A 
ATOM     58  C   UNL     1     -13.891   8.149  11.161  1.00  0.00     0.049 A 
ATOM     59  H   UNL     1     -13.390   6.291  11.985  1.00  0.00     0.167 HD
ATOM     60  C   UNL     1     -11.563   2.978  14.271  1.00  0.00     0.037 A 
ATOM     61  C   UNL     1     -14.970   8.537  11.880  1.00  0.00     0.037 A 
ATOM     62  C   UNL     1     -12.717   2.440  13.597  1.00  0.00     0.049 A 
ATOM     63  C   UNL     1     -15.517   7.345  12.563  1.00  0.00     0.074 A 
ATOM     64  C   UNL     1     -12.990   1.428  12.705  1.00  0.00     0.029 A 
ATOM     65  N   UNL     1     -13.799   3.277  13.612  1.00  0.00    -0.354 N 
ATOM     66  N   UNL     1     -16.089   6.355  11.939  1.00  0.00    -0.248 NA
ATOM     67  C   UNL     1     -15.134   7.073  13.944  1.00  0.00     0.031 C 
ATOM     68  C   UNL     1     -14.192   1.809  12.035  1.00  0.00     0.029 A 
ATOM     69  C   UNL     1     -14.628   3.026  12.558  1.00  0.00     0.049 A 
ATOM     70  H   UNL     1     -13.958   3.969  14.294  1.00  0.00     0.167 HD
ATOM     71  C   UNL     1     -15.752   5.239  12.680  1.00  0.00     0.074 A 
ATOM     72  C   UNL     1     -15.336   5.753  13.979  1.00  0.00     0.031 C 
ATOM     73  C   UNL     1     -15.539   4.038  12.071  1.00  0.00     0.037 A 
BRANCH  60  74
ATOM     74  C   UNL     1     -11.591   3.178  15.778  1.00  0.00     0.057 A 
ATOM     75  C   UNL     1     -11.116   4.329  16.440  1.00  0.00     0.134 A 
ATOM     76  C   UNL     1     -12.454   2.370  16.547  1.00  0.00     0.134 A 
ATOM     77  F   UNL     1     -10.315   5.223  15.852  1.00  0.00    -0.206 F 
ATOM     78  C   UNL     1     -11.523   4.687  17.729  1.00  0.00     0.040 A 
ATOM     79  C   UNL     1     -12.901   2.742  17.822  1.00  0.00     0.040 A 
ATOM     80  F   UNL     1     -12.969   1.237  16.043  1.00  0.00    -0.206 F 
ATOM     81  C   UNL     1     -12.450   3.915  18.409  1.00  0.00     0.006 A 
ENDBRANCH  60  74
BRANCH  61  82
ATOM     82  C   UNL     1     -15.416   9.907  12.200  1.00  0.00     0.057 A 
ATOM     83  C   UNL     1     -14.484  10.939  12.408  1.00  0.00     0.134 A 
ATOM     84  C   UNL     1     -16.736  10.178  12.578  1.00  0.00     0.134 A 
ATOM     85  F   UNL     1     -13.181  10.754  12.148  1.00  0.00    -0.206 F 
ATOM     86  C   UNL     1     -14.841  12.164  12.977  1.00  0.00     0.040 A 
ATOM     87  C   UNL     1     -17.107  11.401  13.153  1.00  0.00     0.040 A 
ATOM     88  F   UNL     1     -17.686   9.240  12.454  1.00  0.00    -0.206 F 
ATOM     89  C   UNL     1     -16.155  12.394  13.365  1.00  0.00     0.006 A 
ENDBRANCH  61  82
BRANCH  73  90
ATOM     90  C   UNL     1     -16.145   3.838  10.719  1.00  0.00     0.057 A 
ATOM     91  C   UNL     1     -17.127   2.853  10.575  1.00  0.00     0.134 A 
ATOM     92  C   UNL     1     -15.742   4.517   9.562  1.00  0.00     0.134 A 
ATOM     93  F   UNL     1     -17.525   2.135  11.638  1.00  0.00    -0.206 F 
ATOM     94  C   UNL     1     -17.693   2.554   9.337  1.00  0.00     0.040 A 
ATOM     95  C   UNL     1     -16.325   4.250   8.320  1.00  0.00     0.040 A 
ATOM     96  F   UNL     1     -14.753   5.420   9.595  1.00  0.00    -0.206 F 
ATOM     97  C   UNL     1     -17.300   3.262   8.204  1.00  0.00     0.006 A 
ENDBRANCH  73  90
ENDBRANCH  47  48
ENDBRANCH  39  42
ENDBRANCH  37  38
ENDBRANCH  36  37
ENDBRANCH  35  36
ENDBRANCH   1  35
TORSDOF 18
