REMARK SMILES O=C(NCCCCNC(=O)[C@@H]1CCCC[C@H]1C(=O)Nc1ccc(NC(=O)c2ccco2)cc1)c1ccc(-c2c3nc(c(-c4c(F)cccc4F)c4ccc([nH]4)c(-c4c(F)cccc4F)c4nc(c(-c5c(F)cccc5F)c5ccc2[nH]5)C=C4)C=C3)cc1
REMARK SMILES IDX 6 1 5 2 4 3 3 4 1 5 2 6 34 8 35 9 87 10 36 11 86 12 37 13
REMARK SMILES IDX 38 14 39 15 80 16 40 17 85 18 79 19 81 20 41 21 84 22 78 23
REMARK SMILES IDX 77 24 42 26 68 27 51 28 67 29 52 30 55 31 66 32 82 33 53 34
REMARK SMILES IDX 54 35 65 37 83 38 56 39 43 40 44 41 49 42 45 43 46 44 48 45
REMARK SMILES IDX 50 46 47 47 69 48 70 49 75 50 71 51 72 52 74 53 76 54 73 55
REMARK SMILES IDX 57 56 58 57 63 58 59 59 60 60 62 61 64 62 61 63 7 64 8 65
REMARK SMILES IDX 9 66 10 68 11 69 12 70 16 71 13 72 15 73 14 74 17 75 18 76
REMARK SMILES IDX 19 77 20 79 21 80 33 81 22 82 32 83 23 84 24 85 25 86 26 88
REMARK SMILES IDX 27 89 28 90 31 91 29 92 30 93
REMARK H PARENT 3 7 81 25 55 36 8 67 19 78 24 87
REMARK Flexibility Score: inf
ROOT
ATOM      1  C   UNL     1       4.784   1.023   3.671  1.00  0.00     0.023 C 
ENDROOT
BRANCH   1   2
ATOM      2  C   UNL     1       5.043   1.618   2.286  1.00  0.00     0.023 C 
BRANCH   2   3
ATOM      3  C   UNL     1       4.625   0.738   1.112  1.00  0.00     0.116 C 
BRANCH   3   4
ATOM      4  N   UNL     1       3.205   0.421   1.089  1.00  0.00    -0.352 N 
ATOM      5  O   UNL     1       1.209  -0.018   0.119  1.00  0.00    -0.269 OA
ATOM      6  C   UNL     1       2.418   0.141  -0.005  1.00  0.00     0.251 C 
ATOM      7  H   UNL     1       2.752   0.404   1.963  1.00  0.00     0.163 HD
BRANCH   6   8
ATOM      8  C   UNL     1       3.042   0.079  -1.345  1.00  0.00     0.039 A 
ATOM      9  C   UNL     1       4.194  -0.682  -1.558  1.00  0.00     0.014 A 
ATOM     10  C   UNL     1       2.479   0.817  -2.391  1.00  0.00     0.014 A 
ATOM     11  C   UNL     1       4.857  -0.599  -2.778  1.00  0.00     0.010 A 
ATOM     12  C   UNL     1       3.113   0.848  -3.636  1.00  0.00     0.010 A 
ATOM     13  C   UNL     1       4.326   0.169  -3.827  1.00  0.00    -0.014 A 
BRANCH  13  14
ATOM     14  C   UNL     1       5.043   0.218  -5.124  1.00  0.00     0.031 A 
ATOM     15  C   UNL     1       5.706   1.481  -5.596  1.00  0.00     0.074 A 
ATOM     16  C   UNL     1       5.130  -0.906  -5.859  1.00  0.00     0.049 A 
ATOM     17  N   UNL     1       6.402   1.687  -6.686  1.00  0.00    -0.248 NA
ATOM     18  C   UNL     1       5.566   2.669  -4.740  1.00  0.00     0.031 C 
ATOM     19  C   UNL     1       4.521  -2.191  -5.507  1.00  0.00     0.029 A 
ATOM     20  N   UNL     1       5.777  -1.156  -7.041  1.00  0.00    -0.354 N 
ATOM     21  C   UNL     1       6.768   3.026  -6.657  1.00  0.00     0.074 A 
ATOM     22  C   UNL     1       6.203   3.591  -5.450  1.00  0.00     0.031 C 
ATOM     23  C   UNL     1       4.860  -3.103  -6.429  1.00  0.00     0.029 A 
ATOM     24  C   UNL     1       5.670  -2.459  -7.458  1.00  0.00     0.049 A 
ATOM     25  H   UNL     1       6.272  -0.467  -7.542  1.00  0.00     0.167 HD
ATOM     26  C   UNL     1       7.512   3.718  -7.553  1.00  0.00     0.037 A 
ATOM     27  C   UNL     1       6.163  -3.068  -8.551  1.00  0.00     0.037 A 
ATOM     28  C   UNL     1       8.094   3.149  -8.742  1.00  0.00     0.049 A 
ATOM     29  C   UNL     1       6.982  -2.278  -9.527  1.00  0.00     0.074 A 
ATOM     30  C   UNL     1       8.895   3.764  -9.690  1.00  0.00     0.029 A 
ATOM     31  N   UNL     1       7.938   1.832  -9.145  1.00  0.00    -0.354 N 
ATOM     32  N   UNL     1       7.336  -1.018  -9.474  1.00  0.00    -0.248 NA
ATOM     33  C   UNL     1       7.463  -2.993 -10.717  1.00  0.00     0.031 C 
ATOM     34  C   UNL     1       9.199   2.825 -10.682  1.00  0.00     0.029 A 
ATOM     35  C   UNL     1       8.613   1.619 -10.336  1.00  0.00     0.049 A 
ATOM     36  H   UNL     1       7.423   1.149  -8.657  1.00  0.00     0.167 HD
ATOM     37  C   UNL     1       8.085  -0.787 -10.619  1.00  0.00     0.074 A 
ATOM     38  C   UNL     1       8.152  -2.044 -11.337  1.00  0.00     0.031 C 
ATOM     39  C   UNL     1       8.660   0.364 -11.040  1.00  0.00     0.037 A 
BRANCH  26  40
ATOM     40  C   UNL     1       7.734   5.177  -7.291  1.00  0.00     0.057 A 
ATOM     41  C   UNL     1       8.644   5.623  -6.325  1.00  0.00     0.134 A 
ATOM     42  C   UNL     1       7.065   6.147  -8.049  1.00  0.00     0.134 A 
ATOM     43  F   UNL     1       9.307   4.744  -5.559  1.00  0.00    -0.206 F 
ATOM     44  C   UNL     1       8.874   6.984  -6.114  1.00  0.00     0.040 A 
ATOM     45  C   UNL     1       7.299   7.510  -7.859  1.00  0.00     0.040 A 
ATOM     46  F   UNL     1       6.183   5.785  -8.992  1.00  0.00    -0.206 F 
ATOM     47  C   UNL     1       8.205   7.931  -6.887  1.00  0.00     0.006 A 
ENDBRANCH  26  40
BRANCH  27  48
ATOM     48  C   UNL     1       5.893  -4.509  -8.768  1.00  0.00     0.057 A 
ATOM     49  C   UNL     1       6.898  -5.465  -8.592  1.00  0.00     0.134 A 
ATOM     50  C   UNL     1       4.619  -4.963  -9.127  1.00  0.00     0.134 A 
ATOM     51  F   UNL     1       8.142  -5.086  -8.263  1.00  0.00    -0.206 F 
ATOM     52  C   UNL     1       6.646  -6.826  -8.769  1.00  0.00     0.040 A 
ATOM     53  C   UNL     1       4.348  -6.321  -9.287  1.00  0.00     0.040 A 
ATOM     54  F   UNL     1       3.615  -4.091  -9.302  1.00  0.00    -0.206 F 
ATOM     55  C   UNL     1       5.365  -7.257  -9.111  1.00  0.00     0.006 A 
ENDBRANCH  27  48
BRANCH  39  56
ATOM     56  C   UNL     1       9.413   0.310 -12.333  1.00  0.00     0.057 A 
ATOM     57  C   UNL     1       8.747   0.286 -13.565  1.00  0.00     0.134 A 
ATOM     58  C   UNL     1      10.812   0.299 -12.348  1.00  0.00     0.134 A 
ATOM     59  F   UNL     1       7.407   0.280 -13.613  1.00  0.00    -0.206 F 
ATOM     60  C   UNL     1       9.450   0.236 -14.770  1.00  0.00     0.040 A 
ATOM     61  C   UNL     1      11.526   0.266 -13.547  1.00  0.00     0.040 A 
ATOM     62  F   UNL     1      11.506   0.323 -11.201  1.00  0.00    -0.206 F 
ATOM     63  C   UNL     1      10.844   0.230 -14.762  1.00  0.00     0.006 A 
ENDBRANCH  39  56
ENDBRANCH  13  14
ENDBRANCH   6   8
ENDBRANCH   3   4
ENDBRANCH   2   3
ENDBRANCH   1   2
BRANCH   1  64
ATOM     64  C   UNL     1       5.473  -0.313   3.930  1.00  0.00     0.116 C 
BRANCH  64  65
ATOM     65  N   UNL     1       6.898  -0.191   4.160  1.00  0.00    -0.356 N 
ATOM     66  C   UNL     1       7.582  -0.028   5.330  1.00  0.00     0.223 C 
ATOM     67  H   UNL     1       7.457  -0.233   3.350  1.00  0.00     0.163 HD
ATOM     68  O   UNL     1       8.812  -0.009   5.285  1.00  0.00    -0.275 OA
BRANCH  66  69
ATOM     69  C   UNL     1       6.814   0.133   6.647  1.00  0.00     0.091 C 
ATOM     70  C   UNL     1       7.493   1.243   7.472  1.00  0.00     0.014 C 
ATOM     71  C   UNL     1       6.781  -1.205   7.417  1.00  0.00     0.091 C 
ATOM     72  C   UNL     1       6.960   1.339   8.895  1.00  0.00     0.001 C 
ATOM     73  C   UNL     1       6.497  -1.144   8.928  1.00  0.00     0.014 C 
ATOM     74  C   UNL     1       7.164   0.027   9.636  1.00  0.00     0.001 C 
BRANCH  71  75
ATOM     75  C   UNL     1       5.917  -2.277   6.765  1.00  0.00     0.228 C 
ATOM     76  O   UNL     1       6.480  -3.234   6.214  1.00  0.00    -0.274 OA
ATOM     77  N   UNL     1       4.559  -2.313   6.723  1.00  0.00    -0.326 N 
ATOM     78  H   UNL     1       4.242  -3.162   6.338  1.00  0.00     0.169 HD
BRANCH  77  79
ATOM     79  C   UNL     1       3.477  -1.485   7.071  1.00  0.00     0.041 A 
ATOM     80  C   UNL     1       2.201  -2.008   6.824  1.00  0.00     0.028 A 
ATOM     81  C   UNL     1       3.550  -0.201   7.594  1.00  0.00     0.028 A 
ATOM     82  C   UNL     1       1.045  -1.284   7.139  1.00  0.00     0.028 A 
ATOM     83  C   UNL     1       2.399   0.541   7.889  1.00  0.00     0.028 A 
ATOM     84  C   UNL     1       1.139  -0.018   7.714  1.00  0.00     0.041 A 
BRANCH  84  85
ATOM     85  N   UNL     1       0.030   0.743   8.113  1.00  0.00    -0.319 N 
ATOM     86  C   UNL     1      -1.236   0.333   8.488  1.00  0.00     0.291 C 
ATOM     87  H   UNL     1       0.175   1.716   8.129  1.00  0.00     0.170 HD
ATOM     88  O   UNL     1      -2.131   1.180   8.512  1.00  0.00    -0.265 OA
BRANCH  86  89
ATOM     89  C   UNL     1      -1.419  -1.030   8.939  1.00  0.00     0.191 A 
ATOM     90  C   UNL     1      -0.678  -1.833   9.791  1.00  0.00     0.056 A 
ATOM     91  O   UNL     1      -2.498  -1.735   8.480  1.00  0.00    -0.459 OA
ATOM     92  C   UNL     1      -1.310  -3.099   9.813  1.00  0.00     0.043 A 
ATOM     93  C   UNL     1      -2.413  -2.986   9.000  1.00  0.00     0.196 A 
ENDBRANCH  86  89
ENDBRANCH  84  85
ENDBRANCH  77  79
ENDBRANCH  71  75
ENDBRANCH  66  69
ENDBRANCH  64  65
ENDBRANCH   1  64
TORSDOF 15
