REMARK SMILES O=C(NCCCCNC(=O)[C@@H](c1cccc(O)c1)[NH+]1CC[NH+](C2CCCC2)CC1)c1ccc(-c2c3nc(c(-c4c(F)cccc4F)c4ccc([nH]4)c(-c4c(F)cccc4F)c4nc(c(-c5c(F)cccc5F)c5ccc2[nH]5)C=C4)C=C3)cc1
REMARK SMILES IDX 5 1 4 2 3 3 1 4 2 5 30 7 31 8 83 9 32 10 82 11 33 12 34 13
REMARK SMILES IDX 35 14 76 15 36 16 81 17 75 18 77 19 37 20 80 21 74 22 73 23
REMARK SMILES IDX 38 25 64 26 47 27 63 28 48 29 51 30 62 31 78 32 49 33 50 34
REMARK SMILES IDX 61 36 79 37 52 38 39 39 40 40 45 41 41 42 42 43 44 44 46 45
REMARK SMILES IDX 43 46 65 47 66 48 71 49 67 50 68 51 70 52 72 53 69 54 53 55
REMARK SMILES IDX 54 56 59 57 55 58 56 59 58 60 60 61 57 62 6 63 7 64 8 65
REMARK SMILES IDX 9 66 10 68 11 69 12 70 13 71 18 72 14 73 16 74 15 75 17 76
REMARK SMILES IDX 19 78 20 79 29 80 21 82 28 83 22 84 23 86 24 87 27 88 25 89
REMARK SMILES IDX 26 90
REMARK H PARENT 3 6 77 24 51 35 8 67 17 77 19 81 22 85
REMARK Flexibility Score: inf
ROOT
ATOM      1  C   UNL     1       4.735   0.402  -2.609  1.00  0.00     0.023 C 
ENDROOT
BRANCH   1   2
ATOM      2  C   UNL     1       4.500   0.558  -1.119  1.00  0.00     0.116 C 
BRANCH   2   3
ATOM      3  N   UNL     1       3.085   0.624  -0.777  1.00  0.00    -0.352 N 
ATOM      4  O   UNL     1       1.163  -0.076   0.191  1.00  0.00    -0.269 OA
ATOM      5  C   UNL     1       2.382  -0.141   0.127  1.00  0.00     0.251 C 
ATOM      6  H   UNL     1       2.562   1.306  -1.256  1.00  0.00     0.163 HD
BRANCH   5   7
ATOM      7  C   UNL     1       3.131  -1.063   1.005  1.00  0.00     0.039 A 
ATOM      8  C   UNL     1       4.296  -0.625   1.634  1.00  0.00     0.014 A 
ATOM      9  C   UNL     1       2.694  -2.382   1.158  1.00  0.00     0.014 A 
ATOM     10  C   UNL     1       5.116  -1.545   2.265  1.00  0.00     0.010 A 
ATOM     11  C   UNL     1       3.467  -3.282   1.897  1.00  0.00     0.010 A 
ATOM     12  C   UNL     1       4.700  -2.878   2.429  1.00  0.00    -0.014 A 
BRANCH  12  13
ATOM     13  C   UNL     1       5.558  -3.781   3.235  1.00  0.00     0.031 A 
ATOM     14  C   UNL     1       6.224  -4.986   2.636  1.00  0.00     0.074 A 
ATOM     15  C   UNL     1       5.793  -3.439   4.517  1.00  0.00     0.049 A 
ATOM     16  N   UNL     1       7.067  -5.817   3.195  1.00  0.00    -0.248 NA
ATOM     17  C   UNL     1       5.903  -5.309   1.237  1.00  0.00     0.031 C 
ATOM     18  C   UNL     1       5.178  -2.300   5.208  1.00  0.00     0.029 A 
ATOM     19  N   UNL     1       6.638  -3.974   5.452  1.00  0.00    -0.354 N 
ATOM     20  C   UNL     1       7.364  -6.770   2.229  1.00  0.00     0.074 A 
ATOM     21  C   UNL     1       6.594  -6.427   1.052  1.00  0.00     0.031 C 
ATOM     22  C   UNL     1       5.725  -2.174   6.423  1.00  0.00     0.029 A 
ATOM     23  C   UNL     1       6.673  -3.261   6.626  1.00  0.00     0.049 A 
ATOM     24  H   UNL     1       7.168  -4.789   5.298  1.00  0.00     0.167 HD
ATOM     25  C   UNL     1       8.206  -7.827   2.319  1.00  0.00     0.037 A 
ATOM     26  C   UNL     1       7.385  -3.462   7.748  1.00  0.00     0.037 A 
ATOM     27  C   UNL     1       8.980  -8.151   3.491  1.00  0.00     0.049 A 
ATOM     28  C   UNL     1       8.325  -4.627   7.808  1.00  0.00     0.074 A 
ATOM     29  C   UNL     1       9.863  -9.201   3.681  1.00  0.00     0.029 A 
ATOM     30  N   UNL     1       8.970  -7.422   4.672  1.00  0.00    -0.354 N 
ATOM     31  N   UNL     1       8.592  -5.517   6.883  1.00  0.00    -0.248 NA
ATOM     32  C   UNL     1       9.054  -4.822   9.066  1.00  0.00     0.031 C 
ATOM     33  C   UNL     1      10.364  -9.123   4.986  1.00  0.00     0.029 A 
ATOM     34  C   UNL     1       9.823  -8.004   5.596  1.00  0.00     0.049 A 
ATOM     35  H   UNL     1       8.434  -6.611   4.830  1.00  0.00     0.167 HD
ATOM     36  C   UNL     1       9.515  -6.383   7.450  1.00  0.00     0.074 A 
ATOM     37  C   UNL     1       9.792  -5.885   8.783  1.00  0.00     0.031 C 
ATOM     38  C   UNL     1      10.072  -7.499   6.921  1.00  0.00     0.037 A 
BRANCH  25  39
ATOM     39  C   UNL     1       8.334  -8.721   1.121  1.00  0.00     0.057 A 
ATOM     40  C   UNL     1       9.045  -8.329  -0.020  1.00  0.00     0.134 A 
ATOM     41  C   UNL     1       7.793 -10.014   1.131  1.00  0.00     0.134 A 
ATOM     42  F   UNL     1       9.578  -7.100  -0.100  1.00  0.00    -0.206 F 
ATOM     43  C   UNL     1       9.205  -9.186  -1.112  1.00  0.00     0.040 A 
ATOM     44  C   UNL     1       7.964 -10.887   0.055  1.00  0.00     0.040 A 
ATOM     45  F   UNL     1       7.106 -10.455   2.195  1.00  0.00    -0.206 F 
ATOM     46  C   UNL     1       8.671 -10.472  -1.072  1.00  0.00     0.006 A 
ENDBRANCH  25  39
BRANCH  26  47
ATOM     47  C   UNL     1       7.218  -2.543   8.900  1.00  0.00     0.057 A 
ATOM     48  C   UNL     1       8.239  -1.671   9.289  1.00  0.00     0.134 A 
ATOM     49  C   UNL     1       6.020  -2.503   9.625  1.00  0.00     0.134 A 
ATOM     50  F   UNL     1       9.414  -1.673   8.642  1.00  0.00    -0.206 F 
ATOM     51  C   UNL     1       8.081  -0.799  10.367  1.00  0.00     0.040 A 
ATOM     52  C   UNL     1       5.838  -1.617  10.686  1.00  0.00     0.040 A 
ATOM     53  F   UNL     1       5.000  -3.307   9.292  1.00  0.00    -0.206 F 
ATOM     54  C   UNL     1       6.874  -0.766  11.064  1.00  0.00     0.006 A 
ENDBRANCH  26  47
BRANCH  38  55
ATOM     55  C   UNL     1      11.028  -8.247   7.799  1.00  0.00     0.057 A 
ATOM     56  C   UNL     1      10.581  -9.005   8.889  1.00  0.00     0.134 A 
ATOM     57  C   UNL     1      12.406  -8.202   7.558  1.00  0.00     0.134 A 
ATOM     58  F   UNL     1       9.273  -9.072   9.180  1.00  0.00    -0.206 F 
ATOM     59  C   UNL     1      11.475  -9.670   9.728  1.00  0.00     0.040 A 
ATOM     60  C   UNL     1      13.308  -8.882   8.377  1.00  0.00     0.040 A 
ATOM     61  F   UNL     1      12.896  -7.497   6.528  1.00  0.00    -0.206 F 
ATOM     62  C   UNL     1      12.844  -9.611   9.471  1.00  0.00     0.006 A 
ENDBRANCH  38  55
ENDBRANCH  12  13
ENDBRANCH   5   7
ENDBRANCH   2   3
ENDBRANCH   1   2
BRANCH   1  63
ATOM     63  C   UNL     1       4.253   1.586  -3.431  1.00  0.00     0.023 C 
BRANCH  63  64
ATOM     64  C   UNL     1       4.896   2.924  -3.069  1.00  0.00     0.116 C 
BRANCH  64  65
ATOM     65  N   UNL     1       6.351   2.916  -3.155  1.00  0.00    -0.351 N 
ATOM     66  C   UNL     1       7.169   3.655  -3.985  1.00  0.00     0.283 C 
ATOM     67  H   UNL     1       6.812   2.302  -2.539  1.00  0.00     0.163 HD
ATOM     68  O   UNL     1       8.391   3.519  -3.866  1.00  0.00    -0.268 OA
BRANCH  66  69
ATOM     69  C   UNL     1       6.545   4.649  -5.043  1.00  0.00     0.306 C 
BRANCH  69  70
ATOM     70  C   UNL     1       5.886   3.801  -6.179  1.00  0.00     0.023 A 
ATOM     71  C   UNL     1       5.132   4.346  -7.228  1.00  0.00     0.011 A 
ATOM     72  C   UNL     1       6.069   2.400  -6.245  1.00  0.00     0.056 A 
ATOM     73  C   UNL     1       4.415   3.541  -8.129  1.00  0.00     0.004 A 
ATOM     74  C   UNL     1       5.364   1.596  -7.142  1.00  0.00     0.116 A 
ATOM     75  C   UNL     1       4.501   2.156  -8.065  1.00  0.00     0.046 A 
BRANCH  74  76
ATOM     76  O   UNL     1       5.529   0.246  -7.044  1.00  0.00    -0.508 OA
ATOM     77  H   UNL     1       5.072  -0.326  -7.629  1.00  0.00     0.293 HD
ENDBRANCH  74  76
ENDBRANCH  69  70
BRANCH  69  78
ATOM     78  N   UNL     1       5.668   5.609  -4.272  1.00  0.00    -0.312 N 
ATOM     79  C   UNL     1       6.314   6.165  -3.041  1.00  0.00     0.325 C 
ATOM     80  C   UNL     1       5.070   6.727  -5.012  1.00  0.00     0.325 C 
ATOM     81  H   UNL     1       4.904   4.979  -4.030  1.00  0.00     0.349 HD
ATOM     82  C   UNL     1       7.076   7.517  -3.152  1.00  0.00     0.324 C 
ATOM     83  C   UNL     1       6.024   7.905  -5.256  1.00  0.00     0.324 C 
ATOM     84  N   UNL     1       6.456   8.542  -4.007  1.00  0.00    -0.323 N 
ATOM     85  H   UNL     1       7.151   9.245  -4.260  1.00  0.00     0.348 HD
BRANCH  84  86
ATOM     86  C   UNL     1       5.488   9.418  -3.326  1.00  0.00     0.184 C 
ATOM     87  C   UNL     1       4.639  10.328  -4.229  1.00  0.00     0.065 C 
ATOM     88  C   UNL     1       4.467   8.846  -2.316  1.00  0.00     0.065 C 
ATOM     89  C   UNL     1       3.608  10.908  -3.273  1.00  0.00     0.006 C 
ATOM     90  C   UNL     1       3.210   9.712  -2.427  1.00  0.00     0.006 C 
ENDBRANCH  84  86
ENDBRANCH  69  78
ENDBRANCH  66  69
ENDBRANCH  64  65
ENDBRANCH  63  64
ENDBRANCH   1  63
TORSDOF 15
