REMARK SMILES CC1(C)C[C@](CC(=O)NCCCCNC(=O)c2ccc(-c3c4nc(c(-c5c(F)cccc5F)c5ccc([nH]5)c(-c5c(F)cccc5F)c5nc(c(-c6c(F)cccc6F)c6ccc3[nH]6)C=C5)C=C4)cc2)([NH+]2CCCC2)C(C)(C)O1
REMARK SMILES IDX 11 1 10 2 9 3 7 4 8 5 6 7 5 8 1 9 2 10 3 11 4 12 79 13 76 14
REMARK SMILES IDX 77 15 78 16 71 17 72 18 75 19 73 21 74 22 12 23 13 24 14 25
REMARK SMILES IDX 15 26 16 28 17 29 18 30 70 31 19 32 69 33 20 34 21 35 22 36
REMARK SMILES IDX 63 37 23 38 68 39 62 40 64 41 24 42 67 43 61 44 60 45 25 47
REMARK SMILES IDX 51 48 34 49 50 50 35 51 38 52 49 53 65 54 36 55 37 56 48 58
REMARK SMILES IDX 66 59 39 60 26 61 27 62 32 63 28 64 29 65 31 66 33 67 30 68
REMARK SMILES IDX 52 69 53 70 58 71 54 72 55 73 57 74 59 75 56 76 40 77 41 78
REMARK SMILES IDX 46 79 42 80 43 81 45 82 47 83 44 84
REMARK H PARENT 9 6 71 20 14 27 64 46 38 57
REMARK Flexibility Score: inf
ROOT
ATOM      1  C   UNL     1       1.270   2.997   5.913  1.00  0.00     0.023 C 
ENDROOT
BRANCH   1   2
ATOM      2  C   UNL     1       2.401   1.980   5.840  1.00  0.00     0.116 C 
BRANCH   2   3
ATOM      3  N   UNL     1       2.043   0.723   6.441  1.00  0.00    -0.356 N 
ATOM      4  C   UNL     1       1.839  -0.499   5.896  1.00  0.00     0.226 C 
ATOM      5  O   UNL     1       1.777  -1.435   6.705  1.00  0.00    -0.275 OA
ATOM      6  H   UNL     1       1.928   0.757   7.418  1.00  0.00     0.163 HD
BRANCH   4   7
ATOM      7  C   UNL     1       1.751  -0.784   4.395  1.00  0.00     0.171 C 
BRANCH   7   8
ATOM      8  C   UNL     1       0.561  -0.360   3.431  1.00  0.00     0.138 C 
ATOM      9  C   UNL     1       1.480  -0.824  -0.100  1.00  0.00     0.042 C 
ATOM     10  C   UNL     1       0.348  -0.635   0.926  1.00  0.00     0.070 C 
ATOM     11  C   UNL     1      -0.946  -1.053   0.224  1.00  0.00     0.042 C 
ATOM     12  C   UNL     1       0.648  -1.378   2.230  1.00  0.00     0.107 C 
ATOM     13  O   UNL     1       0.237   0.750   1.257  1.00  0.00    -0.363 OA
ATOM     14  C   UNL     1       0.762   1.002   2.596  1.00  0.00     0.118 C 
ATOM     15  C   UNL     1       2.218   1.464   2.317  1.00  0.00     0.049 C 
ATOM     16  C   UNL     1      -0.085   2.191   3.080  1.00  0.00     0.049 C 
BRANCH   8  17
ATOM     17  N   UNL     1      -0.774  -0.597   4.059  1.00  0.00    -0.327 N 
ATOM     18  C   UNL     1      -1.011  -0.377   5.480  1.00  0.00     0.263 C 
ATOM     19  C   UNL     1      -2.018  -0.367   3.335  1.00  0.00     0.263 C 
ATOM     20  H   UNL     1      -0.517  -1.577   3.940  1.00  0.00     0.348 HD
ATOM     21  C   UNL     1      -2.515  -0.454   5.665  1.00  0.00     0.067 C 
ATOM     22  C   UNL     1      -3.042   0.093   4.363  1.00  0.00     0.067 C 
ENDBRANCH   8  17
ENDBRANCH   7   8
ENDBRANCH   4   7
ENDBRANCH   2   3
ENDBRANCH   1   2
BRANCH   1  23
ATOM     23  C   UNL     1       1.374   4.023   7.022  1.00  0.00     0.023 C 
BRANCH  23  24
ATOM     24  C   UNL     1       2.635   4.865   6.979  1.00  0.00     0.116 C 
BRANCH  24  25
ATOM     25  N   UNL     1       2.883   5.533   5.704  1.00  0.00    -0.352 N 
ATOM     26  C   UNL     1       3.221   6.851   5.467  1.00  0.00     0.251 C 
ATOM     27  H   UNL     1       2.798   4.966   4.904  1.00  0.00     0.163 HD
ATOM     28  O   UNL     1       3.350   7.275   4.332  1.00  0.00    -0.269 OA
BRANCH  26  29
ATOM     29  C   UNL     1       3.364   7.751   6.630  1.00  0.00     0.039 A 
ATOM     30  C   UNL     1       2.651   8.950   6.657  1.00  0.00     0.014 A 
ATOM     31  C   UNL     1       4.075   7.321   7.748  1.00  0.00     0.014 A 
ATOM     32  C   UNL     1       2.557   9.659   7.856  1.00  0.00     0.010 A 
ATOM     33  C   UNL     1       3.849   7.939   8.966  1.00  0.00     0.010 A 
ATOM     34  C   UNL     1       3.099   9.123   9.036  1.00  0.00    -0.014 A 
BRANCH  34  35
ATOM     35  C   UNL     1       2.929   9.782  10.357  1.00  0.00     0.031 A 
ATOM     36  C   UNL     1       4.149  10.119  11.175  1.00  0.00     0.074 A 
ATOM     37  C   UNL     1       1.697   9.982  10.868  1.00  0.00     0.049 A 
ATOM     38  N   UNL     1       4.229  10.550  12.407  1.00  0.00    -0.248 NA
ATOM     39  C   UNL     1       5.457   9.877  10.543  1.00  0.00     0.031 C 
ATOM     40  C   UNL     1       0.432   9.622  10.222  1.00  0.00     0.029 A 
ATOM     41  N   UNL     1       1.308  10.538  12.062  1.00  0.00    -0.354 N 
ATOM     42  C   UNL     1       5.585  10.571  12.707  1.00  0.00     0.074 A 
ATOM     43  C   UNL     1       6.285  10.040  11.561  1.00  0.00     0.031 C 
ATOM     44  C   UNL     1      -0.590  10.009  11.004  1.00  0.00     0.029 A 
ATOM     45  C   UNL     1      -0.055  10.610  12.221  1.00  0.00     0.049 A 
ATOM     46  H   UNL     1       1.946  10.854  12.741  1.00  0.00     0.167 HD
ATOM     47  C   UNL     1       6.201  11.034  13.820  1.00  0.00     0.037 A 
ATOM     48  C   UNL     1      -0.787  11.114  13.232  1.00  0.00     0.037 A 
ATOM     49  C   UNL     1       5.510  11.652  14.916  1.00  0.00     0.049 A 
ATOM     50  C   UNL     1      -0.080  11.711  14.418  1.00  0.00     0.074 A 
ATOM     51  C   UNL     1       6.039  12.242  16.049  1.00  0.00     0.029 A 
ATOM     52  N   UNL     1       4.132  11.782  14.999  1.00  0.00    -0.354 N 
ATOM     53  N   UNL     1       1.206  11.784  14.661  1.00  0.00    -0.248 NA
ATOM     54  C   UNL     1      -0.925  12.305  15.464  1.00  0.00     0.031 C 
ATOM     55  C   UNL     1       4.978  12.716  16.827  1.00  0.00     0.029 A 
ATOM     56  C   UNL     1       3.792  12.448  16.163  1.00  0.00     0.049 A 
ATOM     57  H   UNL     1       3.491  11.450  14.329  1.00  0.00     0.167 HD
ATOM     58  C   UNL     1       1.327  12.458  15.869  1.00  0.00     0.074 A 
ATOM     59  C   UNL     1      -0.016  12.781  16.304  1.00  0.00     0.031 C 
ATOM     60  C   UNL     1       2.448  12.779  16.559  1.00  0.00     0.037 A 
BRANCH  47  61
ATOM     61  C   UNL     1       7.696  10.917  13.877  1.00  0.00     0.057 A 
ATOM     62  C   UNL     1       8.530  11.677  13.044  1.00  0.00     0.134 A 
ATOM     63  C   UNL     1       8.311  10.034  14.772  1.00  0.00     0.134 A 
ATOM     64  F   UNL     1       8.003  12.528  12.151  1.00  0.00    -0.206 F 
ATOM     65  C   UNL     1       9.917  11.533  13.071  1.00  0.00     0.040 A 
ATOM     66  C   UNL     1       9.700   9.904  14.830  1.00  0.00     0.040 A 
ATOM     67  F   UNL     1       7.574   9.279  15.601  1.00  0.00    -0.206 F 
ATOM     68  C   UNL     1      10.506  10.647  13.970  1.00  0.00     0.006 A 
ENDBRANCH  47  61
BRANCH  48  69
ATOM     69  C   UNL     1      -2.269  11.135  13.144  1.00  0.00     0.057 A 
ATOM     70  C   UNL     1      -2.956  12.338  12.934  1.00  0.00     0.134 A 
ATOM     71  C   UNL     1      -3.033   9.970  13.271  1.00  0.00     0.134 A 
ATOM     72  F   UNL     1      -2.279  13.490  12.820  1.00  0.00    -0.206 F 
ATOM     73  C   UNL     1      -4.350  12.385  12.876  1.00  0.00     0.040 A 
ATOM     74  C   UNL     1      -4.427  10.000  13.194  1.00  0.00     0.040 A 
ATOM     75  F   UNL     1      -2.435   8.786  13.464  1.00  0.00    -0.206 F 
ATOM     76  C   UNL     1      -5.090  11.211  13.002  1.00  0.00     0.006 A 
ENDBRANCH  48  69
BRANCH  60  77
ATOM     77  C   UNL     1       2.273  13.556  17.828  1.00  0.00     0.057 A 
ATOM     78  C   UNL     1       1.801  12.956  19.001  1.00  0.00     0.134 A 
ATOM     79  C   UNL     1       2.634  14.908  17.886  1.00  0.00     0.134 A 
ATOM     80  F   UNL     1       1.431  11.666  19.003  1.00  0.00    -0.206 F 
ATOM     81  C   UNL     1       1.677  13.680  20.187  1.00  0.00     0.040 A 
ATOM     82  C   UNL     1       2.535  15.636  19.072  1.00  0.00     0.040 A 
ATOM     83  F   UNL     1       3.102  15.536  16.797  1.00  0.00    -0.206 F 
ATOM     84  C   UNL     1       2.051  15.022  20.226  1.00  0.00     0.006 A 
ENDBRANCH  60  77
ENDBRANCH  34  35
ENDBRANCH  26  29
ENDBRANCH  24  25
ENDBRANCH  23  24
ENDBRANCH   1  23
TORSDOF 13
