REMARK SMILES CC[C@@H](C)[C@H](NC(=O)CCc1ccc(F)c(F)c1)C(=O)NCCCCNC(=O)c1ccc(-c2c3nc(c(-c4c(F)cccc4F)c4ccc([nH]4)c(-c4c(F)cccc4F)c4nc(c(-c5c(F)cccc5F)c5ccc2[nH]5)C=C4)C=C3)cc1
REMARK SMILES IDX 22 1 21 2 19 3 20 4 5 6 3 7 4 8 2 9 1 10 6 11 7 12 8 14 9 15
REMARK SMILES IDX 10 16 11 17 12 18 18 19 13 20 16 21 14 22 17 23 15 24 23 25
REMARK SMILES IDX 24 26 25 27 26 28 27 29 28 31 29 32 30 33 82 34 31 35 81 36
REMARK SMILES IDX 32 37 33 38 34 39 75 40 35 41 80 42 74 43 76 44 36 45 79 46
REMARK SMILES IDX 73 47 72 48 37 50 63 51 46 52 62 53 47 54 50 55 61 56 77 57
REMARK SMILES IDX 48 58 49 59 60 61 78 62 51 63 38 64 39 65 44 66 40 67 41 68
REMARK SMILES IDX 43 69 45 70 42 71 64 72 65 73 70 74 66 75 67 76 69 77 71 78
REMARK SMILES IDX 68 79 52 80 53 81 58 82 54 83 55 84 57 85 59 86 56 87
REMARK H PARENT 21 5 6 13 26 30 76 49 50 60
REMARK Flexibility Score: inf
ROOT
ATOM      1  C   UNL     1       4.310   0.983   3.625  1.00  0.00     0.116 C 
ENDROOT
BRANCH   1   2
ATOM      2  N   UNL     1       3.517   1.394   4.767  1.00  0.00    -0.354 N 
ATOM      3  C   UNL     1       2.227   1.104   5.095  1.00  0.00     0.242 C 
ATOM      4  O   UNL     1       1.883   1.340   6.257  1.00  0.00    -0.273 OA
ATOM      5  H   UNL     1       3.986   1.976   5.408  1.00  0.00     0.163 HD
BRANCH   3   6
ATOM      6  C   UNL     1       1.283   0.383   4.115  1.00  0.00     0.174 C 
BRANCH   6   7
ATOM      7  C   UNL     1       1.358  -1.180   4.306  1.00  0.00     0.018 C 
ATOM      8  C   UNL     1       0.408  -1.603   5.437  1.00  0.00     0.010 C 
BRANCH   7   9
ATOM      9  C   UNL     1       2.786  -1.735   4.535  1.00  0.00     0.002 C 
ATOM     10  C   UNL     1       2.890  -3.219   4.857  1.00  0.00     0.004 C 
ENDBRANCH   7   9
ENDBRANCH   6   7
BRANCH   6  11
ATOM     11  N   UNL     1       1.384   0.778   2.696  1.00  0.00    -0.344 N 
ATOM     12  C   UNL     1       1.146   2.010   2.144  1.00  0.00     0.220 C 
ATOM     13  H   UNL     1       1.655   0.069   2.069  1.00  0.00     0.164 HD
ATOM     14  O   UNL     1       0.694   2.052   0.998  1.00  0.00    -0.275 OA
BRANCH  12  15
ATOM     15  C   UNL     1       1.529   3.292   2.866  1.00  0.00     0.105 C 
BRANCH  15  16
ATOM     16  C   UNL     1       0.377   4.182   3.308  1.00  0.00     0.045 C 
BRANCH  16  17
ATOM     17  C   UNL     1      -0.596   3.495   4.227  1.00  0.00    -0.044 A 
ATOM     18  C   UNL     1      -0.422   3.512   5.620  1.00  0.00     0.007 A 
ATOM     19  C   UNL     1      -1.669   2.778   3.679  1.00  0.00     0.046 A 
ATOM     20  C   UNL     1      -1.304   2.812   6.449  1.00  0.00     0.043 A 
ATOM     21  C   UNL     1      -2.537   2.082   4.511  1.00  0.00     0.159 A 
ATOM     22  C   UNL     1      -2.355   2.097   5.887  1.00  0.00     0.158 A 
ATOM     23  F   UNL     1      -3.536   1.374   3.967  1.00  0.00    -0.204 F 
ATOM     24  F   UNL     1      -3.185   1.410   6.683  1.00  0.00    -0.204 F 
ENDBRANCH  16  17
ENDBRANCH  15  16
ENDBRANCH  12  15
ENDBRANCH   6  11
ENDBRANCH   3   6
ENDBRANCH   1   2
BRANCH   1  25
ATOM     25  C   UNL     1       4.915   2.128   2.821  1.00  0.00     0.023 C 
BRANCH  25  26
ATOM     26  C   UNL     1       5.595   3.231   3.623  1.00  0.00     0.023 C 
BRANCH  26  27
ATOM     27  C   UNL     1       6.522   2.767   4.734  1.00  0.00     0.116 C 
BRANCH  27  28
ATOM     28  N   UNL     1       7.455   1.733   4.329  1.00  0.00    -0.352 N 
ATOM     29  C   UNL     1       8.741   1.526   4.767  1.00  0.00     0.251 C 
ATOM     30  H   UNL     1       7.125   1.098   3.653  1.00  0.00     0.163 HD
ATOM     31  O   UNL     1       9.416   0.622   4.313  1.00  0.00    -0.269 OA
BRANCH  29  32
ATOM     32  C   UNL     1       9.303   2.459   5.762  1.00  0.00     0.039 A 
ATOM     33  C   UNL     1      10.531   3.057   5.478  1.00  0.00     0.014 A 
ATOM     34  C   UNL     1       8.605   2.770   6.933  1.00  0.00     0.014 A 
ATOM     35  C   UNL     1      11.052   3.996   6.362  1.00  0.00     0.010 A 
ATOM     36  C   UNL     1       9.086   3.767   7.771  1.00  0.00     0.010 A 
ATOM     37  C   UNL     1      10.327   4.364   7.507  1.00  0.00    -0.014 A 
BRANCH  37  38
ATOM     38  C   UNL     1      10.905   5.307   8.488  1.00  0.00     0.031 A 
ATOM     39  C   UNL     1      11.291   4.801   9.849  1.00  0.00     0.074 A 
ATOM     40  C   UNL     1      11.060   6.603   8.162  1.00  0.00     0.049 A 
ATOM     41  N   UNL     1      11.810   5.452  10.856  1.00  0.00    -0.248 NA
ATOM     42  C   UNL     1      11.025   3.379  10.127  1.00  0.00     0.031 C 
ATOM     43  C   UNL     1      10.665   7.212   6.890  1.00  0.00     0.029 A 
ATOM     44  N   UNL     1      11.598   7.640   8.876  1.00  0.00    -0.354 N 
ATOM     45  C   UNL     1      11.904   4.528  11.890  1.00  0.00     0.074 A 
ATOM     46  C   UNL     1      11.338   3.289  11.409  1.00  0.00     0.031 C 
ATOM     47  C   UNL     1      11.010   8.510   6.901  1.00  0.00     0.029 A 
ATOM     48  C   UNL     1      11.635   8.824   8.182  1.00  0.00     0.049 A 
ATOM     49  H   UNL     1      11.927   7.546   9.800  1.00  0.00     0.167 HD
ATOM     50  C   UNL     1      12.442   4.691  13.120  1.00  0.00     0.037 A 
ATOM     51  C   UNL     1      12.140  10.019   8.539  1.00  0.00     0.037 A 
ATOM     52  C   UNL     1      13.056   5.910  13.567  1.00  0.00     0.049 A 
ATOM     53  C   UNL     1      12.804  10.154   9.881  1.00  0.00     0.074 A 
ATOM     54  C   UNL     1      13.688   6.172  14.769  1.00  0.00     0.029 A 
ATOM     55  N   UNL     1      13.126   7.072  12.812  1.00  0.00    -0.354 N 
ATOM     56  N   UNL     1      12.944   9.257  10.827  1.00  0.00    -0.248 NA
ATOM     57  C   UNL     1      13.398  11.460  10.196  1.00  0.00     0.031 C 
ATOM     58  C   UNL     1      14.128   7.501  14.747  1.00  0.00     0.029 A 
ATOM     59  C   UNL     1      13.794   8.054  13.520  1.00  0.00     0.049 A 
ATOM     60  H   UNL     1      12.755   7.181  11.907  1.00  0.00     0.167 HD
ATOM     61  C   UNL     1      13.670   9.877  11.835  1.00  0.00     0.074 A 
ATOM     62  C   UNL     1      13.947  11.224  11.379  1.00  0.00     0.031 C 
ATOM     63  C   UNL     1      14.073   9.379  13.029  1.00  0.00     0.037 A 
BRANCH  50  64
ATOM     64  C   UNL     1      12.395   3.515  14.049  1.00  0.00     0.057 A 
ATOM     65  C   UNL     1      13.185   2.376  13.841  1.00  0.00     0.134 A 
ATOM     66  C   UNL     1      11.542   3.515  15.160  1.00  0.00     0.134 A 
ATOM     67  F   UNL     1      14.007   2.304  12.782  1.00  0.00    -0.206 F 
ATOM     68  C   UNL     1      13.105   1.267  14.684  1.00  0.00     0.040 A 
ATOM     69  C   UNL     1      11.473   2.422  16.026  1.00  0.00     0.040 A 
ATOM     70  F   UNL     1      10.758   4.573  15.417  1.00  0.00    -0.206 F 
ATOM     71  C   UNL     1      12.249   1.291  15.784  1.00  0.00     0.006 A 
ENDBRANCH  50  64
BRANCH  51  72
ATOM     72  C   UNL     1      12.105  11.155   7.587  1.00  0.00     0.057 A 
ATOM     73  C   UNL     1      13.270  11.586   6.941  1.00  0.00     0.134 A 
ATOM     74  C   UNL     1      10.917  11.832   7.295  1.00  0.00     0.134 A 
ATOM     75  F   UNL     1      14.442  10.982   7.191  1.00  0.00    -0.206 F 
ATOM     76  C   UNL     1      13.260  12.663   6.054  1.00  0.00     0.040 A 
ATOM     77  C   UNL     1      10.887  12.899   6.394  1.00  0.00     0.040 A 
ATOM     78  F   UNL     1       9.765  11.460   7.872  1.00  0.00    -0.206 F 
ATOM     79  C   UNL     1      12.063  13.321   5.776  1.00  0.00     0.006 A 
ENDBRANCH  51  72
BRANCH  63  80
ATOM     80  C   UNL     1      14.894  10.281  13.898  1.00  0.00     0.057 A 
ATOM     81  C   UNL     1      14.320  11.342  14.607  1.00  0.00     0.134 A 
ATOM     82  C   UNL     1      16.267  10.059  14.053  1.00  0.00     0.134 A 
ATOM     83  F   UNL     1      13.011  11.610  14.490  1.00  0.00    -0.206 F 
ATOM     84  C   UNL     1      15.091  12.168  15.426  1.00  0.00     0.040 A 
ATOM     85  C   UNL     1      17.044  10.865  14.884  1.00  0.00     0.040 A 
ATOM     86  F   UNL     1      16.872   9.052  13.405  1.00  0.00    -0.206 F 
ATOM     87  C   UNL     1      16.456  11.927  15.569  1.00  0.00     0.006 A 
ENDBRANCH  63  80
ENDBRANCH  37  38
ENDBRANCH  29  32
ENDBRANCH  27  28
ENDBRANCH  26  27
ENDBRANCH  25  26
ENDBRANCH   1  25
TORSDOF 17
