REMARK SMILES CCCCCCNC(=O)Oc1cccc(-c2ccc([C@@H](C)C(=O)NCCCCNC(=O)c3ccc(-c4c5nc(c(-c6c(F)cccc6F)c6ccc([nH]6)c(-c6c(F)cccc6F)c6nc(c(-c7c(F)cccc7F)c7ccc4[nH]7)C=C6)C=C5)cc3)cc2C(F)(F)F)c1
REMARK SMILES IDX 20 1 21 2 19 3 16 4 17 5 87 6 18 7 86 8 15 9 11 10 12 11
REMARK SMILES IDX 92 12 13 13 14 14 10 15 8 16 7 17 9 19 6 20 5 21 4 22 3 23
REMARK SMILES IDX 2 24 1 25 88 26 89 27 90 28 91 29 22 30 23 31 24 32 25 34
REMARK SMILES IDX 26 35 27 36 28 37 29 38 30 39 31 41 32 42 33 43 85 44 34 45
REMARK SMILES IDX 84 46 35 47 36 48 37 49 78 50 38 51 83 52 77 53 79 54 39 55
REMARK SMILES IDX 82 56 76 57 75 58 40 60 66 61 49 62 65 63 50 64 53 65 64 66
REMARK SMILES IDX 80 67 51 68 52 69 63 71 81 72 54 73 41 74 42 75 47 76 43 77
REMARK SMILES IDX 44 78 46 79 48 80 45 81 67 82 68 83 73 84 69 85 70 86 72 87
REMARK SMILES IDX 74 88 71 89 55 90 56 91 61 92 57 93 58 94 60 95 62 96 59 97
REMARK H PARENT 7 18 24 33 29 40 79 59 53 70
REMARK Flexibility Score: inf
ROOT
ATOM      1  C   UNL     1      -4.750 -13.251  -2.619  1.00  0.00     0.105 C 
ATOM      2  C   UNL     1      -5.962 -14.164  -2.792  1.00  0.00     0.023 C 
ENDROOT
BRANCH   1   3
ATOM      3  C   UNL     1      -4.977 -11.791  -2.984  1.00  0.00    -0.035 A 
ATOM      4  C   UNL     1      -5.170  -9.016  -3.684  1.00  0.00    -0.006 A 
ATOM      5  C   UNL     1      -5.602 -10.044  -4.545  1.00  0.00     0.009 A 
ATOM      6  C   UNL     1      -4.732  -9.400  -2.398  1.00  0.00     0.064 A 
ATOM      7  C   UNL     1      -5.565 -11.391  -4.178  1.00  0.00     0.005 A 
ATOM      8  C   UNL     1      -4.582 -10.779  -2.098  1.00  0.00     0.018 A 
BRANCH   4   9
ATOM      9  C   UNL     1      -5.210  -7.623  -4.186  1.00  0.00    -0.014 A 
ATOM     10  C   UNL     1      -4.211  -5.427  -4.487  1.00  0.00     0.133 A 
ATOM     11  C   UNL     1      -5.341  -4.966  -5.155  1.00  0.00     0.047 A 
ATOM     12  C   UNL     1      -4.124  -6.745  -4.028  1.00  0.00     0.056 A 
ATOM     13  C   UNL     1      -6.405  -5.833  -5.365  1.00  0.00     0.004 A 
ATOM     14  C   UNL     1      -6.345  -7.140  -4.871  1.00  0.00     0.009 A 
BRANCH  10  15
ATOM     15  O   UNL     1      -3.254  -4.457  -4.138  1.00  0.00    -0.410 OA
BRANCH  15  16
ATOM     16  C   UNL     1      -1.903  -4.721  -4.292  1.00  0.00     0.412 C 
ATOM     17  N   UNL     1      -1.110  -3.782  -3.690  1.00  0.00    -0.321 N 
ATOM     18  H   UNL     1      -0.138  -3.882  -3.809  1.00  0.00     0.167 HD
ATOM     19  O   UNL     1      -1.421  -5.668  -4.899  1.00  0.00    -0.224 OA
BRANCH  17  20
ATOM     20  C   UNL     1      -1.556  -2.655  -2.893  1.00  0.00     0.119 C 
BRANCH  20  21
ATOM     21  C   UNL     1      -0.974  -2.684  -1.479  1.00  0.00     0.021 C 
BRANCH  21  22
ATOM     22  C   UNL     1       0.553  -2.571  -1.407  1.00  0.00     0.002 C 
BRANCH  22  23
ATOM     23  C   UNL     1       1.154  -1.320  -2.057  1.00  0.00    -0.000 C 
BRANCH  23  24
ATOM     24  C   UNL     1       0.664   0.014  -1.490  1.00  0.00    -0.003 C 
ATOM     25  C   UNL     1       1.030   0.216  -0.027  1.00  0.00     0.004 C 
ENDBRANCH  23  24
ENDBRANCH  22  23
ENDBRANCH  21  22
ENDBRANCH  20  21
ENDBRANCH  17  20
ENDBRANCH  15  16
ENDBRANCH  10  15
ENDBRANCH   4   9
BRANCH   6  26
ATOM     26  C   UNL     1      -4.435  -8.437  -1.268  1.00  0.00     0.417 C 
ATOM     27  F   UNL     1      -4.998  -8.854  -0.092  1.00  0.00    -0.166 F 
ATOM     28  F   UNL     1      -3.101  -8.332  -1.012  1.00  0.00    -0.166 F 
ATOM     29  F   UNL     1      -4.889  -7.166  -1.431  1.00  0.00    -0.166 F 
ENDBRANCH   6  26
ENDBRANCH   1   3
BRANCH   1  30
ATOM     30  C   UNL     1      -3.434 -13.838  -3.157  1.00  0.00     0.227 C 
ATOM     31  O   UNL     1      -2.486 -14.027  -2.385  1.00  0.00    -0.274 OA
ATOM     32  N   UNL     1      -3.229 -14.195  -4.454  1.00  0.00    -0.356 N 
ATOM     33  H   UNL     1      -2.367 -14.642  -4.618  1.00  0.00     0.163 HD
BRANCH  32  34
ATOM     34  C   UNL     1      -4.048 -14.038  -5.637  1.00  0.00     0.116 C 
BRANCH  34  35
ATOM     35  C   UNL     1      -3.690 -12.768  -6.412  1.00  0.00     0.023 C 
BRANCH  35  36
ATOM     36  C   UNL     1      -2.584 -12.934  -7.449  1.00  0.00     0.023 C 
BRANCH  36  37
ATOM     37  C   UNL     1      -2.893 -13.913  -8.573  1.00  0.00     0.116 C 
BRANCH  37  38
ATOM     38  N   UNL     1      -4.107 -13.605  -9.318  1.00  0.00    -0.352 N 
ATOM     39  C   UNL     1      -4.363 -13.830 -10.652  1.00  0.00     0.251 C 
ATOM     40  H   UNL     1      -4.834 -13.184  -8.804  1.00  0.00     0.163 HD
ATOM     41  O   UNL     1      -5.411 -13.454 -11.164  1.00  0.00    -0.269 OA
BRANCH  39  42
ATOM     42  C   UNL     1      -3.324 -14.487 -11.470  1.00  0.00     0.039 A 
ATOM     43  C   UNL     1      -2.886 -13.858 -12.636  1.00  0.00     0.014 A 
ATOM     44  C   UNL     1      -2.724 -15.669 -11.029  1.00  0.00     0.014 A 
ATOM     45  C   UNL     1      -1.779 -14.369 -13.316  1.00  0.00     0.010 A 
ATOM     46  C   UNL     1      -1.574 -16.128 -11.660  1.00  0.00     0.010 A 
ATOM     47  C   UNL     1      -1.085 -15.478 -12.804  1.00  0.00    -0.014 A 
BRANCH  47  48
ATOM     48  C   UNL     1       0.166 -15.965 -13.434  1.00  0.00     0.031 A 
ATOM     49  C   UNL     1       0.227 -17.351 -14.012  1.00  0.00     0.074 A 
ATOM     50  C   UNL     1       1.272 -15.195 -13.405  1.00  0.00     0.049 A 
ATOM     51  N   UNL     1       1.248 -17.990 -14.521  1.00  0.00    -0.248 NA
ATOM     52  C   UNL     1      -1.019 -18.134 -13.983  1.00  0.00     0.031 C 
ATOM     53  C   UNL     1       1.359 -13.857 -12.814  1.00  0.00     0.029 A 
ATOM     54  N   UNL     1       2.540 -15.433 -13.870  1.00  0.00    -0.354 N 
ATOM     55  C   UNL     1       0.775 -19.253 -14.850  1.00  0.00     0.074 A 
ATOM     56  C   UNL     1      -0.610 -19.309 -14.438  1.00  0.00     0.031 C 
ATOM     57  C   UNL     1       2.607 -13.387 -12.970  1.00  0.00     0.029 A 
ATOM     58  C   UNL     1       3.417 -14.400 -13.638  1.00  0.00     0.049 A 
ATOM     59  H   UNL     1       2.799 -16.266 -14.327  1.00  0.00     0.167 HD
ATOM     60  C   UNL     1       1.430 -20.268 -15.463  1.00  0.00     0.037 A 
ATOM     61  C   UNL     1       4.727 -14.287 -13.926  1.00  0.00     0.037 A 
ATOM     62  C   UNL     1       2.796 -20.195 -15.907  1.00  0.00     0.049 A 
ATOM     63  C   UNL     1       5.426 -15.420 -14.625  1.00  0.00     0.074 A 
ATOM     64  C   UNL     1       3.524 -21.137 -16.613  1.00  0.00     0.029 A 
ATOM     65  N   UNL     1       3.641 -19.118 -15.686  1.00  0.00    -0.354 N 
ATOM     66  N   UNL     1       4.944 -16.578 -15.006  1.00  0.00    -0.248 NA
ATOM     67  C   UNL     1       6.849 -15.229 -14.938  1.00  0.00     0.031 C 
ATOM     68  C   UNL     1       4.822 -20.646 -16.785  1.00  0.00     0.029 A 
ATOM     69  C   UNL     1       4.890 -19.381 -16.223  1.00  0.00     0.049 A 
ATOM     70  H   UNL     1       3.390 -18.289 -15.217  1.00  0.00     0.167 HD
ATOM     71  C   UNL     1       5.995 -17.243 -15.623  1.00  0.00     0.074 A 
ATOM     72  C   UNL     1       7.136 -16.353 -15.579  1.00  0.00     0.031 C 
ATOM     73  C   UNL     1       6.013 -18.480 -16.175  1.00  0.00     0.037 A 
BRANCH  60  74
ATOM     74  C   UNL     1       0.671 -21.540 -15.696  1.00  0.00     0.057 A 
ATOM     75  C   UNL     1      -0.359 -21.623 -16.643  1.00  0.00     0.134 A 
ATOM     76  C   UNL     1       0.994 -22.705 -14.990  1.00  0.00     0.134 A 
ATOM     77  F   UNL     1      -0.726 -20.539 -17.344  1.00  0.00    -0.206 F 
ATOM     78  C   UNL     1      -1.057 -22.811 -16.861  1.00  0.00     0.040 A 
ATOM     79  C   UNL     1       0.321 -23.907 -15.218  1.00  0.00     0.040 A 
ATOM     80  F   UNL     1       1.972 -22.697 -14.072  1.00  0.00    -0.206 F 
ATOM     81  C   UNL     1      -0.712 -23.960 -16.152  1.00  0.00     0.006 A 
ENDBRANCH  60  74
BRANCH  61  82
ATOM     82  C   UNL     1       5.462 -13.046 -13.575  1.00  0.00     0.057 A 
ATOM     83  C   UNL     1       5.888 -12.155 -14.566  1.00  0.00     0.134 A 
ATOM     84  C   UNL     1       5.763 -12.725 -12.246  1.00  0.00     0.134 A 
ATOM     85  F   UNL     1       5.645 -12.418 -15.859  1.00  0.00    -0.206 F 
ATOM     86  C   UNL     1       6.605 -10.999 -14.252  1.00  0.00     0.040 A 
ATOM     87  C   UNL     1       6.459 -11.560 -11.915  1.00  0.00     0.040 A 
ATOM     88  F   UNL     1       5.376 -13.534 -11.249  1.00  0.00    -0.206 F 
ATOM     89  C   UNL     1       6.888 -10.697 -12.922  1.00  0.00     0.006 A 
ENDBRANCH  61  82
BRANCH  73  90
ATOM     90  C   UNL     1       7.299 -18.933 -16.800  1.00  0.00     0.057 A 
ATOM     91  C   UNL     1       8.404 -19.305 -16.025  1.00  0.00     0.134 A 
ATOM     92  C   UNL     1       7.417 -19.040 -18.191  1.00  0.00     0.134 A 
ATOM     93  F   UNL     1       8.359 -19.213 -14.687  1.00  0.00    -0.206 F 
ATOM     94  C   UNL     1       9.589 -19.750 -16.613  1.00  0.00     0.040 A 
ATOM     95  C   UNL     1       8.587 -19.508 -18.790  1.00  0.00     0.040 A 
ATOM     96  F   UNL     1       6.391 -18.707 -18.989  1.00  0.00    -0.206 F 
ATOM     97  C   UNL     1       9.679 -19.860 -18.000  1.00  0.00     0.006 A 
ENDBRANCH  73  90
ENDBRANCH  47  48
ENDBRANCH  39  42
ENDBRANCH  37  38
ENDBRANCH  36  37
ENDBRANCH  35  36
ENDBRANCH  34  35
ENDBRANCH  32  34
ENDBRANCH   1  30
TORSDOF 21
