REMARK SMILES CS(=O)(=O)Nc1ccc(-c2cc(Cl)cc3c2O[C@H](C(F)(F)F)C(C(=O)NCCCCNC(=O)c2ccc(-c4c5nc(c(-c6c(F)cccc6F)c6ccc([nH]6)c(-c6c(F)cccc6F)c6nc(c(-c7c(F)cccc7F)c7ccc4[nH]7)C=C6)C=C5)cc2)=C3)cc1
REMARK SMILES IDX 28 1 27 2 26 3 24 4 25 5 23 7 10 8 11 9 16 10 12 11 15 12
REMARK SMILES IDX 17 13 13 14 14 15 88 16 18 17 9 18 6 19 7 20 90 21 8 22
REMARK SMILES IDX 89 23 5 24 2 26 1 27 3 28 4 29 19 30 20 31 21 32 22 33 29 34
REMARK SMILES IDX 30 35 31 36 32 37 33 39 34 40 35 41 87 42 36 43 86 44 37 45
REMARK SMILES IDX 38 46 39 47 80 48 40 49 85 50 79 51 81 52 41 53 84 54 78 55
REMARK SMILES IDX 77 56 42 58 68 59 51 60 67 61 52 62 55 63 66 64 82 65 53 66
REMARK SMILES IDX 54 67 65 69 83 70 56 71 43 72 44 73 49 74 45 75 46 76 48 77
REMARK SMILES IDX 50 78 47 79 69 80 70 81 75 82 71 83 72 84 74 85 76 86 73 87
REMARK SMILES IDX 57 88 58 89 63 90 59 91 60 92 62 93 64 94 61 95
REMARK H PARENT 26 6 5 25 31 38 81 57 55 68
REMARK Flexibility Score: inf
ROOT
ATOM      1  C   UNL     1      11.530   9.239   4.446  1.00  0.00     0.023 C 
ENDROOT
BRANCH   1   2
ATOM      2  C   UNL     1      11.032   7.793   4.579  1.00  0.00     0.116 C 
BRANCH   2   3
ATOM      3  N   UNL     1       9.629   7.795   4.929  1.00  0.00    -0.352 N 
ATOM      4  C   UNL     1       8.598   7.103   4.394  1.00  0.00     0.251 C 
ATOM      5  O   UNL     1       7.482   7.611   4.442  1.00  0.00    -0.270 OA
ATOM      6  H   UNL     1       9.386   8.393   5.673  1.00  0.00     0.163 HD
BRANCH   4   7
ATOM      7  C   UNL     1       8.841   5.716   3.893  1.00  0.00     0.067 C 
ATOM      8  C   UNL     1       5.197   4.973   2.223  1.00  0.00     0.026 A 
ATOM      9  C   UNL     1       4.230   5.416   3.167  1.00  0.00     0.033 A 
ATOM     10  C   UNL     1       6.516   4.862   2.699  1.00  0.00     0.135 A 
ATOM     11  C   UNL     1       4.509   5.569   4.522  1.00  0.00     0.042 A 
ATOM     12  C   UNL     1       6.749   4.894   4.098  1.00  0.00     0.019 A 
ATOM     13  O   UNL     1       7.626   4.790   1.867  1.00  0.00    -0.475 OA
ATOM     14  Cl  UNL     1       3.295   6.159   5.585  1.00  0.00    -0.084 Cl
ATOM     15  C   UNL     1       5.752   5.228   5.011  1.00  0.00     0.032 A 
ATOM     16  C   UNL     1       8.146   4.783   4.573  1.00  0.00     0.025 C 
ATOM     17  C   UNL     1       8.814   5.550   2.377  1.00  0.00     0.314 C 
BRANCH   8  18
ATOM     18  C   UNL     1       4.619   4.490   0.933  1.00  0.00    -0.014 A 
ATOM     19  C   UNL     1       2.568   3.219  -0.593  1.00  0.00     0.048 A 
ATOM     20  C   UNL     1       2.580   4.606  -0.423  1.00  0.00     0.027 A 
ATOM     21  C   UNL     1       3.668   2.494  -0.141  1.00  0.00     0.027 A 
ATOM     22  C   UNL     1       3.608   5.237   0.296  1.00  0.00     0.011 A 
ATOM     23  C   UNL     1       4.689   3.124   0.606  1.00  0.00     0.011 A 
BRANCH  19  24
ATOM     24  N   UNL     1       1.329   2.646  -1.009  1.00  0.00    -0.284 N 
ATOM     25  H   UNL     1       0.566   3.265  -1.082  1.00  0.00     0.180 HD
BRANCH  24  26
ATOM     26  S   UNL     1       1.024   1.056  -1.384  1.00  0.00     0.229 S 
ATOM     27  C   UNL     1       0.974   0.246   0.206  1.00  0.00     0.183 C 
ATOM     28  O   UNL     1       2.119   0.515  -2.160  1.00  0.00    -0.207 OA
ATOM     29  O   UNL     1      -0.329   1.050  -1.899  1.00  0.00    -0.207 OA
ENDBRANCH  24  26
ENDBRANCH  19  24
ENDBRANCH   8  18
BRANCH  17  30
ATOM     30  C   UNL     1      10.143   4.886   1.945  1.00  0.00     0.429 C 
ATOM     31  F   UNL     1       9.983   3.603   1.553  1.00  0.00    -0.167 F 
ATOM     32  F   UNL     1      10.722   5.562   0.925  1.00  0.00    -0.167 F 
ATOM     33  F   UNL     1      11.060   4.868   2.951  1.00  0.00    -0.167 F 
ENDBRANCH  17  30
ENDBRANCH   4   7
ENDBRANCH   2   3
ENDBRANCH   1   2
BRANCH   1  34
ATOM     34  C   UNL     1      11.382  10.104   5.707  1.00  0.00     0.023 C 
BRANCH  34  35
ATOM     35  C   UNL     1      12.023   9.527   6.963  1.00  0.00     0.116 C 
BRANCH  35  36
ATOM     36  N   UNL     1      13.462   9.394   6.825  1.00  0.00    -0.352 N 
ATOM     37  C   UNL     1      14.468   9.895   7.612  1.00  0.00     0.251 C 
ATOM     38  H   UNL     1      13.761   8.864   6.051  1.00  0.00     0.163 HD
ATOM     39  O   UNL     1      15.629   9.846   7.214  1.00  0.00    -0.269 OA
BRANCH  37  40
ATOM     40  C   UNL     1      14.165  10.509   8.924  1.00  0.00     0.039 A 
ATOM     41  C   UNL     1      14.865  11.658   9.302  1.00  0.00     0.014 A 
ATOM     42  C   UNL     1      13.225   9.948   9.793  1.00  0.00     0.014 A 
ATOM     43  C   UNL     1      14.591  12.266  10.528  1.00  0.00     0.010 A 
ATOM     44  C   UNL     1      12.891  10.605  10.976  1.00  0.00     0.010 A 
ATOM     45  C   UNL     1      13.581  11.762  11.365  1.00  0.00    -0.014 A 
BRANCH  45  46
ATOM     46  C   UNL     1      13.250  12.443  12.644  1.00  0.00     0.031 A 
ATOM     47  C   UNL     1      13.461  11.748  13.961  1.00  0.00     0.074 A 
ATOM     48  C   UNL     1      12.738  13.688  12.617  1.00  0.00     0.049 A 
ATOM     49  N   UNL     1      13.280  12.205  15.176  1.00  0.00    -0.248 NA
ATOM     50  C   UNL     1      13.908  10.348  13.909  1.00  0.00     0.031 C 
ATOM     51  C   UNL     1      12.437  14.452  11.405  1.00  0.00     0.029 A 
ATOM     52  N   UNL     1      12.395  14.537  13.639  1.00  0.00    -0.354 N 
ATOM     53  C   UNL     1      13.588  11.151  16.027  1.00  0.00     0.074 A 
ATOM     54  C   UNL     1      13.895  10.012  15.190  1.00  0.00     0.031 C 
ATOM     55  C   UNL     1      12.010  15.676  11.753  1.00  0.00     0.029 A 
ATOM     56  C   UNL     1      11.973  15.772  13.209  1.00  0.00     0.049 A 
ATOM     57  H   UNL     1      12.446  14.286  14.590  1.00  0.00     0.167 HD
ATOM     58  C   UNL     1      13.640  11.138  17.381  1.00  0.00     0.037 A 
ATOM     59  C   UNL     1      11.614  16.864  13.909  1.00  0.00     0.037 A 
ATOM     60  C   UNL     1      13.334  12.274  18.212  1.00  0.00     0.049 A 
ATOM     61  C   UNL     1      11.658  16.821  15.410  1.00  0.00     0.074 A 
ATOM     62  C   UNL     1      13.402  12.381  19.590  1.00  0.00     0.029 A 
ATOM     63  N   UNL     1      12.889  13.501  17.739  1.00  0.00    -0.354 N 
ATOM     64  N   UNL     1      12.030  15.845  16.202  1.00  0.00    -0.248 NA
ATOM     65  C   UNL     1      11.240  18.041  16.114  1.00  0.00     0.031 C 
ATOM     66  C   UNL     1      12.944  13.653  19.954  1.00  0.00     0.029 A 
ATOM     67  C   UNL     1      12.652  14.362  18.800  1.00  0.00     0.049 A 
ATOM     68  H   UNL     1      12.762  13.727  16.790  1.00  0.00     0.167 HD
ATOM     69  C   UNL     1      11.928  16.343  17.495  1.00  0.00     0.074 A 
ATOM     70  C   UNL     1      11.469  17.712  17.377  1.00  0.00     0.031 C 
ATOM     71  C   UNL     1      12.195  15.724  18.672  1.00  0.00     0.037 A 
BRANCH  58  72
ATOM     72  C   UNL     1      14.033   9.843  18.039  1.00  0.00     0.057 A 
ATOM     73  C   UNL     1      15.320   9.302  17.905  1.00  0.00     0.134 A 
ATOM     74  C   UNL     1      13.112   9.122  18.810  1.00  0.00     0.134 A 
ATOM     75  F   UNL     1      16.250   9.934  17.172  1.00  0.00    -0.206 F 
ATOM     76  C   UNL     1      15.661   8.071  18.470  1.00  0.00     0.040 A 
ATOM     77  C   UNL     1      13.453   7.907  19.410  1.00  0.00     0.040 A 
ATOM     78  F   UNL     1      11.866   9.582  18.992  1.00  0.00    -0.206 F 
ATOM     79  C   UNL     1      14.726   7.372  19.229  1.00  0.00     0.006 A 
ENDBRANCH  58  72
BRANCH  59  80
ATOM     80  C   UNL     1      11.247  18.113  13.194  1.00  0.00     0.057 A 
ATOM     81  C   UNL     1      12.087  19.232  13.230  1.00  0.00     0.134 A 
ATOM     82  C   UNL     1      10.062  18.219  12.457  1.00  0.00     0.134 A 
ATOM     83  F   UNL     1      13.229  19.197  13.933  1.00  0.00    -0.206 F 
ATOM     84  C   UNL     1      11.756  20.417  12.572  1.00  0.00     0.040 A 
ATOM     85  C   UNL     1       9.731  19.390  11.772  1.00  0.00     0.040 A 
ATOM     86  F   UNL     1       9.219  17.179  12.376  1.00  0.00    -0.206 F 
ATOM     87  C   UNL     1      10.576  20.495  11.834  1.00  0.00     0.006 A 
ENDBRANCH  59  80
BRANCH  71  88
ATOM     88  C   UNL     1      12.043  16.541  19.924  1.00  0.00     0.057 A 
ATOM     89  C   UNL     1      10.791  16.958  20.397  1.00  0.00     0.134 A 
ATOM     90  C   UNL     1      13.169  16.908  20.673  1.00  0.00     0.134 A 
ATOM     91  F   UNL     1       9.673  16.653  19.722  1.00  0.00    -0.206 F 
ATOM     92  C   UNL     1      10.669  17.741  21.547  1.00  0.00     0.040 A 
ATOM     93  C   UNL     1      13.056  17.661  21.842  1.00  0.00     0.040 A 
ATOM     94  F   UNL     1      14.398  16.534  20.285  1.00  0.00    -0.206 F 
ATOM     95  C   UNL     1      11.804  18.090  22.276  1.00  0.00     0.006 A 
ENDBRANCH  71  88
ENDBRANCH  45  46
ENDBRANCH  37  40
ENDBRANCH  35  36
ENDBRANCH  34  35
ENDBRANCH   1  34
TORSDOF 15
