REMARK SMILES C[C@H](Nc1cncc(C(=O)NCCCCNC(=O)c2ccc(-c3c4nc(c(-c5c(F)cccc5F)c5ccc([nH]5)c(-c5c(F)cccc5F)c5nc(c(-c6c(F)cccc6F)c6ccc3[nH]6)C=C5)C=C4)cc2)n1)C(N)=O
REMARK SMILES IDX 13 1 12 2 11 3 9 4 10 5 8 7 4 8 5 9 73 10 6 11 7 12 3 13
REMARK SMILES IDX 2 15 1 16 74 17 75 18 76 19 14 22 15 23 16 24 17 25 18 27
REMARK SMILES IDX 19 28 20 29 72 30 21 31 71 32 22 33 23 34 24 35 65 36 25 37
REMARK SMILES IDX 70 38 64 39 66 40 26 41 69 42 63 43 62 44 27 46 53 47 36 48
REMARK SMILES IDX 52 49 37 50 40 51 51 52 67 53 38 54 39 55 50 57 68 58 41 59
REMARK SMILES IDX 28 60 29 61 34 62 30 63 31 64 33 65 35 66 32 67 54 68 55 69
REMARK SMILES IDX 60 70 56 71 57 72 59 73 61 74 58 75 42 76 43 77 48 78 44 79
REMARK SMILES IDX 45 80 47 81 49 82 46 83
REMARK H PARENT 11 6 3 14 75 20 75 21 16 26 66 45 40 56
REMARK Flexibility Score: inf
ROOT
ATOM      1  C   UNL     1       5.529   1.309  -0.924  1.00  0.00     0.023 C 
ENDROOT
BRANCH   1   2
ATOM      2  C   UNL     1       5.261  -0.048  -0.274  1.00  0.00     0.116 C 
BRANCH   2   3
ATOM      3  N   UNL     1       5.707  -0.086   1.109  1.00  0.00    -0.351 N 
ATOM      4  C   UNL     1       5.010  -0.038   2.299  1.00  0.00     0.271 C 
ATOM      5  O   UNL     1       5.663  -0.066   3.344  1.00  0.00    -0.267 OA
ATOM      6  H   UNL     1       6.682  -0.160   1.217  1.00  0.00     0.163 HD
BRANCH   4   7
ATOM      7  C   UNL     1       3.524   0.068   2.377  1.00  0.00     0.148 A 
ATOM      8  C   UNL     1       1.469   0.190   1.349  1.00  0.00     0.146 A 
ATOM      9  C   UNL     1       0.878   0.388   2.594  1.00  0.00     0.157 A 
ATOM     10  N   UNL     1       2.795   0.017   1.236  1.00  0.00    -0.223 NA
ATOM     11  N   UNL     1       1.580   0.423   3.753  1.00  0.00    -0.258 NA
ATOM     12  C   UNL     1       2.921   0.256   3.613  1.00  0.00     0.145 A 
BRANCH   8  13
ATOM     13  N   UNL     1       0.772   0.226   0.156  1.00  0.00    -0.357 N 
ATOM     14  H   UNL     1       0.599  -0.585  -0.374  1.00  0.00     0.162 HD
BRANCH  13  15
ATOM     15  C   UNL     1       0.303   1.553  -0.273  1.00  0.00     0.166 C 
ATOM     16  C   UNL     1       0.884   1.872  -1.651  1.00  0.00     0.041 C 
BRANCH  15  17
ATOM     17  C   UNL     1      -1.232   1.576  -0.335  1.00  0.00     0.239 C 
ATOM     18  N   UNL     1      -1.851   2.230   0.695  1.00  0.00    -0.368 N 
ATOM     19  O   UNL     1      -1.899   1.046  -1.219  1.00  0.00    -0.273 OA
ATOM     20  H   UNL     1      -1.313   2.655   1.403  1.00  0.00     0.159 HD
ATOM     21  H   UNL     1      -2.834   2.277   0.730  1.00  0.00     0.159 HD
ENDBRANCH  15  17
ENDBRANCH  13  15
ENDBRANCH   8  13
ENDBRANCH   4   7
ENDBRANCH   2   3
ENDBRANCH   1   2
BRANCH   1  22
ATOM     22  C   UNL     1       7.004   1.581  -1.234  1.00  0.00     0.023 C 
BRANCH  22  23
ATOM     23  C   UNL     1       7.705   0.520  -2.080  1.00  0.00     0.116 C 
BRANCH  23  24
ATOM     24  N   UNL     1       7.044   0.262  -3.352  1.00  0.00    -0.352 N 
ATOM     25  C   UNL     1       7.610   0.032  -4.584  1.00  0.00     0.251 C 
ATOM     26  H   UNL     1       6.060   0.251  -3.326  1.00  0.00     0.163 HD
ATOM     27  O   UNL     1       6.906  -0.075  -5.583  1.00  0.00    -0.269 OA
BRANCH  25  28
ATOM     28  C   UNL     1       9.080  -0.041  -4.702  1.00  0.00     0.039 A 
ATOM     29  C   UNL     1       9.718   0.751  -5.660  1.00  0.00     0.014 A 
ATOM     30  C   UNL     1       9.825  -0.847  -3.838  1.00  0.00     0.014 A 
ATOM     31  C   UNL     1      11.113   0.802  -5.693  1.00  0.00     0.010 A 
ATOM     32  C   UNL     1      11.213  -0.747  -3.830  1.00  0.00     0.010 A 
ATOM     33  C   UNL     1      11.869   0.090  -4.747  1.00  0.00    -0.014 A 
BRANCH  33  34
ATOM     34  C   UNL     1      13.344   0.232  -4.673  1.00  0.00     0.031 A 
ATOM     35  C   UNL     1      14.232  -0.947  -4.948  1.00  0.00     0.074 A 
ATOM     36  C   UNL     1      13.878   1.401  -4.268  1.00  0.00     0.049 A 
ATOM     37  N   UNL     1      15.531  -1.048  -4.829  1.00  0.00    -0.248 NA
ATOM     38  C   UNL     1      13.569  -2.184  -5.388  1.00  0.00     0.031 C 
ATOM     39  C   UNL     1      13.120   2.605  -3.922  1.00  0.00     0.029 A 
ATOM     40  N   UNL     1      15.186   1.761  -4.059  1.00  0.00    -0.354 N 
ATOM     41  C   UNL     1      15.838  -2.361  -5.160  1.00  0.00     0.074 A 
ATOM     42  C   UNL     1      14.587  -3.030  -5.444  1.00  0.00     0.031 C 
ATOM     43  C   UNL     1      13.976   3.574  -3.558  1.00  0.00     0.029 A 
ATOM     44  C   UNL     1      15.337   3.050  -3.608  1.00  0.00     0.049 A 
ATOM     45  H   UNL     1      15.944   1.153  -4.218  1.00  0.00     0.167 HD
ATOM     46  C   UNL     1      17.055  -2.950  -5.239  1.00  0.00     0.037 A 
ATOM     47  C   UNL     1      16.447   3.729  -3.261  1.00  0.00     0.037 A 
ATOM     48  C   UNL     1      18.301  -2.276  -4.984  1.00  0.00     0.049 A 
ATOM     49  C   UNL     1      17.785   3.053  -3.359  1.00  0.00     0.074 A 
ATOM     50  C   UNL     1      19.588  -2.769  -5.107  1.00  0.00     0.029 A 
ATOM     51  N   UNL     1      18.414  -0.963  -4.554  1.00  0.00    -0.354 N 
ATOM     52  N   UNL     1      18.066   1.830  -3.738  1.00  0.00    -0.248 NA
ATOM     53  C   UNL     1      18.960   3.851  -2.981  1.00  0.00     0.031 C 
ATOM     54  C   UNL     1      20.480  -1.765  -4.715  1.00  0.00     0.029 A 
ATOM     55  C   UNL     1      19.749  -0.635  -4.386  1.00  0.00     0.049 A 
ATOM     56  H   UNL     1      17.658  -0.354  -4.391  1.00  0.00     0.167 HD
ATOM     57  C   UNL     1      19.448   1.719  -3.667  1.00  0.00     0.074 A 
ATOM     58  C   UNL     1      19.950   3.003  -3.222  1.00  0.00     0.031 C 
ATOM     59  C   UNL     1      20.232   0.649  -3.945  1.00  0.00     0.037 A 
BRANCH  46  60
ATOM     60  C   UNL     1      17.096  -4.400  -5.621  1.00  0.00     0.057 A 
ATOM     61  C   UNL     1      16.813  -4.826  -6.925  1.00  0.00     0.134 A 
ATOM     62  C   UNL     1      17.454  -5.377  -4.684  1.00  0.00     0.134 A 
ATOM     63  F   UNL     1      16.452  -3.941  -7.866  1.00  0.00    -0.206 F 
ATOM     64  C   UNL     1      16.861  -6.176  -7.278  1.00  0.00     0.040 A 
ATOM     65  C   UNL     1      17.530  -6.727  -5.031  1.00  0.00     0.040 A 
ATOM     66  F   UNL     1      17.743  -5.035  -3.419  1.00  0.00    -0.206 F 
ATOM     67  C   UNL     1      17.227  -7.130  -6.330  1.00  0.00     0.006 A 
ENDBRANCH  46  60
BRANCH  47  68
ATOM     68  C   UNL     1      16.343   5.136  -2.802  1.00  0.00     0.057 A 
ATOM     69  C   UNL     1      16.786   6.190  -3.608  1.00  0.00     0.134 A 
ATOM     70  C   UNL     1      15.807   5.461  -1.551  1.00  0.00     0.134 A 
ATOM     71  F   UNL     1      17.327   5.939  -4.810  1.00  0.00    -0.206 F 
ATOM     72  C   UNL     1      16.717   7.517  -3.180  1.00  0.00     0.040 A 
ATOM     73  C   UNL     1      15.711   6.785  -1.119  1.00  0.00     0.040 A 
ATOM     74  F   UNL     1      15.358   4.495  -0.735  1.00  0.00    -0.206 F 
ATOM     75  C   UNL     1      16.174   7.817  -1.933  1.00  0.00     0.006 A 
ENDBRANCH  47  68
BRANCH  59  76
ATOM     76  C   UNL     1      21.713   0.829  -3.801  1.00  0.00     0.057 A 
ATOM     77  C   UNL     1      22.329   0.892  -2.546  1.00  0.00     0.134 A 
ATOM     78  C   UNL     1      22.536   0.902  -4.933  1.00  0.00     0.134 A 
ATOM     79  F   UNL     1      21.594   0.843  -1.425  1.00  0.00    -0.206 F 
ATOM     80  C   UNL     1      23.712   1.039  -2.420  1.00  0.00     0.040 A 
ATOM     81  C   UNL     1      23.921   1.026  -4.819  1.00  0.00     0.040 A 
ATOM     82  F   UNL     1      22.008   0.841  -6.164  1.00  0.00    -0.206 F 
ATOM     83  C   UNL     1      24.512   1.099  -3.559  1.00  0.00     0.006 A 
ENDBRANCH  59  76
ENDBRANCH  33  34
ENDBRANCH  25  28
ENDBRANCH  23  24
ENDBRANCH  22  23
ENDBRANCH   1  22
TORSDOF 14
