REMARK SMILES CC[C@H]1SC[C@H](C(=O)NCCCCNC(=O)c2ccc(-c3c4nc(c(-c5c(F)cccc5F)c5ccc([nH]5)c(-c5c(F)cccc5F)c5nc(c(-c6c(F)cccc6F)c6ccc3[nH]6)C=C5)C=C4)cc2)N1C(=O)Cc1ccc(F)c(F)c1
REMARK SMILES IDX 11 1 10 2 9 3 7 4 8 5 6 7 3 8 4 9 71 10 5 11 2 12 1 13 72 14
REMARK SMILES IDX 73 15 74 16 75 17 76 18 82 19 77 20 80 21 78 22 81 23 79 24
REMARK SMILES IDX 12 25 13 26 14 27 15 28 16 30 17 31 18 32 70 33 19 34 69 35
REMARK SMILES IDX 20 36 21 37 22 38 63 39 23 40 68 41 62 42 64 43 24 44 67 45
REMARK SMILES IDX 61 46 60 47 25 49 51 50 34 51 50 52 35 53 38 54 49 55 65 56
REMARK SMILES IDX 36 57 37 58 48 60 66 61 39 62 26 63 27 64 32 65 28 66 29 67
REMARK SMILES IDX 31 68 33 69 30 70 52 71 53 72 58 73 54 74 55 75 57 76 59 77
REMARK SMILES IDX 56 78 40 79 41 80 46 81 42 82 43 83 45 84 47 85 44 86
REMARK H PARENT 9 6 14 29 64 48 38 59
REMARK Flexibility Score: inf
ROOT
ATOM      1  C   UNL     1       4.279   4.180  -3.650  1.00  0.00     0.023 C 
ENDROOT
BRANCH   1   2
ATOM      2  C   UNL     1       3.956   3.554  -2.303  1.00  0.00     0.116 C 
BRANCH   2   3
ATOM      3  N   UNL     1       4.523   4.223  -1.159  1.00  0.00    -0.354 N 
ATOM      4  C   UNL     1       4.274   3.997   0.165  1.00  0.00     0.243 C 
ATOM      5  O   UNL     1       4.996   4.604   0.968  1.00  0.00    -0.273 OA
ATOM      6  H   UNL     1       5.174   4.934  -1.357  1.00  0.00     0.163 HD
BRANCH   4   7
ATOM      7  C   UNL     1       3.020   3.244   0.685  1.00  0.00     0.185 C 
ATOM      8  C   UNL     1       0.919   2.319  -0.216  1.00  0.00     0.143 C 
ATOM      9  S   UNL     1       0.643   4.113  -0.186  1.00  0.00    -0.134 SA
ATOM     10  N   UNL     1       2.371   2.208  -0.149  1.00  0.00    -0.318 N 
ATOM     11  C   UNL     1       1.994   4.355   1.002  1.00  0.00     0.107 C 
BRANCH   8  12
ATOM     12  C   UNL     1       0.191   1.738   1.020  1.00  0.00     0.033 C 
ATOM     13  C   UNL     1       0.387   0.257   1.298  1.00  0.00     0.007 C 
ENDBRANCH   8  12
BRANCH  10  14
ATOM     14  C   UNL     1       3.096   1.108  -0.579  1.00  0.00     0.228 C 
ATOM     15  O   UNL     1       4.160   0.792  -0.046  1.00  0.00    -0.274 OA
BRANCH  14  16
ATOM     16  C   UNL     1       2.656   0.450  -1.892  1.00  0.00     0.135 C 
BRANCH  16  17
ATOM     17  C   UNL     1       2.017  -0.903  -1.762  1.00  0.00    -0.036 A 
ATOM     18  C   UNL     1       0.620  -1.031  -1.737  1.00  0.00     0.007 A 
ATOM     19  C   UNL     1       2.808  -2.057  -1.664  1.00  0.00     0.046 A 
ATOM     20  C   UNL     1       0.025  -2.274  -1.519  1.00  0.00     0.043 A 
ATOM     21  C   UNL     1       2.205  -3.298  -1.483  1.00  0.00     0.159 A 
ATOM     22  C   UNL     1       0.824  -3.401  -1.384  1.00  0.00     0.158 A 
ATOM     23  F   UNL     1       2.970  -4.394  -1.396  1.00  0.00    -0.204 F 
ATOM     24  F   UNL     1       0.246  -4.588  -1.155  1.00  0.00    -0.204 F 
ENDBRANCH  16  17
ENDBRANCH  14  16
ENDBRANCH  10  14
ENDBRANCH   4   7
ENDBRANCH   2   3
ENDBRANCH   1   2
BRANCH   1  25
ATOM     25  C   UNL     1       5.762   4.243  -4.005  1.00  0.00     0.023 C 
BRANCH  25  26
ATOM     26  C   UNL     1       6.553   2.955  -3.807  1.00  0.00     0.116 C 
BRANCH  26  27
ATOM     27  N   UNL     1       6.080   1.849  -4.627  1.00  0.00    -0.352 N 
ATOM     28  C   UNL     1       6.728   1.130  -5.607  1.00  0.00     0.251 C 
ATOM     29  H   UNL     1       5.151   1.571  -4.454  1.00  0.00     0.163 HD
ATOM     30  O   UNL     1       6.111   0.304  -6.266  1.00  0.00    -0.269 OA
BRANCH  28  31
ATOM     31  C   UNL     1       8.157   1.387  -5.893  1.00  0.00     0.039 A 
ATOM     32  C   UNL     1       8.570   1.497  -7.223  1.00  0.00     0.014 A 
ATOM     33  C   UNL     1       9.084   1.538  -4.860  1.00  0.00     0.014 A 
ATOM     34  C   UNL     1       9.893   1.843  -7.511  1.00  0.00     0.010 A 
ATOM     35  C   UNL     1      10.370   1.987  -5.144  1.00  0.00     0.010 A 
ATOM     36  C   UNL     1      10.794   2.136  -6.473  1.00  0.00    -0.014 A 
BRANCH  36  37
ATOM     37  C   UNL     1      12.181   2.586  -6.764  1.00  0.00     0.031 A 
ATOM     38  C   UNL     1      13.358   1.766  -6.307  1.00  0.00     0.074 A 
ATOM     39  C   UNL     1      12.385   3.754  -7.404  1.00  0.00     0.049 A 
ATOM     40  N   UNL     1      14.637   1.992  -6.471  1.00  0.00    -0.248 NA
ATOM     41  C   UNL     1      13.059   0.547  -5.540  1.00  0.00     0.031 C 
ATOM     42  C   UNL     1      11.334   4.670  -7.851  1.00  0.00     0.029 A 
ATOM     43  N   UNL     1      13.549   4.368  -7.796  1.00  0.00    -0.354 N 
ATOM     44  C   UNL     1      15.290   0.950  -5.824  1.00  0.00     0.074 A 
ATOM     45  C   UNL     1      14.271   0.138  -5.198  1.00  0.00     0.031 C 
ATOM     46  C   UNL     1      11.897   5.700  -8.503  1.00  0.00     0.029 A 
ATOM     47  C   UNL     1      13.348   5.539  -8.487  1.00  0.00     0.049 A 
ATOM     48  H   UNL     1      14.442   4.004  -7.602  1.00  0.00     0.167 HD
ATOM     49  C   UNL     1      16.615   0.670  -5.784  1.00  0.00     0.037 A 
ATOM     50  C   UNL     1      14.232   6.381  -9.054  1.00  0.00     0.037 A 
ATOM     51  C   UNL     1      17.628   1.475  -6.413  1.00  0.00     0.049 A 
ATOM     52  C   UNL     1      15.701   6.067  -8.973  1.00  0.00     0.074 A 
ATOM     53  C   UNL     1      18.994   1.257  -6.468  1.00  0.00     0.029 A 
ATOM     54  N   UNL     1      17.384   2.660  -7.093  1.00  0.00    -0.354 N 
ATOM     55  N   UNL     1      16.299   5.038  -8.424  1.00  0.00    -0.248 NA
ATOM     56  C   UNL     1      16.617   7.032  -9.598  1.00  0.00     0.031 C 
ATOM     57  C   UNL     1      19.581   2.337  -7.136  1.00  0.00     0.029 A 
ATOM     58  C   UNL     1      18.577   3.197  -7.550  1.00  0.00     0.049 A 
ATOM     59  H   UNL     1      16.495   3.059  -7.229  1.00  0.00     0.167 HD
ATOM     60  C   UNL     1      17.656   5.210  -8.670  1.00  0.00     0.074 A 
ATOM     61  C   UNL     1      17.790   6.439  -9.424  1.00  0.00     0.031 C 
ATOM     62  C   UNL     1      18.695   4.418  -8.307  1.00  0.00     0.037 A 
BRANCH  49  63
ATOM     63  C   UNL     1      17.030  -0.563  -5.030  1.00  0.00     0.057 A 
ATOM     64  C   UNL     1      16.692  -1.850  -5.475  1.00  0.00     0.134 A 
ATOM     65  C   UNL     1      17.770  -0.467  -3.846  1.00  0.00     0.134 A 
ATOM     66  F   UNL     1      15.975  -2.016  -6.596  1.00  0.00    -0.206 F 
ATOM     67  C   UNL     1      17.034  -2.990  -4.745  1.00  0.00     0.040 A 
ATOM     68  C   UNL     1      18.148  -1.602  -3.125  1.00  0.00     0.040 A 
ATOM     69  F   UNL     1      18.137   0.731  -3.365  1.00  0.00    -0.206 F 
ATOM     70  C   UNL     1      17.768  -2.868  -3.568  1.00  0.00     0.006 A 
ENDBRANCH  49  63
BRANCH  50  71
ATOM     71  C   UNL     1      13.751   7.571  -9.801  1.00  0.00     0.057 A 
ATOM     72  C   UNL     1      13.870   7.638 -11.195  1.00  0.00     0.134 A 
ATOM     73  C   UNL     1      13.164   8.663  -9.152  1.00  0.00     0.134 A 
ATOM     74  F   UNL     1      14.440   6.631 -11.873  1.00  0.00    -0.206 F 
ATOM     75  C   UNL     1      13.437   8.753 -11.914  1.00  0.00     0.040 A 
ATOM     76  C   UNL     1      12.703   9.773  -9.861  1.00  0.00     0.040 A 
ATOM     77  F   UNL     1      13.013   8.658  -7.819  1.00  0.00    -0.206 F 
ATOM     78  C   UNL     1      12.845   9.823 -11.247  1.00  0.00     0.006 A 
ENDBRANCH  50  71
BRANCH  62  79
ATOM     79  C   UNL     1      20.066   4.831  -8.763  1.00  0.00     0.057 A 
ATOM     80  C   UNL     1      20.727   5.941  -8.224  1.00  0.00     0.134 A 
ATOM     81  C   UNL     1      20.746   4.081  -9.731  1.00  0.00     0.134 A 
ATOM     82  F   UNL     1      20.127   6.710  -7.303  1.00  0.00    -0.206 F 
ATOM     83  C   UNL     1      22.005   6.307  -8.651  1.00  0.00     0.040 A 
ATOM     84  C   UNL     1      22.036   4.418 -10.144  1.00  0.00     0.040 A 
ATOM     85  F   UNL     1      20.174   2.999 -10.282  1.00  0.00    -0.206 F 
ATOM     86  C   UNL     1      22.666   5.539  -9.609  1.00  0.00     0.006 A 
ENDBRANCH  62  79
ENDBRANCH  36  37
ENDBRANCH  28  31
ENDBRANCH  26  27
ENDBRANCH  25  26
ENDBRANCH   1  25
TORSDOF 15
