REMARK SMILES CSc1ccc(-c2cc(C[C@H]3CCCC3=O)ccc2[C@@H](C)C(=O)NCCCCNC(=O)c2ccc(-c3c4nc(c(-c5c(F)cccc5F)c5ccc([nH]5)c(-c5c(F)cccc5F)c5nc(c(-c6c(F)cccc6F)c6ccc3[nH]6)C=C5)C=C4)cc2)cc1
REMARK SMILES IDX 26 1 25 2 24 3 22 4 23 5 20 7 21 8 19 9 7 10 8 11 9 12 18 13
REMARK SMILES IDX 17 14 6 15 3 16 4 17 87 18 5 19 86 20 2 21 1 22 10 23 11 24
REMARK SMILES IDX 12 25 15 26 13 27 14 28 16 29 27 30 28 31 29 32 30 33 31 35
REMARK SMILES IDX 32 36 33 37 85 38 34 39 84 40 35 41 36 42 37 43 78 44 38 45
REMARK SMILES IDX 83 46 77 47 79 48 39 49 82 50 76 51 75 52 40 54 66 55 49 56
REMARK SMILES IDX 65 57 50 58 53 59 64 60 80 61 51 62 52 63 63 65 81 66 54 67
REMARK SMILES IDX 41 68 42 69 47 70 43 71 44 72 46 73 48 74 45 75 67 76 68 77
REMARK SMILES IDX 73 78 69 79 70 80 72 81 74 82 71 83 55 84 56 85 61 86 57 87
REMARK SMILES IDX 58 88 60 89 62 90 59 91
REMARK H PARENT 24 6 29 34 79 53 53 64
REMARK Flexibility Score: inf
ROOT
ATOM      1  C   UNL     1       1.764   4.104  10.670  1.00  0.00     0.023 C 
ENDROOT
BRANCH   1   2
ATOM      2  C   UNL     1       0.353   4.354  10.131  1.00  0.00     0.116 C 
BRANCH   2   3
ATOM      3  N   UNL     1       0.376   4.921   8.801  1.00  0.00    -0.356 N 
ATOM      4  C   UNL     1       0.304   4.350   7.567  1.00  0.00     0.227 C 
ATOM      5  O   UNL     1       0.458   5.122   6.612  1.00  0.00    -0.274 OA
ATOM      6  H   UNL     1       0.460   5.902   8.784  1.00  0.00     0.163 HD
BRANCH   4   7
ATOM      7  C   UNL     1       0.043   2.851   7.316  1.00  0.00     0.106 C 
ATOM      8  C   UNL     1      -1.274   2.332   7.891  1.00  0.00     0.023 C 
BRANCH   7   9
ATOM      9  C   UNL     1       1.272   1.979   7.573  1.00  0.00    -0.028 A 
ATOM     10  C   UNL     1       2.186   1.649   6.542  1.00  0.00    -0.014 A 
ATOM     11  C   UNL     1       3.392   0.992   6.872  1.00  0.00     0.012 A 
ATOM     12  C   UNL     1       3.665   0.569   8.177  1.00  0.00    -0.047 A 
ATOM     13  C   UNL     1       1.538   1.491   8.862  1.00  0.00     0.005 A 
ATOM     14  C   UNL     1       2.722   0.821   9.169  1.00  0.00     0.004 A 
BRANCH  10  15
ATOM     15  C   UNL     1       1.828   1.732   5.117  1.00  0.00    -0.018 A 
ATOM     16  C   UNL     1       1.022   1.743   2.404  1.00  0.00     0.007 A 
ATOM     17  C   UNL     1       0.969   0.566   3.149  1.00  0.00     0.015 A 
ATOM     18  C   UNL     1       1.467   2.916   3.029  1.00  0.00     0.015 A 
ATOM     19  C   UNL     1       1.370   0.563   4.484  1.00  0.00     0.010 A 
ATOM     20  C   UNL     1       1.878   2.912   4.370  1.00  0.00     0.010 A 
BRANCH  16  21
ATOM     21  S   UNL     1       0.479   1.825   0.704  1.00  0.00    -0.130 SA
ATOM     22  C   UNL     1       1.054   0.228   0.061  1.00  0.00     0.091 C 
ENDBRANCH  16  21
ENDBRANCH  10  15
BRANCH  12  23
ATOM     23  C   UNL     1       4.886  -0.260   8.487  1.00  0.00     0.047 C 
BRANCH  23  24
ATOM     24  C   UNL     1       4.742  -1.761   8.200  1.00  0.00     0.060 C 
ATOM     25  C   UNL     1       3.494  -2.461   8.755  1.00  0.00     0.012 C 
ATOM     26  C   UNL     1       4.624  -2.044   6.719  1.00  0.00     0.136 C 
ATOM     27  C   UNL     1       2.485  -2.503   7.611  1.00  0.00     0.009 C 
ATOM     28  C   UNL     1       3.320  -2.703   6.355  1.00  0.00     0.076 C 
ATOM     29  O   UNL     1       5.503  -1.788   5.904  1.00  0.00    -0.299 OA
ENDBRANCH  23  24
ENDBRANCH  12  23
ENDBRANCH   7   9
ENDBRANCH   4   7
ENDBRANCH   2   3
ENDBRANCH   1   2
BRANCH   1  30
ATOM     30  C   UNL     1       2.384   5.266  11.439  1.00  0.00     0.023 C 
BRANCH  30  31
ATOM     31  C   UNL     1       1.616   5.702  12.679  1.00  0.00     0.116 C 
BRANCH  31  32
ATOM     32  N   UNL     1       1.370   4.633  13.635  1.00  0.00    -0.352 N 
ATOM     33  C   UNL     1       1.217   4.734  15.000  1.00  0.00     0.251 C 
ATOM     34  H   UNL     1       1.304   3.725  13.260  1.00  0.00     0.163 HD
ATOM     35  O   UNL     1       1.090   3.733  15.690  1.00  0.00    -0.269 OA
BRANCH  33  36
ATOM     36  C   UNL     1       1.261   6.074  15.624  1.00  0.00     0.039 A 
ATOM     37  C   UNL     1       2.111   6.281  16.712  1.00  0.00     0.014 A 
ATOM     38  C   UNL     1       0.515   7.130  15.096  1.00  0.00     0.014 A 
ATOM     39  C   UNL     1       2.264   7.569  17.227  1.00  0.00     0.010 A 
ATOM     40  C   UNL     1       0.734   8.423  15.553  1.00  0.00     0.010 A 
ATOM     41  C   UNL     1       1.605   8.655  16.628  1.00  0.00    -0.014 A 
BRANCH  41  42
ATOM     42  C   UNL     1       1.800  10.039  17.123  1.00  0.00     0.031 A 
ATOM     43  C   UNL     1       0.641  10.798  17.706  1.00  0.00     0.074 A 
ATOM     44  C   UNL     1       3.003  10.631  16.994  1.00  0.00     0.049 A 
ATOM     45  N   UNL     1       0.600  12.026  18.157  1.00  0.00    -0.248 NA
ATOM     46  C   UNL     1      -0.652  10.096  17.758  1.00  0.00     0.031 C 
ATOM     47  C   UNL     1       4.188  10.023  16.383  1.00  0.00     0.029 A 
ATOM     48  N   UNL     1       3.427  11.881  17.367  1.00  0.00    -0.354 N 
ATOM     49  C   UNL     1      -0.721  12.246  18.528  1.00  0.00     0.074 A 
ATOM     50  C   UNL     1      -1.461  11.050  18.193  1.00  0.00     0.031 C 
ATOM     51  C   UNL     1       5.211  10.890  16.452  1.00  0.00     0.029 A 
ATOM     52  C   UNL     1       4.750  12.121  17.086  1.00  0.00     0.049 A 
ATOM     53  H   UNL     1       2.838  12.544  17.795  1.00  0.00     0.167 HD
ATOM     54  C   UNL     1      -1.263  13.334  19.123  1.00  0.00     0.037 A 
ATOM     55  C   UNL     1       5.505  13.210  17.320  1.00  0.00     0.037 A 
ATOM     56  C   UNL     1      -0.517  14.508  19.489  1.00  0.00     0.049 A 
ATOM     57  C   UNL     1       4.887  14.396  18.008  1.00  0.00     0.074 A 
ATOM     58  C   UNL     1      -0.956  15.637  20.158  1.00  0.00     0.029 A 
ATOM     59  N   UNL     1       0.829  14.702  19.216  1.00  0.00    -0.354 N 
ATOM     60  N   UNL     1       3.655  14.560  18.426  1.00  0.00    -0.248 NA
ATOM     61  C   UNL     1       5.768  15.543  18.268  1.00  0.00     0.031 C 
ATOM     62  C   UNL     1       0.117  16.528  20.260  1.00  0.00     0.029 A 
ATOM     63  C   UNL     1       1.234  15.938  19.691  1.00  0.00     0.049 A 
ATOM     64  H   UNL     1       1.411  14.056  18.754  1.00  0.00     0.167 HD
ATOM     65  C   UNL     1       3.619  15.816  19.017  1.00  0.00     0.074 A 
ATOM     66  C   UNL     1       4.957  16.362  18.921  1.00  0.00     0.031 C 
ATOM     67  C   UNL     1       2.572  16.462  19.587  1.00  0.00     0.037 A 
BRANCH  54  68
ATOM     68  C   UNL     1      -2.732  13.291  19.427  1.00  0.00     0.057 A 
ATOM     69  C   UNL     1      -3.255  12.456  20.423  1.00  0.00     0.134 A 
ATOM     70  C   UNL     1      -3.632  14.102  18.726  1.00  0.00     0.134 A 
ATOM     71  F   UNL     1      -2.447  11.642  21.120  1.00  0.00    -0.206 F 
ATOM     72  C   UNL     1      -4.623  12.407  20.692  1.00  0.00     0.040 A 
ATOM     73  C   UNL     1      -5.000  14.082  19.005  1.00  0.00     0.040 A 
ATOM     74  F   UNL     1      -3.199  14.928  17.761  1.00  0.00    -0.206 F 
ATOM     75  C   UNL     1      -5.500  13.227  19.985  1.00  0.00     0.006 A 
ENDBRANCH  54  68
BRANCH  55  76
ATOM     76  C   UNL     1       6.940  13.218  16.940  1.00  0.00     0.057 A 
ATOM     77  C   UNL     1       7.943  13.168  17.915  1.00  0.00     0.134 A 
ATOM     78  C   UNL     1       7.343  13.287  15.601  1.00  0.00     0.134 A 
ATOM     79  F   UNL     1       7.618  13.119  19.215  1.00  0.00    -0.206 F 
ATOM     80  C   UNL     1       9.296  13.207  17.575  1.00  0.00     0.040 A 
ATOM     81  C   UNL     1       8.693  13.303  15.246  1.00  0.00     0.040 A 
ATOM     82  F   UNL     1       6.430  13.329  14.620  1.00  0.00    -0.206 F 
ATOM     83  C   UNL     1       9.674  13.271  16.235  1.00  0.00     0.006 A 
ENDBRANCH  55  76
BRANCH  67  84
ATOM     84  C   UNL     1       2.842  17.817  20.169  1.00  0.00     0.057 A 
ATOM     85  C   UNL     1       3.064  18.937  19.357  1.00  0.00     0.134 A 
ATOM     86  C   UNL     1       2.854  18.008  21.556  1.00  0.00     0.134 A 
ATOM     87  F   UNL     1       3.079  18.816  18.021  1.00  0.00    -0.206 F 
ATOM     88  C   UNL     1       3.316  20.195  19.906  1.00  0.00     0.040 A 
ATOM     89  C   UNL     1       3.079  19.266  22.116  1.00  0.00     0.040 A 
ATOM     90  F   UNL     1       2.640  16.978  22.388  1.00  0.00    -0.206 F 
ATOM     91  C   UNL     1       3.317  20.363  21.290  1.00  0.00     0.006 A 
ENDBRANCH  67  84
ENDBRANCH  41  42
ENDBRANCH  33  36
ENDBRANCH  31  32
ENDBRANCH  30  31
ENDBRANCH   1  30
TORSDOF 16
