REMARK SMILES Cc1cc(C[N@@H+]2C[C@@H](C(=O)NCCCCNC(=O)c3ccc(-c4c5nc(c(-c6c(F)cccc6F)c6ccc([nH]6)c(-c6c(F)cccc6F)c6nc(c(-c7c(F)cccc7F)c7ccc4[nH]7)C=C6)C=C5)cc3)[C@H](C3CC3)C2)on1
REMARK SMILES IDX 13 1 12 2 11 3 9 4 10 5 8 7 6 8 7 9 77 10 73 12 5 13 4 14
REMARK SMILES IDX 1 15 2 16 3 17 79 18 78 19 74 20 75 21 76 22 14 23 15 24
REMARK SMILES IDX 16 25 17 26 18 28 19 29 20 30 72 31 21 32 71 33 22 34 23 35
REMARK SMILES IDX 24 36 65 37 25 38 70 39 64 40 66 41 26 42 69 43 63 44 62 45
REMARK SMILES IDX 27 47 53 48 36 49 52 50 37 51 40 52 51 53 67 54 38 55 39 56
REMARK SMILES IDX 50 58 68 59 41 60 28 61 29 62 34 63 30 64 31 65 33 66 35 67
REMARK SMILES IDX 32 68 54 69 55 70 60 71 56 72 57 73 59 74 61 75 58 76 42 77
REMARK SMILES IDX 43 78 48 79 44 80 45 81 47 82 49 83 46 84
REMARK H PARENT 11 6 6 11 16 27 66 46 40 57
REMARK Flexibility Score: inf
ROOT
ATOM      1  C   UNL     1      -6.087   1.685   1.025  1.00  0.00     0.023 C 
ENDROOT
BRANCH   1   2
ATOM      2  C   UNL     1      -4.766   2.403   0.725  1.00  0.00     0.116 C 
BRANCH   2   3
ATOM      3  N   UNL     1      -4.037   2.628   1.954  1.00  0.00    -0.356 N 
ATOM      4  C   UNL     1      -3.249   1.786   2.679  1.00  0.00     0.229 C 
ATOM      5  O   UNL     1      -3.036   2.138   3.842  1.00  0.00    -0.275 OA
ATOM      6  H   UNL     1      -4.123   3.535   2.325  1.00  0.00     0.163 HD
BRANCH   4   7
ATOM      7  C   UNL     1      -2.585   0.548   2.061  1.00  0.00     0.142 C 
ATOM      8  N   UNL     1      -2.918  -1.744   1.385  1.00  0.00    -0.328 N 
ATOM      9  C   UNL     1      -3.547  -0.425   1.386  1.00  0.00     0.276 C 
ATOM     10  C   UNL     1      -2.111  -1.800   2.601  1.00  0.00     0.267 C 
ATOM     11  H   UNL     1      -3.625  -2.479   1.399  1.00  0.00     0.348 HD
ATOM     12  C   UNL     1      -1.921  -0.355   3.124  1.00  0.00     0.065 C 
BRANCH   8  13
ATOM     13  C   UNL     1      -2.214  -2.094   0.142  1.00  0.00     0.341 C 
BRANCH  13  14
ATOM     14  C   UNL     1      -0.991  -1.315  -0.180  1.00  0.00     0.191 A 
ATOM     15  C   UNL     1       2.400   0.009  -0.457  1.00  0.00     0.070 C 
ATOM     16  C   UNL     1       0.967  -0.361  -0.494  1.00  0.00     0.081 A 
ATOM     17  C   UNL     1       0.345  -1.483   0.093  1.00  0.00     0.078 A 
ATOM     18  N   UNL     1       0.075   0.423  -1.112  1.00  0.00    -0.085 NA
ATOM     19  O   UNL     1      -1.154  -0.189  -0.927  1.00  0.00    -0.355 OA
ENDBRANCH  13  14
ENDBRANCH   8  13
BRANCH  12  20
ATOM     20  C   UNL     1      -0.471  -0.116   3.487  1.00  0.00    -0.001 C 
ATOM     21  C   UNL     1       0.459   0.852   2.796  1.00  0.00     0.004 C 
ATOM     22  C   UNL     1      -0.032   1.152   4.181  1.00  0.00     0.004 C 
ENDBRANCH  12  20
ENDBRANCH   4   7
ENDBRANCH   2   3
ENDBRANCH   1   2
BRANCH   1  23
ATOM     23  C   UNL     1      -7.185   2.589   1.587  1.00  0.00     0.023 C 
BRANCH  23  24
ATOM     24  C   UNL     1      -7.716   3.615   0.600  1.00  0.00     0.116 C 
BRANCH  24  25
ATOM     25  N   UNL     1      -8.266   3.017  -0.608  1.00  0.00    -0.352 N 
ATOM     26  C   UNL     1      -9.257   3.514  -1.422  1.00  0.00     0.251 C 
ATOM     27  H   UNL     1      -7.882   2.151  -0.874  1.00  0.00     0.163 HD
ATOM     28  O   UNL     1      -9.688   2.862  -2.359  1.00  0.00    -0.269 OA
BRANCH  26  29
ATOM     29  C   UNL     1      -9.826   4.837  -1.102  1.00  0.00     0.039 A 
ATOM     30  C   UNL     1     -11.208   4.951  -0.942  1.00  0.00     0.014 A 
ATOM     31  C   UNL     1      -8.986   5.933  -0.887  1.00  0.00     0.014 A 
ATOM     32  C   UNL     1     -11.746   6.157  -0.496  1.00  0.00     0.010 A 
ATOM     33  C   UNL     1      -9.516   7.109  -0.373  1.00  0.00     0.010 A 
ATOM     34  C   UNL     1     -10.900   7.230  -0.174  1.00  0.00    -0.014 A 
BRANCH  34  35
ATOM     35  C   UNL     1     -11.441   8.498   0.367  1.00  0.00     0.031 A 
ATOM     36  C   UNL     1     -11.316   9.763  -0.430  1.00  0.00     0.074 A 
ATOM     37  C   UNL     1     -11.977   8.521   1.602  1.00  0.00     0.049 A 
ATOM     38  N   UNL     1     -11.655  10.983  -0.104  1.00  0.00    -0.248 NA
ATOM     39  C   UNL     1     -10.696   9.645  -1.760  1.00  0.00     0.031 C 
ATOM     40  C   UNL     1     -12.105   7.365   2.493  1.00  0.00     0.029 A 
ATOM     41  N   UNL     1     -12.506   9.559   2.325  1.00  0.00    -0.354 N 
ATOM     42  C   UNL     1     -11.274  11.778  -1.177  1.00  0.00     0.074 A 
ATOM     43  C   UNL     1     -10.629  10.912  -2.140  1.00  0.00     0.031 C 
ATOM     44  C   UNL     1     -12.699   7.754   3.633  1.00  0.00     0.029 A 
ATOM     45  C   UNL     1     -12.964   9.188   3.566  1.00  0.00     0.049 A 
ATOM     46  H   UNL     1     -12.553  10.482   1.988  1.00  0.00     0.167 HD
ATOM     47  C   UNL     1     -11.466  13.106  -1.355  1.00  0.00     0.037 A 
ATOM     48  C   UNL     1     -13.534   9.924   4.537  1.00  0.00     0.037 A 
ATOM     49  C   UNL     1     -12.136  13.957  -0.409  1.00  0.00     0.049 A 
ATOM     50  C   UNL     1     -13.749  11.394   4.312  1.00  0.00     0.074 A 
ATOM     51  C   UNL     1     -12.440  15.302  -0.521  1.00  0.00     0.029 A 
ATOM     52  N   UNL     1     -12.610  13.540   0.826  1.00  0.00    -0.354 N 
ATOM     53  N   UNL     1     -13.443  12.123   3.266  1.00  0.00    -0.248 NA
ATOM     54  C   UNL     1     -14.393  12.144   5.400  1.00  0.00     0.031 C 
ATOM     55  C   UNL     1     -13.070  15.706   0.661  1.00  0.00     0.029 A 
ATOM     56  C   UNL     1     -13.191  14.604   1.493  1.00  0.00     0.049 A 
ATOM     57  H   UNL     1     -12.542  12.622   1.177  1.00  0.00     0.167 HD
ATOM     58  C   UNL     1     -13.878  13.408   3.557  1.00  0.00     0.074 A 
ATOM     59  C   UNL     1     -14.479  13.358   4.874  1.00  0.00     0.031 C 
ATOM     60  C   UNL     1     -13.790  14.530   2.801  1.00  0.00     0.037 A 
BRANCH  47  61
ATOM     61  C   UNL     1     -10.948  13.708  -2.627  1.00  0.00     0.057 A 
ATOM     62  C   UNL     1     -11.544  13.438  -3.866  1.00  0.00     0.134 A 
ATOM     63  C   UNL     1      -9.845  14.570  -2.614  1.00  0.00     0.134 A 
ATOM     64  F   UNL     1     -12.594  12.607  -3.949  1.00  0.00    -0.206 F 
ATOM     65  C   UNL     1     -11.043  13.979  -5.051  1.00  0.00     0.040 A 
ATOM     66  C   UNL     1      -9.351  15.138  -3.790  1.00  0.00     0.040 A 
ATOM     67  F   UNL     1      -9.229  14.873  -1.462  1.00  0.00    -0.206 F 
ATOM     68  C   UNL     1      -9.945  14.836  -5.014  1.00  0.00     0.006 A 
ENDBRANCH  47  61
BRANCH  48  69
ATOM     69  C   UNL     1     -13.978   9.275   5.795  1.00  0.00     0.057 A 
ATOM     70  C   UNL     1     -15.338   9.086   6.063  1.00  0.00     0.134 A 
ATOM     71  C   UNL     1     -13.062   8.826   6.753  1.00  0.00     0.134 A 
ATOM     72  F   UNL     1     -16.263   9.512   5.190  1.00  0.00    -0.206 F 
ATOM     73  C   UNL     1     -15.774   8.486   7.245  1.00  0.00     0.040 A 
ATOM     74  C   UNL     1     -13.482   8.206   7.931  1.00  0.00     0.040 A 
ATOM     75  F   UNL     1     -11.744   8.972   6.550  1.00  0.00    -0.206 F 
ATOM     76  C   UNL     1     -14.844   8.040   8.181  1.00  0.00     0.006 A 
ENDBRANCH  48  69
BRANCH  60  77
ATOM     77  C   UNL     1     -14.383  15.784   3.368  1.00  0.00     0.057 A 
ATOM     78  C   UNL     1     -13.755  16.496   4.397  1.00  0.00     0.134 A 
ATOM     79  C   UNL     1     -15.574  16.306   2.849  1.00  0.00     0.134 A 
ATOM     80  F   UNL     1     -12.619  16.039   4.945  1.00  0.00    -0.206 F 
ATOM     81  C   UNL     1     -14.301  17.677   4.902  1.00  0.00     0.040 A 
ATOM     82  C   UNL     1     -16.117  17.498   3.329  1.00  0.00     0.040 A 
ATOM     83  F   UNL     1     -16.220  15.674   1.857  1.00  0.00    -0.206 F 
ATOM     84  C   UNL     1     -15.482  18.184   4.362  1.00  0.00     0.006 A 
ENDBRANCH  60  77
ENDBRANCH  34  35
ENDBRANCH  26  29
ENDBRANCH  24  25
ENDBRANCH  23  24
ENDBRANCH   1  23
TORSDOF 14
