REMARK SMILES O=C(NCCCCNC(=O)[C@@H]1CN(C(=O)[C@H]2CC=CCC2)c2ccccc2O1)c1ccc(-c2c3nc(c(-c4c(F)cccc4F)c4ccc([nH]4)c(-c4c(F)cccc4F)c4nc(c(-c5c(F)cccc5F)c5ccc2[nH]5)C=C4)C=C3)cc1
REMARK SMILES IDX 5 1 4 2 3 3 1 4 2 5 29 7 30 8 82 9 31 10 81 11 32 12 33 13
REMARK SMILES IDX 34 14 75 15 35 16 80 17 74 18 76 19 36 20 79 21 73 22 72 23
REMARK SMILES IDX 37 25 63 26 46 27 62 28 47 29 50 30 61 31 77 32 48 33 49 34
REMARK SMILES IDX 60 36 78 37 51 38 38 39 39 40 44 41 40 42 41 43 43 44 45 45
REMARK SMILES IDX 42 46 64 47 65 48 70 49 66 50 67 51 69 52 71 53 68 54 52 55
REMARK SMILES IDX 53 56 58 57 54 58 55 59 57 60 59 61 56 62 6 63 7 64 8 65
REMARK SMILES IDX 9 66 10 68 11 69 12 70 28 71 13 72 27 73 22 74 26 75 23 76
REMARK SMILES IDX 25 77 24 78 14 79 15 80 16 81 17 82 21 83 18 84 20 85 19 86
REMARK H PARENT 3 6 76 24 50 35 8 67
REMARK Flexibility Score: inf
ROOT
ATOM      1  C   UNL     1       5.742  -2.284  -0.661  1.00  0.00     0.023 C 
ENDROOT
BRANCH   1   2
ATOM      2  C   UNL     1       5.036  -0.940  -0.526  1.00  0.00     0.116 C 
BRANCH   2   3
ATOM      3  N   UNL     1       3.590  -0.982  -0.701  1.00  0.00    -0.352 N 
ATOM      4  O   UNL     1       1.435  -0.452  -0.207  1.00  0.00    -0.269 OA
ATOM      5  C   UNL     1       2.621  -0.346   0.057  1.00  0.00     0.251 C 
ATOM      6  H   UNL     1       3.261  -1.530  -1.450  1.00  0.00     0.163 HD
BRANCH   5   7
ATOM      7  C   UNL     1       3.054   0.407   1.258  1.00  0.00     0.039 A 
ATOM      8  C   UNL     1       4.074   1.352   1.163  1.00  0.00     0.014 A 
ATOM      9  C   UNL     1       2.553   0.027   2.506  1.00  0.00     0.014 A 
ATOM     10  C   UNL     1       4.759   1.719   2.315  1.00  0.00     0.010 A 
ATOM     11  C   UNL     1       3.174   0.493   3.669  1.00  0.00     0.010 A 
ATOM     12  C   UNL     1       4.335   1.276   3.582  1.00  0.00    -0.014 A 
BRANCH  12  13
ATOM     13  C   UNL     1       5.149   1.617   4.782  1.00  0.00     0.031 A 
ATOM     14  C   UNL     1       5.792   0.543   5.625  1.00  0.00     0.074 A 
ATOM     15  C   UNL     1       5.378   2.914   5.067  1.00  0.00     0.049 A 
ATOM     16  N   UNL     1       6.555   0.672   6.683  1.00  0.00    -0.248 NA
ATOM     17  C   UNL     1       5.545  -0.856   5.241  1.00  0.00     0.031 C 
ATOM     18  C   UNL     1       4.821   4.048   4.327  1.00  0.00     0.029 A 
ATOM     19  N   UNL     1       6.171   3.497   6.021  1.00  0.00    -0.354 N 
ATOM     20  C   UNL     1       6.836  -0.619   7.117  1.00  0.00     0.074 A 
ATOM     21  C   UNL     1       6.160  -1.521   6.210  1.00  0.00     0.031 C 
ATOM     22  C   UNL     1       5.352   5.184   4.799  1.00  0.00     0.029 A 
ATOM     23  C   UNL     1       6.226   4.866   5.922  1.00  0.00     0.049 A 
ATOM     24  H   UNL     1       6.652   2.985   6.711  1.00  0.00     0.167 HD
ATOM     25  C   UNL     1       7.589  -1.016   8.171  1.00  0.00     0.037 A 
ATOM     26  C   UNL     1       6.897   5.771   6.657  1.00  0.00     0.037 A 
ATOM     27  C   UNL     1       8.307  -0.122   9.043  1.00  0.00     0.049 A 
ATOM     28  C   UNL     1       7.737   5.304   7.806  1.00  0.00     0.074 A 
ATOM     29  C   UNL     1       9.127  -0.433  10.115  1.00  0.00     0.029 A 
ATOM     30  N   UNL     1       8.299   1.260   8.936  1.00  0.00    -0.354 N 
ATOM     31  N   UNL     1       7.979   4.080   8.207  1.00  0.00    -0.248 NA
ATOM     32  C   UNL     1       8.381   6.346   8.617  1.00  0.00     0.031 C 
ATOM     33  C   UNL     1       9.591   0.763  10.675  1.00  0.00     0.029 A 
ATOM     34  C   UNL     1       9.088   1.817   9.931  1.00  0.00     0.049 A 
ATOM     35  H   UNL     1       7.806   1.771   8.254  1.00  0.00     0.167 HD
ATOM     36  C   UNL     1       8.802   4.202   9.317  1.00  0.00     0.074 A 
ATOM     37  C   UNL     1       9.040   5.619   9.509  1.00  0.00     0.031 C 
ATOM     38  C   UNL     1       9.307   3.228  10.111  1.00  0.00     0.037 A 
BRANCH  25  39
ATOM     39  C   UNL     1       7.661  -2.488   8.464  1.00  0.00     0.057 A 
ATOM     40  C   UNL     1       8.423  -3.367   7.685  1.00  0.00     0.134 A 
ATOM     41  C   UNL     1       6.995  -3.022   9.575  1.00  0.00     0.134 A 
ATOM     42  F   UNL     1       9.076  -2.922   6.601  1.00  0.00    -0.206 F 
ATOM     43  C   UNL     1       8.506  -4.728   7.990  1.00  0.00     0.040 A 
ATOM     44  C   UNL     1       7.087  -4.376   9.903  1.00  0.00     0.040 A 
ATOM     45  F   UNL     1       6.254  -2.234  10.369  1.00  0.00    -0.206 F 
ATOM     46  C   UNL     1       7.842  -5.235   9.107  1.00  0.00     0.006 A 
ENDBRANCH  25  39
BRANCH  26  47
ATOM     47  C   UNL     1       6.794   7.210   6.316  1.00  0.00     0.057 A 
ATOM     48  C   UNL     1       7.874   7.895   5.751  1.00  0.00     0.134 A 
ATOM     49  C   UNL     1       5.604   7.921   6.511  1.00  0.00     0.134 A 
ATOM     50  F   UNL     1       9.044   7.269   5.556  1.00  0.00    -0.206 F 
ATOM     51  C   UNL     1       7.776   9.240   5.390  1.00  0.00     0.040 A 
ATOM     52  C   UNL     1       5.484   9.258   6.132  1.00  0.00     0.040 A 
ATOM     53  F   UNL     1       4.532   7.315   7.041  1.00  0.00    -0.206 F 
ATOM     54  C   UNL     1       6.573   9.922   5.572  1.00  0.00     0.006 A 
ENDBRANCH  26  47
BRANCH  38  55
ATOM     55  C   UNL     1      10.173   3.671  11.251  1.00  0.00     0.057 A 
ATOM     56  C   UNL     1       9.627   4.248  12.404  1.00  0.00     0.134 A 
ATOM     57  C   UNL     1      11.563   3.515  11.196  1.00  0.00     0.134 A 
ATOM     58  F   UNL     1       8.303   4.438  12.507  1.00  0.00    -0.206 F 
ATOM     59  C   UNL     1      10.437   4.677  13.455  1.00  0.00     0.040 A 
ATOM     60  C   UNL     1      12.382   3.923  12.249  1.00  0.00     0.040 A 
ATOM     61  F   UNL     1      12.145   2.966  10.120  1.00  0.00    -0.206 F 
ATOM     62  C   UNL     1      11.819   4.512  13.381  1.00  0.00     0.006 A 
ENDBRANCH  38  55
ENDBRANCH  12  13
ENDBRANCH   5   7
ENDBRANCH   2   3
ENDBRANCH   1   2
BRANCH   1  63
ATOM     63  C   UNL     1       5.873  -2.794  -2.091  1.00  0.00     0.023 C 
BRANCH  63  64
ATOM     64  C   UNL     1       6.654  -1.856  -3.011  1.00  0.00     0.116 C 
BRANCH  64  65
ATOM     65  N   UNL     1       7.781  -2.498  -3.637  1.00  0.00    -0.353 N 
ATOM     66  C   UNL     1       7.987  -3.065  -4.846  1.00  0.00     0.262 C 
ATOM     67  H   UNL     1       8.576  -2.530  -3.057  1.00  0.00     0.163 HD
ATOM     68  O   UNL     1       9.162  -3.416  -5.045  1.00  0.00    -0.271 OA
BRANCH  66  69
ATOM     69  C   UNL     1       6.940  -3.301  -5.958  1.00  0.00     0.281 C 
ATOM     70  C   UNL     1       5.474  -2.900  -5.902  1.00  0.00     0.181 C 
ATOM     71  O   UNL     1       7.035  -4.662  -6.388  1.00  0.00    -0.477 OA
ATOM     72  N   UNL     1       4.617  -3.740  -5.064  1.00  0.00    -0.304 N 
ATOM     73  C   UNL     1       6.295  -5.495  -5.584  1.00  0.00     0.144 A 
ATOM     74  C   UNL     1       5.111  -5.103  -4.920  1.00  0.00     0.086 A 
ATOM     75  C   UNL     1       6.793  -6.801  -5.512  1.00  0.00     0.049 A 
ATOM     76  C   UNL     1       4.457  -6.101  -4.183  1.00  0.00     0.030 A 
ATOM     77  C   UNL     1       6.129  -7.760  -4.761  1.00  0.00     0.004 A 
ATOM     78  C   UNL     1       4.960  -7.409  -4.099  1.00  0.00     0.002 A 
BRANCH  72  79
ATOM     79  C   UNL     1       3.421  -3.294  -4.489  1.00  0.00     0.230 C 
ATOM     80  O   UNL     1       2.859  -3.910  -3.572  1.00  0.00    -0.274 OA
BRANCH  79  81
ATOM     81  C   UNL     1       2.694  -1.992  -4.921  1.00  0.00     0.083 C 
ATOM     82  C   UNL     1       3.325  -0.644  -4.562  1.00  0.00     0.040 C 
ATOM     83  C   UNL     1       2.040  -2.034  -6.304  1.00  0.00     0.018 C 
ATOM     84  C   UNL     1       3.876   0.133  -5.720  1.00  0.00    -0.030 C 
ATOM     85  C   UNL     1       2.824  -1.365  -7.430  1.00  0.00     0.028 C 
ATOM     86  C   UNL     1       3.661  -0.201  -7.000  1.00  0.00    -0.031 C 
ENDBRANCH  79  81
ENDBRANCH  72  79
ENDBRANCH  66  69
ENDBRANCH  64  65
ENDBRANCH  63  64
ENDBRANCH   1  63
TORSDOF 13
