REMARK SMILES Cn1c(C[NH+](C)C)nnc1[C@@H]1CCC[N@@H+](Cc2ccccc2C(=O)NCCCCNC(=O)c2ccc(-c3c4nc(c(-c5c(F)cccc5F)c5ccc([nH]5)c(-c5c(F)cccc5F)c5nc(c(-c6c(F)cccc6F)c6ccc3[nH]6)C=C5)C=C4)cc2)C1
REMARK SMILES IDX 26 1 25 2 23 3 24 4 22 6 17 7 18 8 19 9 21 10 20 11 16 12
REMARK SMILES IDX 15 13 11 14 12 15 87 16 13 17 14 18 10 20 3 21 8 22 2 23
REMARK SMILES IDX 9 24 1 25 4 26 5 27 6 28 7 29 27 31 28 32 29 33 30 34 31 35
REMARK SMILES IDX 32 37 33 38 34 39 86 40 35 41 85 42 36 43 37 44 38 45 79 46
REMARK SMILES IDX 39 47 84 48 78 49 80 50 40 51 83 52 77 53 76 54 41 56 67 57
REMARK SMILES IDX 50 58 66 59 51 60 54 61 65 62 81 63 52 64 53 65 64 67 82 68
REMARK SMILES IDX 55 69 42 70 43 71 48 72 44 73 45 74 47 75 49 76 46 77 68 78
REMARK SMILES IDX 69 79 74 80 70 81 71 82 73 83 75 84 72 85 56 86 57 87 62 88
REMARK SMILES IDX 58 89 59 90 61 91 63 92 60 93
REMARK H PARENT 25 5 15 19 5 30 30 36 80 55 54 66
REMARK Flexibility Score: inf
ROOT
ATOM      1  C   UNL     1      -4.274   3.620  -0.921  1.00  0.00     0.116 C 
ENDROOT
BRANCH   1   2
ATOM      2  N   UNL     1      -4.254   4.918  -0.279  1.00  0.00    -0.352 N 
ATOM      3  C   UNL     1      -4.668   5.340   0.966  1.00  0.00     0.251 C 
ATOM      4  O   UNL     1      -4.374   6.497   1.279  1.00  0.00    -0.269 OA
ATOM      5  H   UNL     1      -3.873   5.633  -0.837  1.00  0.00     0.163 HD
BRANCH   3   6
ATOM      6  C   UNL     1      -5.500   4.543   1.927  1.00  0.00     0.048 A 
ATOM      7  C   UNL     1      -5.318   3.217   2.367  1.00  0.00     0.019 A 
ATOM      8  C   UNL     1      -6.297   2.646   3.219  1.00  0.00     0.010 A 
ATOM      9  C   UNL     1      -7.348   3.393   3.739  1.00  0.00     0.001 A 
ATOM     10  C   UNL     1      -6.532   5.301   2.527  1.00  0.00     0.014 A 
ATOM     11  C   UNL     1      -7.436   4.739   3.432  1.00  0.00     0.001 A 
BRANCH   7  12
ATOM     12  C   UNL     1      -4.138   2.335   2.075  1.00  0.00     0.299 C 
BRANCH  12  13
ATOM     13  N   UNL     1      -2.856   2.685   2.666  1.00  0.00    -0.331 N 
ATOM     14  C   UNL     1      -0.706   3.933   2.525  1.00  0.00     0.113 C 
ATOM     15  C   UNL     1      -0.412   3.555   3.979  1.00  0.00     0.023 C 
ATOM     16  C   UNL     1      -2.210   3.917   2.235  1.00  0.00     0.274 C 
ATOM     17  C   UNL     1      -1.189   2.329   4.452  1.00  0.00     0.062 C 
ATOM     18  C   UNL     1      -2.681   2.384   4.081  1.00  0.00     0.262 C 
ATOM     19  H   UNL     1      -2.292   1.981   2.189  1.00  0.00     0.348 HD
BRANCH  14  20
ATOM     20  C   UNL     1       0.157   3.205   1.517  1.00  0.00     0.141 A 
ATOM     21  C   UNL     1       1.074   1.761   0.119  1.00  0.00     0.187 A 
ATOM     22  N   UNL     1       1.808   2.855   0.125  1.00  0.00    -0.129 NA
ATOM     23  N   UNL     1       0.000   1.947   0.967  1.00  0.00    -0.313 N 
ATOM     24  N   UNL     1       1.237   3.749   0.985  1.00  0.00    -0.135 NA
ATOM     25  C   UNL     1      -1.089   1.031   1.135  1.00  0.00     0.153 C 
BRANCH  21  26
ATOM     26  C   UNL     1       1.309   0.577  -0.769  1.00  0.00     0.340 C 
BRANCH  26  27
ATOM     27  N   UNL     1       0.789  -0.665  -0.236  1.00  0.00    -0.333 N 
ATOM     28  C   UNL     1       1.655  -1.382   0.666  1.00  0.00     0.332 C 
ATOM     29  C   UNL     1      -0.103  -1.407  -1.098  1.00  0.00     0.332 C 
ATOM     30  H   UNL     1       0.099  -0.357   0.448  1.00  0.00     0.348 HD
ENDBRANCH  26  27
ENDBRANCH  21  26
ENDBRANCH  14  20
ENDBRANCH  12  13
ENDBRANCH   7  12
ENDBRANCH   3   6
ENDBRANCH   1   2
BRANCH   1  31
ATOM     31  C   UNL     1      -4.171   3.638  -2.446  1.00  0.00     0.023 C 
BRANCH  31  32
ATOM     32  C   UNL     1      -2.845   4.146  -3.027  1.00  0.00     0.023 C 
BRANCH  32  33
ATOM     33  C   UNL     1      -1.577   3.335  -2.736  1.00  0.00     0.116 C 
BRANCH  33  34
ATOM     34  N   UNL     1      -1.566   2.007  -3.332  1.00  0.00    -0.352 N 
ATOM     35  C   UNL     1      -0.579   1.280  -3.965  1.00  0.00     0.251 C 
ATOM     36  H   UNL     1      -2.429   1.537  -3.273  1.00  0.00     0.163 HD
ATOM     37  O   UNL     1      -0.884   0.170  -4.397  1.00  0.00    -0.269 OA
BRANCH  35  38
ATOM     38  C   UNL     1       0.829   1.756  -4.143  1.00  0.00     0.039 A 
ATOM     39  C   UNL     1       1.604   1.166  -5.158  1.00  0.00     0.014 A 
ATOM     40  C   UNL     1       1.438   2.694  -3.308  1.00  0.00     0.014 A 
ATOM     41  C   UNL     1       2.916   1.596  -5.399  1.00  0.00     0.010 A 
ATOM     42  C   UNL     1       2.735   3.138  -3.546  1.00  0.00     0.010 A 
ATOM     43  C   UNL     1       3.457   2.635  -4.629  1.00  0.00    -0.014 A 
BRANCH  43  44
ATOM     44  C   UNL     1       4.614   3.428  -5.096  1.00  0.00     0.031 A 
ATOM     45  C   UNL     1       5.933   3.411  -4.393  1.00  0.00     0.074 A 
ATOM     46  C   UNL     1       4.350   4.333  -6.058  1.00  0.00     0.049 A 
ATOM     47  N   UNL     1       7.018   4.085  -4.672  1.00  0.00    -0.248 NA
ATOM     48  C   UNL     1       6.042   2.551  -3.206  1.00  0.00     0.031 C 
ATOM     49  C   UNL     1       3.039   4.516  -6.695  1.00  0.00     0.029 A 
ATOM     50  N   UNL     1       5.132   5.295  -6.635  1.00  0.00    -0.354 N 
ATOM     51  C   UNL     1       7.949   3.723  -3.707  1.00  0.00     0.074 A 
ATOM     52  C   UNL     1       7.280   2.810  -2.802  1.00  0.00     0.031 C 
ATOM     53  C   UNL     1       3.110   5.524  -7.572  1.00  0.00     0.029 A 
ATOM     54  C   UNL     1       4.462   6.062  -7.555  1.00  0.00     0.049 A 
ATOM     55  H   UNL     1       6.083   5.424  -6.412  1.00  0.00     0.167 HD
ATOM     56  C   UNL     1       9.243   4.115  -3.605  1.00  0.00     0.037 A 
ATOM     57  C   UNL     1       4.895   7.082  -8.314  1.00  0.00     0.037 A 
ATOM     58  C   UNL     1       9.854   5.073  -4.495  1.00  0.00     0.049 A 
ATOM     59  C   UNL     1       6.337   7.472  -8.213  1.00  0.00     0.074 A 
ATOM     60  C   UNL     1      11.170   5.497  -4.546  1.00  0.00     0.029 A 
ATOM     61  N   UNL     1       9.170   5.780  -5.478  1.00  0.00    -0.354 N 
ATOM     62  N   UNL     1       7.259   7.005  -7.405  1.00  0.00    -0.248 NA
ATOM     63  C   UNL     1       6.808   8.502  -9.143  1.00  0.00     0.031 C 
ATOM     64  C   UNL     1      11.270   6.495  -5.524  1.00  0.00     0.029 A 
ATOM     65  C   UNL     1      10.030   6.653  -6.125  1.00  0.00     0.049 A 
ATOM     66  H   UNL     1       8.213   5.676  -5.684  1.00  0.00     0.167 HD
ATOM     67  C   UNL     1       8.431   7.659  -7.749  1.00  0.00     0.074 A 
ATOM     68  C   UNL     1       8.100   8.548  -8.848  1.00  0.00     0.031 C 
ATOM     69  C   UNL     1       9.669   7.532  -7.211  1.00  0.00     0.037 A 
BRANCH  56  70
ATOM     70  C   UNL     1      10.074   3.505  -2.508  1.00  0.00     0.057 A 
ATOM     71  C   UNL     1      10.391   2.138  -2.500  1.00  0.00     0.134 A 
ATOM     72  C   UNL     1      10.596   4.285  -1.468  1.00  0.00     0.134 A 
ATOM     73  F   UNL     1       9.931   1.327  -3.466  1.00  0.00    -0.206 F 
ATOM     74  C   UNL     1      11.161   1.566  -1.484  1.00  0.00     0.040 A 
ATOM     75  C   UNL     1      11.392   3.729  -0.461  1.00  0.00     0.040 A 
ATOM     76  F   UNL     1      10.352   5.603  -1.413  1.00  0.00    -0.206 F 
ATOM     77  C   UNL     1      11.668   2.364  -0.462  1.00  0.00     0.006 A 
ENDBRANCH  56  70
BRANCH  57  78
ATOM     78  C   UNL     1       3.972   7.701  -9.296  1.00  0.00     0.057 A 
ATOM     79  C   UNL     1       4.099   7.425 -10.661  1.00  0.00     0.134 A 
ATOM     80  C   UNL     1       2.897   8.505  -8.897  1.00  0.00     0.134 A 
ATOM     81  F   UNL     1       5.105   6.656 -11.103  1.00  0.00    -0.206 F 
ATOM     82  C   UNL     1       3.200   7.936 -11.598  1.00  0.00     0.040 A 
ATOM     83  C   UNL     1       1.978   9.005  -9.821  1.00  0.00     0.040 A 
ATOM     84  F   UNL     1       2.702   8.781  -7.599  1.00  0.00    -0.206 F 
ATOM     85  C   UNL     1       2.131   8.723 -11.177  1.00  0.00     0.006 A 
ENDBRANCH  57  78
BRANCH  69  86
ATOM     86  C   UNL     1      10.756   8.359  -7.829  1.00  0.00     0.057 A 
ATOM     87  C   UNL     1      10.823   9.746  -7.652  1.00  0.00     0.134 A 
ATOM     88  C   UNL     1      11.761   7.752  -8.592  1.00  0.00     0.134 A 
ATOM     89  F   UNL     1       9.879  10.389  -6.947  1.00  0.00    -0.206 F 
ATOM     90  C   UNL     1      11.839  10.505  -8.232  1.00  0.00     0.040 A 
ATOM     91  C   UNL     1      12.799   8.496  -9.153  1.00  0.00     0.040 A 
ATOM     92  F   UNL     1      11.755   6.426  -8.797  1.00  0.00    -0.206 F 
ATOM     93  C   UNL     1      12.836   9.878  -8.979  1.00  0.00     0.006 A 
ENDBRANCH  69  86
ENDBRANCH  43  44
ENDBRANCH  35  38
ENDBRANCH  33  34
ENDBRANCH  32  33
ENDBRANCH  31  32
ENDBRANCH   1  31
TORSDOF 16
