REMARK SMILES C[C@@]1(C(=O)NCCCCNC(=O)c2ccc(-c3c4nc(c(-c5c(F)cccc5F)c5ccc([nH]5)c(-c5c(F)cccc5F)c5nc(c(-c6c(F)cccc6F)c6ccc3[nH]6)C=C5)C=C4)cc2)[C@@H]2C=C[C@@]3(CN(c4ccccc4)C(=O)[C@H]13)O2
REMARK SMILES IDX 8 1 7 2 6 3 5 4 3 5 4 6 2 8 1 9 67 10 81 11 68 12 82 13
REMARK SMILES IDX 70 14 79 15 69 16 71 17 72 18 80 19 73 20 74 21 78 22 75 23
REMARK SMILES IDX 77 24 76 25 9 26 10 27 11 28 12 30 13 31 14 32 66 33 15 34
REMARK SMILES IDX 65 35 16 36 17 37 18 38 59 39 19 40 64 41 58 42 60 43 20 44
REMARK SMILES IDX 63 45 57 46 56 47 21 49 47 50 30 51 46 52 31 53 34 54 45 55
REMARK SMILES IDX 61 56 32 57 33 58 44 60 62 61 35 62 22 63 23 64 28 65 24 66
REMARK SMILES IDX 25 67 27 68 29 69 26 70 48 71 49 72 54 73 50 74 51 75 53 76
REMARK SMILES IDX 55 77 52 78 36 79 37 80 42 81 38 82 39 83 41 84 43 85 40 86
REMARK H PARENT 5 7 10 29 60 48 34 59
REMARK Flexibility Score: inf
ROOT
ATOM      1  C   UNL     1      -4.229  -2.560   2.787  1.00  0.00     0.023 C 
ENDROOT
BRANCH   1   2
ATOM      2  C   UNL     1      -2.765  -2.782   2.473  1.00  0.00     0.023 C 
BRANCH   2   3
ATOM      3  C   UNL     1      -2.333  -2.649   1.021  1.00  0.00     0.116 C 
BRANCH   3   4
ATOM      4  N   UNL     1      -1.900  -1.325   0.639  1.00  0.00    -0.356 N 
ATOM      5  C   UNL     1      -0.733  -0.768   0.240  1.00  0.00     0.229 C 
ATOM      6  O   UNL     1      -0.884   0.392  -0.180  1.00  0.00    -0.274 OA
ATOM      7  H   UNL     1      -2.632  -0.667   0.680  1.00  0.00     0.163 HD
BRANCH   5   8
ATOM      8  C   UNL     1       0.682  -1.400   0.204  1.00  0.00     0.091 C 
ATOM      9  C   UNL     1       1.678  -0.201   0.123  1.00  0.00     0.026 C 
ATOM     10  C   UNL     1       1.028  -2.326  -1.009  1.00  0.00     0.158 C 
ATOM     11  C   UNL     1       1.160  -2.309   1.335  1.00  0.00     0.135 C 
ATOM     12  C   UNL     1       0.036  -3.424  -1.189  1.00  0.00     0.004 C 
ATOM     13  O   UNL     1       2.146  -3.163  -0.432  1.00  0.00    -0.360 OA
ATOM     14  C   UNL     1       1.360  -3.670   0.654  1.00  0.00     0.118 C 
ATOM     15  C   UNL     1       0.550  -2.661   2.644  1.00  0.00     0.234 C 
ATOM     16  C   UNL     1       0.242  -4.258  -0.164  1.00  0.00     0.009 C 
ATOM     17  C   UNL     1       1.806  -4.514   1.831  1.00  0.00     0.166 C 
ATOM     18  N   UNL     1       0.938  -3.999   2.906  1.00  0.00    -0.309 N 
ATOM     19  O   UNL     1      -0.000  -1.854   3.372  1.00  0.00    -0.274 OA
BRANCH  18  20
ATOM     20  C   UNL     1       0.532  -4.769   4.029  1.00  0.00     0.044 A 
ATOM     21  C   UNL     1       1.141  -5.995   4.323  1.00  0.00     0.026 A 
ATOM     22  C   UNL     1      -0.525  -4.356   4.855  1.00  0.00     0.026 A 
ATOM     23  C   UNL     1       0.689  -6.790   5.384  1.00  0.00     0.002 A 
ATOM     24  C   UNL     1      -0.998  -5.161   5.897  1.00  0.00     0.002 A 
ATOM     25  C   UNL     1      -0.391  -6.381   6.160  1.00  0.00     0.000 A 
ENDBRANCH  18  20
ENDBRANCH   5   8
ENDBRANCH   3   4
ENDBRANCH   2   3
ENDBRANCH   1   2
BRANCH   1  26
ATOM     26  C   UNL     1      -5.211  -3.378   1.973  1.00  0.00     0.116 C 
BRANCH  26  27
ATOM     27  N   UNL     1      -4.960  -4.815   1.955  1.00  0.00    -0.352 N 
ATOM     28  C   UNL     1      -5.868  -5.846   2.089  1.00  0.00     0.251 C 
ATOM     29  H   UNL     1      -4.021  -5.084   1.832  1.00  0.00     0.163 HD
ATOM     30  O   UNL     1      -5.509  -7.014   2.065  1.00  0.00    -0.269 OA
BRANCH  28  31
ATOM     31  C   UNL     1      -7.285  -5.501   2.333  1.00  0.00     0.039 A 
ATOM     32  C   UNL     1      -7.918  -6.015   3.465  1.00  0.00     0.014 A 
ATOM     33  C   UNL     1      -7.914  -4.544   1.536  1.00  0.00     0.014 A 
ATOM     34  C   UNL     1      -9.139  -5.472   3.869  1.00  0.00     0.010 A 
ATOM     35  C   UNL     1      -9.061  -3.923   2.008  1.00  0.00     0.010 A 
ATOM     36  C   UNL     1      -9.684  -4.374   3.184  1.00  0.00    -0.014 A 
BRANCH  36  37
ATOM     37  C   UNL     1     -10.900  -3.672   3.668  1.00  0.00     0.031 A 
ATOM     38  C   UNL     1     -12.100  -3.560   2.767  1.00  0.00     0.074 A 
ATOM     39  C   UNL     1     -10.894  -3.049   4.864  1.00  0.00     0.049 A 
ATOM     40  N   UNL     1     -13.201  -2.874   2.935  1.00  0.00    -0.248 NA
ATOM     41  C   UNL     1     -12.028  -4.272   1.480  1.00  0.00     0.031 C 
ATOM     42  C   UNL     1      -9.768  -3.008   5.801  1.00  0.00     0.029 A 
ATOM     43  N   UNL     1     -11.871  -2.317   5.493  1.00  0.00    -0.354 N 
ATOM     44  C   UNL     1     -13.924  -3.033   1.760  1.00  0.00     0.074 A 
ATOM     45  C   UNL     1     -13.116  -3.833   0.867  1.00  0.00     0.031 C 
ATOM     46  C   UNL     1     -10.131  -2.321   6.897  1.00  0.00     0.029 A 
ATOM     47  C   UNL     1     -11.499  -1.845   6.729  1.00  0.00     0.049 A 
ATOM     48  H   UNL     1     -12.755  -2.147   5.095  1.00  0.00     0.167 HD
ATOM     49  C   UNL     1     -15.164  -2.582   1.461  1.00  0.00     0.037 A 
ATOM     50  C   UNL     1     -12.188  -1.112   7.624  1.00  0.00     0.037 A 
ATOM     51  C   UNL     1     -16.000  -1.859   2.378  1.00  0.00     0.049 A 
ATOM     52  C   UNL     1     -13.596  -0.696   7.304  1.00  0.00     0.074 A 
ATOM     53  C   UNL     1     -17.307  -1.439   2.208  1.00  0.00     0.029 A 
ATOM     54  N   UNL     1     -15.613  -1.466   3.650  1.00  0.00    -0.354 N 
ATOM     55  N   UNL     1     -14.292  -0.910   6.214  1.00  0.00    -0.248 NA
ATOM     56  C   UNL     1     -14.317   0.058   8.340  1.00  0.00     0.031 C 
ATOM     57  C   UNL     1     -17.708  -0.779   3.374  1.00  0.00     0.029 A 
ATOM     58  C   UNL     1     -16.657  -0.810   4.277  1.00  0.00     0.049 A 
ATOM     59  H   UNL     1     -14.727  -1.630   4.048  1.00  0.00     0.167 HD
ATOM     60  C   UNL     1     -15.537  -0.340   6.440  1.00  0.00     0.074 A 
ATOM     61  C   UNL     1     -15.507   0.218   7.776  1.00  0.00     0.031 C 
ATOM     62  C   UNL     1     -16.609  -0.279   5.614  1.00  0.00     0.037 A 
BRANCH  49  63
ATOM     63  C   UNL     1     -15.695  -2.889   0.093  1.00  0.00     0.057 A 
ATOM     64  C   UNL     1     -16.072  -4.186  -0.277  1.00  0.00     0.134 A 
ATOM     65  C   UNL     1     -15.839  -1.875  -0.862  1.00  0.00     0.134 A 
ATOM     66  F   UNL     1     -15.939  -5.204   0.587  1.00  0.00    -0.206 F 
ATOM     67  C   UNL     1     -16.545  -4.471  -1.558  1.00  0.00     0.040 A 
ATOM     68  C   UNL     1     -16.336  -2.143  -2.138  1.00  0.00     0.040 A 
ATOM     69  F   UNL     1     -15.498  -0.611  -0.571  1.00  0.00    -0.206 F 
ATOM     70  C   UNL     1     -16.684  -3.446  -2.491  1.00  0.00     0.006 A 
ENDBRANCH  49  63
BRANCH  50  71
ATOM     71  C   UNL     1     -11.577  -0.760   8.930  1.00  0.00     0.057 A 
ATOM     72  C   UNL     1     -11.998  -1.388  10.109  1.00  0.00     0.134 A 
ATOM     73  C   UNL     1     -10.578   0.213   9.038  1.00  0.00     0.134 A 
ATOM     74  F   UNL     1     -12.965  -2.316  10.070  1.00  0.00    -0.206 F 
ATOM     75  C   UNL     1     -11.462  -1.046  11.352  1.00  0.00     0.040 A 
ATOM     76  C   UNL     1     -10.019   0.551  10.272  1.00  0.00     0.040 A 
ATOM     77  F   UNL     1     -10.129   0.846   7.944  1.00  0.00    -0.206 F 
ATOM     78  C   UNL     1     -10.467  -0.074  11.435  1.00  0.00     0.006 A 
ENDBRANCH  50  71
BRANCH  62  79
ATOM     79  C   UNL     1     -17.844   0.381   6.145  1.00  0.00     0.057 A 
ATOM     80  C   UNL     1     -17.946   1.773   6.247  1.00  0.00     0.134 A 
ATOM     81  C   UNL     1     -18.958  -0.384   6.513  1.00  0.00     0.134 A 
ATOM     82  F   UNL     1     -16.907   2.557   5.920  1.00  0.00    -0.206 F 
ATOM     83  C   UNL     1     -19.111   2.383   6.712  1.00  0.00     0.040 A 
ATOM     84  C   UNL     1     -20.135   0.216   6.960  1.00  0.00     0.040 A 
ATOM     85  F   UNL     1     -18.922  -1.722   6.430  1.00  0.00    -0.206 F 
ATOM     86  C   UNL     1     -20.212   1.603   7.064  1.00  0.00     0.006 A 
ENDBRANCH  62  79
ENDBRANCH  36  37
ENDBRANCH  28  31
ENDBRANCH  26  27
ENDBRANCH   1  26
TORSDOF 12
