REMARK SMILES CC(C)(C)N(CC(=O)NCCCCNC(=O)c1ccc(-c2c3nc(c(-c4c(F)cccc4F)c4ccc([nH]4)c(-c4c(F)cccc4F)c4nc(c(-c5c(F)cccc5F)c5ccc2[nH]5)C=C4)C=C3)cc1)C(=O)NCCc1cnc[nH]1
REMARK SMILES IDX 10 1 9 2 7 3 8 4 6 6 5 7 2 8 1 9 3 10 4 11 71 12 72 13 73 14
REMARK SMILES IDX 74 16 75 17 76 18 77 19 80 20 78 21 79 22 11 24 12 25 13 26
REMARK SMILES IDX 14 27 15 28 16 30 17 31 18 32 70 33 19 34 69 35 20 36 21 37
REMARK SMILES IDX 22 38 63 39 23 40 68 41 62 42 64 43 24 44 67 45 61 46 60 47
REMARK SMILES IDX 25 49 51 50 34 51 50 52 35 53 38 54 49 55 65 56 36 57 37 58
REMARK SMILES IDX 48 60 66 61 39 62 26 63 27 64 32 65 28 66 29 67 31 68 33 69
REMARK SMILES IDX 30 70 52 71 53 72 58 73 54 74 55 75 57 76 59 77 56 78 40 79
REMARK SMILES IDX 41 80 46 81 42 82 43 83 45 84 47 85 44 86
REMARK H PARENT 9 5 73 15 80 23 14 29 64 48 38 59
REMARK Flexibility Score: inf
ROOT
ATOM      1  C   UNL     1       3.886  -0.818  -1.426  1.00  0.00     0.116 C 
ENDROOT
BRANCH   1   2
ATOM      2  N   UNL     1       4.174   0.449  -2.052  1.00  0.00    -0.355 N 
ATOM      3  C   UNL     1       3.377   1.552  -2.115  1.00  0.00     0.239 C 
ATOM      4  O   UNL     1       3.921   2.624  -2.407  1.00  0.00    -0.273 OA
ATOM      5  H   UNL     1       5.053   0.526  -2.488  1.00  0.00     0.163 HD
BRANCH   3   6
ATOM      6  C   UNL     1       1.902   1.517  -1.665  1.00  0.00     0.221 C 
BRANCH   6   7
ATOM      7  N   UNL     1       1.046   0.426  -2.160  1.00  0.00    -0.311 N 
BRANCH   7   8
ATOM      8  C   UNL     1       0.169  -0.341  -1.169  1.00  0.00     0.037 C 
ATOM      9  C   UNL     1       0.412   0.015   0.324  1.00  0.00     0.034 C 
ATOM     10  C   UNL     1       0.372  -1.876  -1.256  1.00  0.00     0.034 C 
ATOM     11  C   UNL     1      -1.323  -0.017  -1.427  1.00  0.00     0.034 C 
ENDBRANCH   7   8
BRANCH   7  12
ATOM     12  C   UNL     1       0.799   0.224  -3.503  1.00  0.00     0.318 C 
ATOM     13  O   UNL     1       0.160  -0.748  -3.917  1.00  0.00    -0.249 OA
ATOM     14  N   UNL     1       1.203   1.037  -4.491  1.00  0.00    -0.338 N 
ATOM     15  H   UNL     1       1.061   0.601  -5.362  1.00  0.00     0.165 HD
BRANCH  14  16
ATOM     16  C   UNL     1       1.787   2.359  -4.687  1.00  0.00     0.124 C 
BRANCH  16  17
ATOM     17  C   UNL     1       3.161   2.285  -5.368  1.00  0.00     0.077 C 
BRANCH  17  18
ATOM     18  C   UNL     1       3.054   2.108  -6.846  1.00  0.00     0.036 A 
ATOM     19  C   UNL     1       2.986   0.988  -7.646  1.00  0.00     0.134 A 
ATOM     20  N   UNL     1       3.023   3.163  -7.724  1.00  0.00    -0.348 N 
ATOM     21  N   UNL     1       2.897   1.338  -8.969  1.00  0.00    -0.245 NA
ATOM     22  C   UNL     1       2.922   2.650  -8.985  1.00  0.00     0.196 A 
ATOM     23  H   UNL     1       3.065   4.118  -7.487  1.00  0.00     0.167 HD
ENDBRANCH  17  18
ENDBRANCH  16  17
ENDBRANCH  14  16
ENDBRANCH   7  12
ENDBRANCH   6   7
ENDBRANCH   3   6
ENDBRANCH   1   2
BRANCH   1  24
ATOM     24  C   UNL     1       3.690  -1.948  -2.430  1.00  0.00     0.023 C 
BRANCH  24  25
ATOM     25  C   UNL     1       4.968  -2.441  -3.106  1.00  0.00     0.023 C 
BRANCH  25  26
ATOM     26  C   UNL     1       6.111  -2.797  -2.162  1.00  0.00     0.116 C 
BRANCH  26  27
ATOM     27  N   UNL     1       5.736  -3.701  -1.083  1.00  0.00    -0.352 N 
ATOM     28  C   UNL     1       6.495  -4.677  -0.481  1.00  0.00     0.251 C 
ATOM     29  H   UNL     1       4.819  -3.600  -0.739  1.00  0.00     0.163 HD
ATOM     30  O   UNL     1       6.016  -5.393   0.392  1.00  0.00    -0.269 OA
BRANCH  28  31
ATOM     31  C   UNL     1       7.881  -4.888  -0.939  1.00  0.00     0.039 A 
ATOM     32  C   UNL     1       8.274  -6.174  -1.318  1.00  0.00     0.014 A 
ATOM     33  C   UNL     1       8.758  -3.809  -1.068  1.00  0.00     0.014 A 
ATOM     34  C   UNL     1       9.523  -6.363  -1.912  1.00  0.00     0.010 A 
ATOM     35  C   UNL     1       9.968  -3.986  -1.727  1.00  0.00     0.010 A 
ATOM     36  C   UNL     1      10.357  -5.262  -2.164  1.00  0.00    -0.014 A 
BRANCH  36  37
ATOM     37  C   UNL     1      11.636  -5.416  -2.899  1.00  0.00     0.031 A 
ATOM     38  C   UNL     1      12.936  -5.095  -2.219  1.00  0.00     0.074 A 
ATOM     39  C   UNL     1      11.618  -5.752  -4.203  1.00  0.00     0.049 A 
ATOM     40  N   UNL     1      14.145  -5.069  -2.718  1.00  0.00    -0.248 NA
ATOM     41  C   UNL     1      12.862  -4.719  -0.799  1.00  0.00     0.031 C 
ATOM     42  C   UNL     1      10.416  -6.024  -4.993  1.00  0.00     0.029 A 
ATOM     43  N   UNL     1      12.646  -5.906  -5.099  1.00  0.00    -0.354 N 
ATOM     44  C   UNL     1      14.969  -4.649  -1.682  1.00  0.00     0.074 A 
ATOM     45  C   UNL     1      14.118  -4.386  -0.543  1.00  0.00     0.031 C 
ATOM     46  C   UNL     1      10.776  -6.332  -6.250  1.00  0.00     0.029 A 
ATOM     47  C   UNL     1      12.228  -6.247  -6.362  1.00  0.00     0.049 A 
ATOM     48  H   UNL     1      13.593  -5.784  -4.859  1.00  0.00     0.167 HD
ATOM     49  C   UNL     1      16.317  -4.515  -1.675  1.00  0.00     0.037 A 
ATOM     50  C   UNL     1      12.938  -6.463  -7.486  1.00  0.00     0.037 A 
ATOM     51  C   UNL     1      17.164  -4.817  -2.797  1.00  0.00     0.049 A 
ATOM     52  C   UNL     1      14.434  -6.343  -7.444  1.00  0.00     0.074 A 
ATOM     53  C   UNL     1      18.546  -4.793  -2.866  1.00  0.00     0.029 A 
ATOM     54  N   UNL     1      16.707  -5.203  -4.049  1.00  0.00    -0.354 N 
ATOM     55  N   UNL     1      15.208  -6.014  -6.439  1.00  0.00    -0.248 NA
ATOM     56  C   UNL     1      15.157  -6.630  -8.692  1.00  0.00     0.031 C 
ATOM     57  C   UNL     1      18.924  -5.134  -4.170  1.00  0.00     0.029 A 
ATOM     58  C   UNL     1      17.779  -5.405  -4.902  1.00  0.00     0.049 A 
ATOM     59  H   UNL     1      15.760  -5.316  -4.294  1.00  0.00     0.167 HD
ATOM     60  C   UNL     1      16.508  -6.076  -6.924  1.00  0.00     0.074 A 
ATOM     61  C   UNL     1      16.418  -6.485  -8.310  1.00  0.00     0.031 C 
ATOM     62  C   UNL     1      17.671  -5.816  -6.278  1.00  0.00     0.037 A 
BRANCH  49  63
ATOM     63  C   UNL     1      16.950  -4.026  -0.407  1.00  0.00     0.057 A 
ATOM     64  C   UNL     1      17.012  -4.824   0.743  1.00  0.00     0.134 A 
ATOM     65  C   UNL     1      17.513  -2.746  -0.336  1.00  0.00     0.134 A 
ATOM     66  F   UNL     1      16.477  -6.055   0.745  1.00  0.00    -0.206 F 
ATOM     67  C   UNL     1      17.582  -4.355   1.927  1.00  0.00     0.040 A 
ATOM     68  C   UNL     1      18.109  -2.275   0.835  1.00  0.00     0.040 A 
ATOM     69  F   UNL     1      17.491  -1.931  -1.402  1.00  0.00    -0.206 F 
ATOM     70  C   UNL     1      18.137  -3.078   1.973  1.00  0.00     0.006 A 
ENDBRANCH  49  63
BRANCH  50  71
ATOM     71  C   UNL     1      12.239  -6.849  -8.736  1.00  0.00     0.057 A 
ATOM     72  C   UNL     1      12.307  -8.160  -9.220  1.00  0.00     0.134 A 
ATOM     73  C   UNL     1      11.482  -5.927  -9.467  1.00  0.00     0.134 A 
ATOM     74  F   UNL     1      13.033  -9.082  -8.571  1.00  0.00    -0.206 F 
ATOM     75  C   UNL     1      11.656  -8.540 -10.395  1.00  0.00     0.040 A 
ATOM     76  C   UNL     1      10.808  -6.298 -10.632  1.00  0.00     0.040 A 
ATOM     77  F   UNL     1      11.373  -4.657  -9.049  1.00  0.00    -0.206 F 
ATOM     78  C   UNL     1      10.899  -7.607 -11.101  1.00  0.00     0.006 A 
ENDBRANCH  50  71
BRANCH  62  79
ATOM     79  C   UNL     1      18.939  -5.992  -7.056  1.00  0.00     0.057 A 
ATOM     80  C   UNL     1      19.341  -5.067  -8.027  1.00  0.00     0.134 A 
ATOM     81  C   UNL     1      19.787  -7.077  -6.801  1.00  0.00     0.134 A 
ATOM     82  F   UNL     1      18.565  -4.014  -8.326  1.00  0.00    -0.206 F 
ATOM     83  C   UNL     1      20.536  -5.224  -8.730  1.00  0.00     0.040 A 
ATOM     84  C   UNL     1      20.995  -7.233  -7.482  1.00  0.00     0.040 A 
ATOM     85  F   UNL     1      19.461  -7.994  -5.878  1.00  0.00    -0.206 F 
ATOM     86  C   UNL     1      21.370  -6.306  -8.453  1.00  0.00     0.006 A 
ENDBRANCH  62  79
ENDBRANCH  36  37
ENDBRANCH  28  31
ENDBRANCH  26  27
ENDBRANCH  25  26
ENDBRANCH  24  25
ENDBRANCH   1  24
TORSDOF 17
