REMARK SMILES CCn1c(N2CCC(C(=O)NCCCCNC(=O)c3ccc(-c4c5nc(c(-c6c(F)cccc6F)c6ccc([nH]6)c(-c6c(F)cccc6F)c6nc(c(-c7c(F)cccc7F)c7ccc4[nH]7)C=C6)C=C5)cc3)CC2)nc2cc(C)ccc21
REMARK SMILES IDX 13 1 12 2 11 3 9 4 10 5 8 7 5 8 6 9 74 10 7 11 73 12 4 13
REMARK SMILES IDX 3 14 82 15 75 16 76 17 81 18 77 19 80 20 78 21 79 22 2 23
REMARK SMILES IDX 1 24 14 25 15 26 16 27 17 28 18 30 19 31 20 32 72 33 21 34
REMARK SMILES IDX 71 35 22 36 23 37 24 38 65 39 25 40 70 41 64 42 66 43 26 44
REMARK SMILES IDX 69 45 63 46 62 47 27 49 53 50 36 51 52 52 37 53 40 54 51 55
REMARK SMILES IDX 67 56 38 57 39 58 50 60 68 61 41 62 28 63 29 64 34 65 30 66
REMARK SMILES IDX 31 67 33 68 35 69 32 70 54 71 55 72 60 73 56 74 57 75 59 76
REMARK SMILES IDX 61 77 58 78 42 79 43 80 48 81 44 82 45 83 47 84 49 85 46 86
REMARK H PARENT 11 6 16 29 66 48 40 59
REMARK Flexibility Score: inf
ROOT
ATOM      1  C   UNL     1      -1.040   6.603   3.656  1.00  0.00     0.023 C 
ENDROOT
BRANCH   1   2
ATOM      2  C   UNL     1      -1.886   5.612   2.869  1.00  0.00     0.116 C 
BRANCH   2   3
ATOM      3  N   UNL     1      -2.411   6.201   1.645  1.00  0.00    -0.356 N 
ATOM      4  C   UNL     1      -2.298   5.790   0.352  1.00  0.00     0.223 C 
ATOM      5  O   UNL     1      -2.866   6.452  -0.519  1.00  0.00    -0.275 OA
ATOM      6  H   UNL     1      -2.930   7.028   1.774  1.00  0.00     0.163 HD
BRANCH   4   7
ATOM      7  C   UNL     1      -1.514   4.540  -0.012  1.00  0.00     0.082 C 
ATOM      8  N   UNL     1       0.002   2.368   1.029  1.00  0.00    -0.342 N 
ATOM      9  C   UNL     1       0.744   3.401   0.326  1.00  0.00     0.120 C 
ATOM     10  C   UNL     1      -1.329   2.055   0.548  1.00  0.00     0.120 C 
ATOM     11  C   UNL     1      -0.023   4.711   0.314  1.00  0.00     0.035 C 
ATOM     12  C   UNL     1      -2.203   3.297   0.569  1.00  0.00     0.035 C 
BRANCH   8  13
ATOM     13  C   UNL     1       0.533   1.802   2.139  1.00  0.00     0.206 A 
ATOM     14  N   UNL     1       0.754   0.441   2.245  1.00  0.00    -0.310 N 
ATOM     15  C   UNL     1       1.375   0.202   3.454  1.00  0.00     0.070 A 
ATOM     16  N   UNL     1       1.011   2.435   3.188  1.00  0.00    -0.213 NA
ATOM     17  C   UNL     1       1.502   1.463   4.026  1.00  0.00     0.091 A 
ATOM     18  C   UNL     1       1.836  -0.961   4.086  1.00  0.00     0.029 A 
ATOM     19  C   UNL     1       2.088   1.584   5.299  1.00  0.00     0.034 A 
ATOM     20  C   UNL     1       2.421  -0.820   5.350  1.00  0.00     0.006 A 
ATOM     21  C   UNL     1       2.547   0.431   5.965  1.00  0.00    -0.049 A 
ATOM     22  C   UNL     1       3.156   0.550   7.332  1.00  0.00     0.044 C 
BRANCH  14  23
ATOM     23  C   UNL     1       0.450  -0.571   1.253  1.00  0.00     0.122 C 
ATOM     24  C   UNL     1       1.227  -0.425  -0.047  1.00  0.00     0.028 C 
ENDBRANCH  14  23
ENDBRANCH   8  13
ENDBRANCH   4   7
ENDBRANCH   2   3
ENDBRANCH   1   2
BRANCH   1  25
ATOM     25  C   UNL     1      -1.815   7.803   4.203  1.00  0.00     0.023 C 
BRANCH  25  26
ATOM     26  C   UNL     1      -3.093   7.447   4.969  1.00  0.00     0.116 C 
BRANCH  26  27
ATOM     27  N   UNL     1      -2.901   6.480   6.031  1.00  0.00    -0.352 N 
ATOM     28  C   UNL     1      -2.467   6.545   7.328  1.00  0.00     0.251 C 
ATOM     29  H   UNL     1      -3.138   5.565   5.756  1.00  0.00     0.163 HD
ATOM     30  O   UNL     1      -2.540   5.510   7.982  1.00  0.00    -0.269 OA
BRANCH  28  31
ATOM     31  C   UNL     1      -1.883   7.757   7.967  1.00  0.00     0.039 A 
ATOM     32  C   UNL     1      -1.811   9.022   7.388  1.00  0.00     0.014 A 
ATOM     33  C   UNL     1      -1.337   7.580   9.253  1.00  0.00     0.014 A 
ATOM     34  C   UNL     1      -1.134  10.055   8.021  1.00  0.00     0.010 A 
ATOM     35  C   UNL     1      -0.694   8.624   9.913  1.00  0.00     0.010 A 
ATOM     36  C   UNL     1      -0.558   9.853   9.275  1.00  0.00    -0.014 A 
BRANCH  36  37
ATOM     37  C   UNL     1       0.073  11.010   9.907  1.00  0.00     0.031 A 
ATOM     38  C   UNL     1      -0.833  12.168  10.149  1.00  0.00     0.074 A 
ATOM     39  C   UNL     1       1.348  11.024  10.345  1.00  0.00     0.049 A 
ATOM     40  N   UNL     1      -0.703  13.388   9.738  1.00  0.00    -0.248 NA
ATOM     41  C   UNL     1      -2.082  11.915  10.886  1.00  0.00     0.031 C 
ATOM     42  C   UNL     1       2.250   9.874  10.447  1.00  0.00     0.029 A 
ATOM     43  N   UNL     1       2.075  12.046  10.894  1.00  0.00    -0.354 N 
ATOM     44  C   UNL     1      -1.747  14.100  10.326  1.00  0.00     0.074 A 
ATOM     45  C   UNL     1      -2.632  13.129  10.913  1.00  0.00     0.031 C 
ATOM     46  C   UNL     1       3.303  10.207  11.222  1.00  0.00     0.029 A 
ATOM     47  C   UNL     1       3.223  11.623  11.545  1.00  0.00     0.049 A 
ATOM     48  H   UNL     1       1.808  12.992  10.832  1.00  0.00     0.167 HD
ATOM     49  C   UNL     1      -1.666  15.445  10.511  1.00  0.00     0.037 A 
ATOM     50  C   UNL     1       4.044  12.351  12.336  1.00  0.00     0.037 A 
ATOM     51  C   UNL     1      -0.648  16.044   9.694  1.00  0.00     0.049 A 
ATOM     52  C   UNL     1       3.874  13.788  12.031  1.00  0.00     0.074 A 
ATOM     53  C   UNL     1      -0.523  16.535   8.414  1.00  0.00     0.029 A 
ATOM     54  N   UNL     1       0.607  15.951  10.219  1.00  0.00    -0.354 N 
ATOM     55  N   UNL     1       4.248  14.345  10.915  1.00  0.00    -0.248 NA
ATOM     56  C   UNL     1       3.033  14.616  12.892  1.00  0.00     0.031 C 
ATOM     57  C   UNL     1       0.877  16.629   8.150  1.00  0.00     0.029 A 
ATOM     58  C   UNL     1       1.568  16.193   9.276  1.00  0.00     0.049 A 
ATOM     59  H   UNL     1       0.798  15.735  11.160  1.00  0.00     0.167 HD
ATOM     60  C   UNL     1       3.368  15.393  10.749  1.00  0.00     0.074 A 
ATOM     61  C   UNL     1       2.784  15.630  12.060  1.00  0.00     0.031 C 
ATOM     62  C   UNL     1       2.917  15.739   9.511  1.00  0.00     0.037 A 
BRANCH  49  63
ATOM     63  C   UNL     1      -2.134  16.152  11.767  1.00  0.00     0.057 A 
ATOM     64  C   UNL     1      -2.269  15.517  13.019  1.00  0.00     0.134 A 
ATOM     65  C   UNL     1      -2.105  17.559  11.812  1.00  0.00     0.134 A 
ATOM     66  F   UNL     1      -2.224  14.186  13.154  1.00  0.00    -0.206 F 
ATOM     67  C   UNL     1      -2.346  16.223  14.223  1.00  0.00     0.040 A 
ATOM     68  C   UNL     1      -2.133  18.274  13.017  1.00  0.00     0.040 A 
ATOM     69  F   UNL     1      -1.966  18.282  10.690  1.00  0.00    -0.206 F 
ATOM     70  C   UNL     1      -2.245  17.605  14.229  1.00  0.00     0.006 A 
ENDBRANCH  49  63
BRANCH  50  71
ATOM     71  C   UNL     1       4.869  11.887  13.470  1.00  0.00     0.057 A 
ATOM     72  C   UNL     1       4.443  10.835  14.300  1.00  0.00     0.134 A 
ATOM     73  C   UNL     1       5.973  12.623  13.921  1.00  0.00     0.134 A 
ATOM     74  F   UNL     1       3.349  10.119  14.002  1.00  0.00    -0.206 F 
ATOM     75  C   UNL     1       5.072  10.536  15.511  1.00  0.00     0.040 A 
ATOM     76  C   UNL     1       6.606  12.342  15.137  1.00  0.00     0.040 A 
ATOM     77  F   UNL     1       6.428  13.669  13.217  1.00  0.00    -0.206 F 
ATOM     78  C   UNL     1       6.150  11.300  15.940  1.00  0.00     0.006 A 
ENDBRANCH  50  71
BRANCH  62  79
ATOM     79  C   UNL     1       3.789  15.413   8.345  1.00  0.00     0.057 A 
ATOM     80  C   UNL     1       4.340  16.466   7.608  1.00  0.00     0.134 A 
ATOM     81  C   UNL     1       4.070  14.111   7.916  1.00  0.00     0.134 A 
ATOM     82  F   UNL     1       4.074  17.739   7.942  1.00  0.00    -0.206 F 
ATOM     83  C   UNL     1       5.157  16.238   6.500  1.00  0.00     0.040 A 
ATOM     84  C   UNL     1       4.912  13.868   6.828  1.00  0.00     0.040 A 
ATOM     85  F   UNL     1       3.519  13.049   8.520  1.00  0.00    -0.206 F 
ATOM     86  C   UNL     1       5.457  14.934   6.116  1.00  0.00     0.006 A 
ENDBRANCH  62  79
ENDBRANCH  36  37
ENDBRANCH  28  31
ENDBRANCH  26  27
ENDBRANCH  25  26
ENDBRANCH   1  25
TORSDOF 13
