REMARK SMILES Cc1cc(C)c2c(C(=O)NCCCCNC(=O)c3ccc(-c4c5nc(c(-c6c(F)cccc6F)c6ccc([nH]6)c(-c6c(F)cccc6F)c6nc(c(-c7c(F)cccc7F)c7ccc4[nH]7)C=C6)C=C5)cc3)cc(-c3ccco3)nc2c1
REMARK SMILES IDX 13 1 12 2 11 3 10 4 8 5 9 6 7 8 1 9 2 10 3 11 81 12 4 13
REMARK SMILES IDX 80 14 5 15 6 16 79 17 73 18 72 19 74 20 75 21 78 22 76 23
REMARK SMILES IDX 77 24 14 25 15 26 16 27 17 29 18 30 19 31 71 32 20 33 70 34
REMARK SMILES IDX 21 35 22 36 23 37 64 38 24 39 69 40 63 41 65 42 25 43 68 44
REMARK SMILES IDX 62 45 61 46 26 48 52 49 35 50 51 51 36 52 39 53 50 54 66 55
REMARK SMILES IDX 37 56 38 57 49 59 67 60 40 61 27 62 28 63 33 64 29 65 30 66
REMARK SMILES IDX 32 67 34 68 31 69 53 70 54 71 59 72 55 73 56 74 58 75 60 76
REMARK SMILES IDX 57 77 41 78 42 79 47 80 43 81 44 82 46 83 48 84 45 85
REMARK H PARENT 10 7 15 28 65 47 39 58
REMARK Flexibility Score: inf
ROOT
ATOM      1  C   UNL     1      -3.211   2.346   5.248  1.00  0.00     0.023 C 
ENDROOT
BRANCH   1   2
ATOM      2  C   UNL     1      -3.276   1.169   4.268  1.00  0.00     0.023 C 
BRANCH   2   3
ATOM      3  C   UNL     1      -2.102   0.192   4.305  1.00  0.00     0.116 C 
BRANCH   3   4
ATOM      4  N   UNL     1      -1.798  -0.345   5.623  1.00  0.00    -0.352 N 
ATOM      5  C   UNL     1      -0.965  -1.382   5.986  1.00  0.00     0.252 C 
ATOM      6  O   UNL     1      -0.847  -1.661   7.177  1.00  0.00    -0.269 OA
ATOM      7  H   UNL     1      -2.259   0.101   6.370  1.00  0.00     0.163 HD
BRANCH   5   8
ATOM      8  C   UNL     1      -0.289  -2.235   4.973  1.00  0.00     0.051 A 
ATOM      9  C   UNL     1       1.398  -0.427  -0.151  1.00  0.00     0.044 C 
ATOM     10  C   UNL     1       1.145  -0.895   1.249  1.00  0.00    -0.049 A 
ATOM     11  C   UNL     1       1.278  -0.023   2.324  1.00  0.00     0.007 A 
ATOM     12  C   UNL     1       0.859  -2.235   1.518  1.00  0.00     0.032 A 
ATOM     13  C   UNL     1       0.950  -0.440   3.623  1.00  0.00    -0.041 A 
ATOM     14  C   UNL     1       0.531  -2.680   2.789  1.00  0.00     0.072 A 
ATOM     15  C   UNL     1       1.355   0.473   4.754  1.00  0.00     0.045 C 
ATOM     16  C   UNL     1       0.395  -1.743   3.830  1.00  0.00     0.016 A 
ATOM     17  N   UNL     1       0.349  -3.997   2.957  1.00  0.00    -0.244 NA
ATOM     18  C   UNL     1      -0.041  -4.455   4.165  1.00  0.00     0.107 A 
ATOM     19  C   UNL     1      -0.458  -3.611   5.168  1.00  0.00     0.046 A 
BRANCH  18  20
ATOM     20  C   UNL     1       0.041  -5.894   4.347  1.00  0.00     0.152 A 
ATOM     21  C   UNL     1      -0.794  -6.866   4.864  1.00  0.00     0.052 A 
ATOM     22  O   UNL     1       1.241  -6.459   4.009  1.00  0.00    -0.463 OA
ATOM     23  C   UNL     1      -0.067  -8.084   4.831  1.00  0.00     0.043 A 
ATOM     24  C   UNL     1       1.168  -7.779   4.311  1.00  0.00     0.196 A 
ENDBRANCH  18  20
ENDBRANCH   5   8
ENDBRANCH   3   4
ENDBRANCH   2   3
ENDBRANCH   1   2
BRANCH   1  25
ATOM     25  C   UNL     1      -1.862   3.052   5.381  1.00  0.00     0.116 C 
BRANCH  25  26
ATOM     26  N   UNL     1      -1.463   3.788   4.191  1.00  0.00    -0.352 N 
ATOM     27  C   UNL     1      -1.491   5.142   3.939  1.00  0.00     0.251 C 
ATOM     28  H   UNL     1      -1.120   3.233   3.453  1.00  0.00     0.163 HD
ATOM     29  O   UNL     1      -1.179   5.579   2.841  1.00  0.00    -0.269 OA
BRANCH  27  30
ATOM     30  C   UNL     1      -1.958   6.067   4.994  1.00  0.00     0.039 A 
ATOM     31  C   UNL     1      -3.044   6.899   4.718  1.00  0.00     0.014 A 
ATOM     32  C   UNL     1      -1.365   6.072   6.259  1.00  0.00     0.014 A 
ATOM     33  C   UNL     1      -3.612   7.652   5.747  1.00  0.00     0.010 A 
ATOM     34  C   UNL     1      -1.972   6.771   7.300  1.00  0.00     0.010 A 
ATOM     35  C   UNL     1      -3.116   7.547   7.058  1.00  0.00    -0.014 A 
BRANCH  35  36
ATOM     36  C   UNL     1      -3.828   8.198   8.186  1.00  0.00     0.031 A 
ATOM     37  C   UNL     1      -3.200   9.332   8.940  1.00  0.00     0.074 A 
ATOM     38  C   UNL     1      -5.034   7.725   8.561  1.00  0.00     0.049 A 
ATOM     39  N   UNL     1      -3.688  10.033   9.932  1.00  0.00    -0.248 NA
ATOM     40  C   UNL     1      -1.837   9.715   8.544  1.00  0.00     0.031 C 
ATOM     41  C   UNL     1      -5.724   6.585   7.953  1.00  0.00     0.029 A 
ATOM     42  N   UNL     1      -5.893   8.146   9.544  1.00  0.00    -0.354 N 
ATOM     43  C   UNL     1      -2.699  10.946  10.271  1.00  0.00     0.074 A 
ATOM     44  C   UNL     1      -1.559  10.666   9.424  1.00  0.00     0.031 C 
ATOM     45  C   UNL     1      -6.912   6.417   8.556  1.00  0.00     0.029 A 
ATOM     46  C   UNL     1      -7.059   7.423   9.603  1.00  0.00     0.049 A 
ATOM     47  H   UNL     1      -5.691   8.895  10.151  1.00  0.00     0.167 HD
ATOM     48  C   UNL     1      -2.744  11.946  11.184  1.00  0.00     0.037 A 
ATOM     49  C   UNL     1      -8.133   7.566  10.402  1.00  0.00     0.037 A 
ATOM     50  C   UNL     1      -3.875  12.226  12.030  1.00  0.00     0.049 A 
ATOM     51  C   UNL     1      -8.154   8.677  11.414  1.00  0.00     0.074 A 
ATOM     52  C   UNL     1      -4.035  13.243  12.955  1.00  0.00     0.029 A 
ATOM     53  N   UNL     1      -5.042  11.476  12.056  1.00  0.00    -0.354 N 
ATOM     54  N   UNL     1      -7.245   9.588  11.663  1.00  0.00    -0.248 NA
ATOM     55  C   UNL     1      -9.360   8.784  12.248  1.00  0.00     0.031 C 
ATOM     56  C   UNL     1      -5.287  13.091  13.563  1.00  0.00     0.029 A 
ATOM     57  C   UNL     1      -5.920  11.999  12.992  1.00  0.00     0.049 A 
ATOM     58  H   UNL     1      -5.220  10.689  11.493  1.00  0.00     0.167 HD
ATOM     59  C   UNL     1      -7.779  10.393  12.660  1.00  0.00     0.074 A 
ATOM     60  C   UNL     1      -9.098   9.871  12.958  1.00  0.00     0.031 C 
ATOM     61  C   UNL     1      -7.228  11.468  13.276  1.00  0.00     0.037 A 
BRANCH  48  62
ATOM     62  C   UNL     1      -1.528  12.816  11.295  1.00  0.00     0.057 A 
ATOM     63  C   UNL     1      -0.686  12.742  12.410  1.00  0.00     0.134 A 
ATOM     64  C   UNL     1      -1.191  13.731  10.288  1.00  0.00     0.134 A 
ATOM     65  F   UNL     1      -0.953  11.890  13.411  1.00  0.00    -0.206 F 
ATOM     66  C   UNL     1       0.455  13.540  12.515  1.00  0.00     0.040 A 
ATOM     67  C   UNL     1      -0.041  14.517  10.371  1.00  0.00     0.040 A 
ATOM     68  F   UNL     1      -1.950  13.839   9.187  1.00  0.00    -0.206 F 
ATOM     69  C   UNL     1       0.784  14.425  11.489  1.00  0.00     0.006 A 
ENDBRANCH  48  62
BRANCH  49  70
ATOM     70  C   UNL     1      -9.303   6.667  10.254  1.00  0.00     0.057 A 
ATOM     71  C   UNL     1      -9.264   5.337  10.686  1.00  0.00     0.134 A 
ATOM     72  C   UNL     1     -10.503   7.136   9.708  1.00  0.00     0.134 A 
ATOM     73  F   UNL     1      -8.141   4.827  11.212  1.00  0.00    -0.206 F 
ATOM     74  C   UNL     1     -10.381   4.505  10.585  1.00  0.00     0.040 A 
ATOM     75  C   UNL     1     -11.633   6.323   9.620  1.00  0.00     0.040 A 
ATOM     76  F   UNL     1     -10.604   8.408   9.296  1.00  0.00    -0.206 F 
ATOM     77  C   UNL     1     -11.573   5.002  10.059  1.00  0.00     0.006 A 
ENDBRANCH  49  70
BRANCH  61  78
ATOM     78  C   UNL     1      -8.069  12.158  14.308  1.00  0.00     0.057 A 
ATOM     79  C   UNL     1      -8.646  13.405  14.041  1.00  0.00     0.134 A 
ATOM     80  C   UNL     1      -8.311  11.587  15.564  1.00  0.00     0.134 A 
ATOM     81  F   UNL     1      -8.450  14.008  12.858  1.00  0.00    -0.206 F 
ATOM     82  C   UNL     1      -9.441  14.057  14.984  1.00  0.00     0.040 A 
ATOM     83  C   UNL     1      -9.123  12.218  16.507  1.00  0.00     0.040 A 
ATOM     84  F   UNL     1      -7.801  10.385  15.874  1.00  0.00    -0.206 F 
ATOM     85  C   UNL     1      -9.688  13.460  16.219  1.00  0.00     0.006 A 
ENDBRANCH  61  78
ENDBRANCH  35  36
ENDBRANCH  27  30
ENDBRANCH  25  26
ENDBRANCH   1  25
TORSDOF 12
