REMARK SMILES [NH3+][C@@H](Cc1cn(-c2nc(Cl)nc(N3CCOCC3)n2)c2ccccc12)C(=O)NCCCCNC(=O)c1ccc(-c2c3nc(c(-c4c(F)cccc4F)c4ccc([nH]4)c(-c4c(F)cccc4F)c4nc(c(-c5c(F)cccc5F)c5ccc2[nH]5)C=C4)C=C3)cc1
REMARK SMILES IDX 29 1 28 2 26 3 27 4 2 6 1 7 3 11 4 12 5 13 25 14 6 15 20 16
REMARK SMILES IDX 24 17 21 18 23 19 22 20 7 21 8 22 19 23 9 24 12 25 10 26
REMARK SMILES IDX 11 27 13 28 14 29 18 30 15 31 17 32 16 33 30 34 31 35 32 36
REMARK SMILES IDX 33 37 34 38 35 40 36 41 37 42 89 43 38 44 88 45 39 46 40 47
REMARK SMILES IDX 41 48 82 49 42 50 87 51 81 52 83 53 43 54 86 55 80 56 79 57
REMARK SMILES IDX 44 59 70 60 53 61 69 62 54 63 57 64 68 65 84 66 55 67 56 68
REMARK SMILES IDX 67 70 85 71 58 72 45 73 46 74 51 75 47 76 48 77 50 78 52 79
REMARK SMILES IDX 49 80 71 81 72 82 77 83 73 84 74 85 76 86 78 87 75 88 59 89
REMARK SMILES IDX 60 90 65 91 61 92 62 93 64 94 66 95 63 96
REMARK H PARENT 28 5 1 8 1 9 1 10 33 39 83 58 57 69
REMARK Flexibility Score: inf
ROOT
ATOM      1  C   UNL     1      -1.882   0.975  -1.463  1.00  0.00     0.116 C 
ENDROOT
BRANCH   1   2
ATOM      2  N   UNL     1      -1.940   1.270  -0.053  1.00  0.00    -0.351 N 
ATOM      3  C   UNL     1      -0.913   1.564   0.806  1.00  0.00     0.278 C 
ATOM      4  O   UNL     1      -1.239   1.994   1.921  1.00  0.00    -0.268 OA
ATOM      5  H   UNL     1      -2.839   1.257   0.347  1.00  0.00     0.163 HD
BRANCH   3   6
ATOM      6  C   UNL     1       0.598   1.361   0.467  1.00  0.00     0.275 C 
BRANCH   6   7
ATOM      7  N   UNL     1       0.923  -0.070   0.277  1.00  0.00    -0.347 N 
ATOM      8  H   UNL     1       1.914  -0.168   0.058  1.00  0.00     0.345 HD
ATOM      9  H   UNL     1       0.366  -0.446  -0.491  1.00  0.00     0.345 HD
ATOM     10  H   UNL     1       0.712  -0.583   1.133  1.00  0.00     0.345 HD
ENDBRANCH   6   7
BRANCH   6  11
ATOM     11  C   UNL     1       1.261   2.351  -0.520  1.00  0.00     0.113 C 
BRANCH  11  12
ATOM     12  C   UNL     1       0.987   2.227  -1.998  1.00  0.00    -0.015 A 
ATOM     13  C   UNL     1       1.109   1.113  -2.811  1.00  0.00     0.099 A 
ATOM     14  C   UNL     1       0.523   3.283  -2.849  1.00  0.00     0.004 A 
ATOM     15  N   UNL     1       0.560   1.383  -4.056  1.00  0.00    -0.285 N 
ATOM     16  C   UNL     1       0.270   2.745  -4.120  1.00  0.00     0.056 A 
ATOM     17  C   UNL     1       0.246   4.649  -2.618  1.00  0.00     0.010 A 
ATOM     18  C   UNL     1      -0.299   3.533  -5.139  1.00  0.00     0.027 A 
ATOM     19  C   UNL     1      -0.302   5.435  -3.633  1.00  0.00     0.001 A 
ATOM     20  C   UNL     1      -0.580   4.878  -4.873  1.00  0.00     0.002 A 
BRANCH  15  21
ATOM     21  C   UNL     1       0.195   0.382  -5.020  1.00  0.00     0.240 A 
ATOM     22  N   UNL     1       0.280   0.677  -6.307  1.00  0.00    -0.181 NA
ATOM     23  N   UNL     1      -0.315  -0.763  -4.539  1.00  0.00    -0.176 NA
ATOM     24  C   UNL     1      -0.179  -0.293  -7.087  1.00  0.00     0.228 A 
ATOM     25  C   UNL     1      -0.832  -1.618  -5.427  1.00  0.00     0.231 A 
ATOM     26  Cl  UNL     1       0.027  -0.053  -8.768  1.00  0.00    -0.041 Cl
ATOM     27  N   UNL     1      -0.746  -1.442  -6.734  1.00  0.00    -0.182 NA
BRANCH  25  28
ATOM     28  N   UNL     1      -1.551  -2.688  -4.923  1.00  0.00    -0.336 N 
ATOM     29  C   UNL     1      -3.004  -2.492  -4.945  1.00  0.00     0.148 C 
ATOM     30  C   UNL     1      -1.219  -4.029  -5.407  1.00  0.00     0.148 C 
ATOM     31  C   UNL     1      -3.687  -3.530  -4.046  1.00  0.00     0.181 C 
ATOM     32  C   UNL     1      -1.925  -5.047  -4.484  1.00  0.00     0.181 C 
ATOM     33  O   UNL     1      -3.353  -4.862  -4.464  1.00  0.00    -0.378 OA
ENDBRANCH  25  28
ENDBRANCH  15  21
ENDBRANCH  11  12
ENDBRANCH   6  11
ENDBRANCH   3   6
ENDBRANCH   1   2
BRANCH   1  34
ATOM     34  C   UNL     1      -2.723  -0.194  -1.952  1.00  0.00     0.023 C 
BRANCH  34  35
ATOM     35  C   UNL     1      -4.102   0.113  -2.546  1.00  0.00     0.023 C 
BRANCH  35  36
ATOM     36  C   UNL     1      -4.237   1.156  -3.674  1.00  0.00     0.116 C 
BRANCH  36  37
ATOM     37  N   UNL     1      -3.291   1.089  -4.780  1.00  0.00    -0.352 N 
ATOM     38  C   UNL     1      -3.478   1.017  -6.147  1.00  0.00     0.251 C 
ATOM     39  H   UNL     1      -2.346   1.096  -4.503  1.00  0.00     0.163 HD
ATOM     40  O   UNL     1      -2.739   1.721  -6.843  1.00  0.00    -0.269 OA
BRANCH  38  41
ATOM     41  C   UNL     1      -4.344   0.016  -6.842  1.00  0.00     0.039 A 
ATOM     42  C   UNL     1      -5.357  -0.715  -6.237  1.00  0.00     0.014 A 
ATOM     43  C   UNL     1      -4.005  -0.303  -8.179  1.00  0.00     0.014 A 
ATOM     44  C   UNL     1      -5.929  -1.801  -6.915  1.00  0.00     0.010 A 
ATOM     45  C   UNL     1      -4.596  -1.375  -8.866  1.00  0.00     0.010 A 
ATOM     46  C   UNL     1      -5.537  -2.167  -8.223  1.00  0.00    -0.014 A 
BRANCH  46  47
ATOM     47  C   UNL     1      -6.246  -3.300  -8.860  1.00  0.00     0.031 A 
ATOM     48  C   UNL     1      -7.725  -3.268  -8.654  1.00  0.00     0.074 A 
ATOM     49  C   UNL     1      -5.772  -4.297  -9.644  1.00  0.00     0.049 A 
ATOM     50  N   UNL     1      -8.437  -4.063  -7.923  1.00  0.00    -0.248 NA
ATOM     51  C   UNL     1      -8.472  -2.137  -9.221  1.00  0.00     0.031 C 
ATOM     52  C   UNL     1      -4.452  -4.461 -10.255  1.00  0.00     0.029 A 
ATOM     53  N   UNL     1      -6.454  -5.399 -10.109  1.00  0.00    -0.354 N 
ATOM     54  C   UNL     1      -9.754  -3.634  -8.055  1.00  0.00     0.074 A 
ATOM     55  C   UNL     1      -9.701  -2.378  -8.761  1.00  0.00     0.031 C 
ATOM     56  C   UNL     1      -4.492  -5.474 -11.156  1.00  0.00     0.029 A 
ATOM     57  C   UNL     1      -5.790  -6.129 -11.088  1.00  0.00     0.049 A 
ATOM     58  H   UNL     1      -7.344  -5.651  -9.772  1.00  0.00     0.167 HD
ATOM     59  C   UNL     1     -10.805  -4.433  -7.726  1.00  0.00     0.037 A 
ATOM     60  C   UNL     1      -6.273  -7.179 -11.804  1.00  0.00     0.037 A 
ATOM     61  C   UNL     1     -10.407  -5.521  -6.869  1.00  0.00     0.049 A 
ATOM     62  C   UNL     1      -7.409  -7.765 -11.057  1.00  0.00     0.074 A 
ATOM     63  C   UNL     1      -9.800  -5.625  -5.631  1.00  0.00     0.029 A 
ATOM     64  N   UNL     1     -10.342  -6.784  -7.404  1.00  0.00    -0.354 N 
ATOM     65  N   UNL     1      -7.286  -8.471  -9.972  1.00  0.00    -0.248 NA
ATOM     66  C   UNL     1      -8.744  -7.256 -11.324  1.00  0.00     0.031 C 
ATOM     67  C   UNL     1      -8.965  -6.780  -5.723  1.00  0.00     0.029 A 
ATOM     68  C   UNL     1      -9.150  -7.319  -6.994  1.00  0.00     0.049 A 
ATOM     69  H   UNL     1     -11.020  -7.219  -7.970  1.00  0.00     0.167 HD
ATOM     70  C   UNL     1      -8.380  -8.114  -9.202  1.00  0.00     0.074 A 
ATOM     71  C   UNL     1      -9.298  -7.457 -10.127  1.00  0.00     0.031 C 
ATOM     72  C   UNL     1      -8.317  -8.137  -7.839  1.00  0.00     0.037 A 
BRANCH  59  73
ATOM     73  C   UNL     1     -12.120  -4.440  -8.469  1.00  0.00     0.057 A 
ATOM     74  C   UNL     1     -12.275  -3.983  -9.793  1.00  0.00     0.134 A 
ATOM     75  C   UNL     1     -13.186  -5.214  -7.975  1.00  0.00     0.134 A 
ATOM     76  F   UNL     1     -11.325  -3.287 -10.428  1.00  0.00    -0.206 F 
ATOM     77  C   UNL     1     -13.382  -4.310 -10.581  1.00  0.00     0.040 A 
ATOM     78  C   UNL     1     -14.274  -5.590  -8.773  1.00  0.00     0.040 A 
ATOM     79  F   UNL     1     -13.159  -5.709  -6.728  1.00  0.00    -0.206 F 
ATOM     80  C   UNL     1     -14.367  -5.148 -10.086  1.00  0.00     0.006 A 
ENDBRANCH  59  73
BRANCH  60  81
ATOM     81  C   UNL     1      -5.973  -7.624 -13.187  1.00  0.00     0.057 A 
ATOM     82  C   UNL     1      -5.603  -6.701 -14.177  1.00  0.00     0.134 A 
ATOM     83  C   UNL     1      -6.335  -8.903 -13.645  1.00  0.00     0.134 A 
ATOM     84  F   UNL     1      -5.306  -5.433 -13.860  1.00  0.00    -0.206 F 
ATOM     85  C   UNL     1      -5.620  -7.017 -15.541  1.00  0.00     0.040 A 
ATOM     86  C   UNL     1      -6.362  -9.231 -15.008  1.00  0.00     0.040 A 
ATOM     87  F   UNL     1      -6.741  -9.849 -12.785  1.00  0.00    -0.206 F 
ATOM     88  C   UNL     1      -6.017  -8.280 -15.962  1.00  0.00     0.006 A 
ENDBRANCH  60  81
BRANCH  72  89
ATOM     89  C   UNL     1      -7.149  -8.837  -7.205  1.00  0.00     0.057 A 
ATOM     90  C   UNL     1      -7.395  -9.855  -6.277  1.00  0.00     0.134 A 
ATOM     91  C   UNL     1      -5.807  -8.483  -7.416  1.00  0.00     0.134 A 
ATOM     92  F   UNL     1      -8.655 -10.209  -5.979  1.00  0.00    -0.206 F 
ATOM     93  C   UNL     1      -6.358 -10.516  -5.614  1.00  0.00     0.040 A 
ATOM     94  C   UNL     1      -4.759  -9.162  -6.788  1.00  0.00     0.040 A 
ATOM     95  F   UNL     1      -5.475  -7.450  -8.203  1.00  0.00    -0.206 F 
ATOM     96  C   UNL     1      -5.033 -10.182  -5.882  1.00  0.00     0.006 A 
ENDBRANCH  72  89
ENDBRANCH  46  47
ENDBRANCH  38  41
ENDBRANCH  36  37
ENDBRANCH  35  36
ENDBRANCH  34  35
ENDBRANCH   1  34
TORSDOF 16
