REMARK SMILES Cc1ccc(OCCn2ccnc2)c(/C=C/C(=O)NCCCCNC(=O)c2ccc(-c3c4nc(c(-c5c(F)cccc5F)c5ccc([nH]5)c(-c5c(F)cccc5F)c5nc(c(-c6c(F)cccc6F)c6ccc3[nH]6)C=C5)C=C4)cc2)n1
REMARK SMILES IDX 20 1 19 2 17 3 18 4 16 6 15 7 14 8 1 9 2 10 3 11 81 12 4 13
REMARK SMILES IDX 5 14 6 15 7 16 8 17 9 18 10 19 13 20 11 21 12 22 21 23 22 24
REMARK SMILES IDX 23 25 24 26 25 27 26 29 27 30 28 31 80 32 29 33 79 34 30 35
REMARK SMILES IDX 31 36 32 37 73 38 33 39 78 40 72 41 74 42 34 43 77 44 71 45
REMARK SMILES IDX 70 46 35 48 61 49 44 50 60 51 45 52 48 53 59 54 75 55 46 56
REMARK SMILES IDX 47 57 58 59 76 60 49 61 36 62 37 63 42 64 38 65 39 66 41 67
REMARK SMILES IDX 43 68 40 69 62 70 63 71 68 72 64 73 65 74 67 75 69 76 66 77
REMARK SMILES IDX 50 78 51 79 56 80 52 81 53 82 55 83 57 84 54 85
REMARK H PARENT 19 5 24 28 74 47 48 58
REMARK Flexibility Score: inf
ROOT
ATOM      1  C   UNL     1      -4.029   4.302  -0.122  1.00  0.00     0.116 C 
ENDROOT
BRANCH   1   2
ATOM      2  N   UNL     1      -2.860   5.150  -0.004  1.00  0.00    -0.353 N 
ATOM      3  C   UNL     1      -1.525   4.906   0.017  1.00  0.00     0.244 C 
ATOM      4  O   UNL     1      -0.772   5.882   0.010  1.00  0.00    -0.270 OA
ATOM      5  H   UNL     1      -3.081   6.106   0.079  1.00  0.00     0.163 HD
BRANCH   3   6
ATOM      6  C   UNL     1      -0.914   3.552   0.031  1.00  0.00     0.073 C 
ATOM      7  C   UNL     1      -1.502   2.372   0.268  1.00  0.00     0.038 C 
BRANCH   7   8
ATOM      8  C   UNL     1      -0.822   1.066   0.369  1.00  0.00     0.105 A 
ATOM      9  C   UNL     1       2.667  -0.118   0.280  1.00  0.00     0.067 C 
ATOM     10  C   UNL     1       1.181  -0.103   0.484  1.00  0.00     0.038 A 
ATOM     11  C   UNL     1       0.519  -1.261   0.870  1.00  0.00     0.027 A 
ATOM     12  N   UNL     1       0.534   1.071   0.285  1.00  0.00    -0.250 NA
ATOM     13  C   UNL     1      -0.872  -1.255   0.933  1.00  0.00     0.050 A 
ATOM     14  C   UNL     1      -1.571  -0.102   0.596  1.00  0.00     0.145 A 
BRANCH  14  15
ATOM     15  O   UNL     1      -2.933  -0.032   0.456  1.00  0.00    -0.489 OA
BRANCH  15  16
ATOM     16  C   UNL     1      -3.658  -1.227   0.136  1.00  0.00     0.251 C 
BRANCH  16  17
ATOM     17  C   UNL     1      -3.587  -1.637  -1.343  1.00  0.00     0.164 C 
BRANCH  17  18
ATOM     18  N   UNL     1      -2.335  -2.254  -1.730  1.00  0.00    -0.334 N 
ATOM     19  C   UNL     1      -1.297  -1.642  -2.376  1.00  0.00     0.107 A 
ATOM     20  C   UNL     1      -1.966  -3.547  -1.487  1.00  0.00     0.199 A 
ATOM     21  C   UNL     1      -0.295  -2.583  -2.403  1.00  0.00     0.130 A 
ATOM     22  N   UNL     1      -0.723  -3.765  -1.852  1.00  0.00    -0.245 NA
ENDBRANCH  17  18
ENDBRANCH  16  17
ENDBRANCH  15  16
ENDBRANCH  14  15
ENDBRANCH   7   8
ENDBRANCH   3   6
ENDBRANCH   1   2
BRANCH   1  23
ATOM     23  C   UNL     1      -4.642   3.929   1.233  1.00  0.00     0.023 C 
BRANCH  23  24
ATOM     24  C   UNL     1      -5.519   5.010   1.886  1.00  0.00     0.023 C 
BRANCH  24  25
ATOM     25  C   UNL     1      -6.801   5.374   1.137  1.00  0.00     0.116 C 
BRANCH  25  26
ATOM     26  N   UNL     1      -7.718   4.246   0.950  1.00  0.00    -0.352 N 
ATOM     27  C   UNL     1      -8.730   4.117   0.012  1.00  0.00     0.251 C 
ATOM     28  H   UNL     1      -7.601   3.487   1.566  1.00  0.00     0.163 HD
ATOM     29  O   UNL     1      -9.654   3.334   0.169  1.00  0.00    -0.269 OA
BRANCH  27  30
ATOM     30  C   UNL     1      -8.648   4.939  -1.207  1.00  0.00     0.039 A 
ATOM     31  C   UNL     1      -9.725   5.693  -1.673  1.00  0.00     0.014 A 
ATOM     32  C   UNL     1      -7.409   5.006  -1.829  1.00  0.00     0.014 A 
ATOM     33  C   UNL     1      -9.506   6.600  -2.711  1.00  0.00     0.010 A 
ATOM     34  C   UNL     1      -7.157   6.015  -2.725  1.00  0.00     0.010 A 
ATOM     35  C   UNL     1      -8.207   6.786  -3.215  1.00  0.00    -0.014 A 
BRANCH  35  36
ATOM     36  C   UNL     1      -7.927   7.831  -4.202  1.00  0.00     0.031 A 
ATOM     37  C   UNL     1      -8.478   9.188  -3.901  1.00  0.00     0.074 A 
ATOM     38  C   UNL     1      -7.072   7.668  -5.236  1.00  0.00     0.049 A 
ATOM     39  N   UNL     1      -9.370   9.849  -4.565  1.00  0.00    -0.248 NA
ATOM     40  C   UNL     1      -8.044   9.861  -2.666  1.00  0.00     0.031 C 
ATOM     41  C   UNL     1      -6.192   6.533  -5.548  1.00  0.00     0.029 A 
ATOM     42  N   UNL     1      -6.746   8.564  -6.207  1.00  0.00    -0.354 N 
ATOM     43  C   UNL     1      -9.501  11.087  -3.935  1.00  0.00     0.074 A 
ATOM     44  C   UNL     1      -8.754  10.991  -2.707  1.00  0.00     0.031 C 
ATOM     45  C   UNL     1      -5.276   6.904  -6.469  1.00  0.00     0.029 A 
ATOM     46  C   UNL     1      -5.634   8.219  -6.959  1.00  0.00     0.049 A 
ATOM     47  H   UNL     1      -7.258   9.391  -6.362  1.00  0.00     0.167 HD
ATOM     48  C   UNL     1     -10.070  12.156  -4.562  1.00  0.00     0.037 A 
ATOM     49  C   UNL     1      -5.042   8.959  -7.925  1.00  0.00     0.037 A 
ATOM     50  C   UNL     1     -10.814  11.745  -5.724  1.00  0.00     0.049 A 
ATOM     51  C   UNL     1      -6.038   9.951  -8.390  1.00  0.00     0.074 A 
ATOM     52  C   UNL     1     -11.912  10.937  -5.941  1.00  0.00     0.029 A 
ATOM     53  N   UNL     1     -10.223  11.902  -6.953  1.00  0.00    -0.354 N 
ATOM     54  N   UNL     1      -7.127   9.640  -9.037  1.00  0.00    -0.248 NA
ATOM     55  C   UNL     1      -6.044  11.253  -7.743  1.00  0.00     0.031 C 
ATOM     56  C   UNL     1     -11.622  10.248  -7.155  1.00  0.00     0.029 A 
ATOM     57  C   UNL     1     -10.399  10.724  -7.630  1.00  0.00     0.049 A 
ATOM     58  H   UNL     1      -9.762  12.707  -7.285  1.00  0.00     0.167 HD
ATOM     59  C   UNL     1      -8.094  10.498  -8.535  1.00  0.00     0.074 A 
ATOM     60  C   UNL     1      -7.349  11.527  -7.812  1.00  0.00     0.031 C 
ATOM     61  C   UNL     1      -9.413  10.147  -8.515  1.00  0.00     0.037 A 
BRANCH  48  62
ATOM     62  C   UNL     1      -9.705  13.603  -4.333  1.00  0.00     0.057 A 
ATOM     63  C   UNL     1     -10.476  14.618  -4.935  1.00  0.00     0.134 A 
ATOM     64  C   UNL     1      -8.472  14.028  -3.801  1.00  0.00     0.134 A 
ATOM     65  F   UNL     1     -11.668  14.344  -5.486  1.00  0.00    -0.206 F 
ATOM     66  C   UNL     1     -10.016  15.935  -5.068  1.00  0.00     0.040 A 
ATOM     67  C   UNL     1      -8.025  15.351  -3.886  1.00  0.00     0.040 A 
ATOM     68  F   UNL     1      -7.594  13.172  -3.265  1.00  0.00    -0.206 F 
ATOM     69  C   UNL     1      -8.782  16.303  -4.551  1.00  0.00     0.006 A 
ENDBRANCH  48  62
BRANCH  49  70
ATOM     70  C   UNL     1      -3.605   9.050  -8.252  1.00  0.00     0.057 A 
ATOM     71  C   UNL     1      -3.169   9.560  -9.480  1.00  0.00     0.134 A 
ATOM     72  C   UNL     1      -2.623   8.900  -7.256  1.00  0.00     0.134 A 
ATOM     73  F   UNL     1      -4.042   9.769 -10.476  1.00  0.00    -0.206 F 
ATOM     74  C   UNL     1      -1.836   9.931  -9.699  1.00  0.00     0.040 A 
ATOM     75  C   UNL     1      -1.288   9.262  -7.462  1.00  0.00     0.040 A 
ATOM     76  F   UNL     1      -2.947   8.482  -6.023  1.00  0.00    -0.206 F 
ATOM     77  C   UNL     1      -0.894   9.795  -8.683  1.00  0.00     0.006 A 
ENDBRANCH  49  70
BRANCH  61  78
ATOM     78  C   UNL     1      -9.832   8.911  -9.263  1.00  0.00     0.057 A 
ATOM     79  C   UNL     1      -9.432   7.612  -8.917  1.00  0.00     0.134 A 
ATOM     80  C   UNL     1     -10.820   9.026 -10.247  1.00  0.00     0.134 A 
ATOM     81  F   UNL     1      -8.563   7.394  -7.924  1.00  0.00    -0.206 F 
ATOM     82  C   UNL     1      -9.971   6.481  -9.541  1.00  0.00     0.040 A 
ATOM     83  C   UNL     1     -11.389   7.904 -10.856  1.00  0.00     0.040 A 
ATOM     84  F   UNL     1     -11.294  10.234 -10.590  1.00  0.00    -0.206 F 
ATOM     85  C   UNL     1     -10.960   6.626 -10.508  1.00  0.00     0.006 A 
ENDBRANCH  61  78
ENDBRANCH  35  36
ENDBRANCH  27  30
ENDBRANCH  25  26
ENDBRANCH  24  25
ENDBRANCH  23  24
ENDBRANCH   1  23
TORSDOF 16
