REMARK SMILES O=C(CC[N@H+]1CCC[C@H](c2nccn2Cc2cscn2)C1)NCCCCNC(=O)c1ccc(-c2c3nc(c(-c4c(F)cccc4F)c4ccc([nH]4)c(-c4c(F)cccc4F)c4nc(c(-c5c(F)cccc5F)c5ccc2[nH]5)C=C4)C=C3)cc1
REMARK SMILES IDX 23 1 22 2 1 3 2 4 3 6 4 7 5 8 6 9 21 10 7 12 9 13 8 14 10 15
REMARK SMILES IDX 11 16 14 17 12 18 13 19 15 20 16 21 17 22 20 23 18 24 19 25
REMARK SMILES IDX 24 26 25 27 26 28 27 29 28 30 29 32 30 33 31 34 83 35 32 36
REMARK SMILES IDX 82 37 33 38 34 39 35 40 76 41 36 42 81 43 75 44 77 45 37 46
REMARK SMILES IDX 80 47 74 48 73 49 38 51 64 52 47 53 63 54 48 55 51 56 62 57
REMARK SMILES IDX 78 58 49 59 50 60 61 62 79 63 52 64 39 65 40 66 45 67 41 68
REMARK SMILES IDX 42 69 44 70 46 71 43 72 65 73 66 74 71 75 67 76 68 77 70 78
REMARK SMILES IDX 72 79 69 80 53 81 54 82 59 83 55 84 56 85 58 86 60 87 57 88
REMARK H PARENT 22 5 5 11 27 31 77 50 51 61
REMARK Flexibility Score: inf
ROOT
ATOM      1  C   UNL     1       0.854   1.263   2.513  1.00  0.00     0.116 C 
ENDROOT
BRANCH   1   2
ATOM      2  N   UNL     1       1.577   0.867   1.280  1.00  0.00    -0.356 N 
ATOM      3  O   UNL     1       0.081   1.143  -0.414  1.00  0.00    -0.275 OA
ATOM      4  C   UNL     1       1.227   0.836  -0.079  1.00  0.00     0.225 C 
ATOM      5  H   UNL     1       2.497   0.560   1.451  1.00  0.00     0.163 HD
BRANCH   4   6
ATOM      6  C   UNL     1       2.258   0.183  -1.214  1.00  0.00     0.161 C 
BRANCH   6   7
ATOM      7  C   UNL     1       3.464   0.810  -2.149  1.00  0.00     0.272 C 
BRANCH   7   8
ATOM      8  N   UNL     1       4.840   1.149  -1.669  1.00  0.00    -0.334 N 
ATOM      9  C   UNL     1       6.020   0.271  -1.870  1.00  0.00     0.262 C 
ATOM     10  C   UNL     1       5.250   2.557  -1.764  1.00  0.00     0.273 C 
ATOM     11  H   UNL     1       4.561   0.896  -0.722  1.00  0.00     0.348 HD
ATOM     12  C   UNL     1       7.178   0.520  -0.832  1.00  0.00     0.062 C 
ATOM     13  C   UNL     1       6.210   2.920  -0.605  1.00  0.00     0.111 C 
ATOM     14  C   UNL     1       7.434   1.997  -0.505  1.00  0.00     0.023 C 
BRANCH  13  15
ATOM     15  C   UNL     1       5.449   3.140   0.699  1.00  0.00     0.117 A 
ATOM     16  N   UNL     1       5.268   4.352   1.174  1.00  0.00    -0.241 NA
ATOM     17  N   UNL     1       4.679   2.214   1.442  1.00  0.00    -0.328 N 
ATOM     18  C   UNL     1       4.232   4.286   2.041  1.00  0.00     0.131 A 
ATOM     19  C   UNL     1       3.765   3.006   2.096  1.00  0.00     0.108 A 
BRANCH  17  20
ATOM     20  C   UNL     1       4.474   0.853   0.911  1.00  0.00     0.180 C 
BRANCH  20  21
ATOM     21  C   UNL     1       4.336  -0.626   1.293  1.00  0.00     0.071 A 
ATOM     22  C   UNL     1       3.291  -1.391   1.805  1.00  0.00     0.092 A 
ATOM     23  N   UNL     1       5.205  -1.464   0.564  1.00  0.00    -0.248 NA
ATOM     24  S   UNL     1       3.400  -3.059   1.400  1.00  0.00    -0.130 S 
ATOM     25  C   UNL     1       4.763  -2.694   0.458  1.00  0.00     0.175 A 
ENDBRANCH  20  21
ENDBRANCH  17  20
ENDBRANCH  13  15
ENDBRANCH   7   8
ENDBRANCH   6   7
ENDBRANCH   4   6
ENDBRANCH   1   2
BRANCH   1  26
ATOM     26  C   UNL     1       1.450   0.828   3.956  1.00  0.00     0.023 C 
BRANCH  26  27
ATOM     27  C   UNL     1       2.912   0.497   4.437  1.00  0.00     0.023 C 
BRANCH  27  28
ATOM     28  C   UNL     1       4.049   1.458   4.831  1.00  0.00     0.116 C 
BRANCH  28  29
ATOM     29  N   UNL     1       3.867   2.369   5.934  1.00  0.00    -0.352 N 
ATOM     30  C   UNL     1       4.692   3.389   6.398  1.00  0.00     0.251 C 
ATOM     31  H   UNL     1       3.029   2.250   6.437  1.00  0.00     0.163 HD
ATOM     32  O   UNL     1       4.417   3.887   7.495  1.00  0.00    -0.269 OA
BRANCH  30  33
ATOM     33  C   UNL     1       5.793   4.007   5.590  1.00  0.00     0.039 A 
ATOM     34  C   UNL     1       6.112   5.363   5.801  1.00  0.00     0.014 A 
ATOM     35  C   UNL     1       6.428   3.361   4.549  1.00  0.00     0.014 A 
ATOM     36  C   UNL     1       6.762   6.121   4.809  1.00  0.00     0.010 A 
ATOM     37  C   UNL     1       7.021   4.122   3.550  1.00  0.00     0.010 A 
ATOM     38  C   UNL     1       7.076   5.524   3.595  1.00  0.00    -0.014 A 
BRANCH  38  39
ATOM     39  C   UNL     1       7.655   6.246   2.437  1.00  0.00     0.031 A 
ATOM     40  C   UNL     1       9.100   5.928   2.283  1.00  0.00     0.074 A 
ATOM     41  C   UNL     1       7.027   6.936   1.447  1.00  0.00     0.049 A 
ATOM     42  N   UNL     1      10.088   6.565   2.827  1.00  0.00    -0.248 NA
ATOM     43  C   UNL     1       9.485   4.625   1.715  1.00  0.00     0.031 C 
ATOM     44  C   UNL     1       5.604   7.189   1.220  1.00  0.00     0.029 A 
ATOM     45  N   UNL     1       7.585   7.503   0.323  1.00  0.00    -0.354 N 
ATOM     46  C   UNL     1      11.212   5.838   2.462  1.00  0.00     0.074 A 
ATOM     47  C   UNL     1      10.738   4.520   2.161  1.00  0.00     0.031 C 
ATOM     48  C   UNL     1       5.394   7.600  -0.057  1.00  0.00     0.029 A 
ATOM     49  C   UNL     1       6.675   7.830  -0.695  1.00  0.00     0.049 A 
ATOM     50  H   UNL     1       8.553   7.668   0.239  1.00  0.00     0.167 HD
ATOM     51  C   UNL     1      12.358   6.446   2.048  1.00  0.00     0.037 A 
ATOM     52  C   UNL     1       6.975   8.265  -1.954  1.00  0.00     0.037 A 
ATOM     53  C   UNL     1      12.292   7.870   2.293  1.00  0.00     0.049 A 
ATOM     54  C   UNL     1       8.354   8.814  -1.902  1.00  0.00     0.074 A 
ATOM     55  C   UNL     1      12.056   8.658   3.404  1.00  0.00     0.029 A 
ATOM     56  N   UNL     1      12.055   8.682   1.208  1.00  0.00    -0.354 N 
ATOM     57  N   UNL     1       8.668   9.902  -1.257  1.00  0.00    -0.248 NA
ATOM     58  C   UNL     1       9.447   7.886  -2.142  1.00  0.00     0.031 C 
ATOM     59  C   UNL     1      11.217   9.714   2.937  1.00  0.00     0.029 A 
ATOM     60  C   UNL     1      11.078   9.579   1.557  1.00  0.00     0.049 A 
ATOM     61  H   UNL     1      12.508   8.628   0.335  1.00  0.00     0.167 HD
ATOM     62  C   UNL     1       9.839   9.576  -0.592  1.00  0.00     0.074 A 
ATOM     63  C   UNL     1      10.308   8.343  -1.228  1.00  0.00     0.031 C 
ATOM     64  C   UNL     1      10.145  10.144   0.611  1.00  0.00     0.037 A 
BRANCH  51  65
ATOM     65  C   UNL     1      13.343   5.853   1.060  1.00  0.00     0.057 A 
ATOM     66  C   UNL     1      14.564   6.519   0.858  1.00  0.00     0.134 A 
ATOM     67  C   UNL     1      13.072   4.826   0.127  1.00  0.00     0.134 A 
ATOM     68  F   UNL     1      14.947   7.514   1.673  1.00  0.00    -0.206 F 
ATOM     69  C   UNL     1      15.403   6.245  -0.229  1.00  0.00     0.040 A 
ATOM     70  C   UNL     1      13.930   4.507  -0.928  1.00  0.00     0.040 A 
ATOM     71  F   UNL     1      11.932   4.130   0.105  1.00  0.00    -0.206 F 
ATOM     72  C   UNL     1      15.083   5.240  -1.132  1.00  0.00     0.006 A 
ENDBRANCH  51  65
BRANCH  52  73
ATOM     73  C   UNL     1       6.313   8.012  -3.267  1.00  0.00     0.057 A 
ATOM     74  C   UNL     1       6.684   8.719  -4.429  1.00  0.00     0.134 A 
ATOM     75  C   UNL     1       5.542   6.860  -3.487  1.00  0.00     0.134 A 
ATOM     76  F   UNL     1       7.455   9.815  -4.346  1.00  0.00    -0.206 F 
ATOM     77  C   UNL     1       6.346   8.284  -5.723  1.00  0.00     0.040 A 
ATOM     78  C   UNL     1       5.194   6.417  -4.773  1.00  0.00     0.040 A 
ATOM     79  F   UNL     1       5.183   6.067  -2.469  1.00  0.00    -0.206 F 
ATOM     80  C   UNL     1       5.611   7.118  -5.898  1.00  0.00     0.006 A 
ENDBRANCH  52  73
BRANCH  64  81
ATOM     81  C   UNL     1       9.310  11.310   1.078  1.00  0.00     0.057 A 
ATOM     82  C   UNL     1       7.927  11.261   1.318  1.00  0.00     0.134 A 
ATOM     83  C   UNL     1       9.961  12.499   1.422  1.00  0.00     0.134 A 
ATOM     84  F   UNL     1       7.226  10.139   1.123  1.00  0.00    -0.206 F 
ATOM     85  C   UNL     1       7.221  12.359   1.823  1.00  0.00     0.040 A 
ATOM     86  C   UNL     1       9.275  13.591   1.960  1.00  0.00     0.040 A 
ATOM     87  F   UNL     1      11.291  12.607   1.276  1.00  0.00    -0.206 F 
ATOM     88  C   UNL     1       7.898  13.529   2.150  1.00  0.00     0.006 A 
ENDBRANCH  64  81
ENDBRANCH  38  39
ENDBRANCH  30  33
ENDBRANCH  28  29
ENDBRANCH  27  28
ENDBRANCH  26  27
ENDBRANCH   1  26
TORSDOF 16
