REMARK SMILES COc1cc(/C=C2/S/C(=[NH+]\C(C)=O)NC2=O)cc(Br)c1OCC(=O)NCCCCNC(=O)c1ccc(-c2c3nc(c(-c4c(F)cccc4F)c4ccc([nH]4)c(-c4c(F)cccc4F)c4nc(c(-c5c(F)cccc5F)c5ccc2[nH]5)C=C4)C=C3)cc1
REMARK SMILES IDX 27 1 26 2 25 3 23 4 24 5 22 7 21 8 20 9 3 10 4 11 5 12 18 13
REMARK SMILES IDX 17 14 19 15 2 16 1 17 6 18 7 19 8 20 15 21 9 22 14 23 16 24
REMARK SMILES IDX 10 25 11 27 12 29 13 30 28 31 29 32 30 33 31 34 32 36 33 37
REMARK SMILES IDX 34 38 86 39 35 40 85 41 36 42 37 43 38 44 79 45 39 46 84 47
REMARK SMILES IDX 78 48 80 49 40 50 83 51 77 52 76 53 41 55 67 56 50 57 66 58
REMARK SMILES IDX 51 59 54 60 65 61 81 62 52 63 53 64 64 66 82 67 55 68 42 69
REMARK SMILES IDX 43 70 48 71 44 72 45 73 47 74 49 75 46 76 68 77 69 78 74 79
REMARK SMILES IDX 70 80 71 81 73 82 75 83 72 84 56 85 57 86 62 87 58 88 59 89
REMARK SMILES IDX 61 90 63 91 60 92
REMARK H PARENT 25 6 14 26 10 28 30 35 80 54 54 65
REMARK Flexibility Score: inf
ROOT
ATOM      1  C   UNL     1      -2.125   2.049   1.800  1.00  0.00     0.023 C 
ENDROOT
BRANCH   1   2
ATOM      2  C   UNL     1      -3.149   2.550   0.786  1.00  0.00     0.116 C 
BRANCH   2   3
ATOM      3  N   UNL     1      -3.086   3.986   0.615  1.00  0.00    -0.353 N 
ATOM      4  C   UNL     1      -2.814   4.696  -0.518  1.00  0.00     0.257 C 
ATOM      5  O   UNL     1      -2.898   5.924  -0.463  1.00  0.00    -0.271 OA
ATOM      6  H   UNL     1      -3.263   4.521   1.422  1.00  0.00     0.163 HD
BRANCH   4   7
ATOM      7  C   UNL     1      -2.503   3.955  -1.828  1.00  0.00     0.329 C 
BRANCH   7   8
ATOM      8  O   UNL     1      -1.368   3.121  -1.957  1.00  0.00    -0.479 OA
BRANCH   8   9
ATOM      9  C   UNL     1      -0.137   3.534  -1.519  1.00  0.00     0.176 A 
ATOM     10  C   UNL     1       0.655   2.499  -0.957  1.00  0.00     0.162 A 
ATOM     11  C   UNL     1       1.951   2.762  -0.491  1.00  0.00     0.058 A 
ATOM     12  C   UNL     1       2.474   4.051  -0.558  1.00  0.00    -0.019 A 
ATOM     13  C   UNL     1       0.431   4.810  -1.652  1.00  0.00     0.064 A 
ATOM     14  C   UNL     1       1.717   5.065  -1.149  1.00  0.00     0.028 A 
ATOM     15  Br  UNL     1      -0.328   6.257  -2.624  1.00  0.00    -0.047 Br
BRANCH  10  16
ATOM     16  O   UNL     1       0.083   1.246  -0.925  1.00  0.00    -0.493 OA
ATOM     17  C   UNL     1       0.717   0.258  -0.119  1.00  0.00     0.278 C 
ENDBRANCH  10  16
BRANCH  12  18
ATOM     18  C   UNL     1       3.817   4.325  -0.035  1.00  0.00     0.032 C 
ATOM     19  C   UNL     1       4.064   5.052   1.063  1.00  0.00     0.110 C 
ATOM     20  S   UNL     1       5.656   5.483   1.603  1.00  0.00     0.007 SA
ATOM     21  C   UNL     1       3.061   5.692   1.960  1.00  0.00     0.346 C 
ATOM     22  C   UNL     1       5.050   6.721   2.661  1.00  0.00     0.324 C 
ATOM     23  N   UNL     1       3.698   6.615   2.741  1.00  0.00    -0.199 N 
ATOM     24  O   UNL     1       1.873   5.442   2.018  1.00  0.00    -0.240 OA
ATOM     25  N   UNL     1       5.609   7.650   3.341  1.00  0.00    -0.204 N 
ATOM     26  H   UNL     1       3.185   7.194   3.350  1.00  0.00     0.316 HD
ATOM     27  C   UNL     1       6.939   7.932   3.490  1.00  0.00     0.304 C 
ATOM     28  H   UNL     1       4.994   8.246   3.826  1.00  0.00     0.316 HD
ATOM     29  C   UNL     1       7.960   7.666   2.417  1.00  0.00     0.144 C 
ATOM     30  O   UNL     1       7.327   8.500   4.512  1.00  0.00    -0.247 OA
ENDBRANCH  12  18
ENDBRANCH   8   9
ENDBRANCH   7   8
ENDBRANCH   4   7
ENDBRANCH   2   3
ENDBRANCH   1   2
BRANCH   1  31
ATOM     31  C   UNL     1      -2.246   2.640   3.206  1.00  0.00     0.023 C 
BRANCH  31  32
ATOM     32  C   UNL     1      -3.628   2.555   3.843  1.00  0.00     0.116 C 
BRANCH  32  33
ATOM     33  N   UNL     1      -4.111   1.190   3.976  1.00  0.00    -0.352 N 
ATOM     34  C   UNL     1      -4.676   0.565   5.061  1.00  0.00     0.251 C 
ATOM     35  H   UNL     1      -4.020   0.632   3.170  1.00  0.00     0.163 HD
ATOM     36  O   UNL     1      -4.900  -0.641   5.022  1.00  0.00    -0.269 OA
BRANCH  34  37
ATOM     37  C   UNL     1      -4.983   1.332   6.290  1.00  0.00     0.039 A 
ATOM     38  C   UNL     1      -4.674   0.762   7.528  1.00  0.00     0.014 A 
ATOM     39  C   UNL     1      -5.573   2.597   6.233  1.00  0.00     0.014 A 
ATOM     40  C   UNL     1      -4.900   1.486   8.700  1.00  0.00     0.010 A 
ATOM     41  C   UNL     1      -5.718   3.351   7.396  1.00  0.00     0.010 A 
ATOM     42  C   UNL     1      -5.390   2.803   8.644  1.00  0.00    -0.014 A 
BRANCH  42  43
ATOM     43  C   UNL     1      -5.552   3.606   9.885  1.00  0.00     0.031 A 
ATOM     44  C   UNL     1      -6.911   4.085  10.318  1.00  0.00     0.074 A 
ATOM     45  C   UNL     1      -4.463   3.935  10.609  1.00  0.00     0.049 A 
ATOM     46  N   UNL     1      -7.243   4.783  11.376  1.00  0.00    -0.248 NA
ATOM     47  C   UNL     1      -8.043   3.760   9.437  1.00  0.00     0.031 C 
ATOM     48  C   UNL     1      -3.083   3.588  10.266  1.00  0.00     0.029 A 
ATOM     49  N   UNL     1      -4.346   4.633  11.785  1.00  0.00    -0.354 N 
ATOM     50  C   UNL     1      -8.615   4.983  11.283  1.00  0.00     0.074 A 
ATOM     51  C   UNL     1      -9.043   4.390  10.035  1.00  0.00     0.031 C 
ATOM     52  C   UNL     1      -2.263   4.039  11.228  1.00  0.00     0.029 A 
ATOM     53  C   UNL     1      -3.053   4.738  12.237  1.00  0.00     0.049 A 
ATOM     54  H   UNL     1      -5.116   5.022  12.259  1.00  0.00     0.167 HD
ATOM     55  C   UNL     1      -9.448   5.581  12.169  1.00  0.00     0.037 A 
ATOM     56  C   UNL     1      -2.558   5.327  13.342  1.00  0.00     0.037 A 
ATOM     57  C   UNL     1      -9.022   6.161  13.416  1.00  0.00     0.049 A 
ATOM     58  C   UNL     1      -3.503   5.984  14.309  1.00  0.00     0.074 A 
ATOM     59  C   UNL     1      -9.796   6.745  14.405  1.00  0.00     0.029 A 
ATOM     60  N   UNL     1      -7.705   6.237  13.844  1.00  0.00    -0.354 N 
ATOM     61  N   UNL     1      -4.808   6.095  14.247  1.00  0.00    -0.248 NA
ATOM     62  C   UNL     1      -2.906   6.586  15.509  1.00  0.00     0.031 C 
ATOM     63  C   UNL     1      -8.942   7.221  15.406  1.00  0.00     0.029 A 
ATOM     64  C   UNL     1      -7.642   6.876  15.073  1.00  0.00     0.049 A 
ATOM     65  H   UNL     1      -6.929   5.888  13.349  1.00  0.00     0.167 HD
ATOM     66  C   UNL     1      -5.191   6.746  15.413  1.00  0.00     0.074 A 
ATOM     67  C   UNL     1      -3.981   6.989  16.171  1.00  0.00     0.031 C 
ATOM     68  C   UNL     1      -6.432   7.108  15.821  1.00  0.00     0.037 A 
BRANCH  55  69
ATOM     69  C   UNL     1     -10.909   5.635  11.819  1.00  0.00     0.057 A 
ATOM     70  C   UNL     1     -11.704   4.481  11.781  1.00  0.00     0.134 A 
ATOM     71  C   UNL     1     -11.537   6.857  11.548  1.00  0.00     0.134 A 
ATOM     72  F   UNL     1     -11.166   3.275  12.020  1.00  0.00    -0.206 F 
ATOM     73  C   UNL     1     -13.062   4.537  11.459  1.00  0.00     0.040 A 
ATOM     74  C   UNL     1     -12.901   6.930  11.256  1.00  0.00     0.040 A 
ATOM     75  F   UNL     1     -10.840   8.003  11.573  1.00  0.00    -0.206 F 
ATOM     76  C   UNL     1     -13.665   5.766  11.203  1.00  0.00     0.006 A 
ENDBRANCH  55  69
BRANCH  56  77
ATOM     77  C   UNL     1      -1.097   5.294  13.614  1.00  0.00     0.057 A 
ATOM     78  C   UNL     1      -0.576   4.550  14.680  1.00  0.00     0.134 A 
ATOM     79  C   UNL     1      -0.190   6.015  12.829  1.00  0.00     0.134 A 
ATOM     80  F   UNL     1      -1.395   3.852  15.480  1.00  0.00    -0.206 F 
ATOM     81  C   UNL     1       0.789   4.546  14.972  1.00  0.00     0.040 A 
ATOM     82  C   UNL     1       1.181   5.996  13.091  1.00  0.00     0.040 A 
ATOM     83  F   UNL     1      -0.623   6.740  11.787  1.00  0.00    -0.206 F 
ATOM     84  C   UNL     1       1.673   5.267  14.172  1.00  0.00     0.006 A 
ENDBRANCH  56  77
BRANCH  68  85
ATOM     85  C   UNL     1      -6.548   7.759  17.171  1.00  0.00     0.057 A 
ATOM     86  C   UNL     1      -6.059   9.047  17.423  1.00  0.00     0.134 A 
ATOM     87  C   UNL     1      -7.170   7.087  18.231  1.00  0.00     0.134 A 
ATOM     88  F   UNL     1      -5.443   9.743  16.456  1.00  0.00    -0.206 F 
ATOM     89  C   UNL     1      -6.149   9.627  18.690  1.00  0.00     0.040 A 
ATOM     90  C   UNL     1      -7.296   7.669  19.493  1.00  0.00     0.040 A 
ATOM     91  F   UNL     1      -7.672   5.854  18.058  1.00  0.00    -0.206 F 
ATOM     92  C   UNL     1      -6.774   8.939  19.728  1.00  0.00     0.006 A 
ENDBRANCH  68  85
ENDBRANCH  42  43
ENDBRANCH  34  37
ENDBRANCH  32  33
ENDBRANCH  31  32
ENDBRANCH   1  31
TORSDOF 15
