REMARK SMILES Cn1nc(N2CCC(CC(=O)NCCCCNC(=O)c3ccc(-c4c5nc(c(-c6c(F)cccc6F)c6ccc([nH]6)c(-c6c(F)cccc6F)c6nc(c(-c7c(F)cccc7F)c7ccc4[nH]7)C=C6)C=C5)cc3)CC2)c(=O)n(C)c1=O
REMARK SMILES IDX 14 1 13 2 12 3 10 4 11 5 9 7 8 8 5 9 6 10 75 11 7 12 74 13
REMARK SMILES IDX 4 14 1 15 2 16 3 17 80 18 78 19 81 20 76 21 79 22 77 23
REMARK SMILES IDX 15 24 16 25 17 26 18 27 19 29 20 30 21 31 73 32 22 33 72 34
REMARK SMILES IDX 23 35 24 36 25 37 66 38 26 39 71 40 65 41 67 42 27 43 70 44
REMARK SMILES IDX 64 45 63 46 28 48 54 49 37 50 53 51 38 52 41 53 52 54 68 55
REMARK SMILES IDX 39 56 40 57 51 59 69 60 42 61 29 62 30 63 35 64 31 65 32 66
REMARK SMILES IDX 34 67 36 68 33 69 55 70 56 71 61 72 57 73 58 74 60 75 62 76
REMARK SMILES IDX 59 77 43 78 44 79 49 80 45 81 46 82 48 83 50 84 47 85
REMARK H PARENT 12 6 17 28 67 47 41 58
REMARK Flexibility Score: inf
ROOT
ATOM      1  C   UNL     1      -2.845  -0.218   5.506  1.00  0.00     0.023 C 
ENDROOT
BRANCH   1   2
ATOM      2  C   UNL     1      -4.078  -0.764   4.778  1.00  0.00     0.116 C 
BRANCH   2   3
ATOM      3  N   UNL     1      -5.285  -0.048   5.158  1.00  0.00    -0.356 N 
ATOM      4  C   UNL     1      -6.012   0.886   4.477  1.00  0.00     0.220 C 
ATOM      5  O   UNL     1      -6.969   1.410   5.049  1.00  0.00    -0.275 OA
ATOM      6  H   UNL     1      -5.635  -0.273   6.050  1.00  0.00     0.163 HD
BRANCH   4   7
ATOM      7  C   UNL     1      -5.647   1.277   3.052  1.00  0.00     0.103 C 
BRANCH   7   8
ATOM      8  C   UNL     1      -4.787   2.556   2.949  1.00  0.00     0.002 C 
ATOM      9  N   UNL     1      -2.273   3.575   1.972  1.00  0.00    -0.351 N 
ATOM     10  C   UNL     1      -2.396   3.417   3.401  1.00  0.00     0.118 C 
ATOM     11  C   UNL     1      -3.480   4.002   1.288  1.00  0.00     0.118 C 
ATOM     12  C   UNL     1      -3.459   2.376   3.689  1.00  0.00     0.025 C 
ATOM     13  C   UNL     1      -4.554   2.923   1.468  1.00  0.00     0.025 C 
BRANCH   9  14
ATOM     14  C   UNL     1      -1.125   3.208   1.294  1.00  0.00     0.215 A 
ATOM     15  C   UNL     1       0.716   0.251   0.403  1.00  0.00     0.180 C 
ATOM     16  N   UNL     1       0.411   1.665   0.545  1.00  0.00    -0.216 N 
ATOM     17  N   UNL     1      -0.746   1.964   1.219  1.00  0.00    -0.145 NA
ATOM     18  C   UNL     1       1.266   2.599  -0.038  1.00  0.00     0.346 A 
ATOM     19  N   UNL     1       0.900   3.923   0.089  1.00  0.00    -0.259 N 
ATOM     20  O   UNL     1       2.284   2.258  -0.645  1.00  0.00    -0.246 OA
ATOM     21  C   UNL     1      -0.284   4.319   0.667  1.00  0.00     0.299 A 
ATOM     22  C   UNL     1       1.762   4.963  -0.429  1.00  0.00     0.159 C 
ATOM     23  O   UNL     1      -0.685   5.478   0.729  1.00  0.00    -0.265 OA
ENDBRANCH   9  14
ENDBRANCH   7   8
ENDBRANCH   4   7
ENDBRANCH   2   3
ENDBRANCH   1   2
BRANCH   1  24
ATOM     24  C   UNL     1      -2.599  -0.803   6.884  1.00  0.00     0.023 C 
BRANCH  24  25
ATOM     25  C   UNL     1      -2.150  -2.249   6.858  1.00  0.00     0.116 C 
BRANCH  25  26
ATOM     26  N   UNL     1      -0.879  -2.445   6.169  1.00  0.00    -0.352 N 
ATOM     27  C   UNL     1       0.269  -3.054   6.628  1.00  0.00     0.251 C 
ATOM     28  H   UNL     1      -0.835  -2.093   5.251  1.00  0.00     0.163 HD
ATOM     29  O   UNL     1       1.296  -3.045   5.968  1.00  0.00    -0.269 OA
BRANCH  27  30
ATOM     30  C   UNL     1       0.237  -3.682   7.963  1.00  0.00     0.039 A 
ATOM     31  C   UNL     1       1.215  -3.340   8.897  1.00  0.00     0.014 A 
ATOM     32  C   UNL     1      -0.829  -4.513   8.312  1.00  0.00     0.014 A 
ATOM     33  C   UNL     1       1.069  -3.764  10.217  1.00  0.00     0.010 A 
ATOM     34  C   UNL     1      -1.034  -4.830   9.645  1.00  0.00     0.010 A 
ATOM     35  C   UNL     1      -0.081  -4.471  10.608  1.00  0.00    -0.014 A 
BRANCH  35  36
ATOM     36  C   UNL     1      -0.291  -4.882  12.016  1.00  0.00     0.031 A 
ATOM     37  C   UNL     1      -0.382  -6.344  12.351  1.00  0.00     0.074 A 
ATOM     38  C   UNL     1      -0.452  -3.949  12.975  1.00  0.00     0.049 A 
ATOM     39  N   UNL     1      -0.606  -6.914  13.506  1.00  0.00    -0.248 NA
ATOM     40  C   UNL     1      -0.244  -7.293  11.232  1.00  0.00     0.031 C 
ATOM     41  C   UNL     1      -0.452  -2.500  12.761  1.00  0.00     0.029 A 
ATOM     42  N   UNL     1      -0.642  -4.084  14.326  1.00  0.00    -0.354 N 
ATOM     43  C   UNL     1      -0.652  -8.276  13.247  1.00  0.00     0.074 A 
ATOM     44  C   UNL     1      -0.512  -8.448  11.820  1.00  0.00     0.031 C 
ATOM     45  C   UNL     1      -0.580  -1.881  13.946  1.00  0.00     0.029 A 
ATOM     46  C   UNL     1      -0.699  -2.887  14.997  1.00  0.00     0.049 A 
ATOM     47  H   UNL     1      -0.729  -4.957  14.773  1.00  0.00     0.167 HD
ATOM     48  C   UNL     1      -0.754  -9.300  14.124  1.00  0.00     0.037 A 
ATOM     49  C   UNL     1      -0.816  -2.634  16.314  1.00  0.00     0.037 A 
ATOM     50  C   UNL     1      -0.833  -9.130  15.547  1.00  0.00     0.049 A 
ATOM     51  C   UNL     1      -0.903  -3.788  17.275  1.00  0.00     0.074 A 
ATOM     52  C   UNL     1      -0.868 -10.101  16.530  1.00  0.00     0.029 A 
ATOM     53  N   UNL     1      -0.873  -7.901  16.189  1.00  0.00    -0.354 N 
ATOM     54  N   UNL     1      -0.880  -5.074  17.022  1.00  0.00    -0.248 NA
ATOM     55  C   UNL     1      -1.029  -3.457  18.701  1.00  0.00     0.031 C 
ATOM     56  C   UNL     1      -0.953  -9.459  17.770  1.00  0.00     0.029 A 
ATOM     57  C   UNL     1      -0.942  -8.089  17.557  1.00  0.00     0.049 A 
ATOM     58  H   UNL     1      -0.854  -7.026  15.737  1.00  0.00     0.167 HD
ATOM     59  C   UNL     1      -0.969  -5.706  18.255  1.00  0.00     0.074 A 
ATOM     60  C   UNL     1      -1.035  -4.661  19.257  1.00  0.00     0.031 C 
ATOM     61  C   UNL     1      -0.997  -7.031  18.532  1.00  0.00     0.037 A 
BRANCH  48  62
ATOM     62  C   UNL     1      -0.747 -10.689  13.563  1.00  0.00     0.057 A 
ATOM     63  C   UNL     1       0.418 -11.254  13.025  1.00  0.00     0.134 A 
ATOM     64  C   UNL     1      -1.905 -11.474  13.569  1.00  0.00     0.134 A 
ATOM     65  F   UNL     1       1.555 -10.544  12.972  1.00  0.00    -0.206 F 
ATOM     66  C   UNL     1       0.424 -12.542  12.490  1.00  0.00     0.040 A 
ATOM     67  C   UNL     1      -1.905 -12.773  13.059  1.00  0.00     0.040 A 
ATOM     68  F   UNL     1      -3.053 -10.992  14.068  1.00  0.00    -0.206 F 
ATOM     69  C   UNL     1      -0.740 -13.308  12.512  1.00  0.00     0.006 A 
ENDBRANCH  48  62
BRANCH  49  70
ATOM     70  C   UNL     1      -0.789  -1.235  16.806  1.00  0.00     0.057 A 
ATOM     71  C   UNL     1       0.339  -0.731  17.463  1.00  0.00     0.134 A 
ATOM     72  C   UNL     1      -1.871  -0.367  16.620  1.00  0.00     0.134 A 
ATOM     73  F   UNL     1       1.401  -1.520  17.682  1.00  0.00    -0.206 F 
ATOM     74  C   UNL     1       0.389   0.584  17.928  1.00  0.00     0.040 A 
ATOM     75  C   UNL     1      -1.829   0.956  17.065  1.00  0.00     0.040 A 
ATOM     76  F   UNL     1      -2.977  -0.788  15.991  1.00  0.00    -0.206 F 
ATOM     77  C   UNL     1      -0.697   1.434  17.725  1.00  0.00     0.006 A 
ENDBRANCH  49  70
BRANCH  61  78
ATOM     78  C   UNL     1      -1.090  -7.435  19.971  1.00  0.00     0.057 A 
ATOM     79  C   UNL     1      -2.301  -7.368  20.669  1.00  0.00     0.134 A 
ATOM     80  C   UNL     1       0.016  -7.983  20.632  1.00  0.00     0.134 A 
ATOM     81  F   UNL     1      -3.392  -6.844  20.090  1.00  0.00    -0.206 F 
ATOM     82  C   UNL     1      -2.408  -7.831  21.980  1.00  0.00     0.040 A 
ATOM     83  C   UNL     1      -0.084  -8.468  21.935  1.00  0.00     0.040 A 
ATOM     84  F   UNL     1       1.200  -8.083  20.009  1.00  0.00    -0.206 F 
ATOM     85  C   UNL     1      -1.300  -8.393  22.613  1.00  0.00     0.006 A 
ENDBRANCH  61  78
ENDBRANCH  35  36
ENDBRANCH  27  30
ENDBRANCH  25  26
ENDBRANCH  24  25
ENDBRANCH   1  24
TORSDOF 13
