REMARK SMILES O=C(NCCCCNC(=O)[C@H]1CC2(CCN(C(=O)C3CC3)CC2)CN1C(=O)CCn1cccn1)c1ccc(-c2c3nc(c(-c4c(F)cccc4F)c4ccc([nH]4)c(-c4c(F)cccc4F)c4nc(c(-c5c(F)cccc5F)c5ccc2[nH]5)C=C4)C=C3)cc1
REMARK SMILES IDX 6 1 5 2 4 3 3 4 1 5 2 6 35 8 36 9 88 10 37 11 87 12 38 13
REMARK SMILES IDX 39 14 40 15 81 16 41 17 86 18 80 19 82 20 42 21 85 22 79 23
REMARK SMILES IDX 78 24 43 26 69 27 52 28 68 29 53 30 56 31 67 32 83 33 54 34
REMARK SMILES IDX 55 35 66 37 84 38 57 39 44 40 45 41 50 42 46 43 47 44 49 45
REMARK SMILES IDX 51 46 48 47 70 48 71 49 76 50 72 51 73 52 75 53 77 54 74 55
REMARK SMILES IDX 58 56 59 57 64 58 60 59 61 60 63 61 65 62 62 63 7 64 8 65
REMARK SMILES IDX 9 66 10 68 11 69 12 70 25 71 13 72 24 73 14 74 23 75 15 76
REMARK SMILES IDX 22 77 16 78 17 79 18 80 26 81 27 82 28 83 29 84 30 85 31 86
REMARK SMILES IDX 34 87 32 88 33 89 19 90 20 91 21 92
REMARK H PARENT 3 7 82 25 56 36 8 67
REMARK Flexibility Score: inf
ROOT
ATOM      1  C   UNL     1       8.700   5.723  -8.748  1.00  0.00     0.023 C 
ENDROOT
BRANCH   1   2
ATOM      2  C   UNL     1       8.575   5.001 -10.073  1.00  0.00     0.023 C 
BRANCH   2   3
ATOM      3  C   UNL     1       7.501   5.640 -10.954  1.00  0.00     0.116 C 
BRANCH   3   4
ATOM      4  N   UNL     1       7.689   7.071 -11.096  1.00  0.00    -0.352 N 
ATOM      5  O   UNL     1       8.413   9.048 -11.763  1.00  0.00    -0.269 OA
ATOM      6  C   UNL     1       8.499   7.825 -11.889  1.00  0.00     0.251 C 
ATOM      7  H   UNL     1       7.116   7.604 -10.498  1.00  0.00     0.163 HD
BRANCH   6   8
ATOM      8  C   UNL     1       9.533   7.257 -12.789  1.00  0.00     0.039 A 
ATOM      9  C   UNL     1       9.749   5.903 -13.045  1.00  0.00     0.014 A 
ATOM     10  C   UNL     1      10.397   8.190 -13.375  1.00  0.00     0.014 A 
ATOM     11  C   UNL     1      10.939   5.481 -13.619  1.00  0.00     0.010 A 
ATOM     12  C   UNL     1      11.522   7.776 -14.063  1.00  0.00     0.010 A 
ATOM     13  C   UNL     1      11.861   6.431 -14.068  1.00  0.00    -0.014 A 
BRANCH  13  14
ATOM     14  C   UNL     1      12.987   6.003 -14.896  1.00  0.00     0.031 A 
ATOM     15  C   UNL     1      12.443   5.306 -16.108  1.00  0.00     0.074 A 
ATOM     16  C   UNL     1      14.284   6.314 -14.629  1.00  0.00     0.049 A 
ATOM     17  N   UNL     1      12.542   4.048 -16.379  1.00  0.00    -0.248 NA
ATOM     18  C   UNL     1      11.429   5.988 -16.947  1.00  0.00     0.031 C 
ATOM     19  C   UNL     1      14.839   7.102 -13.518  1.00  0.00     0.029 A 
ATOM     20  N   UNL     1      15.422   6.024 -15.352  1.00  0.00    -0.354 N 
ATOM     21  C   UNL     1      11.874   3.862 -17.590  1.00  0.00     0.074 A 
ATOM     22  C   UNL     1      11.031   5.006 -17.759  1.00  0.00     0.031 C 
ATOM     23  C   UNL     1      16.121   7.460 -13.787  1.00  0.00     0.029 A 
ATOM     24  C   UNL     1      16.547   6.817 -15.014  1.00  0.00     0.049 A 
ATOM     25  H   UNL     1      15.450   5.325 -16.046  1.00  0.00     0.167 HD
ATOM     26  C   UNL     1      12.365   2.958 -18.482  1.00  0.00     0.037 A 
ATOM     27  C   UNL     1      17.732   6.892 -15.700  1.00  0.00     0.037 A 
ATOM     28  C   UNL     1      13.212   2.016 -17.785  1.00  0.00     0.049 A 
ATOM     29  C   UNL     1      17.810   5.668 -16.541  1.00  0.00     0.074 A 
ATOM     30  C   UNL     1      13.026   1.068 -16.801  1.00  0.00     0.029 A 
ATOM     31  N   UNL     1      14.544   2.338 -17.771  1.00  0.00    -0.354 N 
ATOM     32  N   UNL     1      17.899   4.473 -16.023  1.00  0.00    -0.248 NA
ATOM     33  C   UNL     1      17.172   5.763 -17.846  1.00  0.00     0.031 C 
ATOM     34  C   UNL     1      14.170   1.185 -15.955  1.00  0.00     0.029 A 
ATOM     35  C   UNL     1      15.066   2.082 -16.535  1.00  0.00     0.049 A 
ATOM     36  H   UNL     1      15.048   2.700 -18.535  1.00  0.00     0.167 HD
ATOM     37  C   UNL     1      16.906   3.757 -16.673  1.00  0.00     0.074 A 
ATOM     38  C   UNL     1      16.486   4.617 -17.788  1.00  0.00     0.031 C 
ATOM     39  C   UNL     1      16.282   2.703 -16.067  1.00  0.00     0.037 A 
BRANCH  26  40
ATOM     40  C   UNL     1      12.580   3.269 -19.957  1.00  0.00     0.057 A 
ATOM     41  C   UNL     1      13.235   2.302 -20.747  1.00  0.00     0.134 A 
ATOM     42  C   UNL     1      12.503   4.551 -20.541  1.00  0.00     0.134 A 
ATOM     43  F   UNL     1      13.365   1.037 -20.320  1.00  0.00    -0.206 F 
ATOM     44  C   UNL     1      13.872   2.618 -21.954  1.00  0.00     0.040 A 
ATOM     45  C   UNL     1      13.103   4.866 -21.765  1.00  0.00     0.040 A 
ATOM     46  F   UNL     1      11.927   5.594 -19.937  1.00  0.00    -0.206 F 
ATOM     47  C   UNL     1      13.823   3.909 -22.459  1.00  0.00     0.006 A 
ENDBRANCH  26  40
BRANCH  27  48
ATOM     48  C   UNL     1      18.584   8.082 -16.023  1.00  0.00     0.057 A 
ATOM     49  C   UNL     1      19.881   7.978 -16.571  1.00  0.00     0.134 A 
ATOM     50  C   UNL     1      18.005   9.358 -16.102  1.00  0.00     0.134 A 
ATOM     51  F   UNL     1      20.513   6.796 -16.614  1.00  0.00    -0.206 F 
ATOM     52  C   UNL     1      20.547   9.074 -17.159  1.00  0.00     0.040 A 
ATOM     53  C   UNL     1      18.653  10.454 -16.691  1.00  0.00     0.040 A 
ATOM     54  F   UNL     1      16.745   9.560 -15.695  1.00  0.00    -0.206 F 
ATOM     55  C   UNL     1      19.926  10.316 -17.230  1.00  0.00     0.006 A 
ENDBRANCH  27  48
BRANCH  39  56
ATOM     56  C   UNL     1      16.836   2.201 -14.762  1.00  0.00     0.057 A 
ATOM     57  C   UNL     1      16.801   2.894 -13.541  1.00  0.00     0.134 A 
ATOM     58  C   UNL     1      17.282   0.877 -14.723  1.00  0.00     0.134 A 
ATOM     59  F   UNL     1      16.294   4.132 -13.460  1.00  0.00    -0.206 F 
ATOM     60  C   UNL     1      17.231   2.303 -12.345  1.00  0.00     0.040 A 
ATOM     61  C   UNL     1      17.683   0.266 -13.536  1.00  0.00     0.040 A 
ATOM     62  F   UNL     1      17.278   0.135 -15.840  1.00  0.00    -0.206 F 
ATOM     63  C   UNL     1      17.672   0.982 -12.343  1.00  0.00     0.006 A 
ENDBRANCH  39  56
ENDBRANCH  13  14
ENDBRANCH   6   8
ENDBRANCH   3   4
ENDBRANCH   2   3
ENDBRANCH   1   2
BRANCH   1  64
ATOM     64  C   UNL     1       7.335   5.936  -8.101  1.00  0.00     0.116 C 
BRANCH  64  65
ATOM     65  N   UNL     1       6.716   4.503  -7.508  1.00  0.00    -0.354 N 
ATOM     66  C   UNL     1       6.338   3.704  -5.666  1.00  0.00     0.242 C 
ATOM     67  H   UNL     1       6.470   3.884  -8.232  1.00  0.00     0.163 HD
ATOM     68  O   UNL     1       6.009   2.522  -5.296  1.00  0.00    -0.273 OA
BRANCH  66  69
ATOM     69  C   UNL     1       6.279   4.693  -4.092  1.00  0.00     0.175 C 
ATOM     70  C   UNL     1       7.328   5.804  -3.788  1.00  0.00     0.044 C 
ATOM     71  N   UNL     1       5.023   5.343  -3.662  1.00  0.00    -0.330 N 
ATOM     72  C   UNL     1       6.720   6.894  -2.911  1.00  0.00    -0.006 C 
ATOM     73  C   UNL     1       5.312   6.346  -2.614  1.00  0.00     0.127 C 
ATOM     74  C   UNL     1       6.566   8.274  -3.623  1.00  0.00     0.030 C 
ATOM     75  C   UNL     1       7.750   7.096  -1.786  1.00  0.00     0.030 C 
ATOM     76  C   UNL     1       7.874   8.896  -4.119  1.00  0.00     0.120 C 
ATOM     77  C   UNL     1       9.081   7.649  -2.372  1.00  0.00     0.120 C 
ATOM     78  N   UNL     1       8.889   8.921  -3.077  1.00  0.00    -0.342 N 
ATOM     79  C   UNL     1       9.781   9.954  -2.781  1.00  0.00     0.225 C 
ATOM     80  O   UNL     1      10.638   9.803  -1.909  1.00  0.00    -0.275 OA
BRANCH  71  81
ATOM     81  C   UNL     1       3.730   5.036  -4.030  1.00  0.00     0.225 C 
ATOM     82  O   UNL     1       2.783   5.724  -3.637  1.00  0.00    -0.275 OA
BRANCH  81  83
ATOM     83  C   UNL     1       3.430   3.857  -4.948  1.00  0.00     0.124 C 
BRANCH  83  84
ATOM     84  C   UNL     1       3.627   4.092  -6.448  1.00  0.00     0.154 C 
BRANCH  84  85
ATOM     85  N   UNL     1       5.005   4.258  -6.902  1.00  0.00    -0.272 N 
ATOM     86  C   UNL     1       6.122   5.548  -6.126  1.00  0.00     0.108 A 
ATOM     87  N   UNL     1       6.035   2.773  -7.415  1.00  0.00    -0.182 NA
ATOM     88  C   UNL     1       7.833   4.799  -6.059  1.00  0.00     0.042 A 
ATOM     89  C   UNL     1       7.685   3.031  -6.888  1.00  0.00     0.135 A 
ENDBRANCH  84  85
ENDBRANCH  83  84
ENDBRANCH  81  83
ENDBRANCH  71  81
BRANCH  79  90
ATOM     90  C   UNL     1       9.780  11.303  -3.427  1.00  0.00     0.079 C 
ATOM     91  C   UNL     1       9.187  11.822  -4.704  1.00  0.00     0.014 C 
ATOM     92  C   UNL     1       8.534  12.156  -3.390  1.00  0.00     0.014 C 
ENDBRANCH  79  90
ENDBRANCH  66  69
ENDBRANCH  64  65
ENDBRANCH   1  64
TORSDOF 16
