REMARK SMILES O=C(NCCCCNC(=O)[C@H]1CC[C@H](CNC(=O)c2ccccc2O)O1)c1ccc(-c2c3nc(c(-c4c(F)cccc4F)c4ccc([nH]4)c(-c4c(F)cccc4F)c4nc(c(-c5c(F)cccc5F)c5ccc2[nH]5)C=C4)C=C3)cc1
REMARK SMILES IDX 6 1 5 2 4 3 3 4 1 5 2 6 27 8 28 9 80 10 29 11 79 12 30 13
REMARK SMILES IDX 31 14 32 15 73 16 33 17 78 18 72 19 74 20 34 21 77 22 71 23
REMARK SMILES IDX 70 24 35 26 61 27 44 28 60 29 45 30 48 31 59 32 75 33 46 34
REMARK SMILES IDX 47 35 58 37 76 38 49 39 36 40 37 41 42 42 38 43 39 44 41 45
REMARK SMILES IDX 43 46 40 47 62 48 63 49 68 50 64 51 65 52 67 53 69 54 66 55
REMARK SMILES IDX 50 56 51 57 56 58 52 59 53 60 55 61 57 62 54 63 7 64 8 65
REMARK SMILES IDX 9 66 10 68 11 69 12 70 26 71 13 72 14 73 15 74 16 75 17 76
REMARK SMILES IDX 18 78 19 79 20 80 24 81 21 82 23 83 22 84 25 85
REMARK H PARENT 3 7 74 25 48 36 8 67 16 77 25 86
REMARK Flexibility Score: inf
ROOT
ATOM      1  C   UNL     1      10.226   2.628   6.266  1.00  0.00     0.023 C 
ENDROOT
BRANCH   1   2
ATOM      2  C   UNL     1      11.307   2.182   7.251  1.00  0.00     0.023 C 
BRANCH   2   3
ATOM      3  C   UNL     1      11.963   0.841   6.943  1.00  0.00     0.116 C 
BRANCH   3   4
ATOM      4  N   UNL     1      12.698   0.844   5.689  1.00  0.00    -0.352 N 
ATOM      5  O   UNL     1      14.502   0.699   4.342  1.00  0.00    -0.269 OA
ATOM      6  C   UNL     1      14.007   0.504   5.449  1.00  0.00     0.251 C 
ATOM      7  H   UNL     1      12.184   1.130   4.899  1.00  0.00     0.163 HD
BRANCH   6   8
ATOM      8  C   UNL     1      14.832  -0.076   6.532  1.00  0.00     0.039 A 
ATOM      9  C   UNL     1      14.333  -1.099   7.343  1.00  0.00     0.014 A 
ATOM     10  C   UNL     1      16.131   0.402   6.727  1.00  0.00     0.014 A 
ATOM     11  C   UNL     1      15.082  -1.554   8.423  1.00  0.00     0.010 A 
ATOM     12  C   UNL     1      16.912  -0.111   7.766  1.00  0.00     0.010 A 
ATOM     13  C   UNL     1      16.386  -1.078   8.635  1.00  0.00    -0.014 A 
BRANCH  13  14
ATOM     14  C   UNL     1      17.212  -1.667   9.719  1.00  0.00     0.031 A 
ATOM     15  C   UNL     1      17.656  -0.847  10.896  1.00  0.00     0.074 A 
ATOM     16  C   UNL     1      17.562  -2.964   9.626  1.00  0.00     0.049 A 
ATOM     17  N   UNL     1      18.398  -1.204  11.914  1.00  0.00    -0.248 NA
ATOM     18  C   UNL     1      17.220   0.557  10.936  1.00  0.00     0.031 C 
ATOM     19  C   UNL     1      17.203  -3.855   8.519  1.00  0.00     0.029 A 
ATOM     20  N   UNL     1      18.294  -3.760  10.468  1.00  0.00    -0.354 N 
ATOM     21  C   UNL     1      18.535  -0.070  12.704  1.00  0.00     0.074 A 
ATOM     22  C   UNL     1      17.814   0.995  12.039  1.00  0.00     0.031 C 
ATOM     23  C   UNL     1      17.691  -5.079   8.764  1.00  0.00     0.029 A 
ATOM     24  C   UNL     1      18.447  -5.046  10.010  1.00  0.00     0.049 A 
ATOM     25  H   UNL     1      18.672  -3.442  11.319  1.00  0.00     0.167 HD
ATOM     26  C   UNL     1      19.198   0.064  13.878  1.00  0.00     0.037 A 
ATOM     27  C   UNL     1      19.143  -6.079  10.519  1.00  0.00     0.037 A 
ATOM     28  C   UNL     1      19.896  -1.007  14.543  1.00  0.00     0.049 A 
ATOM     29  C   UNL     1      19.892  -5.891  11.805  1.00  0.00     0.074 A 
ATOM     30  C   UNL     1      20.541  -0.984  15.768  1.00  0.00     0.029 A 
ATOM     31  N   UNL     1      20.050  -2.288  14.035  1.00  0.00    -0.354 N 
ATOM     32  N   UNL     1      19.966  -4.828  12.568  1.00  0.00    -0.248 NA
ATOM     33  C   UNL     1      20.661  -7.042  12.297  1.00  0.00     0.031 C 
ATOM     34  C   UNL     1      21.127  -2.237  15.978  1.00  0.00     0.029 A 
ATOM     35  C   UNL     1      20.809  -3.054  14.906  1.00  0.00     0.049 A 
ATOM     36  H   UNL     1      19.675  -2.606  13.182  1.00  0.00     0.167 HD
ATOM     37  C   UNL     1      20.778  -5.183  13.635  1.00  0.00     0.074 A 
ATOM     38  C   UNL     1      21.155  -6.567  13.432  1.00  0.00     0.031 C 
ATOM     39  C   UNL     1      21.179  -4.428  14.686  1.00  0.00     0.037 A 
BRANCH  26  40
ATOM     40  C   UNL     1      19.221   1.421  14.520  1.00  0.00     0.057 A 
ATOM     41  C   UNL     1      18.096   1.960  15.155  1.00  0.00     0.134 A 
ATOM     42  C   UNL     1      20.407   2.166  14.563  1.00  0.00     0.134 A 
ATOM     43  F   UNL     1      16.928   1.301  15.144  1.00  0.00    -0.206 F 
ATOM     44  C   UNL     1      18.145   3.200  15.797  1.00  0.00     0.040 A 
ATOM     45  C   UNL     1      20.474   3.396  15.220  1.00  0.00     0.040 A 
ATOM     46  F   UNL     1      21.524   1.703  13.982  1.00  0.00    -0.206 F 
ATOM     47  C   UNL     1      19.340   3.917  15.838  1.00  0.00     0.006 A 
ENDBRANCH  26  40
BRANCH  27  48
ATOM     48  C   UNL     1      19.180  -7.371   9.792  1.00  0.00     0.057 A 
ATOM     49  C   UNL     1      18.537  -8.506  10.297  1.00  0.00     0.134 A 
ATOM     50  C   UNL     1      19.849  -7.497   8.568  1.00  0.00     0.134 A 
ATOM     51  F   UNL     1      17.894  -8.451  11.473  1.00  0.00    -0.206 F 
ATOM     52  C   UNL     1      18.569  -9.725   9.618  1.00  0.00     0.040 A 
ATOM     53  C   UNL     1      19.867  -8.702   7.865  1.00  0.00     0.040 A 
ATOM     54  F   UNL     1      20.478  -6.442   8.028  1.00  0.00    -0.206 F 
ATOM     55  C   UNL     1      19.230  -9.822   8.394  1.00  0.00     0.006 A 
ENDBRANCH  27  48
BRANCH  39  56
ATOM     56  C   UNL     1      22.060  -5.091  15.702  1.00  0.00     0.057 A 
ATOM     57  C   UNL     1      23.407  -5.367  15.438  1.00  0.00     0.134 A 
ATOM     58  C   UNL     1      21.565  -5.426  16.968  1.00  0.00     0.134 A 
ATOM     59  F   UNL     1      23.936  -5.085  14.238  1.00  0.00    -0.206 F 
ATOM     60  C   UNL     1      24.227  -5.971  16.392  1.00  0.00     0.040 A 
ATOM     61  C   UNL     1      22.381  -6.008  17.939  1.00  0.00     0.040 A 
ATOM     62  F   UNL     1      20.284  -5.183  17.285  1.00  0.00    -0.206 F 
ATOM     63  C   UNL     1      23.715  -6.287  17.650  1.00  0.00     0.006 A 
ENDBRANCH  39  56
ENDBRANCH  13  14
ENDBRANCH   6   8
ENDBRANCH   3   4
ENDBRANCH   2   3
ENDBRANCH   1   2
BRANCH   1  64
ATOM     64  C   UNL     1       9.119   1.612   5.998  1.00  0.00     0.116 C 
BRANCH  64  65
ATOM     65  N   UNL     1       8.435   1.185   7.205  1.00  0.00    -0.354 N 
ATOM     66  C   UNL     1       7.088   1.135   7.452  1.00  0.00     0.249 C 
ATOM     67  H   UNL     1       9.015   0.892   7.944  1.00  0.00     0.163 HD
ATOM     68  O   UNL     1       6.708   0.647   8.517  1.00  0.00    -0.272 OA
BRANCH  66  69
ATOM     69  C   UNL     1       6.122   1.697   6.397  1.00  0.00     0.207 C 
ATOM     70  C   UNL     1       4.685   1.241   6.576  1.00  0.00     0.045 C 
ATOM     71  O   UNL     1       6.130   3.131   6.491  1.00  0.00    -0.363 OA
ATOM     72  C   UNL     1       4.069   2.358   7.379  1.00  0.00     0.037 C 
ATOM     73  C   UNL     1       4.818   3.587   6.889  1.00  0.00     0.138 C 
BRANCH  73  74
ATOM     74  C   UNL     1       4.191   4.279   5.670  1.00  0.00     0.148 C 
BRANCH  74  75
ATOM     75  N   UNL     1       2.872   4.835   5.911  1.00  0.00    -0.349 N 
ATOM     76  C   UNL     1       2.426   6.120   5.726  1.00  0.00     0.255 C 
ATOM     77  H   UNL     1       2.202   4.201   6.255  1.00  0.00     0.163 HD
ATOM     78  O   UNL     1       1.269   6.409   6.024  1.00  0.00    -0.269 OA
BRANCH  76  79
ATOM     79  C   UNL     1       3.340   7.185   5.260  1.00  0.00     0.081 A 
ATOM     80  C   UNL     1       3.456   8.320   6.075  1.00  0.00     0.018 A 
ATOM     81  C   UNL     1       4.035   7.132   4.046  1.00  0.00     0.128 A 
ATOM     82  C   UNL     1       4.304   9.365   5.708  1.00  0.00     0.001 A 
ATOM     83  C   UNL     1       4.894   8.173   3.686  1.00  0.00     0.047 A 
ATOM     84  C   UNL     1       5.031   9.285   4.521  1.00  0.00     0.004 A 
BRANCH  81  85
ATOM     85  O   UNL     1       3.882   6.067   3.201  1.00  0.00    -0.507 OA
ATOM     86  H   UNL     1       3.309   5.364   3.434  1.00  0.00     0.293 HD
ENDBRANCH  81  85
ENDBRANCH  76  79
ENDBRANCH  74  75
ENDBRANCH  73  74
ENDBRANCH  66  69
ENDBRANCH  64  65
ENDBRANCH   1  64
TORSDOF 15
