REMARK SMILES O=C(NCCCCNC(=O)c1ccc(-c2c3nc(c(-c4c(F)cccc4F)c4ccc([nH]4)c(-c4c(F)cccc4F)c4nc(c(-c5c(F)cccc5F)c5ccc2[nH]5)C=C4)C=C3)cc1)C1=Cc2cc(Cl)ccc2O[C@@H]1C(F)(F)F
REMARK SMILES IDX 6 1 5 2 4 3 3 4 1 5 2 6 65 8 66 9 75 10 67 11 74 12 68 13
REMARK SMILES IDX 73 14 69 15 72 16 70 17 71 18 76 19 77 20 78 21 79 22 7 23
REMARK SMILES IDX 8 24 9 25 10 27 11 28 12 29 64 30 13 31 63 32 14 33 15 34
REMARK SMILES IDX 16 35 57 36 17 37 62 38 56 39 58 40 18 41 61 42 55 43 54 44
REMARK SMILES IDX 19 46 45 47 28 48 44 49 29 50 32 51 43 52 59 53 30 54 31 55
REMARK SMILES IDX 42 57 60 58 33 59 20 60 21 61 26 62 22 63 23 64 25 65 27 66
REMARK SMILES IDX 24 67 46 68 47 69 52 70 48 71 49 72 51 73 53 74 50 75 34 76
REMARK SMILES IDX 35 77 40 78 36 79 37 80 39 81 41 82 38 83
REMARK H PARENT 3 7 8 26 58 45 32 56
REMARK Flexibility Score: inf
ROOT
ATOM      1  C   UNL     1       3.951   4.173   1.696  1.00  0.00     0.023 C 
ENDROOT
BRANCH   1   2
ATOM      2  C   UNL     1       4.302   3.457   0.399  1.00  0.00     0.023 C 
BRANCH   2   3
ATOM      3  C   UNL     1       3.989   1.968   0.338  1.00  0.00     0.116 C 
BRANCH   3   4
ATOM      4  N   UNL     1       2.676   1.621  -0.175  1.00  0.00    -0.352 N 
ATOM      5  O   UNL     1       1.044   0.287  -0.953  1.00  0.00    -0.270 OA
ATOM      6  C   UNL     1       2.243   0.441  -0.720  1.00  0.00     0.251 C 
ATOM      7  H   UNL     1       2.000   2.335  -0.123  1.00  0.00     0.163 HD
BRANCH   6   8
ATOM      8  C   UNL     1       3.161  -0.710  -0.967  1.00  0.00     0.067 C 
ATOM      9  C   UNL     1       4.402  -0.540  -1.458  1.00  0.00     0.025 C 
ATOM     10  C   UNL     1       2.886  -1.897  -0.069  1.00  0.00     0.314 C 
ATOM     11  C   UNL     1       5.429  -0.793  -0.415  1.00  0.00     0.019 A 
ATOM     12  O   UNL     1       3.843  -1.969   1.026  1.00  0.00    -0.475 OA
ATOM     13  C   UNL     1       6.678  -0.173  -0.548  1.00  0.00     0.032 A 
ATOM     14  C   UNL     1       5.072  -1.404   0.798  1.00  0.00     0.128 A 
ATOM     15  C   UNL     1       7.522  -0.093   0.557  1.00  0.00     0.041 A 
ATOM     16  C   UNL     1       5.941  -1.351   1.886  1.00  0.00     0.048 A 
ATOM     17  Cl  UNL     1       8.979   0.813   0.444  1.00  0.00    -0.084 Cl
ATOM     18  C   UNL     1       7.156  -0.670   1.774  1.00  0.00     0.024 A 
BRANCH  10  19
ATOM     19  C   UNL     1       2.830  -3.221  -0.848  1.00  0.00     0.429 C 
ATOM     20  F   UNL     1       2.466  -4.249  -0.044  1.00  0.00    -0.167 F 
ATOM     21  F   UNL     1       1.927  -3.171  -1.856  1.00  0.00    -0.167 F 
ATOM     22  F   UNL     1       4.023  -3.547  -1.400  1.00  0.00    -0.167 F 
ENDBRANCH  10  19
ENDBRANCH   6   8
ENDBRANCH   3   4
ENDBRANCH   2   3
ENDBRANCH   1   2
BRANCH   1  23
ATOM     23  C   UNL     1       4.516   3.582   2.986  1.00  0.00     0.116 C 
BRANCH  23  24
ATOM     24  N   UNL     1       5.959   3.383   2.998  1.00  0.00    -0.352 N 
ATOM     25  C   UNL     1       6.892   3.723   3.957  1.00  0.00     0.251 C 
ATOM     26  H   UNL     1       6.325   2.937   2.200  1.00  0.00     0.163 HD
ATOM     27  O   UNL     1       8.076   3.469   3.779  1.00  0.00    -0.269 OA
BRANCH  25  28
ATOM     28  C   UNL     1       6.474   4.449   5.179  1.00  0.00     0.039 A 
ATOM     29  C   UNL     1       7.195   5.585   5.559  1.00  0.00     0.014 A 
ATOM     30  C   UNL     1       5.357   4.053   5.918  1.00  0.00     0.014 A 
ATOM     31  C   UNL     1       6.727   6.385   6.605  1.00  0.00     0.010 A 
ATOM     32  C   UNL     1       4.844   4.896   6.902  1.00  0.00     0.010 A 
ATOM     33  C   UNL     1       5.513   6.081   7.243  1.00  0.00    -0.014 A 
BRANCH  33  34
ATOM     34  C   UNL     1       4.913   7.027   8.220  1.00  0.00     0.031 A 
ATOM     35  C   UNL     1       4.710   6.635   9.656  1.00  0.00     0.074 A 
ATOM     36  C   UNL     1       4.494   8.235   7.792  1.00  0.00     0.049 A 
ATOM     37  N   UNL     1       4.235   7.348  10.647  1.00  0.00    -0.248 NA
ATOM     38  C   UNL     1       5.057   5.254  10.024  1.00  0.00     0.031 C 
ATOM     39  C   UNL     1       4.552   8.711   6.408  1.00  0.00     0.029 A 
ATOM     40  N   UNL     1       3.942   9.288   8.479  1.00  0.00    -0.354 N 
ATOM     41  C   UNL     1       4.213   6.501  11.747  1.00  0.00     0.074 A 
ATOM     42  C   UNL     1       4.671   5.206  11.290  1.00  0.00     0.031 C 
ATOM     43  C   UNL     1       4.105   9.976   6.357  1.00  0.00     0.029 A 
ATOM     44  C   UNL     1       3.707  10.393   7.697  1.00  0.00     0.049 A 
ATOM     45  H   UNL     1       3.735   9.255   9.441  1.00  0.00     0.167 HD
ATOM     46  C   UNL     1       3.868   6.781  13.027  1.00  0.00     0.037 A 
ATOM     47  C   UNL     1       3.244  11.614   8.025  1.00  0.00     0.037 A 
ATOM     48  C   UNL     1       3.441   8.076  13.489  1.00  0.00     0.049 A 
ATOM     49  C   UNL     1       2.911  11.913   9.459  1.00  0.00     0.074 A 
ATOM     50  C   UNL     1       3.151   8.481  14.780  1.00  0.00     0.029 A 
ATOM     51  N   UNL     1       3.238   9.177  12.671  1.00  0.00    -0.354 N 
ATOM     52  N   UNL     1       2.994  11.132  10.508  1.00  0.00    -0.248 NA
ATOM     53  C   UNL     1       2.433  13.271   9.755  1.00  0.00     0.031 C 
ATOM     54  C   UNL     1       2.737   9.818  14.739  1.00  0.00     0.029 A 
ATOM     55  C   UNL     1       2.808  10.256  13.427  1.00  0.00     0.049 A 
ATOM     56  H   UNL     1       3.379   9.191  11.697  1.00  0.00     0.167 HD
ATOM     57  C   UNL     1       2.606  11.909  11.591  1.00  0.00     0.074 A 
ATOM     58  C   UNL     1       2.303  13.228  11.073  1.00  0.00     0.031 C 
ATOM     59  C   UNL     1       2.510  11.562  12.898  1.00  0.00     0.037 A 
BRANCH  46  60
ATOM     60  C   UNL     1       3.949   5.659  14.021  1.00  0.00     0.057 A 
ATOM     61  C   UNL     1       5.179   5.139  14.449  1.00  0.00     0.134 A 
ATOM     62  C   UNL     1       2.787   5.101  14.568  1.00  0.00     0.134 A 
ATOM     63  F   UNL     1       6.329   5.620  13.953  1.00  0.00    -0.206 F 
ATOM     64  C   UNL     1       5.249   4.085  15.361  1.00  0.00     0.040 A 
ATOM     65  C   UNL     1       2.845   4.064  15.501  1.00  0.00     0.040 A 
ATOM     66  F   UNL     1       1.578   5.555  14.207  1.00  0.00    -0.206 F 
ATOM     67  C   UNL     1       4.079   3.548  15.893  1.00  0.00     0.006 A 
ENDBRANCH  46  60
BRANCH  47  68
ATOM     68  C   UNL     1       3.135  12.670   6.989  1.00  0.00     0.057 A 
ATOM     69  C   UNL     1       4.030  13.747   6.969  1.00  0.00     0.134 A 
ATOM     70  C   UNL     1       2.142  12.637   6.005  1.00  0.00     0.134 A 
ATOM     71  F   UNL     1       4.992  13.841   7.899  1.00  0.00    -0.206 F 
ATOM     72  C   UNL     1       3.931  14.763   6.018  1.00  0.00     0.040 A 
ATOM     73  C   UNL     1       2.044  13.635   5.034  1.00  0.00     0.040 A 
ATOM     74  F   UNL     1       1.259  11.627   5.967  1.00  0.00    -0.206 F 
ATOM     75  C   UNL     1       2.937  14.706   5.043  1.00  0.00     0.006 A 
ENDBRANCH  47  68
BRANCH  59  76
ATOM     76  C   UNL     1       2.084  12.636  13.855  1.00  0.00     0.057 A 
ATOM     77  C   UNL     1       0.767  13.111  13.895  1.00  0.00     0.134 A 
ATOM     78  C   UNL     1       3.003  13.199  14.750  1.00  0.00     0.134 A 
ATOM     79  F   UNL     1      -0.157  12.624  13.054  1.00  0.00    -0.206 F 
ATOM     80  C   UNL     1       0.386  14.131  14.770  1.00  0.00     0.040 A 
ATOM     81  C   UNL     1       2.628  14.201  15.646  1.00  0.00     0.040 A 
ATOM     82  F   UNL     1       4.279  12.784  14.767  1.00  0.00    -0.206 F 
ATOM     83  C   UNL     1       1.318  14.676  15.651  1.00  0.00     0.006 A 
ENDBRANCH  59  76
ENDBRANCH  33  34
ENDBRANCH  25  28
ENDBRANCH  23  24
ENDBRANCH   1  23
TORSDOF 12
