REMARK SMILES C[C@H]1CCC[C@H](C(C)(C)C(=O)NCCCCNC(=O)c2ccc(-c3c4nc(c(-c5c(F)cccc5F)c5ccc([nH]5)c(-c5c(F)cccc5F)c5nc(c(-c6c(F)cccc6F)c6ccc3[nH]6)C=C5)C=C4)cc2)C1
REMARK SMILES IDX 15 1 14 2 13 3 12 4 10 5 11 6 7 8 8 9 9 10 6 11 1 12 2 13
REMARK SMILES IDX 3 14 74 15 4 16 5 17 16 18 17 19 18 20 19 22 20 23 21 24
REMARK SMILES IDX 73 25 22 26 72 27 23 28 24 29 25 30 66 31 26 32 71 33 65 34
REMARK SMILES IDX 67 35 27 36 70 37 64 38 63 39 28 41 54 42 37 43 53 44 38 45
REMARK SMILES IDX 41 46 52 47 68 48 39 49 40 50 51 52 69 53 42 54 29 55 30 56
REMARK SMILES IDX 35 57 31 58 32 59 34 60 36 61 33 62 55 63 56 64 61 65 57 66
REMARK SMILES IDX 58 67 60 68 62 69 59 70 43 71 44 72 49 73 45 74 46 75 48 76
REMARK SMILES IDX 50 77 47 78
REMARK H PARENT 12 7 17 21 67 40 41 51
REMARK Flexibility Score: inf
ROOT
ATOM      1  C   UNL     1       0.712  -0.474   6.475  1.00  0.00     0.023 C 
ENDROOT
BRANCH   1   2
ATOM      2  C   UNL     1      -0.045  -1.588   5.744  1.00  0.00     0.023 C 
BRANCH   2   3
ATOM      3  C   UNL     1      -1.321  -1.127   5.040  1.00  0.00     0.116 C 
BRANCH   3   4
ATOM      4  N   UNL     1      -1.023  -0.110   4.059  1.00  0.00    -0.356 N 
ATOM      5  C   UNL     1      -0.893  -0.099   2.711  1.00  0.00     0.225 C 
ATOM      6  O   UNL     1      -0.451   0.970   2.293  1.00  0.00    -0.275 OA
ATOM      7  H   UNL     1      -0.882   0.778   4.461  1.00  0.00     0.163 HD
BRANCH   5   8
ATOM      8  C   UNL     1      -1.319  -1.270   1.793  1.00  0.00     0.046 C 
ATOM      9  C   UNL     1      -2.842  -1.463   1.992  1.00  0.00     0.022 C 
ATOM     10  C   UNL     1      -0.581  -2.566   2.198  1.00  0.00     0.022 C 
BRANCH   8  11
ATOM     11  C   UNL     1      -1.064  -1.057   0.230  1.00  0.00     0.004 C 
ATOM     12  C   UNL     1       2.603   0.023  -0.607  1.00  0.00     0.007 C 
ATOM     13  C   UNL     1       1.187   0.157  -0.042  1.00  0.00    -0.014 C 
ATOM     14  C   UNL     1       0.478   1.371  -0.662  1.00  0.00     0.003 C 
ATOM     15  C   UNL     1       0.395  -1.127  -0.269  1.00  0.00     0.008 C 
ATOM     16  C   UNL     1      -1.033   1.460  -0.430  1.00  0.00     0.001 C 
ATOM     17  C   UNL     1      -1.767   0.124  -0.470  1.00  0.00     0.005 C 
ENDBRANCH   8  11
ENDBRANCH   5   8
ENDBRANCH   3   4
ENDBRANCH   2   3
ENDBRANCH   1   2
BRANCH   1  18
ATOM     18  C   UNL     1      -0.145   0.408   7.373  1.00  0.00     0.116 C 
BRANCH  18  19
ATOM     19  N   UNL     1      -0.917  -0.356   8.340  1.00  0.00    -0.352 N 
ATOM     20  C   UNL     1      -1.122  -0.104   9.671  1.00  0.00     0.251 C 
ATOM     21  H   UNL     1      -1.352  -1.167   7.989  1.00  0.00     0.163 HD
ATOM     22  O   UNL     1      -1.696  -0.930  10.376  1.00  0.00    -0.269 OA
BRANCH  20  23
ATOM     23  C   UNL     1      -0.623   1.153  10.257  1.00  0.00     0.039 A 
ATOM     24  C   UNL     1       0.069   1.101  11.468  1.00  0.00     0.014 A 
ATOM     25  C   UNL     1      -0.829   2.375   9.609  1.00  0.00     0.014 A 
ATOM     26  C   UNL     1       0.589   2.275  12.013  1.00  0.00     0.010 A 
ATOM     27  C   UNL     1      -0.236   3.528  10.108  1.00  0.00     0.010 A 
ATOM     28  C   UNL     1       0.458   3.494  11.327  1.00  0.00    -0.014 A 
BRANCH  28  29
ATOM     29  C   UNL     1       0.997   4.752  11.897  1.00  0.00     0.031 A 
ATOM     30  C   UNL     1       0.057   5.866  12.269  1.00  0.00     0.074 A 
ATOM     31  C   UNL     1       2.327   4.908  12.042  1.00  0.00     0.049 A 
ATOM     32  N   UNL     1       0.328   7.056  12.742  1.00  0.00    -0.248 NA
ATOM     33  C   UNL     1      -1.379   5.620  12.054  1.00  0.00     0.031 C 
ATOM     34  C   UNL     1       3.342   3.920  11.675  1.00  0.00     0.029 A 
ATOM     35  N   UNL     1       3.052   5.963  12.535  1.00  0.00    -0.354 N 
ATOM     36  C   UNL     1      -0.897   7.700  12.864  1.00  0.00     0.074 A 
ATOM     37  C   UNL     1      -1.904   6.798  12.355  1.00  0.00     0.031 C 
ATOM     38  C   UNL     1       4.557   4.403  11.983  1.00  0.00     0.029 A 
ATOM     39  C   UNL     1       4.409   5.747  12.533  1.00  0.00     0.049 A 
ATOM     40  H   UNL     1       2.640   6.796  12.860  1.00  0.00     0.167 HD
ATOM     41  C   UNL     1      -1.163   8.923  13.382  1.00  0.00     0.037 A 
ATOM     42  C   UNL     1       5.417   6.545  12.929  1.00  0.00     0.037 A 
ATOM     43  C   UNL     1      -0.159   9.809  13.908  1.00  0.00     0.049 A 
ATOM     44  C   UNL     1       5.096   7.901  13.498  1.00  0.00     0.074 A 
ATOM     45  C   UNL     1      -0.326  11.050  14.496  1.00  0.00     0.029 A 
ATOM     46  N   UNL     1       1.203   9.546  13.906  1.00  0.00    -0.354 N 
ATOM     47  N   UNL     1       3.928   8.474  13.667  1.00  0.00    -0.248 NA
ATOM     48  C   UNL     1       6.234   8.714  13.946  1.00  0.00     0.031 C 
ATOM     49  C   UNL     1       0.939  11.560  14.807  1.00  0.00     0.029 A 
ATOM     50  C   UNL     1       1.890  10.609  14.470  1.00  0.00     0.049 A 
ATOM     51  H   UNL     1       1.620   8.726  13.556  1.00  0.00     0.167 HD
ATOM     52  C   UNL     1       4.188   9.695  14.276  1.00  0.00     0.074 A 
ATOM     53  C   UNL     1       5.623   9.773  14.458  1.00  0.00     0.031 C 
ATOM     54  C   UNL     1       3.318  10.664  14.655  1.00  0.00     0.037 A 
BRANCH  41  55
ATOM     55  C   UNL     1      -2.598   9.367  13.402  1.00  0.00     0.057 A 
ATOM     56  C   UNL     1      -3.553   8.754  14.227  1.00  0.00     0.134 A 
ATOM     57  C   UNL     1      -3.029  10.433  12.602  1.00  0.00     0.134 A 
ATOM     58  F   UNL     1      -3.212   7.718  15.008  1.00  0.00    -0.206 F 
ATOM     59  C   UNL     1      -4.888   9.163  14.230  1.00  0.00     0.040 A 
ATOM     60  C   UNL     1      -4.354  10.872  12.621  1.00  0.00     0.040 A 
ATOM     61  F   UNL     1      -2.169  11.069  11.792  1.00  0.00    -0.206 F 
ATOM     62  C   UNL     1      -5.290  10.230  13.430  1.00  0.00     0.006 A 
ENDBRANCH  41  55
BRANCH  42  63
ATOM     63  C   UNL     1       6.824   6.077  12.834  1.00  0.00     0.057 A 
ATOM     64  C   UNL     1       7.576   5.805  13.983  1.00  0.00     0.134 A 
ATOM     65  C   UNL     1       7.456   5.907  11.596  1.00  0.00     0.134 A 
ATOM     66  F   UNL     1       7.031   5.964  15.199  1.00  0.00    -0.206 F 
ATOM     67  C   UNL     1       8.912   5.411  13.908  1.00  0.00     0.040 A 
ATOM     68  C   UNL     1       8.784   5.485  11.505  1.00  0.00     0.040 A 
ATOM     69  F   UNL     1       6.789   6.140  10.457  1.00  0.00    -0.206 F 
ATOM     70  C   UNL     1       9.519   5.246  12.664  1.00  0.00     0.006 A 
ENDBRANCH  42  63
BRANCH  54  71
ATOM     71  C   UNL     1       3.890  11.862  15.360  1.00  0.00     0.057 A 
ATOM     72  C   UNL     1       4.685  12.808  14.702  1.00  0.00     0.134 A 
ATOM     73  C   UNL     1       3.620  12.078  16.718  1.00  0.00     0.134 A 
ATOM     74  F   UNL     1       4.991  12.656  13.404  1.00  0.00    -0.206 F 
ATOM     75  C   UNL     1       5.223  13.905  15.377  1.00  0.00     0.040 A 
ATOM     76  C   UNL     1       4.124  13.188  17.396  1.00  0.00     0.040 A 
ATOM     77  F   UNL     1       2.854  11.218  17.407  1.00  0.00    -0.206 F 
ATOM     78  C   UNL     1       4.938  14.100  16.727  1.00  0.00     0.006 A 
ENDBRANCH  54  71
ENDBRANCH  28  29
ENDBRANCH  20  23
ENDBRANCH  18  19
ENDBRANCH   1  18
TORSDOF 12
