REMARK SMILES Cc1c(C(=O)NCCCCNC(=O)c2ccc(-c3c4nc(c(-c5c(F)cccc5F)c5ccc([nH]5)c(-c5c(F)cccc5F)c5nc(c(-c6c(F)cccc6F)c6ccc3[nH]6)C=C5)C=C4)cc2)oc2c1/C(=N/NC(=O)C(c1ccccc1)c1ccccc1)CCC2
REMARK SMILES IDX 8 1 7 2 6 3 4 4 5 5 3 7 1 8 2 9 70 10 68 11 69 12 71 13
REMARK SMILES IDX 91 14 72 15 89 16 90 17 73 18 74 19 75 21 76 22 77 23 78 24
REMARK SMILES IDX 82 25 79 26 81 27 80 28 83 29 84 30 88 31 85 32 87 33 86 34
REMARK SMILES IDX 9 35 10 36 11 37 12 38 13 40 14 41 15 42 67 43 16 44 66 45
REMARK SMILES IDX 17 46 18 47 19 48 60 49 20 50 65 51 59 52 61 53 21 54 64 55
REMARK SMILES IDX 58 56 57 57 22 59 48 60 31 61 47 62 32 63 35 64 46 65 62 66
REMARK SMILES IDX 33 67 34 68 45 70 63 71 36 72 23 73 24 74 29 75 25 76 26 77
REMARK SMILES IDX 28 78 30 79 27 80 49 81 50 82 55 83 51 84 52 85 54 86 56 87
REMARK SMILES IDX 53 88 37 89 38 90 43 91 39 92 40 93 42 94 44 95 41 96
REMARK H PARENT 6 6 73 20 11 39 61 58 35 69
REMARK Flexibility Score: inf
ROOT
ATOM      1  C   UNL     1      -4.150   3.569   2.565  1.00  0.00     0.023 C 
ENDROOT
BRANCH   1   2
ATOM      2  C   UNL     1      -3.088   2.756   3.328  1.00  0.00     0.116 C 
BRANCH   2   3
ATOM      3  N   UNL     1      -3.033   1.335   2.947  1.00  0.00    -0.349 N 
ATOM      4  C   UNL     1      -2.213   0.649   2.040  1.00  0.00     0.287 C 
ATOM      5  O   UNL     1      -2.267  -0.572   2.035  1.00  0.00    -0.266 OA
ATOM      6  H   UNL     1      -3.688   0.765   3.411  1.00  0.00     0.163 HD
BRANCH   4   7
ATOM      7  C   UNL     1      -1.310   1.424   1.206  1.00  0.00     0.195 A 
ATOM      8  C   UNL     1       0.477  -0.132   0.122  1.00  0.00     0.049 C 
ATOM      9  C   UNL     1      -0.156   1.173   0.441  1.00  0.00     0.010 A 
ATOM     10  C   UNL     1       0.407   2.471   0.183  1.00  0.00     0.043 A 
ATOM     11  O   UNL     1      -1.569   2.749   1.197  1.00  0.00    -0.455 OA
ATOM     12  C   UNL     1      -0.463   3.347   0.802  1.00  0.00     0.114 A 
ATOM     13  C   UNL     1       1.656   3.025  -0.343  1.00  0.00     0.072 C 
ATOM     14  C   UNL     1      -0.301   4.743   1.240  1.00  0.00     0.076 C 
ATOM     15  N   UNL     1       2.386   2.378  -1.202  1.00  0.00    -0.177 NA
ATOM     16  C   UNL     1       1.941   4.329   0.323  1.00  0.00     0.059 C 
ATOM     17  C   UNL     1       0.791   5.324   0.397  1.00  0.00     0.014 C 
BRANCH  15  18
ATOM     18  N   UNL     1       3.576   2.712  -1.853  1.00  0.00    -0.246 N 
ATOM     19  C   UNL     1       4.371   3.793  -2.215  1.00  0.00     0.252 C 
ATOM     20  H   UNL     1       4.007   1.885  -2.168  1.00  0.00     0.193 HD
ATOM     21  O   UNL     1       5.290   3.527  -3.015  1.00  0.00    -0.272 OA
BRANCH  19  22
ATOM     22  C   UNL     1       4.273   5.271  -1.705  1.00  0.00     0.140 C 
BRANCH  22  23
ATOM     23  C   UNL     1       2.916   5.884  -2.226  1.00  0.00    -0.031 A 
ATOM     24  C   UNL     1       2.462   7.176  -1.921  1.00  0.00     0.005 A 
ATOM     25  C   UNL     1       2.047   5.107  -3.042  1.00  0.00     0.005 A 
ATOM     26  C   UNL     1       1.158   7.590  -2.280  1.00  0.00     0.000 A 
ATOM     27  C   UNL     1       0.745   5.497  -3.366  1.00  0.00     0.000 A 
ATOM     28  C   UNL     1       0.289   6.739  -2.966  1.00  0.00     0.000 A 
ENDBRANCH  22  23
BRANCH  22  29
ATOM     29  C   UNL     1       4.738   5.255  -0.180  1.00  0.00    -0.031 A 
ATOM     30  C   UNL     1       5.451   4.115   0.279  1.00  0.00     0.005 A 
ATOM     31  C   UNL     1       4.284   6.143   0.815  1.00  0.00     0.005 A 
ATOM     32  C   UNL     1       5.418   3.710   1.616  1.00  0.00     0.000 A 
ATOM     33  C   UNL     1       4.287   5.750   2.172  1.00  0.00     0.000 A 
ATOM     34  C   UNL     1       4.792   4.507   2.559  1.00  0.00     0.000 A 
ENDBRANCH  22  29
ENDBRANCH  19  22
ENDBRANCH  15  18
ENDBRANCH   4   7
ENDBRANCH   2   3
ENDBRANCH   1   2
BRANCH   1  35
ATOM     35  C   UNL     1      -5.599   3.300   2.997  1.00  0.00     0.023 C 
BRANCH  35  36
ATOM     36  C   UNL     1      -5.929   3.711   4.429  1.00  0.00     0.116 C 
BRANCH  36  37
ATOM     37  N   UNL     1      -5.929   5.161   4.642  1.00  0.00    -0.352 N 
ATOM     38  C   UNL     1      -6.096   5.841   5.840  1.00  0.00     0.251 C 
ATOM     39  H   UNL     1      -5.795   5.718   3.841  1.00  0.00     0.163 HD
ATOM     40  O   UNL     1      -6.513   6.989   5.867  1.00  0.00    -0.269 OA
BRANCH  38  41
ATOM     41  C   UNL     1      -5.713   5.160   7.091  1.00  0.00     0.039 A 
ATOM     42  C   UNL     1      -6.441   5.293   8.280  1.00  0.00     0.014 A 
ATOM     43  C   UNL     1      -4.579   4.357   7.038  1.00  0.00     0.014 A 
ATOM     44  C   UNL     1      -6.045   4.556   9.398  1.00  0.00     0.010 A 
ATOM     45  C   UNL     1      -4.304   3.503   8.068  1.00  0.00     0.010 A 
ATOM     46  C   UNL     1      -4.975   3.660   9.275  1.00  0.00    -0.014 A 
BRANCH  46  47
ATOM     47  C   UNL     1      -4.585   2.742  10.338  1.00  0.00     0.031 A 
ATOM     48  C   UNL     1      -5.612   1.705  10.626  1.00  0.00     0.074 A 
ATOM     49  C   UNL     1      -3.295   2.651  10.740  1.00  0.00     0.049 A 
ATOM     50  N   UNL     1      -6.304   1.546  11.705  1.00  0.00    -0.248 NA
ATOM     51  C   UNL     1      -6.058   0.848   9.510  1.00  0.00     0.031 C 
ATOM     52  C   UNL     1      -2.138   3.400  10.230  1.00  0.00     0.029 A 
ATOM     53  N   UNL     1      -2.712   1.768  11.598  1.00  0.00    -0.354 N 
ATOM     54  C   UNL     1      -7.082   0.410  11.483  1.00  0.00     0.074 A 
ATOM     55  C   UNL     1      -7.090   0.210  10.062  1.00  0.00     0.031 C 
ATOM     56  C   UNL     1      -0.993   2.791  10.610  1.00  0.00     0.029 A 
ATOM     57  C   UNL     1      -1.318   1.700  11.508  1.00  0.00     0.049 A 
ATOM     58  H   UNL     1      -3.231   1.222  12.232  1.00  0.00     0.167 HD
ATOM     59  C   UNL     1      -7.371  -0.448  12.502  1.00  0.00     0.037 A 
ATOM     60  C   UNL     1      -0.520   0.772  12.101  1.00  0.00     0.037 A 
ATOM     61  C   UNL     1      -7.128   0.189  13.778  1.00  0.00     0.049 A 
ATOM     62  C   UNL     1      -1.331   0.118  13.161  1.00  0.00     0.074 A 
ATOM     63  C   UNL     1      -7.577   1.343  14.393  1.00  0.00     0.029 A 
ATOM     64  N   UNL     1      -5.987  -0.168  14.456  1.00  0.00    -0.354 N 
ATOM     65  N   UNL     1      -1.722   0.720  14.248  1.00  0.00    -0.248 NA
ATOM     66  C   UNL     1      -2.112  -1.046  12.770  1.00  0.00     0.031 C 
ATOM     67  C   UNL     1      -6.430   1.880  15.050  1.00  0.00     0.029 A 
ATOM     68  C   UNL     1      -5.378   0.981  14.886  1.00  0.00     0.049 A 
ATOM     69  H   UNL     1      -5.665  -1.087  14.605  1.00  0.00     0.167 HD
ATOM     70  C   UNL     1      -3.035   0.307  14.419  1.00  0.00     0.074 A 
ATOM     71  C   UNL     1      -3.199  -0.831  13.514  1.00  0.00     0.031 C 
ATOM     72  C   UNL     1      -3.949   1.111  15.039  1.00  0.00     0.037 A 
BRANCH  59  73
ATOM     73  C   UNL     1      -7.440  -1.961  12.363  1.00  0.00     0.057 A 
ATOM     74  C   UNL     1      -7.732  -2.726  13.510  1.00  0.00     0.134 A 
ATOM     75  C   UNL     1      -6.960  -2.712  11.269  1.00  0.00     0.134 A 
ATOM     76  F   UNL     1      -8.213  -2.147  14.621  1.00  0.00    -0.206 F 
ATOM     77  C   UNL     1      -7.454  -4.096  13.599  1.00  0.00     0.040 A 
ATOM     78  C   UNL     1      -6.726  -4.090  11.332  1.00  0.00     0.040 A 
ATOM     79  F   UNL     1      -6.602  -2.167  10.104  1.00  0.00    -0.206 F 
ATOM     80  C   UNL     1      -6.934  -4.780  12.511  1.00  0.00     0.006 A 
ENDBRANCH  59  73
BRANCH  60  81
ATOM     81  C   UNL     1       0.771   0.183  11.659  1.00  0.00     0.057 A 
ATOM     82  C   UNL     1       1.549  -0.588  12.540  1.00  0.00     0.134 A 
ATOM     83  C   UNL     1       1.121   0.099  10.302  1.00  0.00     0.134 A 
ATOM     84  F   UNL     1       1.280  -0.602  13.854  1.00  0.00    -0.206 F 
ATOM     85  C   UNL     1       2.580  -1.428  12.093  1.00  0.00     0.040 A 
ATOM     86  C   UNL     1       2.152  -0.731   9.843  1.00  0.00     0.040 A 
ATOM     87  F   UNL     1       0.415   0.746   9.364  1.00  0.00    -0.206 F 
ATOM     88  C   UNL     1       2.873  -1.514  10.737  1.00  0.00     0.006 A 
ENDBRANCH  60  81
BRANCH  72  89
ATOM     89  C   UNL     1      -3.446   2.339  15.750  1.00  0.00     0.057 A 
ATOM     90  C   UNL     1      -2.766   3.400  15.131  1.00  0.00     0.134 A 
ATOM     91  C   UNL     1      -3.792   2.514  17.094  1.00  0.00     0.134 A 
ATOM     92  F   UNL     1      -2.479   3.374  13.823  1.00  0.00    -0.206 F 
ATOM     93  C   UNL     1      -2.406   4.557  15.831  1.00  0.00     0.040 A 
ATOM     94  C   UNL     1      -3.473   3.679  17.794  1.00  0.00     0.040 A 
ATOM     95  F   UNL     1      -4.491   1.567  17.740  1.00  0.00    -0.206 F 
ATOM     96  C   UNL     1      -2.766   4.700  17.167  1.00  0.00     0.006 A 
ENDBRANCH  72  89
ENDBRANCH  46  47
ENDBRANCH  38  41
ENDBRANCH  36  37
ENDBRANCH  35  36
ENDBRANCH   1  35
TORSDOF 15
