REMARK SMILES Nc1c(N2CCCC2)ncnc1N1CCC(C(=O)NCCCCNC(=O)c2ccc(-c3c4nc(c(-c5c(F)cccc5F)c5ccc([nH]5)c(-c5c(F)cccc5F)c5nc(c(-c6c(F)cccc6F)c6ccc3[nH]6)C=C5)C=C4)cc2)CC1
REMARK SMILES IDX 21 1 20 2 19 3 17 4 18 5 16 7 13 8 14 9 82 10 15 11 81 12
REMARK SMILES IDX 12 13 2 14 3 15 9 16 11 17 10 18 1 19 4 22 5 23 8 24 6 25
REMARK SMILES IDX 7 26 22 27 23 28 24 29 25 30 26 32 27 33 28 34 80 35 29 36
REMARK SMILES IDX 79 37 30 38 31 39 32 40 73 41 33 42 78 43 72 44 74 45 34 46
REMARK SMILES IDX 77 47 71 48 70 49 35 51 61 52 44 53 60 54 45 55 48 56 59 57
REMARK SMILES IDX 75 58 46 59 47 60 58 62 76 63 49 64 36 65 37 66 42 67 38 68
REMARK SMILES IDX 39 69 41 70 43 71 40 72 62 73 63 74 68 75 64 76 65 77 67 78
REMARK SMILES IDX 69 79 66 80 50 81 51 82 56 83 52 84 53 85 55 86 57 87 54 88
REMARK H PARENT 19 6 1 20 1 21 24 31 74 50 48 61
REMARK Flexibility Score: inf
ROOT
ATOM      1  C   UNL     1       0.566  -7.410   0.579  1.00  0.00     0.023 C 
ENDROOT
BRANCH   1   2
ATOM      2  C   UNL     1       0.792  -6.404   1.705  1.00  0.00     0.116 C 
BRANCH   2   3
ATOM      3  N   UNL     1       2.004  -6.693   2.457  1.00  0.00    -0.356 N 
ATOM      4  C   UNL     1       3.158  -5.980   2.584  1.00  0.00     0.223 C 
ATOM      5  O   UNL     1       4.054  -6.452   3.289  1.00  0.00    -0.275 OA
ATOM      6  H   UNL     1       1.988  -7.542   2.955  1.00  0.00     0.163 HD
BRANCH   4   7
ATOM      7  C   UNL     1       3.340  -4.630   1.906  1.00  0.00     0.082 C 
ATOM      8  N   UNL     1       2.061  -2.681   0.301  1.00  0.00    -0.355 N 
ATOM      9  C   UNL     1       3.086  -3.457  -0.359  1.00  0.00     0.119 C 
ATOM     10  C   UNL     1       2.241  -2.334   1.698  1.00  0.00     0.119 C 
ATOM     11  C   UNL     1       3.310  -4.768   0.376  1.00  0.00     0.035 C 
ATOM     12  C   UNL     1       2.381  -3.601   2.525  1.00  0.00     0.035 C 
BRANCH   8  13
ATOM     13  C   UNL     1       0.943  -2.270  -0.405  1.00  0.00     0.157 A 
ATOM     14  C   UNL     1       0.565  -0.917  -0.434  1.00  0.00     0.118 A 
ATOM     15  C   UNL     1      -0.641  -0.610  -1.087  1.00  0.00     0.157 A 
ATOM     16  N   UNL     1      -1.394  -1.557  -1.670  1.00  0.00    -0.217 NA
ATOM     17  N   UNL     1       0.232  -3.215  -1.048  1.00  0.00    -0.217 NA
ATOM     18  C   UNL     1      -0.905  -2.805  -1.633  1.00  0.00     0.226 A 
BRANCH  14  19
ATOM     19  N   UNL     1       1.293   0.075   0.251  1.00  0.00    -0.393 N 
ATOM     20  H   UNL     1       1.002   1.014   0.211  1.00  0.00     0.156 HD
ATOM     21  H   UNL     1       2.093  -0.171   0.769  1.00  0.00     0.156 HD
ENDBRANCH  14  19
BRANCH  15  22
ATOM     22  N   UNL     1      -1.063   0.708  -1.137  1.00  0.00    -0.355 N 
ATOM     23  C   UNL     1      -0.369   1.663  -1.981  1.00  0.00     0.118 C 
ATOM     24  C   UNL     1      -2.474   1.042  -1.050  1.00  0.00     0.118 C 
ATOM     25  C   UNL     1      -1.052   2.958  -1.562  1.00  0.00     0.023 C 
ATOM     26  C   UNL     1      -2.512   2.543  -1.381  1.00  0.00     0.023 C 
ENDBRANCH  15  22
ENDBRANCH   8  13
ENDBRANCH   4   7
ENDBRANCH   2   3
ENDBRANCH   1   2
BRANCH   1  27
ATOM     27  C   UNL     1       0.286  -8.837   1.045  1.00  0.00     0.023 C 
BRANCH  27  28
ATOM     28  C   UNL     1      -0.861  -8.977   2.037  1.00  0.00     0.116 C 
BRANCH  28  29
ATOM     29  N   UNL     1      -2.120  -8.451   1.530  1.00  0.00    -0.352 N 
ATOM     30  C   UNL     1      -3.357  -9.047   1.508  1.00  0.00     0.251 C 
ATOM     31  H   UNL     1      -2.079  -7.544   1.149  1.00  0.00     0.163 HD
ATOM     32  O   UNL     1      -4.300  -8.515   0.931  1.00  0.00    -0.269 OA
BRANCH  30  33
ATOM     33  C   UNL     1      -3.534 -10.360   2.159  1.00  0.00     0.039 A 
ATOM     34  C   UNL     1      -4.124 -11.397   1.433  1.00  0.00     0.014 A 
ATOM     35  C   UNL     1      -3.077 -10.575   3.462  1.00  0.00     0.014 A 
ATOM     36  C   UNL     1      -4.187 -12.674   1.989  1.00  0.00     0.010 A 
ATOM     37  C   UNL     1      -3.079 -11.862   3.988  1.00  0.00     0.010 A 
ATOM     38  C   UNL     1      -3.631 -12.923   3.255  1.00  0.00    -0.014 A 
BRANCH  38  39
ATOM     39  C   UNL     1      -3.619 -14.291   3.827  1.00  0.00     0.031 A 
ATOM     40  C   UNL     1      -4.424 -14.597   5.057  1.00  0.00     0.074 A 
ATOM     41  C   UNL     1      -2.844 -15.240   3.268  1.00  0.00     0.049 A 
ATOM     42  N   UNL     1      -4.504 -15.714   5.732  1.00  0.00    -0.248 NA
ATOM     43  C   UNL     1      -5.229 -13.498   5.614  1.00  0.00     0.031 C 
ATOM     44  C   UNL     1      -1.983 -15.052   2.099  1.00  0.00     0.029 A 
ATOM     45  N   UNL     1      -2.652 -16.555   3.613  1.00  0.00    -0.354 N 
ATOM     46  C   UNL     1      -5.358 -15.450   6.795  1.00  0.00     0.074 A 
ATOM     47  C   UNL     1      -5.730 -14.056   6.706  1.00  0.00     0.031 C 
ATOM     48  C   UNL     1      -1.380 -16.215   1.805  1.00  0.00     0.029 A 
ATOM     49  C   UNL     1      -1.784 -17.221   2.783  1.00  0.00     0.049 A 
ATOM     50  H   UNL     1      -3.094 -16.979   4.383  1.00  0.00     0.167 HD
ATOM     51  C   UNL     1      -5.813 -16.302   7.742  1.00  0.00     0.037 A 
ATOM     52  C   UNL     1      -1.365 -18.501   2.807  1.00  0.00     0.037 A 
ATOM     53  C   UNL     1      -5.469 -17.697   7.809  1.00  0.00     0.049 A 
ATOM     54  C   UNL     1      -1.879 -19.424   3.875  1.00  0.00     0.074 A 
ATOM     55  C   UNL     1      -5.926 -18.653   8.699  1.00  0.00     0.029 A 
ATOM     56  N   UNL     1      -4.588 -18.334   6.950  1.00  0.00    -0.354 N 
ATOM     57  N   UNL     1      -2.729 -19.174   4.841  1.00  0.00    -0.248 NA
ATOM     58  C   UNL     1      -1.376 -20.805   3.860  1.00  0.00     0.031 C 
ATOM     59  C   UNL     1      -5.296 -19.864   8.397  1.00  0.00     0.029 A 
ATOM     60  C   UNL     1      -4.474 -19.668   7.299  1.00  0.00     0.049 A 
ATOM     61  H   UNL     1      -4.114 -17.901   6.203  1.00  0.00     0.167 HD
ATOM     62  C   UNL     1      -2.878 -20.368   5.534  1.00  0.00     0.074 A 
ATOM     63  C   UNL     1      -2.041 -21.346   4.872  1.00  0.00     0.031 C 
ATOM     64  C   UNL     1      -3.640 -20.628   6.624  1.00  0.00     0.037 A 
BRANCH  51  65
ATOM     65  C   UNL     1      -6.755 -15.756   8.771  1.00  0.00     0.057 A 
ATOM     66  C   UNL     1      -8.084 -15.448   8.455  1.00  0.00     0.134 A 
ATOM     67  C   UNL     1      -6.348 -15.589  10.100  1.00  0.00     0.134 A 
ATOM     68  F   UNL     1      -8.530 -15.575   7.196  1.00  0.00    -0.206 F 
ATOM     69  C   UNL     1      -8.974 -14.980   9.423  1.00  0.00     0.040 A 
ATOM     70  C   UNL     1      -7.234 -15.142  11.082  1.00  0.00     0.040 A 
ATOM     71  F   UNL     1      -5.089 -15.870  10.468  1.00  0.00    -0.206 F 
ATOM     72  C   UNL     1      -8.551 -14.834  10.743  1.00  0.00     0.006 A 
ENDBRANCH  51  65
BRANCH  52  73
ATOM     73  C   UNL     1      -0.431 -18.994   1.764  1.00  0.00     0.057 A 
ATOM     74  C   UNL     1      -0.871 -19.865   0.761  1.00  0.00     0.134 A 
ATOM     75  C   UNL     1       0.914 -18.606   1.740  1.00  0.00     0.134 A 
ATOM     76  F   UNL     1      -2.144 -20.285   0.744  1.00  0.00    -0.206 F 
ATOM     77  C   UNL     1      -0.005 -20.343  -0.223  1.00  0.00     0.040 A 
ATOM     78  C   UNL     1       1.786 -19.061   0.750  1.00  0.00     0.040 A 
ATOM     79  F   UNL     1       1.394 -17.769   2.671  1.00  0.00    -0.206 F 
ATOM     80  C   UNL     1       1.327 -19.936  -0.233  1.00  0.00     0.006 A 
ENDBRANCH  52  73
BRANCH  64  81
ATOM     81  C   UNL     1      -3.620 -22.025   7.165  1.00  0.00     0.057 A 
ATOM     82  C   UNL     1      -2.540 -22.502   7.916  1.00  0.00     0.134 A 
ATOM     83  C   UNL     1      -4.726 -22.869   7.005  1.00  0.00     0.134 A 
ATOM     84  F   UNL     1      -1.448 -21.743   8.095  1.00  0.00    -0.206 F 
ATOM     85  C   UNL     1      -2.557 -23.776   8.486  1.00  0.00     0.040 A 
ATOM     86  C   UNL     1      -4.763 -24.137   7.587  1.00  0.00     0.040 A 
ATOM     87  F   UNL     1      -5.796 -22.465   6.303  1.00  0.00    -0.206 F 
ATOM     88  C   UNL     1      -3.676 -24.593   8.330  1.00  0.00     0.006 A 
ENDBRANCH  64  81
ENDBRANCH  38  39
ENDBRANCH  30  33
ENDBRANCH  28  29
ENDBRANCH  27  28
ENDBRANCH   1  27
TORSDOF 14
