REMARK SMILES C[C@H](NC(=O)c1ccc(C(C)(C)C)cc1)C(=O)N[C@@H](C(=O)NCCCCNC(=O)c1ccc(-c2c3nc(c(-c4c(F)cccc4F)c4ccc([nH]4)c(-c4c(F)cccc4F)c4nc(c(-c5c(F)cccc5F)c5ccc2[nH]5)C=C4)C=C3)cc1)[C@H](C)O
REMARK SMILES IDX 23 1 22 2 20 3 21 4 19 6 18 7 16 8 17 9 2 11 1 12 3 13 4 14
REMARK SMILES IDX 5 16 6 17 7 18 15 19 8 20 14 21 9 22 10 23 11 24 12 25 13 26
REMARK SMILES IDX 84 27 85 28 86 29 24 31 25 32 26 33 27 34 28 35 29 37 30 38
REMARK SMILES IDX 31 39 83 40 32 41 82 42 33 43 34 44 35 45 76 46 36 47 81 48
REMARK SMILES IDX 75 49 77 50 37 51 80 52 74 53 73 54 38 56 64 57 47 58 63 59
REMARK SMILES IDX 48 60 51 61 62 62 78 63 49 64 50 65 61 67 79 68 52 69 39 70
REMARK SMILES IDX 40 71 45 72 41 73 42 74 44 75 46 76 43 77 65 78 66 79 71 80
REMARK SMILES IDX 67 81 68 82 70 83 72 84 69 85 53 86 54 87 59 88 55 89 56 90
REMARK SMILES IDX 58 91 60 92 57 93
REMARK H PARENT 22 5 18 10 3 15 86 30 27 36 77 55 51 66
REMARK Flexibility Score: inf
ROOT
ATOM      1  C   UNL     1       0.620   3.234   4.648  1.00  0.00     0.116 C 
ENDROOT
BRANCH   1   2
ATOM      2  N   UNL     1       1.171   2.850   3.369  1.00  0.00    -0.354 N 
ATOM      3  C   UNL     1       0.595   2.868   2.134  1.00  0.00     0.245 C 
ATOM      4  O   UNL     1       1.367   2.774   1.172  1.00  0.00    -0.273 OA
ATOM      5  H   UNL     1       2.101   2.528   3.394  1.00  0.00     0.163 HD
BRANCH   3   6
ATOM      6  C   UNL     1      -0.911   3.196   1.923  1.00  0.00     0.200 C 
BRANCH   6   7
ATOM      7  N   UNL     1      -1.813   2.610   2.913  1.00  0.00    -0.340 N 
ATOM      8  C   UNL     1      -2.654   3.187   3.814  1.00  0.00     0.243 C 
ATOM      9  O   UNL     1      -3.246   2.409   4.573  1.00  0.00    -0.273 OA
ATOM     10  H   UNL     1      -1.812   1.626   2.931  1.00  0.00     0.164 HD
BRANCH   8  11
ATOM     11  C   UNL     1      -2.945   4.716   3.903  1.00  0.00     0.168 C 
ATOM     12  C   UNL     1      -3.879   5.137   2.786  1.00  0.00     0.041 C 
BRANCH  11  13
ATOM     13  N   UNL     1      -1.819   5.605   4.274  1.00  0.00    -0.341 N 
ATOM     14  C   UNL     1      -0.919   6.420   3.635  1.00  0.00     0.251 C 
ATOM     15  H   UNL     1      -1.678   5.613   5.248  1.00  0.00     0.164 HD
ATOM     16  O   UNL     1       0.109   6.745   4.224  1.00  0.00    -0.269 OA
BRANCH  14  17
ATOM     17  C   UNL     1      -1.130   6.882   2.256  1.00  0.00     0.039 A 
ATOM     18  C   UNL     1      -0.183   6.577   1.281  1.00  0.00     0.014 A 
ATOM     19  C   UNL     1      -2.272   7.594   1.914  1.00  0.00     0.014 A 
ATOM     20  C   UNL     1      -0.498   6.776  -0.064  1.00  0.00     0.005 A 
ATOM     21  C   UNL     1      -2.588   7.783   0.567  1.00  0.00     0.005 A 
ATOM     22  C   UNL     1      -1.748   7.297  -0.450  1.00  0.00    -0.043 A 
BRANCH  22  23
ATOM     23  C   UNL     1      -2.172   7.277  -1.929  1.00  0.00    -0.013 C 
ATOM     24  C   UNL     1      -1.312   8.272  -2.726  1.00  0.00     0.016 C 
ATOM     25  C   UNL     1      -1.986   5.859  -2.519  1.00  0.00     0.016 C 
ATOM     26  C   UNL     1      -3.659   7.641  -2.142  1.00  0.00     0.016 C 
ENDBRANCH  22  23
ENDBRANCH  14  17
ENDBRANCH  11  13
ENDBRANCH   8  11
ENDBRANCH   6   7
BRANCH   6  27
ATOM     27  C   UNL     1      -1.343   2.842   0.472  1.00  0.00     0.143 C 
ATOM     28  C   UNL     1      -1.185   1.372   0.093  1.00  0.00     0.041 C 
BRANCH  27  29
ATOM     29  O   UNL     1      -0.628   3.623  -0.490  1.00  0.00    -0.391 OA
ATOM     30  H   UNL     1       0.314   3.398  -0.453  1.00  0.00     0.211 HD
ENDBRANCH  27  29
ENDBRANCH   6  27
ENDBRANCH   3   6
ENDBRANCH   1   2
BRANCH   1  31
ATOM     31  C   UNL     1       0.421   2.050   5.584  1.00  0.00     0.023 C 
BRANCH  31  32
ATOM     32  C   UNL     1       1.713   1.544   6.220  1.00  0.00     0.023 C 
BRANCH  32  33
ATOM     33  C   UNL     1       2.508   2.594   6.989  1.00  0.00     0.116 C 
BRANCH  33  34
ATOM     34  N   UNL     1       1.754   3.227   8.062  1.00  0.00    -0.352 N 
ATOM     35  C   UNL     1       2.196   3.589   9.316  1.00  0.00     0.251 C 
ATOM     36  H   UNL     1       0.809   3.420   7.867  1.00  0.00     0.163 HD
ATOM     37  O   UNL     1       1.428   4.028  10.152  1.00  0.00    -0.269 OA
BRANCH  35  38
ATOM     38  C   UNL     1       3.624   3.387   9.641  1.00  0.00     0.039 A 
ATOM     39  C   UNL     1       3.956   2.639  10.772  1.00  0.00     0.014 A 
ATOM     40  C   UNL     1       4.618   3.864   8.783  1.00  0.00     0.014 A 
ATOM     41  C   UNL     1       5.290   2.299  11.000  1.00  0.00     0.010 A 
ATOM     42  C   UNL     1       5.936   3.462   8.972  1.00  0.00     0.010 A 
ATOM     43  C   UNL     1       6.283   2.670  10.078  1.00  0.00    -0.014 A 
BRANCH  43  44
ATOM     44  C   UNL     1       7.690   2.229  10.242  1.00  0.00     0.031 A 
ATOM     45  C   UNL     1       8.774   3.245  10.463  1.00  0.00     0.074 A 
ATOM     46  C   UNL     1       8.001   0.925  10.115  1.00  0.00     0.049 A 
ATOM     47  N   UNL     1      10.067   3.068  10.548  1.00  0.00    -0.248 NA
ATOM     48  C   UNL     1       8.350   4.650  10.573  1.00  0.00     0.031 C 
ATOM     49  C   UNL     1       7.047  -0.153   9.844  1.00  0.00     0.029 A 
ATOM     50  N   UNL     1       9.213   0.284  10.185  1.00  0.00    -0.354 N 
ATOM     51  C   UNL     1      10.611   4.337  10.701  1.00  0.00     0.074 A 
ATOM     52  C   UNL     1       9.514   5.278  10.647  1.00  0.00     0.031 C 
ATOM     53  C   UNL     1       7.707  -1.322   9.793  1.00  0.00     0.029 A 
ATOM     54  C   UNL     1       9.131  -1.073   9.993  1.00  0.00     0.049 A 
ATOM     55  H   UNL     1      10.061   0.754  10.357  1.00  0.00     0.167 HD
ATOM     56  C   UNL     1      11.905   4.685  10.893  1.00  0.00     0.037 A 
ATOM     57  C   UNL     1      10.097  -2.011   9.977  1.00  0.00     0.037 A 
ATOM     58  C   UNL     1      12.991   3.746  10.980  1.00  0.00     0.049 A 
ATOM     59  C   UNL     1      11.524  -1.601  10.207  1.00  0.00     0.074 A 
ATOM     60  C   UNL     1      14.327   3.995  11.240  1.00  0.00     0.029 A 
ATOM     61  N   UNL     1      12.864   2.376  10.811  1.00  0.00    -0.354 N 
ATOM     62  N   UNL     1      12.016  -0.405  10.418  1.00  0.00    -0.248 NA
ATOM     63  C   UNL     1      12.531  -2.672  10.201  1.00  0.00     0.031 C 
ATOM     64  C   UNL     1      15.015   2.777  11.195  1.00  0.00     0.029 A 
ATOM     65  C   UNL     1      14.100   1.767  10.946  1.00  0.00     0.049 A 
ATOM     66  H   UNL     1      12.019   1.905  10.624  1.00  0.00     0.167 HD
ATOM     67  C   UNL     1      13.382  -0.581  10.597  1.00  0.00     0.074 A 
ATOM     68  C   UNL     1      13.639  -2.001  10.480  1.00  0.00     0.031 C 
ATOM     69  C   UNL     1      14.337   0.350  10.836  1.00  0.00     0.037 A 
BRANCH  56  70
ATOM     70  C   UNL     1      12.211   6.146  11.031  1.00  0.00     0.057 A 
ATOM     71  C   UNL     1      11.843   6.871  12.173  1.00  0.00     0.134 A 
ATOM     72  C   UNL     1      12.902   6.832  10.025  1.00  0.00     0.134 A 
ATOM     73  F   UNL     1      11.167   6.276  13.167  1.00  0.00    -0.206 F 
ATOM     74  C   UNL     1      12.128   8.232  12.296  1.00  0.00     0.040 A 
ATOM     75  C   UNL     1      13.216   8.186  10.148  1.00  0.00     0.040 A 
ATOM     76  F   UNL     1      13.287   6.196   8.908  1.00  0.00    -0.206 F 
ATOM     77  C   UNL     1      12.822   8.892  11.284  1.00  0.00     0.006 A 
ENDBRANCH  56  70
BRANCH  57  78
ATOM     78  C   UNL     1       9.745  -3.437   9.763  1.00  0.00     0.057 A 
ATOM     79  C   UNL     1       9.821  -4.361  10.812  1.00  0.00     0.134 A 
ATOM     80  C   UNL     1       9.334  -3.911   8.512  1.00  0.00     0.134 A 
ATOM     81  F   UNL     1      10.226  -3.969  12.028  1.00  0.00    -0.206 F 
ATOM     82  C   UNL     1       9.519  -5.710  10.621  1.00  0.00     0.040 A 
ATOM     83  C   UNL     1       9.008  -5.254   8.312  1.00  0.00     0.040 A 
ATOM     84  F   UNL     1       9.235  -3.074   7.470  1.00  0.00    -0.206 F 
ATOM     85  C   UNL     1       9.107  -6.159   9.367  1.00  0.00     0.006 A 
ENDBRANCH  57  78
BRANCH  69  86
ATOM     86  C   UNL     1      15.741  -0.140  11.020  1.00  0.00     0.057 A 
ATOM     87  C   UNL     1      16.515  -0.584   9.941  1.00  0.00     0.134 A 
ATOM     88  C   UNL     1      16.339  -0.129  12.287  1.00  0.00     0.134 A 
ATOM     89  F   UNL     1      15.995  -0.631   8.705  1.00  0.00    -0.206 F 
ATOM     90  C   UNL     1      17.830  -1.017  10.118  1.00  0.00     0.040 A 
ATOM     91  C   UNL     1      17.660  -0.538  12.473  1.00  0.00     0.040 A 
ATOM     92  F   UNL     1      15.653   0.291  13.360  1.00  0.00    -0.206 F 
ATOM     93  C   UNL     1      18.407  -0.988  11.386  1.00  0.00     0.006 A 
ENDBRANCH  69  86
ENDBRANCH  43  44
ENDBRANCH  35  38
ENDBRANCH  33  34
ENDBRANCH  32  33
ENDBRANCH  31  32
ENDBRANCH   1  31
TORSDOF 18
