REMARK SMILES O=C(NCCCCNC(=O)[C@@H]1C[C@@H](O)CN1C(=O)CSc1ccc(F)cc1F)c1ccc(-c2c3nc(c(-c4c(F)cccc4F)c4ccc([nH]4)c(-c4c(F)cccc4F)c4nc(c(-c5c(F)cccc5F)c5ccc2[nH]5)C=C4)C=C3)cc1
REMARK SMILES IDX 6 1 5 2 4 3 3 4 1 5 2 6 29 8 30 9 82 10 31 11 81 12 32 13
REMARK SMILES IDX 33 14 34 15 75 16 35 17 80 18 74 19 76 20 36 21 79 22 73 23
REMARK SMILES IDX 72 24 37 26 63 27 46 28 62 29 47 30 50 31 61 32 77 33 48 34
REMARK SMILES IDX 49 35 60 37 78 38 51 39 38 40 39 41 44 42 40 43 41 44 43 45
REMARK SMILES IDX 45 46 42 47 64 48 65 49 70 50 66 51 67 52 69 53 71 54 68 55
REMARK SMILES IDX 52 56 53 57 58 58 54 59 55 60 57 61 59 62 56 63 7 64 8 65
REMARK SMILES IDX 9 66 10 68 11 69 12 70 16 71 13 72 15 73 17 74 18 75 19 76
REMARK SMILES IDX 20 77 21 78 22 79 27 80 23 81 26 82 28 83 24 84 25 85 14 86
REMARK H PARENT 3 7 76 25 50 36 8 67 14 87
REMARK Flexibility Score: inf
ROOT
ATOM      1  C   UNL     1       8.996  -5.110   6.821  1.00  0.00     0.023 C 
ENDROOT
BRANCH   1   2
ATOM      2  C   UNL     1       9.972  -6.111   7.444  1.00  0.00     0.023 C 
BRANCH   2   3
ATOM      3  C   UNL     1      11.433  -5.904   7.062  1.00  0.00     0.116 C 
BRANCH   3   4
ATOM      4  N   UNL     1      11.903  -4.558   7.352  1.00  0.00    -0.352 N 
ATOM      5  O   UNL     1      13.299  -2.995   8.191  1.00  0.00    -0.269 OA
ATOM      6  C   UNL     1      13.104  -4.168   7.888  1.00  0.00     0.251 C 
ATOM      7  H   UNL     1      11.276  -3.831   7.135  1.00  0.00     0.163 HD
BRANCH   6   8
ATOM      8  C   UNL     1      14.149  -5.180   8.124  1.00  0.00     0.039 A 
ATOM      9  C   UNL     1      14.505  -6.083   7.117  1.00  0.00     0.014 A 
ATOM     10  C   UNL     1      14.765  -5.227   9.375  1.00  0.00     0.014 A 
ATOM     11  C   UNL     1      15.404  -7.105   7.397  1.00  0.00     0.010 A 
ATOM     12  C   UNL     1      15.713  -6.215   9.635  1.00  0.00     0.010 A 
ATOM     13  C   UNL     1      16.021  -7.173   8.655  1.00  0.00    -0.014 A 
BRANCH  13  14
ATOM     14  C   UNL     1      17.030  -8.220   8.934  1.00  0.00     0.031 A 
ATOM     15  C   UNL     1      16.757  -9.295   9.942  1.00  0.00     0.074 A 
ATOM     16  C   UNL     1      18.209  -8.171   8.288  1.00  0.00     0.049 A 
ATOM     17  N   UNL     1      17.557 -10.229  10.386  1.00  0.00    -0.248 NA
ATOM     18  C   UNL     1      15.411  -9.320  10.536  1.00  0.00     0.031 C 
ATOM     19  C   UNL     1      18.575  -7.174   7.280  1.00  0.00     0.029 A 
ATOM     20  N   UNL     1      19.317  -8.971   8.387  1.00  0.00    -0.354 N 
ATOM     21  C   UNL     1      16.824 -10.939  11.327  1.00  0.00     0.074 A 
ATOM     22  C   UNL     1      15.519 -10.318  11.403  1.00  0.00     0.031 C 
ATOM     23  C   UNL     1      19.816  -7.430   6.843  1.00  0.00     0.029 A 
ATOM     24  C   UNL     1      20.352  -8.568   7.582  1.00  0.00     0.049 A 
ATOM     25  H   UNL     1      19.365  -9.757   8.978  1.00  0.00     0.167 HD
ATOM     26  C   UNL     1      17.210 -12.012  12.056  1.00  0.00     0.037 A 
ATOM     27  C   UNL     1      21.607  -9.042   7.472  1.00  0.00     0.037 A 
ATOM     28  C   UNL     1      18.508 -12.629  11.959  1.00  0.00     0.049 A 
ATOM     29  C   UNL     1      22.028 -10.202   8.322  1.00  0.00     0.074 A 
ATOM     30  C   UNL     1      18.983 -13.745  12.626  1.00  0.00     0.029 A 
ATOM     31  N   UNL     1      19.538 -12.178  11.147  1.00  0.00    -0.354 N 
ATOM     32  N   UNL     1      21.323 -10.875   9.199  1.00  0.00    -0.248 NA
ATOM     33  C   UNL     1      23.414 -10.664   8.180  1.00  0.00     0.031 C 
ATOM     34  C   UNL     1      20.316 -13.942  12.250  1.00  0.00     0.029 A 
ATOM     35  C   UNL     1      20.657 -12.978  11.315  1.00  0.00     0.049 A 
ATOM     36  H   UNL     1      19.483 -11.404  10.541  1.00  0.00     0.167 HD
ATOM     37  C   UNL     1      22.172 -11.851   9.701  1.00  0.00     0.074 A 
ATOM     38  C   UNL     1      23.444 -11.684   9.028  1.00  0.00     0.031 C 
ATOM     39  C   UNL     1      21.915 -12.799  10.634  1.00  0.00     0.037 A 
BRANCH  26  40
ATOM     40  C   UNL     1      16.228 -12.576  13.041  1.00  0.00     0.057 A 
ATOM     41  C   UNL     1      16.439 -12.432  14.418  1.00  0.00     0.134 A 
ATOM     42  C   UNL     1      15.100 -13.297  12.632  1.00  0.00     0.134 A 
ATOM     43  F   UNL     1      17.505 -11.758  14.877  1.00  0.00    -0.206 F 
ATOM     44  C   UNL     1      15.565 -12.988  15.354  1.00  0.00     0.040 A 
ATOM     45  C   UNL     1      14.205 -13.838  13.558  1.00  0.00     0.040 A 
ATOM     46  F   UNL     1      14.834 -13.462  11.328  1.00  0.00    -0.206 F 
ATOM     47  C   UNL     1      14.441 -13.690  14.924  1.00  0.00     0.006 A 
ENDBRANCH  26  40
BRANCH  27  48
ATOM     48  C   UNL     1      22.535  -8.398   6.513  1.00  0.00     0.057 A 
ATOM     49  C   UNL     1      23.043  -7.113   6.742  1.00  0.00     0.134 A 
ATOM     50  C   UNL     1      22.863  -9.019   5.304  1.00  0.00     0.134 A 
ATOM     51  F   UNL     1      22.751  -6.462   7.877  1.00  0.00    -0.206 F 
ATOM     52  C   UNL     1      23.822  -6.456   5.788  1.00  0.00     0.040 A 
ATOM     53  C   UNL     1      23.658  -8.382   4.351  1.00  0.00     0.040 A 
ATOM     54  F   UNL     1      22.413 -10.254   5.036  1.00  0.00    -0.206 F 
ATOM     55  C   UNL     1      24.130  -7.092   4.587  1.00  0.00     0.006 A 
ENDBRANCH  27  48
BRANCH  39  56
ATOM     56  C   UNL     1      23.018 -13.753  10.973  1.00  0.00     0.057 A 
ATOM     57  C   UNL     1      22.966 -15.084  10.539  1.00  0.00     0.134 A 
ATOM     58  C   UNL     1      24.080 -13.382  11.806  1.00  0.00     0.134 A 
ATOM     59  F   UNL     1      21.968 -15.502   9.745  1.00  0.00    -0.206 F 
ATOM     60  C   UNL     1      23.920 -16.019  10.940  1.00  0.00     0.040 A 
ATOM     61  C   UNL     1      25.052 -14.303  12.197  1.00  0.00     0.040 A 
ATOM     62  F   UNL     1      24.190 -12.119  12.244  1.00  0.00    -0.206 F 
ATOM     63  C   UNL     1      24.966 -15.629  11.773  1.00  0.00     0.006 A 
ENDBRANCH  39  56
ENDBRANCH  13  14
ENDBRANCH   6   8
ENDBRANCH   3   4
ENDBRANCH   2   3
ENDBRANCH   1   2
BRANCH   1  64
ATOM     64  C   UNL     1       9.039  -5.056   5.293  1.00  0.00     0.116 C 
BRANCH  64  65
ATOM     65  N   UNL     1       8.469  -6.258   4.722  1.00  0.00    -0.354 N 
ATOM     66  C   UNL     1       7.214  -6.466   4.213  1.00  0.00     0.242 C 
ATOM     67  H   UNL     1       9.069  -7.038   4.696  1.00  0.00     0.163 HD
ATOM     68  O   UNL     1       6.924  -7.624   3.915  1.00  0.00    -0.273 OA
BRANCH  66  69
ATOM     69  C   UNL     1       6.264  -5.251   4.043  1.00  0.00     0.177 C 
ATOM     70  C   UNL     1       5.818  -4.718   5.416  1.00  0.00     0.069 C 
ATOM     71  N   UNL     1       4.983  -5.481   3.349  1.00  0.00    -0.327 N 
ATOM     72  C   UNL     1       4.529  -3.980   5.108  1.00  0.00     0.136 C 
ATOM     73  C   UNL     1       3.867  -4.887   4.079  1.00  0.00     0.152 C 
BRANCH  71  74
ATOM     74  C   UNL     1       4.938  -6.008   2.077  1.00  0.00     0.233 C 
ATOM     75  O   UNL     1       5.985  -6.181   1.441  1.00  0.00    -0.274 OA
BRANCH  74  76
ATOM     76  C   UNL     1       3.603  -6.240   1.373  1.00  0.00     0.175 C 
BRANCH  76  77
ATOM     77  S   UNL     1       2.245  -7.008   2.322  1.00  0.00    -0.113 SA
BRANCH  77  78
ATOM     78  C   UNL     1       2.808  -8.688   2.503  1.00  0.00     0.044 A 
ATOM     79  C   UNL     1       2.113  -9.712   1.850  1.00  0.00     0.021 A 
ATOM     80  C   UNL     1       3.854  -9.036   3.364  1.00  0.00     0.139 A 
ATOM     81  C   UNL     1       2.506 -11.044   2.013  1.00  0.00     0.040 A 
ATOM     82  C   UNL     1       4.283 -10.351   3.497  1.00  0.00     0.079 A 
ATOM     83  F   UNL     1       4.410  -8.106   4.149  1.00  0.00    -0.206 F 
ATOM     84  C   UNL     1       3.602 -11.347   2.816  1.00  0.00     0.126 A 
ATOM     85  F   UNL     1       3.979 -12.624   2.960  1.00  0.00    -0.207 F 
ENDBRANCH  77  78
ENDBRANCH  76  77
ENDBRANCH  74  76
ENDBRANCH  71  74
BRANCH  72  86
ATOM     86  O   UNL     1       4.833  -2.696   4.562  1.00  0.00    -0.391 OA
ATOM     87  H   UNL     1       5.402  -2.802   3.784  1.00  0.00     0.211 HD
ENDBRANCH  72  86
ENDBRANCH  66  69
ENDBRANCH  64  65
ENDBRANCH   1  64
TORSDOF 16
