REMARK SMILES Cc1cc(C(=O)NCCCCNC(=O)c2ccc(-c3c4nc(c(-c5c(F)cccc5F)c5ccc([nH]5)c(-c5c(F)cccc5F)c5nc(c(-c6c(F)cccc6F)c6ccc3[nH]6)C=C5)C=C4)cc2)nc(N2CCN(c3ccccc3Cl)CC2)n1
REMARK SMILES IDX 9 1 8 2 7 3 5 4 6 5 4 7 1 8 2 9 3 10 84 11 70 12 69 13 71 14
REMARK SMILES IDX 72 15 83 16 73 17 82 18 74 19 75 20 76 21 80 22 77 23 79 24
REMARK SMILES IDX 81 25 78 26 10 27 11 28 12 29 13 30 14 32 15 33 16 34 68 35
REMARK SMILES IDX 17 36 67 37 18 38 19 39 20 40 61 41 21 42 66 43 60 44 62 45
REMARK SMILES IDX 22 46 65 47 59 48 58 49 23 51 49 52 32 53 48 54 33 55 36 56
REMARK SMILES IDX 47 57 63 58 34 59 35 60 46 62 64 63 37 64 24 65 25 66 30 67
REMARK SMILES IDX 26 68 27 69 29 70 31 71 28 72 50 73 51 74 56 75 52 76 53 77
REMARK SMILES IDX 55 78 57 79 54 80 38 81 39 82 44 83 40 84 41 85 43 86 45 87
REMARK SMILES IDX 42 88
REMARK H PARENT 7 6 12 31 62 50 36 61
REMARK Flexibility Score: inf
ROOT
ATOM      1  C   UNL     1      -0.652  -4.450  -0.954  1.00  0.00     0.023 C 
ENDROOT
BRANCH   1   2
ATOM      2  C   UNL     1       0.009  -4.007   0.352  1.00  0.00     0.116 C 
BRANCH   2   3
ATOM      3  N   UNL     1       1.332  -3.501   0.075  1.00  0.00    -0.351 N 
ATOM      4  C   UNL     1       1.792  -2.248  -0.247  1.00  0.00     0.270 C 
ATOM      5  O   UNL     1       2.986  -2.178  -0.549  1.00  0.00    -0.268 OA
ATOM      6  H   UNL     1       2.039  -4.184   0.128  1.00  0.00     0.163 HD
BRANCH   4   7
ATOM      7  C   UNL     1       0.955  -0.999  -0.194  1.00  0.00     0.133 A 
ATOM      8  C   UNL     1      -2.466   0.491  -0.075  1.00  0.00     0.067 C 
ATOM      9  C   UNL     1      -0.976   0.312  -0.058  1.00  0.00     0.044 A 
ATOM     10  C   UNL     1      -0.415  -0.931  -0.272  1.00  0.00     0.058 A 
ATOM     11  N   UNL     1      -0.231   1.419   0.129  1.00  0.00    -0.218 NA
ATOM     12  C   UNL     1       1.099   1.286   0.064  1.00  0.00     0.226 A 
ATOM     13  N   UNL     1       1.705   0.108  -0.063  1.00  0.00    -0.208 NA
BRANCH  12  14
ATOM     14  N   UNL     1       1.920   2.385   0.078  1.00  0.00    -0.337 N 
ATOM     15  C   UNL     1       1.436   3.646   0.635  1.00  0.00     0.141 C 
ATOM     16  C   UNL     1       2.765   2.488  -1.124  1.00  0.00     0.141 C 
ATOM     17  C   UNL     1       2.636   4.594   0.897  1.00  0.00     0.138 C 
ATOM     18  C   UNL     1       3.936   3.459  -0.894  1.00  0.00     0.138 C 
ATOM     19  N   UNL     1       3.438   4.720  -0.326  1.00  0.00    -0.367 N 
BRANCH  19  20
ATOM     20  C   UNL     1       4.002   5.916  -0.715  1.00  0.00     0.056 A 
ATOM     21  C   UNL     1       4.810   6.639   0.174  1.00  0.00     0.027 A 
ATOM     22  C   UNL     1       3.789   6.465  -1.998  1.00  0.00     0.064 A 
ATOM     23  C   UNL     1       5.387   7.858  -0.197  1.00  0.00     0.002 A 
ATOM     24  C   UNL     1       4.358   7.687  -2.367  1.00  0.00     0.023 A 
ATOM     25  Cl  UNL     1       2.757   5.692  -3.158  1.00  0.00    -0.082 Cl
ATOM     26  C   UNL     1       5.158   8.384  -1.465  1.00  0.00     0.002 A 
ENDBRANCH  19  20
ENDBRANCH  12  14
ENDBRANCH   4   7
ENDBRANCH   2   3
ENDBRANCH   1   2
BRANCH   1  27
ATOM     27  C   UNL     1      -0.150  -5.806  -1.464  1.00  0.00     0.023 C 
BRANCH  27  28
ATOM     28  C   UNL     1      -0.431  -6.977  -0.529  1.00  0.00     0.116 C 
BRANCH  28  29
ATOM     29  N   UNL     1      -1.840  -7.115  -0.197  1.00  0.00    -0.352 N 
ATOM     30  C   UNL     1      -2.532  -8.257   0.130  1.00  0.00     0.251 C 
ATOM     31  H   UNL     1      -2.366  -6.284  -0.209  1.00  0.00     0.163 HD
ATOM     32  O   UNL     1      -3.743  -8.229   0.281  1.00  0.00    -0.269 OA
BRANCH  30  33
ATOM     33  C   UNL     1      -1.790  -9.527   0.250  1.00  0.00     0.039 A 
ATOM     34  C   UNL     1      -2.243 -10.635  -0.469  1.00  0.00     0.014 A 
ATOM     35  C   UNL     1      -0.633  -9.605   1.029  1.00  0.00     0.014 A 
ATOM     36  C   UNL     1      -1.494 -11.812  -0.456  1.00  0.00     0.010 A 
ATOM     37  C   UNL     1       0.145 -10.756   0.988  1.00  0.00     0.010 A 
ATOM     38  C   UNL     1      -0.278 -11.868   0.243  1.00  0.00    -0.014 A 
BRANCH  38  39
ATOM     39  C   UNL     1       0.572 -13.081   0.204  1.00  0.00     0.031 A 
ATOM     40  C   UNL     1       0.811 -13.873   1.458  1.00  0.00     0.074 A 
ATOM     41  C   UNL     1       1.185 -13.424  -0.944  1.00  0.00     0.049 A 
ATOM     42  N   UNL     1       1.576 -14.918   1.641  1.00  0.00    -0.248 NA
ATOM     43  C   UNL     1       0.122 -13.409   2.672  1.00  0.00     0.031 C 
ATOM     44  C   UNL     1       1.075 -12.701  -2.212  1.00  0.00     0.029 A 
ATOM     45  N   UNL     1       2.036 -14.463  -1.226  1.00  0.00    -0.354 N 
ATOM     46  C   UNL     1       1.474 -15.226   2.991  1.00  0.00     0.074 A 
ATOM     47  C   UNL     1       0.615 -14.228   3.590  1.00  0.00     0.031 C 
ATOM     48  C   UNL     1       1.812 -13.330  -3.142  1.00  0.00     0.029 A 
ATOM     49  C   UNL     1       2.471 -14.479  -2.528  1.00  0.00     0.049 A 
ATOM     50  H   UNL     1       2.308 -15.133  -0.558  1.00  0.00     0.167 HD
ATOM     51  C   UNL     1       2.029 -16.261   3.666  1.00  0.00     0.037 A 
ATOM     52  C   UNL     1       3.311 -15.324  -3.154  1.00  0.00     0.037 A 
ATOM     53  C   UNL     1       2.860 -17.267   3.060  1.00  0.00     0.049 A 
ATOM     54  C   UNL     1       3.904 -16.472  -2.388  1.00  0.00     0.074 A 
ATOM     55  C   UNL     1       3.415 -18.392   3.642  1.00  0.00     0.029 A 
ATOM     56  N   UNL     1       3.256 -17.266   1.731  1.00  0.00    -0.354 N 
ATOM     57  N   UNL     1       3.743 -16.794  -1.127  1.00  0.00    -0.248 NA
ATOM     58  C   UNL     1       4.790 -17.378  -3.132  1.00  0.00     0.031 C 
ATOM     59  C   UNL     1       4.178 -19.053   2.674  1.00  0.00     0.029 A 
ATOM     60  C   UNL     1       4.064 -18.362   1.478  1.00  0.00     0.049 A 
ATOM     61  H   UNL     1       3.001 -16.587   1.065  1.00  0.00     0.167 HD
ATOM     62  C   UNL     1       4.484 -17.952  -0.933  1.00  0.00     0.074 A 
ATOM     63  C   UNL     1       5.087 -18.282  -2.208  1.00  0.00     0.031 C 
ATOM     64  C   UNL     1       4.650 -18.677   0.200  1.00  0.00     0.037 A 
BRANCH  51  65
ATOM     65  C   UNL     1       1.746 -16.352   5.136  1.00  0.00     0.057 A 
ATOM     66  C   UNL     1       0.477 -16.693   5.624  1.00  0.00     0.134 A 
ATOM     67  C   UNL     1       2.757 -16.114   6.075  1.00  0.00     0.134 A 
ATOM     68  F   UNL     1      -0.538 -16.920   4.777  1.00  0.00    -0.206 F 
ATOM     69  C   UNL     1       0.216 -16.763   6.993  1.00  0.00     0.040 A 
ATOM     70  C   UNL     1       2.514 -16.207   7.447  1.00  0.00     0.040 A 
ATOM     71  F   UNL     1       3.995 -15.788   5.677  1.00  0.00    -0.206 F 
ATOM     72  C   UNL     1       1.238 -16.525   7.909  1.00  0.00     0.006 A 
ENDBRANCH  51  65
BRANCH  52  73
ATOM     73  C   UNL     1       3.613 -15.133  -4.594  1.00  0.00     0.057 A 
ATOM     74  C   UNL     1       3.096 -16.005  -5.559  1.00  0.00     0.134 A 
ATOM     75  C   UNL     1       4.415 -14.077  -5.041  1.00  0.00     0.134 A 
ATOM     76  F   UNL     1       2.334 -17.045  -5.189  1.00  0.00    -0.206 F 
ATOM     77  C   UNL     1       3.378 -15.844  -6.916  1.00  0.00     0.040 A 
ATOM     78  C   UNL     1       4.687 -13.890  -6.397  1.00  0.00     0.040 A 
ATOM     79  F   UNL     1       4.932 -13.202  -4.166  1.00  0.00    -0.206 F 
ATOM     80  C   UNL     1       4.172 -14.779  -7.338  1.00  0.00     0.006 A 
ENDBRANCH  52  73
BRANCH  64  81
ATOM     81  C   UNL     1       5.491 -19.915   0.103  1.00  0.00     0.057 A 
ATOM     82  C   UNL     1       6.885 -19.853  -0.008  1.00  0.00     0.134 A 
ATOM     83  C   UNL     1       4.900 -21.183   0.164  1.00  0.00     0.134 A 
ATOM     84  F   UNL     1       7.510 -18.668  -0.084  1.00  0.00    -0.206 F 
ATOM     85  C   UNL     1       7.662 -21.011  -0.074  1.00  0.00     0.040 A 
ATOM     86  C   UNL     1       5.667 -22.348   0.123  1.00  0.00     0.040 A 
ATOM     87  F   UNL     1       3.569 -21.310   0.278  1.00  0.00    -0.206 F 
ATOM     88  C   UNL     1       7.053 -22.263  -0.001  1.00  0.00     0.006 A 
ENDBRANCH  64  81
ENDBRANCH  38  39
ENDBRANCH  30  33
ENDBRANCH  28  29
ENDBRANCH  27  28
ENDBRANCH   1  27
TORSDOF 13
