REMARK SMILES Cc1ccccc1OCCN1C(=O)CC[C@H](C(=O)NCCCCNC(=O)c2ccc(-c3c4nc(c(-c5c(F)cccc5F)c5ccc([nH]5)c(-c5c(F)cccc5F)c5nc(c(-c6c(F)cccc6F)c6ccc3[nH]6)C=C5)C=C4)cc2)[C@@H]1c1ccco1
REMARK SMILES IDX 20 1 19 2 17 3 18 4 16 6 11 7 12 8 81 9 13 10 14 11 15 12
REMARK SMILES IDX 10 13 9 14 8 15 7 16 1 17 2 18 3 19 4 20 6 21 5 22 82 23
REMARK SMILES IDX 83 24 86 25 84 26 85 27 21 28 22 29 23 30 24 31 25 32 26 34
REMARK SMILES IDX 27 35 28 36 80 37 29 38 79 39 30 40 31 41 32 42 73 43 33 44
REMARK SMILES IDX 78 45 72 46 74 47 34 48 77 49 71 50 70 51 35 53 61 54 44 55
REMARK SMILES IDX 60 56 45 57 48 58 59 59 75 60 46 61 47 62 58 64 76 65 49 66
REMARK SMILES IDX 36 67 37 68 42 69 38 70 39 71 41 72 43 73 40 74 62 75 63 76
REMARK SMILES IDX 68 77 64 78 65 79 67 80 69 81 66 82 50 83 51 84 56 85 52 86
REMARK SMILES IDX 53 87 55 88 57 89 54 90
REMARK H PARENT 19 5 24 33 74 52 48 63
REMARK Flexibility Score: inf
ROOT
ATOM      1  C   UNL     1       3.189  -3.361   3.909  1.00  0.00     0.116 C 
ENDROOT
BRANCH   1   2
ATOM      2  N   UNL     1       3.701  -3.780   2.614  1.00  0.00    -0.356 N 
ATOM      3  C   UNL     1       3.616  -3.168   1.398  1.00  0.00     0.225 C 
ATOM      4  O   UNL     1       4.366  -3.581   0.507  1.00  0.00    -0.275 OA
ATOM      5  H   UNL     1       4.183  -4.639   2.616  1.00  0.00     0.163 HD
BRANCH   3   6
ATOM      6  C   UNL     1       2.661  -2.005   1.111  1.00  0.00     0.109 C 
ATOM      7  N   UNL     1       2.202   0.437   1.596  1.00  0.00    -0.328 N 
ATOM      8  C   UNL     1       0.992   0.194   2.219  1.00  0.00     0.223 C 
ATOM      9  C   UNL     1       3.224  -0.607   1.425  1.00  0.00     0.164 C 
ATOM     10  O   UNL     1       0.251   1.090   2.627  1.00  0.00    -0.275 OA
ATOM     11  C   UNL     1       0.601  -1.242   2.456  1.00  0.00     0.101 C 
ATOM     12  C   UNL     1       1.223  -2.276   1.540  1.00  0.00     0.026 C 
BRANCH   7  13
ATOM     13  C   UNL     1       2.586   1.839   1.373  1.00  0.00     0.162 C 
BRANCH  13  14
ATOM     14  C   UNL     1       2.381   2.364  -0.056  1.00  0.00     0.251 C 
BRANCH  14  15
ATOM     15  O   UNL     1       1.029   2.468  -0.507  1.00  0.00    -0.491 OA
BRANCH  15  16
ATOM     16  C   UNL     1       0.322   1.329  -0.771  1.00  0.00     0.122 A 
ATOM     17  C   UNL     1       2.061   0.153  -2.243  1.00  0.00     0.048 C 
ATOM     18  C   UNL     1       0.744   0.229  -1.530  1.00  0.00    -0.009 A 
ATOM     19  C   UNL     1      -0.125  -0.874  -1.656  1.00  0.00     0.007 A 
ATOM     20  C   UNL     1      -1.404  -0.861  -1.099  1.00  0.00     0.001 A 
ATOM     21  C   UNL     1      -0.986   1.352  -0.260  1.00  0.00     0.047 A 
ATOM     22  C   UNL     1      -1.843   0.263  -0.414  1.00  0.00     0.004 A 
ENDBRANCH  15  16
ENDBRANCH  14  15
ENDBRANCH  13  14
ENDBRANCH   7  13
BRANCH   9  23
ATOM     23  C   UNL     1       4.178  -0.574   2.576  1.00  0.00     0.127 A 
ATOM     24  C   UNL     1       5.509  -0.923   2.673  1.00  0.00     0.048 A 
ATOM     25  O   UNL     1       3.717  -0.143   3.787  1.00  0.00    -0.467 OA
ATOM     26  C   UNL     1       5.859  -0.745   4.024  1.00  0.00     0.042 A 
ATOM     27  C   UNL     1       4.755  -0.227   4.656  1.00  0.00     0.195 A 
ENDBRANCH   9  23
ENDBRANCH   3   6
ENDBRANCH   1   2
BRANCH   1  28
ATOM     28  C   UNL     1       2.328  -4.409   4.611  1.00  0.00     0.023 C 
BRANCH  28  29
ATOM     29  C   UNL     1       3.056  -5.689   5.022  1.00  0.00     0.023 C 
BRANCH  29  30
ATOM     30  C   UNL     1       4.248  -5.480   5.946  1.00  0.00     0.116 C 
BRANCH  30  31
ATOM     31  N   UNL     1       3.916  -5.150   7.320  1.00  0.00    -0.352 N 
ATOM     32  C   UNL     1       4.730  -4.812   8.392  1.00  0.00     0.251 C 
ATOM     33  H   UNL     1       2.954  -5.169   7.526  1.00  0.00     0.163 HD
ATOM     34  O   UNL     1       4.224  -4.691   9.494  1.00  0.00    -0.269 OA
BRANCH  32  35
ATOM     35  C   UNL     1       6.170  -4.450   8.205  1.00  0.00     0.039 A 
ATOM     36  C   UNL     1       6.744  -3.568   9.139  1.00  0.00     0.014 A 
ATOM     37  C   UNL     1       6.897  -4.788   7.071  1.00  0.00     0.014 A 
ATOM     38  C   UNL     1       7.892  -2.847   8.811  1.00  0.00     0.010 A 
ATOM     39  C   UNL     1       7.961  -4.000   6.687  1.00  0.00     0.010 A 
ATOM     40  C   UNL     1       8.415  -2.985   7.528  1.00  0.00    -0.014 A 
BRANCH  40  41
ATOM     41  C   UNL     1       9.289  -2.009   6.897  1.00  0.00     0.031 A 
ATOM     42  C   UNL     1      10.699  -2.310   6.605  1.00  0.00     0.074 A 
ATOM     43  C   UNL     1       8.723  -0.887   6.402  1.00  0.00     0.049 A 
ATOM     44  N   UNL     1      11.594  -1.401   6.424  1.00  0.00    -0.248 NA
ATOM     45  C   UNL     1      11.221  -3.669   6.516  1.00  0.00     0.031 C 
ATOM     46  C   UNL     1       9.277   0.038   5.416  1.00  0.00     0.029 A 
ATOM     47  N   UNL     1       7.543  -0.270   6.815  1.00  0.00    -0.354 N 
ATOM     48  C   UNL     1      12.712  -2.023   5.927  1.00  0.00     0.074 A 
ATOM     49  C   UNL     1      12.459  -3.440   6.067  1.00  0.00     0.031 C 
ATOM     50  C   UNL     1       8.609   1.201   5.495  1.00  0.00     0.029 A 
ATOM     51  C   UNL     1       7.715   1.108   6.639  1.00  0.00     0.049 A 
ATOM     52  H   UNL     1       6.740  -0.720   7.165  1.00  0.00     0.167 HD
ATOM     53  C   UNL     1      13.680  -1.290   5.312  1.00  0.00     0.037 A 
ATOM     54  C   UNL     1       7.634   2.009   7.658  1.00  0.00     0.037 A 
ATOM     55  C   UNL     1      13.334   0.126   5.267  1.00  0.00     0.049 A 
ATOM     56  C   UNL     1       8.940   2.748   7.846  1.00  0.00     0.074 A 
ATOM     57  C   UNL     1      12.727   0.901   4.292  1.00  0.00     0.029 A 
ATOM     58  N   UNL     1      13.276   0.863   6.445  1.00  0.00    -0.354 N 
ATOM     59  N   UNL     1      10.074   2.333   7.352  1.00  0.00    -0.248 NA
ATOM     60  C   UNL     1       9.086   3.978   8.617  1.00  0.00     0.031 C 
ATOM     61  C   UNL     1      12.235   2.078   4.907  1.00  0.00     0.029 A 
ATOM     62  C   UNL     1      12.570   2.036   6.248  1.00  0.00     0.049 A 
ATOM     63  H   UNL     1      13.680   0.588   7.300  1.00  0.00     0.167 HD
ATOM     64  C   UNL     1      11.075   3.191   7.713  1.00  0.00     0.074 A 
ATOM     65  C   UNL     1      10.408   4.207   8.506  1.00  0.00     0.031 C 
ATOM     66  C   UNL     1      12.369   2.984   7.334  1.00  0.00     0.037 A 
BRANCH  53  67
ATOM     67  C   UNL     1      14.765  -1.939   4.499  1.00  0.00     0.057 A 
ATOM     68  C   UNL     1      15.164  -1.422   3.254  1.00  0.00     0.134 A 
ATOM     69  C   UNL     1      15.423  -3.117   4.892  1.00  0.00     0.134 A 
ATOM     70  F   UNL     1      14.669  -0.273   2.776  1.00  0.00    -0.206 F 
ATOM     71  C   UNL     1      16.081  -2.076   2.422  1.00  0.00     0.040 A 
ATOM     72  C   UNL     1      16.306  -3.807   4.051  1.00  0.00     0.040 A 
ATOM     73  F   UNL     1      15.235  -3.638   6.114  1.00  0.00    -0.206 F 
ATOM     74  C   UNL     1      16.632  -3.290   2.804  1.00  0.00     0.006 A 
ENDBRANCH  53  67
BRANCH  54  75
ATOM     75  C   UNL     1       6.709   1.594   8.746  1.00  0.00     0.057 A 
ATOM     76  C   UNL     1       5.332   1.549   8.460  1.00  0.00     0.134 A 
ATOM     77  C   UNL     1       7.159   0.840   9.836  1.00  0.00     0.134 A 
ATOM     78  F   UNL     1       4.838   2.243   7.423  1.00  0.00    -0.206 F 
ATOM     79  C   UNL     1       4.466   0.687   9.137  1.00  0.00     0.040 A 
ATOM     80  C   UNL     1       6.297  -0.022  10.526  1.00  0.00     0.040 A 
ATOM     81  F   UNL     1       8.463   0.795  10.139  1.00  0.00    -0.206 F 
ATOM     82  C   UNL     1       4.958  -0.131  10.150  1.00  0.00     0.006 A 
ENDBRANCH  54  75
BRANCH  66  83
ATOM     83  C   UNL     1      13.562   3.714   7.884  1.00  0.00     0.057 A 
ATOM     84  C   UNL     1      13.651   4.168   9.206  1.00  0.00     0.134 A 
ATOM     85  C   UNL     1      14.746   3.822   7.122  1.00  0.00     0.134 A 
ATOM     86  F   UNL     1      12.628   4.035  10.062  1.00  0.00    -0.206 F 
ATOM     87  C   UNL     1      14.824   4.728   9.725  1.00  0.00     0.040 A 
ATOM     88  C   UNL     1      15.937   4.331   7.645  1.00  0.00     0.040 A 
ATOM     89  F   UNL     1      14.803   3.411   5.846  1.00  0.00    -0.206 F 
ATOM     90  C   UNL     1      15.976   4.797   8.950  1.00  0.00     0.006 A 
ENDBRANCH  66  83
ENDBRANCH  40  41
ENDBRANCH  32  35
ENDBRANCH  30  31
ENDBRANCH  29  30
ENDBRANCH  28  29
ENDBRANCH   1  28
TORSDOF 16
