REMARK SMILES C[C@@H]1[C@H](C(=O)NCCCCNC(=O)c2ccc(-c3c4nc(c(-c5c(F)cccc5F)c5ccc([nH]5)c(-c5c(F)cccc5F)c5nc(c(-c6c(F)cccc6F)c6ccc3[nH]6)C=C5)C=C4)cc2)CC[N@H+]1Cc1cnn(-c2ccccc2)c1
REMARK SMILES IDX 8 1 7 2 6 3 4 4 5 5 3 7 1 8 2 9 70 10 68 11 69 12 71 14
REMARK SMILES IDX 72 15 73 16 82 17 74 18 75 19 76 20 77 21 81 22 78 23 80 24
REMARK SMILES IDX 79 25 9 26 10 27 11 28 12 29 13 31 14 32 15 33 67 34 16 35
REMARK SMILES IDX 66 36 17 37 18 38 19 39 60 40 20 41 65 42 59 43 61 44 21 45
REMARK SMILES IDX 64 46 58 47 57 48 22 50 48 51 31 52 47 53 32 54 35 55 46 56
REMARK SMILES IDX 62 57 33 58 34 59 45 61 63 62 36 63 23 64 24 65 29 66 25 67
REMARK SMILES IDX 26 68 28 69 30 70 27 71 49 72 50 73 55 74 51 75 52 76 54 77
REMARK SMILES IDX 56 78 53 79 37 80 38 81 43 82 39 83 40 84 42 85 44 86 41 87
REMARK H PARENT 6 6 70 13 11 30 61 49 35 60
REMARK Flexibility Score: inf
ROOT
ATOM      1  C   UNL     1       2.790   1.512   2.331  1.00  0.00     0.023 C 
ENDROOT
BRANCH   1   2
ATOM      2  C   UNL     1       1.343   1.849   1.983  1.00  0.00     0.116 C 
BRANCH   2   3
ATOM      3  N   UNL     1       1.261   2.652   0.784  1.00  0.00    -0.356 N 
ATOM      4  C   UNL     1       0.704   2.380  -0.422  1.00  0.00     0.229 C 
ATOM      5  O   UNL     1       0.862   3.227  -1.308  1.00  0.00    -0.275 OA
ATOM      6  H   UNL     1       1.677   3.542   0.855  1.00  0.00     0.163 HD
BRANCH   4   7
ATOM      7  C   UNL     1      -0.104   1.122  -0.720  1.00  0.00     0.142 C 
ATOM      8  C   UNL     1       2.098  -0.315  -0.540  1.00  0.00     0.076 C 
ATOM      9  C   UNL     1       0.601  -0.250  -0.788  1.00  0.00     0.193 C 
ATOM     10  N   UNL     1      -0.223  -1.069   0.084  1.00  0.00    -0.328 N 
ATOM     11  C   UNL     1      -1.344   0.923   0.164  1.00  0.00     0.081 C 
ATOM     12  C   UNL     1      -1.576  -0.579   0.147  1.00  0.00     0.263 C 
ATOM     13  H   UNL     1       0.415  -1.495   0.757  1.00  0.00     0.348 HD
BRANCH  10  14
ATOM     14  C   UNL     1       0.181  -2.279   0.745  1.00  0.00     0.302 C 
BRANCH  14  15
ATOM     15  C   UNL     1       0.564  -1.975   2.159  1.00  0.00     0.045 A 
ATOM     16  C   UNL     1      -0.281  -1.602   3.226  1.00  0.00     0.145 A 
ATOM     17  C   UNL     1       1.816  -2.006   2.744  1.00  0.00     0.124 A 
ATOM     18  N   UNL     1       0.369  -1.434   4.377  1.00  0.00    -0.176 NA
ATOM     19  N   UNL     1       1.671  -1.659   4.072  1.00  0.00    -0.240 N 
BRANCH  19  20
ATOM     20  C   UNL     1       2.690  -1.464   5.043  1.00  0.00     0.065 A 
ATOM     21  C   UNL     1       2.349  -1.454   6.402  1.00  0.00     0.028 A 
ATOM     22  C   UNL     1       4.019  -1.228   4.661  1.00  0.00     0.028 A 
ATOM     23  C   UNL     1       3.331  -1.224   7.368  1.00  0.00     0.002 A 
ATOM     24  C   UNL     1       4.984  -0.947   5.633  1.00  0.00     0.002 A 
ATOM     25  C   UNL     1       4.643  -0.955   6.984  1.00  0.00     0.000 A 
ENDBRANCH  19  20
ENDBRANCH  14  15
ENDBRANCH  10  14
ENDBRANCH   4   7
ENDBRANCH   2   3
ENDBRANCH   1   2
BRANCH   1  26
ATOM     26  C   UNL     1       3.613   2.618   2.961  1.00  0.00     0.023 C 
BRANCH  26  27
ATOM     27  C   UNL     1       2.993   3.265   4.183  1.00  0.00     0.116 C 
BRANCH  27  28
ATOM     28  N   UNL     1       2.609   2.338   5.240  1.00  0.00    -0.352 N 
ATOM     29  C   UNL     1       2.872   2.440   6.588  1.00  0.00     0.251 C 
ATOM     30  H   UNL     1       2.100   1.545   4.956  1.00  0.00     0.163 HD
ATOM     31  O   UNL     1       2.394   1.682   7.416  1.00  0.00    -0.269 OA
BRANCH  29  32
ATOM     32  C   UNL     1       3.758   3.521   7.033  1.00  0.00     0.039 A 
ATOM     33  C   UNL     1       4.966   3.212   7.663  1.00  0.00     0.014 A 
ATOM     34  C   UNL     1       3.396   4.838   6.755  1.00  0.00     0.014 A 
ATOM     35  C   UNL     1       5.840   4.246   7.994  1.00  0.00     0.010 A 
ATOM     36  C   UNL     1       4.308   5.848   6.989  1.00  0.00     0.010 A 
ATOM     37  C   UNL     1       5.517   5.566   7.647  1.00  0.00    -0.014 A 
BRANCH  37  38
ATOM     38  C   UNL     1       6.341   6.719   8.065  1.00  0.00     0.031 A 
ATOM     39  C   UNL     1       5.722   7.717   9.003  1.00  0.00     0.074 A 
ATOM     40  C   UNL     1       7.557   6.926   7.531  1.00  0.00     0.049 A 
ATOM     41  N   UNL     1       6.124   8.918   9.325  1.00  0.00    -0.248 NA
ATOM     42  C   UNL     1       4.438   7.327   9.614  1.00  0.00     0.031 C 
ATOM     43  C   UNL     1       8.241   6.033   6.595  1.00  0.00     0.029 A 
ATOM     44  N   UNL     1       8.420   7.980   7.681  1.00  0.00    -0.354 N 
ATOM     45  C   UNL     1       5.120   9.439  10.131  1.00  0.00     0.074 A 
ATOM     46  C   UNL     1       4.066   8.453  10.200  1.00  0.00     0.031 C 
ATOM     47  C   UNL     1       9.424   6.575   6.260  1.00  0.00     0.029 A 
ATOM     48  C   UNL     1       9.557   7.870   6.920  1.00  0.00     0.049 A 
ATOM     49  H   UNL     1       8.242   8.742   8.278  1.00  0.00     0.167 HD
ATOM     50  C   UNL     1       5.091  10.628  10.776  1.00  0.00     0.037 A 
ATOM     51  C   UNL     1      10.578   8.734   6.766  1.00  0.00     0.037 A 
ATOM     52  C   UNL     1       6.173  11.574  10.735  1.00  0.00     0.049 A 
ATOM     53  C   UNL     1      10.537  10.042   7.510  1.00  0.00     0.074 A 
ATOM     54  C   UNL     1       6.288  12.784  11.393  1.00  0.00     0.029 A 
ATOM     55  N   UNL     1       7.337  11.401   9.999  1.00  0.00    -0.354 N 
ATOM     56  N   UNL     1       9.601  10.518   8.297  1.00  0.00    -0.248 NA
ATOM     57  C   UNL     1      11.696  10.930   7.350  1.00  0.00     0.031 C 
ATOM     58  C   UNL     1       7.509  13.360  11.027  1.00  0.00     0.029 A 
ATOM     59  C   UNL     1       8.175  12.486  10.182  1.00  0.00     0.049 A 
ATOM     60  H   UNL     1       7.536  10.621   9.432  1.00  0.00     0.167 HD
ATOM     61  C   UNL     1      10.072  11.742   8.755  1.00  0.00     0.074 A 
ATOM     62  C   UNL     1      11.382  11.930   8.162  1.00  0.00     0.031 C 
ATOM     63  C   UNL     1       9.482  12.631   9.591  1.00  0.00     0.037 A 
BRANCH  50  64
ATOM     64  C   UNL     1       3.859  10.954  11.569  1.00  0.00     0.057 A 
ATOM     65  C   UNL     1       3.512  10.245  12.728  1.00  0.00     0.134 A 
ATOM     66  C   UNL     1       3.003  11.986  11.166  1.00  0.00     0.134 A 
ATOM     67  F   UNL     1       4.277   9.231  13.160  1.00  0.00    -0.206 F 
ATOM     68  C   UNL     1       2.340  10.524  13.434  1.00  0.00     0.040 A 
ATOM     69  C   UNL     1       1.845  12.297  11.883  1.00  0.00     0.040 A 
ATOM     70  F   UNL     1       3.273  12.708  10.068  1.00  0.00    -0.206 F 
ATOM     71  C   UNL     1       1.506  11.558  13.014  1.00  0.00     0.006 A 
ENDBRANCH  50  64
BRANCH  51  72
ATOM     72  C   UNL     1      11.732   8.379   5.903  1.00  0.00     0.057 A 
ATOM     73  C   UNL     1      12.982   8.090   6.462  1.00  0.00     0.134 A 
ATOM     74  C   UNL     1      11.618   8.311   4.509  1.00  0.00     0.134 A 
ATOM     75  F   UNL     1      13.158   8.153   7.790  1.00  0.00    -0.206 F 
ATOM     76  C   UNL     1      14.083   7.766   5.667  1.00  0.00     0.040 A 
ATOM     77  C   UNL     1      12.705   7.964   3.703  1.00  0.00     0.040 A 
ATOM     78  F   UNL     1      10.445   8.565   3.911  1.00  0.00    -0.206 F 
ATOM     79  C   UNL     1      13.944   7.697   4.283  1.00  0.00     0.006 A 
ENDBRANCH  51  72
BRANCH  63  80
ATOM     80  C   UNL     1      10.270  13.854   9.956  1.00  0.00     0.057 A 
ATOM     81  C   UNL     1      10.486  14.898   9.049  1.00  0.00     0.134 A 
ATOM     82  C   UNL     1      10.780  14.003  11.253  1.00  0.00     0.134 A 
ATOM     83  F   UNL     1      10.031  14.809   7.790  1.00  0.00    -0.206 F 
ATOM     84  C   UNL     1      11.203  16.038   9.412  1.00  0.00     0.040 A 
ATOM     85  C   UNL     1      11.474  15.150  11.635  1.00  0.00     0.040 A 
ATOM     86  F   UNL     1      10.597  13.043  12.172  1.00  0.00    -0.206 F 
ATOM     87  C   UNL     1      11.693  16.169  10.710  1.00  0.00     0.006 A 
ENDBRANCH  63  80
ENDBRANCH  37  38
ENDBRANCH  29  32
ENDBRANCH  27  28
ENDBRANCH  26  27
ENDBRANCH   1  26
TORSDOF 14
