REMARK SMILES O=C(NCCCCNC(=O)c1ccc(-c2c3nc(c(-c4c(F)cccc4F)c4ccc([nH]4)c(-c4c(F)cccc4F)c4nc(c(-c5c(F)cccc5F)c5ccc2[nH]5)C=C4)C=C3)cc1)C1=Cc2cc(Cl)cc(-c3ccc(O)cc3)c2O[C@@H]1C(F)(F)F
REMARK SMILES IDX 5 1 4 2 3 3 1 4 2 5 65 7 66 8 82 9 67 10 81 11 68 12 80 13
REMARK SMILES IDX 69 14 72 15 70 16 71 17 83 18 84 19 85 20 86 21 73 22 74 23
REMARK SMILES IDX 79 24 75 25 78 26 76 27 77 28 6 30 7 31 8 32 9 33 10 35
REMARK SMILES IDX 11 36 12 37 64 38 13 39 63 40 14 41 15 42 16 43 57 44 17 45
REMARK SMILES IDX 62 46 56 47 58 48 18 49 61 50 55 51 54 52 19 54 45 55 28 56
REMARK SMILES IDX 44 57 29 58 32 59 43 60 59 61 30 62 31 63 42 65 60 66 33 67
REMARK SMILES IDX 20 68 21 69 26 70 22 71 23 72 25 73 27 74 24 75 46 76 47 77
REMARK SMILES IDX 52 78 48 79 49 80 51 81 53 82 50 83 34 84 35 85 40 86 36 87
REMARK SMILES IDX 37 88 39 89 41 90 38 91
REMARK H PARENT 3 6 77 29 8 34 58 53 32 64
REMARK Flexibility Score: inf
ROOT
ATOM      1  C   UNL     1       4.473   3.426   0.077  1.00  0.00     0.023 C 
ENDROOT
BRANCH   1   2
ATOM      2  C   UNL     1       4.060   1.986   0.355  1.00  0.00     0.116 C 
BRANCH   2   3
ATOM      3  N   UNL     1       2.800   1.583  -0.246  1.00  0.00    -0.352 N 
ATOM      4  O   UNL     1       1.206   0.199  -0.997  1.00  0.00    -0.270 OA
ATOM      5  C   UNL     1       2.393   0.365  -0.717  1.00  0.00     0.251 C 
ATOM      6  H   UNL     1       2.133   2.301  -0.327  1.00  0.00     0.163 HD
BRANCH   5   7
ATOM      7  C   UNL     1       3.308  -0.811  -0.824  1.00  0.00     0.067 C 
ATOM      8  C   UNL     1       4.571  -0.705  -1.270  1.00  0.00     0.025 C 
ATOM      9  C   UNL     1       3.008  -1.871   0.207  1.00  0.00     0.314 C 
ATOM     10  C   UNL     1       5.565  -0.869  -0.173  1.00  0.00     0.019 A 
ATOM     11  O   UNL     1       3.867  -1.704   1.366  1.00  0.00    -0.475 OA
ATOM     12  C   UNL     1       6.842  -0.343  -0.388  1.00  0.00     0.032 A 
ATOM     13  C   UNL     1       5.125  -1.186   1.134  1.00  0.00     0.135 A 
ATOM     14  C   UNL     1       7.643  -0.043   0.706  1.00  0.00     0.042 A 
ATOM     15  C   UNL     1       5.909  -0.825   2.249  1.00  0.00     0.026 A 
ATOM     16  Cl  UNL     1       9.145   0.758   0.460  1.00  0.00    -0.084 Cl
ATOM     17  C   UNL     1       7.181  -0.265   2.004  1.00  0.00     0.033 A 
BRANCH   9  18
ATOM     18  C   UNL     1       3.074  -3.290  -0.388  1.00  0.00     0.429 C 
ATOM     19  F   UNL     1       2.680  -4.224   0.509  1.00  0.00    -0.167 F 
ATOM     20  F   UNL     1       2.262  -3.413  -1.466  1.00  0.00    -0.167 F 
ATOM     21  F   UNL     1       4.321  -3.629  -0.795  1.00  0.00    -0.167 F 
ENDBRANCH   9  18
BRANCH  15  22
ATOM     22  C   UNL     1       5.385  -0.828   3.635  1.00  0.00    -0.014 A 
ATOM     23  C   UNL     1       5.420   0.359   4.395  1.00  0.00     0.012 A 
ATOM     24  C   UNL     1       4.835  -1.968   4.238  1.00  0.00     0.012 A 
ATOM     25  C   UNL     1       4.945   0.402   5.706  1.00  0.00     0.047 A 
ATOM     26  C   UNL     1       4.353  -1.929   5.555  1.00  0.00     0.047 A 
ATOM     27  C   UNL     1       4.417  -0.743   6.278  1.00  0.00     0.115 A 
BRANCH  27  28
ATOM     28  O   UNL     1       3.975  -0.656   7.563  1.00  0.00    -0.508 OA
ATOM     29  H   UNL     1       4.032   0.158   8.024  1.00  0.00     0.293 HD
ENDBRANCH  27  28
ENDBRANCH  15  22
ENDBRANCH   5   7
ENDBRANCH   2   3
ENDBRANCH   1   2
BRANCH   1  30
ATOM     30  C   UNL     1       4.194   4.431   1.190  1.00  0.00     0.023 C 
BRANCH  30  31
ATOM     31  C   UNL     1       4.735   4.090   2.579  1.00  0.00     0.116 C 
BRANCH  31  32
ATOM     32  N   UNL     1       6.155   3.776   2.633  1.00  0.00    -0.352 N 
ATOM     33  C   UNL     1       7.051   3.988   3.662  1.00  0.00     0.251 C 
ATOM     34  H   UNL     1       6.527   3.354   1.826  1.00  0.00     0.163 HD
ATOM     35  O   UNL     1       8.222   3.660   3.528  1.00  0.00    -0.269 OA
BRANCH  33  36
ATOM     36  C   UNL     1       6.611   4.655   4.912  1.00  0.00     0.039 A 
ATOM     37  C   UNL     1       7.402   5.684   5.432  1.00  0.00     0.014 A 
ATOM     38  C   UNL     1       5.418   4.306   5.549  1.00  0.00     0.014 A 
ATOM     39  C   UNL     1       6.943   6.430   6.520  1.00  0.00     0.010 A 
ATOM     40  C   UNL     1       4.934   5.081   6.601  1.00  0.00     0.010 A 
ATOM     41  C   UNL     1       5.679   6.167   7.076  1.00  0.00    -0.014 A 
BRANCH  41  42
ATOM     42  C   UNL     1       5.080   7.098   8.061  1.00  0.00     0.031 A 
ATOM     43  C   UNL     1       4.854   6.693   9.486  1.00  0.00     0.074 A 
ATOM     44  C   UNL     1       4.667   8.305   7.626  1.00  0.00     0.049 A 
ATOM     45  N   UNL     1       4.409   7.413  10.484  1.00  0.00    -0.248 NA
ATOM     46  C   UNL     1       5.139   5.293   9.831  1.00  0.00     0.031 C 
ATOM     47  C   UNL     1       4.744   8.773   6.240  1.00  0.00     0.029 A 
ATOM     48  N   UNL     1       4.102   9.357   8.300  1.00  0.00    -0.354 N 
ATOM     49  C   UNL     1       4.367   6.558  11.578  1.00  0.00     0.074 A 
ATOM     50  C   UNL     1       4.777   5.252  11.106  1.00  0.00     0.031 C 
ATOM     51  C   UNL     1       4.284  10.032   6.174  1.00  0.00     0.029 A 
ATOM     52  C   UNL     1       3.865  10.452   7.506  1.00  0.00     0.049 A 
ATOM     53  H   UNL     1       3.886   9.329   9.261  1.00  0.00     0.167 HD
ATOM     54  C   UNL     1       4.034   6.845  12.860  1.00  0.00     0.037 A 
ATOM     55  C   UNL     1       3.386  11.669   7.823  1.00  0.00     0.037 A 
ATOM     56  C   UNL     1       3.618   8.149  13.315  1.00  0.00     0.049 A 
ATOM     57  C   UNL     1       3.052  11.970   9.255  1.00  0.00     0.074 A 
ATOM     58  C   UNL     1       3.336   8.566  14.604  1.00  0.00     0.029 A 
ATOM     59  N   UNL     1       3.405   9.243  12.488  1.00  0.00    -0.354 N 
ATOM     60  N   UNL     1       3.139  11.192  10.306  1.00  0.00    -0.248 NA
ATOM     61  C   UNL     1       2.572  13.327   9.547  1.00  0.00     0.031 C 
ATOM     62  C   UNL     1       2.904   9.897  14.550  1.00  0.00     0.029 A 
ATOM     63  C   UNL     1       2.968  10.326  13.235  1.00  0.00     0.049 A 
ATOM     64  H   UNL     1       3.545   9.249  11.513  1.00  0.00     0.167 HD
ATOM     65  C   UNL     1       2.754  11.971  11.389  1.00  0.00     0.074 A 
ATOM     66  C   UNL     1       2.453  13.289  10.866  1.00  0.00     0.031 C 
ATOM     67  C   UNL     1       2.660  11.628  12.698  1.00  0.00     0.037 A 
BRANCH  54  68
ATOM     68  C   UNL     1       4.106   5.726  13.860  1.00  0.00     0.057 A 
ATOM     69  C   UNL     1       5.329   5.169  14.259  1.00  0.00     0.134 A 
ATOM     70  C   UNL     1       2.944   5.218  14.456  1.00  0.00     0.134 A 
ATOM     71  F   UNL     1       6.481   5.603  13.724  1.00  0.00    -0.206 F 
ATOM     72  C   UNL     1       5.392   4.129  15.190  1.00  0.00     0.040 A 
ATOM     73  C   UNL     1       2.996   4.197  15.407  1.00  0.00     0.040 A 
ATOM     74  F   UNL     1       1.740   5.709  14.127  1.00  0.00    -0.206 F 
ATOM     75  C   UNL     1       4.223   3.645  15.771  1.00  0.00     0.006 A 
ENDBRANCH  54  68
BRANCH  55  76
ATOM     76  C   UNL     1       3.272  12.714   6.776  1.00  0.00     0.057 A 
ATOM     77  C   UNL     1       4.144  13.809   6.758  1.00  0.00     0.134 A 
ATOM     78  C   UNL     1       2.305  12.642   5.767  1.00  0.00     0.134 A 
ATOM     79  F   UNL     1       5.082  13.939   7.707  1.00  0.00    -0.206 F 
ATOM     80  C   UNL     1       4.047  14.806   5.787  1.00  0.00     0.040 A 
ATOM     81  C   UNL     1       2.212  13.620   4.774  1.00  0.00     0.040 A 
ATOM     82  F   UNL     1       1.448  11.611   5.721  1.00  0.00    -0.206 F 
ATOM     83  C   UNL     1       3.081  14.709   4.787  1.00  0.00     0.006 A 
ENDBRANCH  55  76
BRANCH  67  84
ATOM     84  C   UNL     1       2.236  12.711  13.649  1.00  0.00     0.057 A 
ATOM     85  C   UNL     1       0.931  13.222  13.656  1.00  0.00     0.134 A 
ATOM     86  C   UNL     1       3.148  13.257  14.560  1.00  0.00     0.134 A 
ATOM     87  F   UNL     1       0.012  12.753  12.798  1.00  0.00    -0.206 F 
ATOM     88  C   UNL     1       0.561  14.265  14.507  1.00  0.00     0.040 A 
ATOM     89  C   UNL     1       2.781  14.279  15.437  1.00  0.00     0.040 A 
ATOM     90  F   UNL     1       4.411  12.808  14.613  1.00  0.00    -0.206 F 
ATOM     91  C   UNL     1       1.487  14.794  15.403  1.00  0.00     0.006 A 
ENDBRANCH  67  84
ENDBRANCH  41  42
ENDBRANCH  33  36
ENDBRANCH  31  32
ENDBRANCH  30  31
ENDBRANCH   1  30
TORSDOF 14
