REMARK SMILES C[C@H](NC(=O)c1c(C(=O)NCCCCNC(=O)c2ccc(-c3c4nc(c(-c5c(F)cccc5F)c5ccc([nH]5)c(-c5c(F)cccc5F)c5nc(c(-c6c(F)cccc6F)c6ccc3[nH]6)C=C5)C=C4)cc2)cnn1C)[C@]12C[C@H]3C[C@H](C[C@H](C3)C1)C2
REMARK SMILES IDX 12 1 11 2 10 3 8 4 9 5 7 7 6 8 74 9 72 10 73 11 75 12 4 13
REMARK SMILES IDX 3 14 5 16 2 17 1 18 76 19 77 20 84 21 85 22 78 23 82 24
REMARK SMILES IDX 80 25 79 26 83 27 81 28 13 29 14 30 15 31 16 32 17 34 18 35
REMARK SMILES IDX 19 36 71 37 20 38 70 39 21 40 22 41 23 42 64 43 24 44 69 45
REMARK SMILES IDX 63 46 65 47 25 48 68 49 62 50 61 51 26 53 52 54 35 55 51 56
REMARK SMILES IDX 36 57 39 58 50 59 66 60 37 61 38 62 49 64 67 65 40 66 27 67
REMARK SMILES IDX 28 68 33 69 29 70 30 71 32 72 34 73 31 74 53 75 54 76 59 77
REMARK SMILES IDX 55 78 56 79 58 80 60 81 57 82 41 83 42 84 47 85 43 86 44 87
REMARK SMILES IDX 46 88 48 89 45 90
REMARK H PARENT 10 6 3 15 15 33 65 52 39 63
REMARK Flexibility Score: inf
ROOT
ATOM      1  C   UNL     1      -0.665   0.099  -3.389  1.00  0.00     0.023 C 
ENDROOT
BRANCH   1   2
ATOM      2  C   UNL     1       0.725   0.321  -2.800  1.00  0.00     0.116 C 
BRANCH   2   3
ATOM      3  N   UNL     1       1.556   1.208  -3.563  1.00  0.00    -0.352 N 
ATOM      4  C   UNL     1       2.583   2.033  -3.192  1.00  0.00     0.255 C 
ATOM      5  O   UNL     1       3.065   2.697  -4.116  1.00  0.00    -0.269 OA
ATOM      6  H   UNL     1       1.351   1.226  -4.526  1.00  0.00     0.163 HD
BRANCH   4   7
ATOM      7  C   UNL     1       3.107   2.197  -1.836  1.00  0.00     0.090 A 
ATOM      8  C   UNL     1       2.971   1.551  -0.603  1.00  0.00     0.138 A 
ATOM      9  N   UNL     1       3.873   2.168   0.239  1.00  0.00    -0.262 N 
ATOM     10  C   UNL     1       4.027   3.249  -1.545  1.00  0.00     0.149 A 
ATOM     11  N   UNL     1       4.462   3.251  -0.288  1.00  0.00    -0.180 NA
ATOM     12  C   UNL     1       4.206   1.818   1.603  1.00  0.00     0.174 C 
BRANCH   8  13
ATOM     13  C   UNL     1       2.230   0.404  -0.174  1.00  0.00     0.270 C 
ATOM     14  N   UNL     1       1.102   0.543   0.601  1.00  0.00    -0.348 N 
ATOM     15  H   UNL     1       0.718  -0.329   0.851  1.00  0.00     0.164 HD
ATOM     16  O   UNL     1       2.576  -0.740  -0.463  1.00  0.00    -0.267 OA
BRANCH  14  17
ATOM     17  C   UNL     1       0.317   1.675   1.157  1.00  0.00     0.085 C 
ATOM     18  C   UNL     1       0.639   3.044   0.553  1.00  0.00     0.031 C 
BRANCH  17  19
ATOM     19  C   UNL     1      -1.240   1.349   1.137  1.00  0.00    -0.009 C 
ATOM     20  C   UNL     1      -1.592   0.301   2.234  1.00  0.00     0.012 C 
ATOM     21  C   UNL     1      -1.698   0.763  -0.223  1.00  0.00     0.012 C 
ATOM     22  C   UNL     1      -2.109   2.616   1.402  1.00  0.00     0.012 C 
ATOM     23  C   UNL     1      -3.100  -0.022   2.236  1.00  0.00    -0.010 C 
ATOM     24  C   UNL     1      -3.201   0.434  -0.234  1.00  0.00    -0.010 C 
ATOM     25  C   UNL     1      -3.611   2.292   1.403  1.00  0.00    -0.010 C 
ATOM     26  C   UNL     1      -3.901   1.262   2.500  1.00  0.00     0.007 C 
ATOM     27  C   UNL     1      -3.504  -0.592   0.868  1.00  0.00     0.007 C 
ATOM     28  C   UNL     1      -4.000   1.716   0.032  1.00  0.00     0.007 C 
ENDBRANCH  17  19
ENDBRANCH  14  17
ENDBRANCH   8  13
ENDBRANCH   4   7
ENDBRANCH   2   3
ENDBRANCH   1   2
BRANCH   1  29
ATOM     29  C   UNL     1      -0.732  -0.602  -4.736  1.00  0.00     0.023 C 
BRANCH  29  30
ATOM     30  C   UNL     1       0.058  -1.901  -4.830  1.00  0.00     0.116 C 
BRANCH  30  31
ATOM     31  N   UNL     1      -0.304  -2.890  -3.820  1.00  0.00    -0.352 N 
ATOM     32  C   UNL     1      -0.915  -4.121  -3.941  1.00  0.00     0.251 C 
ATOM     33  H   UNL     1      -0.073  -2.637  -2.897  1.00  0.00     0.163 HD
ATOM     34  O   UNL     1      -1.219  -4.763  -2.949  1.00  0.00    -0.269 OA
BRANCH  32  35
ATOM     35  C   UNL     1      -1.252  -4.635  -5.286  1.00  0.00     0.039 A 
ATOM     36  C   UNL     1      -2.540  -5.121  -5.524  1.00  0.00     0.014 A 
ATOM     37  C   UNL     1      -0.323  -4.568  -6.323  1.00  0.00     0.014 A 
ATOM     38  C   UNL     1      -2.937  -5.405  -6.832  1.00  0.00     0.010 A 
ATOM     39  C   UNL     1      -0.749  -4.745  -7.632  1.00  0.00     0.010 A 
ATOM     40  C   UNL     1      -2.067  -5.145  -7.903  1.00  0.00    -0.014 A 
BRANCH  40  41
ATOM     41  C   UNL     1      -2.508  -5.239  -9.318  1.00  0.00     0.031 A 
ATOM     42  C   UNL     1      -1.787  -6.150 -10.270  1.00  0.00     0.074 A 
ATOM     43  C   UNL     1      -3.462  -4.405  -9.778  1.00  0.00     0.049 A 
ATOM     44  N   UNL     1      -1.890  -6.239 -11.571  1.00  0.00    -0.248 NA
ATOM     45  C   UNL     1      -0.778  -7.046  -9.683  1.00  0.00     0.031 C 
ATOM     46  C   UNL     1      -4.186  -3.415  -8.977  1.00  0.00     0.029 A 
ATOM     47  N   UNL     1      -3.967  -4.237 -11.043  1.00  0.00    -0.354 N 
ATOM     48  C   UNL     1      -0.932  -7.165 -11.961  1.00  0.00     0.074 A 
ATOM     49  C   UNL     1      -0.227  -7.574 -10.765  1.00  0.00     0.031 C 
ATOM     50  C   UNL     1      -5.050  -2.756  -9.765  1.00  0.00     0.029 A 
ATOM     51  C   UNL     1      -4.914  -3.246 -11.132  1.00  0.00     0.049 A 
ATOM     52  H   UNL     1      -3.677  -4.776 -11.815  1.00  0.00     0.167 HD
ATOM     53  C   UNL     1      -0.675  -7.647 -13.199  1.00  0.00     0.037 A 
ATOM     54  C   UNL     1      -5.588  -2.775 -12.198  1.00  0.00     0.037 A 
ATOM     55  C   UNL     1      -1.411  -7.281 -14.379  1.00  0.00     0.049 A 
ATOM     56  C   UNL     1      -5.336  -3.372 -13.552  1.00  0.00     0.074 A 
ATOM     57  C   UNL     1      -1.286  -7.776 -15.664  1.00  0.00     0.029 A 
ATOM     58  N   UNL     1      -2.421  -6.331 -14.411  1.00  0.00    -0.354 N 
ATOM     59  N   UNL     1      -4.470  -4.293 -13.897  1.00  0.00    -0.248 NA
ATOM     60  C   UNL     1      -6.157  -2.869 -14.662  1.00  0.00     0.031 C 
ATOM     61  C   UNL     1      -2.206  -7.109 -16.481  1.00  0.00     0.029 A 
ATOM     62  C   UNL     1      -2.925  -6.221 -15.696  1.00  0.00     0.049 A 
ATOM     63  H   UNL     1      -2.734  -5.812 -13.635  1.00  0.00     0.167 HD
ATOM     64  C   UNL     1      -4.652  -4.494 -15.258  1.00  0.00     0.074 A 
ATOM     65  C   UNL     1      -5.720  -3.608 -15.674  1.00  0.00     0.031 C 
ATOM     66  C   UNL     1      -3.992  -5.337 -16.089  1.00  0.00     0.037 A 
BRANCH  53  67
ATOM     67  C   UNL     1       0.448  -8.634 -13.327  1.00  0.00     0.057 A 
ATOM     68  C   UNL     1       0.348  -9.935 -12.817  1.00  0.00     0.134 A 
ATOM     69  C   UNL     1       1.646  -8.276 -13.957  1.00  0.00     0.134 A 
ATOM     70  F   UNL     1      -0.767 -10.334 -12.187  1.00  0.00    -0.206 F 
ATOM     71  C   UNL     1       1.413 -10.833 -12.895  1.00  0.00     0.040 A 
ATOM     72  C   UNL     1       2.709  -9.175 -14.065  1.00  0.00     0.040 A 
ATOM     73  F   UNL     1       1.806  -7.048 -14.471  1.00  0.00    -0.206 F 
ATOM     74  C   UNL     1       2.597 -10.454 -13.524  1.00  0.00     0.006 A 
ENDBRANCH  53  67
BRANCH  54  75
ATOM     75  C   UNL     1      -6.588  -1.694 -12.016  1.00  0.00     0.057 A 
ATOM     76  C   UNL     1      -7.959  -1.971 -12.059  1.00  0.00     0.134 A 
ATOM     77  C   UNL     1      -6.201  -0.371 -11.776  1.00  0.00     0.134 A 
ATOM     78  F   UNL     1      -8.388  -3.218 -12.301  1.00  0.00    -0.206 F 
ATOM     79  C   UNL     1      -8.912  -0.967 -11.880  1.00  0.00     0.040 A 
ATOM     80  C   UNL     1      -7.144   0.639 -11.576  1.00  0.00     0.040 A 
ATOM     81  F   UNL     1      -4.902  -0.046 -11.713  1.00  0.00    -0.206 F 
ATOM     82  C   UNL     1      -8.505   0.342 -11.632  1.00  0.00     0.006 A 
ENDBRANCH  54  75
BRANCH  66  83
ATOM     83  C   UNL     1      -4.425  -5.360 -17.523  1.00  0.00     0.057 A 
ATOM     84  C   UNL     1      -4.076  -4.337 -18.413  1.00  0.00     0.134 A 
ATOM     85  C   UNL     1      -5.159  -6.439 -18.029  1.00  0.00     0.134 A 
ATOM     86  F   UNL     1      -3.385  -3.270 -17.984  1.00  0.00    -0.206 F 
ATOM     87  C   UNL     1      -4.455  -4.380 -19.755  1.00  0.00     0.040 A 
ATOM     88  C   UNL     1      -5.527  -6.503 -19.372  1.00  0.00     0.040 A 
ATOM     89  F   UNL     1      -5.519  -7.453 -17.227  1.00  0.00    -0.206 F 
ATOM     90  C   UNL     1      -5.178  -5.469 -20.239  1.00  0.00     0.006 A 
ENDBRANCH  66  83
ENDBRANCH  40  41
ENDBRANCH  32  35
ENDBRANCH  30  31
ENDBRANCH  29  30
ENDBRANCH   1  29
TORSDOF 14
