REMARK SMILES O=C(CCC(=O)N1Cc2[nH]cnc2C[C@H]1C(=O)NCc1ccccc1)NCCCCNC(=O)c1ccc(-c2c3nc(c(-c4c(F)cccc4F)c4ccc([nH]4)c(-c4c(F)cccc4F)c4nc(c(-c5c(F)cccc5F)c5ccc2[nH]5)C=C4)C=C3)cc1
REMARK SMILES IDX 1 1 2 2 26 3 3 5 4 6 5 7 6 8 7 9 8 10 15 11 9 12 14 13 10 14
REMARK SMILES IDX 13 15 11 16 12 18 16 19 17 20 18 21 19 23 20 24 21 25 25 26
REMARK SMILES IDX 22 27 24 28 23 29 27 30 28 31 29 32 30 33 31 34 32 35 33 37
REMARK SMILES IDX 34 38 35 39 87 40 36 41 86 42 37 43 38 44 39 45 80 46 40 47
REMARK SMILES IDX 85 48 79 49 81 50 41 51 84 52 78 53 77 54 42 56 68 57 51 58
REMARK SMILES IDX 67 59 52 60 55 61 66 62 82 63 53 64 54 65 65 67 83 68 56 69
REMARK SMILES IDX 43 70 44 71 49 72 45 73 46 74 48 75 50 76 47 77 69 78 70 79
REMARK SMILES IDX 75 80 71 81 72 82 74 83 76 84 73 85 57 86 58 87 63 88 59 89
REMARK SMILES IDX 60 90 62 91 64 92 61 93
REMARK H PARENT 26 4 10 17 18 22 31 36 81 55 55 66
REMARK Flexibility Score: inf
ROOT
ATOM      1  O   UNL     1       0.865   0.310  -0.662  1.00  0.00    -0.275 OA
ATOM      2  C   UNL     1       2.037   0.268  -1.021  1.00  0.00     0.220 C 
ATOM      3  N   UNL     1       2.558  -0.819  -1.748  1.00  0.00    -0.356 N 
ATOM      4  H   UNL     1       3.428  -0.729  -2.198  1.00  0.00     0.163 HD
ENDROOT
BRANCH   2   5
ATOM      5  C   UNL     1       3.059   1.358  -0.598  1.00  0.00     0.110 C 
BRANCH   5   6
ATOM      6  C   UNL     1       3.374   1.480   0.916  1.00  0.00     0.110 C 
BRANCH   6   7
ATOM      7  C   UNL     1       4.668   0.823   1.437  1.00  0.00     0.224 C 
ATOM      8  O   UNL     1       5.696   1.491   1.560  1.00  0.00    -0.275 OA
BRANCH   7   9
ATOM      9  N   UNL     1       4.637  -0.520   1.797  1.00  0.00    -0.324 N 
ATOM     10  C   UNL     1       5.818  -1.108   2.485  1.00  0.00     0.176 C 
ATOM     11  C   UNL     1       3.629  -1.428   1.197  1.00  0.00     0.180 C 
ATOM     12  C   UNL     1       5.818  -2.568   2.254  1.00  0.00     0.058 A 
ATOM     13  C   UNL     1       4.280  -2.496   0.341  1.00  0.00     0.093 C 
ATOM     14  N   UNL     1       6.073  -3.569   3.145  1.00  0.00    -0.347 N 
ATOM     15  C   UNL     1       5.198  -3.201   1.208  1.00  0.00     0.066 A 
ATOM     16  C   UNL     1       5.495  -4.689   2.612  1.00  0.00     0.197 A 
ATOM     17  H   UNL     1       6.568  -3.501   3.993  1.00  0.00     0.167 HD
ATOM     18  N   UNL     1       5.098  -4.525   1.378  1.00  0.00    -0.242 NA
BRANCH  11  19
ATOM     19  C   UNL     1       2.235  -1.666   1.855  1.00  0.00     0.243 C 
ATOM     20  O   UNL     1       1.490  -0.703   2.079  1.00  0.00    -0.273 OA
ATOM     21  N   UNL     1       1.715  -2.844   2.260  1.00  0.00    -0.350 N 
ATOM     22  H   UNL     1       0.744  -2.935   2.129  1.00  0.00     0.163 HD
BRANCH  21  23
ATOM     23  C   UNL     1       2.355  -3.985   2.854  1.00  0.00     0.151 C 
BRANCH  23  24
ATOM     24  C   UNL     1       2.876  -3.700   4.245  1.00  0.00    -0.029 A 
ATOM     25  C   UNL     1       2.968  -4.748   5.166  1.00  0.00     0.005 A 
ATOM     26  C   UNL     1       3.263  -2.418   4.674  1.00  0.00     0.005 A 
ATOM     27  C   UNL     1       3.315  -4.492   6.492  1.00  0.00     0.000 A 
ATOM     28  C   UNL     1       3.660  -2.171   5.982  1.00  0.00     0.000 A 
ATOM     29  C   UNL     1       3.660  -3.207   6.900  1.00  0.00     0.000 A 
ENDBRANCH  23  24
ENDBRANCH  21  23
ENDBRANCH  11  19
ENDBRANCH   7   9
ENDBRANCH   6   7
ENDBRANCH   5   6
ENDBRANCH   2   5
BRANCH   3  30
ATOM     30  C   UNL     1       1.819  -2.089  -1.843  1.00  0.00     0.116 C 
BRANCH  30  31
ATOM     31  C   UNL     1       2.315  -3.180  -2.836  1.00  0.00     0.023 C 
BRANCH  31  32
ATOM     32  C   UNL     1       3.744  -3.809  -2.810  1.00  0.00     0.023 C 
BRANCH  32  33
ATOM     33  C   UNL     1       4.130  -4.891  -1.746  1.00  0.00     0.116 C 
BRANCH  33  34
ATOM     34  N   UNL     1       4.402  -6.252  -2.237  1.00  0.00    -0.352 N 
ATOM     35  C   UNL     1       5.043  -7.341  -1.622  1.00  0.00     0.251 C 
ATOM     36  H   UNL     1       4.082  -6.428  -3.151  1.00  0.00     0.163 HD
ATOM     37  O   UNL     1       4.835  -8.462  -2.067  1.00  0.00    -0.269 OA
BRANCH  35  38
ATOM     38  C   UNL     1       5.964  -7.209  -0.443  1.00  0.00     0.039 A 
ATOM     39  C   UNL     1       6.024  -8.165   0.600  1.00  0.00     0.014 A 
ATOM     40  C   UNL     1       6.866  -6.176  -0.384  1.00  0.00     0.014 A 
ATOM     41  C   UNL     1       6.765  -7.941   1.807  1.00  0.00     0.010 A 
ATOM     42  C   UNL     1       7.586  -5.965   0.798  1.00  0.00     0.010 A 
ATOM     43  C   UNL     1       7.481  -6.760   1.980  1.00  0.00    -0.014 A 
BRANCH  43  44
ATOM     44  C   UNL     1       8.151  -6.242   3.261  1.00  0.00     0.031 A 
ATOM     45  C   UNL     1       9.487  -5.689   2.946  1.00  0.00     0.074 A 
ATOM     46  C   UNL     1       7.740  -5.985   4.551  1.00  0.00     0.049 A 
ATOM     47  N   UNL     1      10.580  -6.383   2.906  1.00  0.00    -0.248 NA
ATOM     48  C   UNL     1       9.612  -4.328   2.388  1.00  0.00     0.031 C 
ATOM     49  C   UNL     1       6.447  -6.253   5.191  1.00  0.00     0.029 A 
ATOM     50  N   UNL     1       8.386  -5.277   5.577  1.00  0.00    -0.354 N 
ATOM     51  C   UNL     1      11.538  -5.441   2.584  1.00  0.00     0.074 A 
ATOM     52  C   UNL     1      10.836  -4.425   1.860  1.00  0.00     0.031 C 
ATOM     53  C   UNL     1       6.323  -5.535   6.338  1.00  0.00     0.029 A 
ATOM     54  C   UNL     1       7.558  -4.832   6.627  1.00  0.00     0.049 A 
ATOM     55  H   UNL     1       9.355  -5.103   5.565  1.00  0.00     0.167 HD
ATOM     56  C   UNL     1      12.616  -5.264   3.396  1.00  0.00     0.037 A 
ATOM     57  C   UNL     1       7.853  -4.109   7.754  1.00  0.00     0.037 A 
ATOM     58  C   UNL     1      12.693  -6.333   4.372  1.00  0.00     0.049 A 
ATOM     59  C   UNL     1       9.217  -4.461   8.156  1.00  0.00     0.074 A 
ATOM     60  C   UNL     1      12.909  -7.696   4.382  1.00  0.00     0.029 A 
ATOM     61  N   UNL     1      12.101  -6.025   5.565  1.00  0.00    -0.354 N 
ATOM     62  N   UNL     1       9.538  -5.630   8.622  1.00  0.00    -0.248 NA
ATOM     63  C   UNL     1      10.321  -3.584   7.798  1.00  0.00     0.031 C 
ATOM     64  C   UNL     1      12.386  -8.194   5.614  1.00  0.00     0.029 A 
ATOM     65  C   UNL     1      11.901  -7.125   6.354  1.00  0.00     0.049 A 
ATOM     66  H   UNL     1      11.846  -5.111   5.828  1.00  0.00     0.167 HD
ATOM     67  C   UNL     1      10.796  -5.818   8.109  1.00  0.00     0.074 A 
ATOM     68  C   UNL     1      11.305  -4.485   7.815  1.00  0.00     0.031 C 
ATOM     69  C   UNL     1      11.107  -7.020   7.553  1.00  0.00     0.037 A 
BRANCH  56  70
ATOM     70  C   UNL     1      13.286  -3.919   3.670  1.00  0.00     0.057 A 
ATOM     71  C   UNL     1      14.473  -3.922   4.422  1.00  0.00     0.134 A 
ATOM     72  C   UNL     1      12.743  -2.631   3.450  1.00  0.00     0.134 A 
ATOM     73  F   UNL     1      15.093  -5.074   4.722  1.00  0.00    -0.206 F 
ATOM     74  C   UNL     1      15.037  -2.755   4.954  1.00  0.00     0.040 A 
ATOM     75  C   UNL     1      13.325  -1.456   3.934  1.00  0.00     0.040 A 
ATOM     76  F   UNL     1      11.579  -2.405   2.837  1.00  0.00    -0.206 F 
ATOM     77  C   UNL     1      14.462  -1.516   4.712  1.00  0.00     0.006 A 
ENDBRANCH  56  70
BRANCH  57  78
ATOM     78  C   UNL     1       7.152  -3.082   8.585  1.00  0.00     0.057 A 
ATOM     79  C   UNL     1       7.335  -2.952   9.978  1.00  0.00     0.134 A 
ATOM     80  C   UNL     1       6.597  -1.959   7.955  1.00  0.00     0.134 A 
ATOM     81  F   UNL     1       7.965  -3.908  10.674  1.00  0.00    -0.206 F 
ATOM     82  C   UNL     1       6.959  -1.798  10.693  1.00  0.00     0.040 A 
ATOM     83  C   UNL     1       6.187  -0.811   8.658  1.00  0.00     0.040 A 
ATOM     84  F   UNL     1       6.539  -1.910   6.615  1.00  0.00    -0.206 F 
ATOM     85  C   UNL     1       6.372  -0.724  10.033  1.00  0.00     0.006 A 
ENDBRANCH  57  78
BRANCH  69  86
ATOM     86  C   UNL     1      10.482  -8.239   8.155  1.00  0.00     0.057 A 
ATOM     87  C   UNL     1       9.119  -8.565   8.120  1.00  0.00     0.134 A 
ATOM     88  C   UNL     1      11.334  -9.142   8.800  1.00  0.00     0.134 A 
ATOM     89  F   UNL     1       8.229  -7.787   7.489  1.00  0.00    -0.206 F 
ATOM     90  C   UNL     1       8.629  -9.729   8.725  1.00  0.00     0.040 A 
ATOM     91  C   UNL     1      10.863 -10.320   9.379  1.00  0.00     0.040 A 
ATOM     92  F   UNL     1      12.652  -8.895   8.867  1.00  0.00    -0.206 F 
ATOM     93  C   UNL     1       9.504 -10.614   9.350  1.00  0.00     0.006 A 
ENDBRANCH  69  86
ENDBRANCH  43  44
ENDBRANCH  35  38
ENDBRANCH  33  34
ENDBRANCH  32  33
ENDBRANCH  31  32
ENDBRANCH  30  31
ENDBRANCH   3  30
TORSDOF 17
