REMARK SMILES CC1=C(C#N)C(=O)N(C)C(=O)/C1=C\Nc1ccc(C(=O)NCCCCNC(=O)c2ccc(-c3c4nc(c(-c5c(F)cccc5F)c5ccc([nH]5)c(-c5c(F)cccc5F)c5nc(c(-c6c(F)cccc6F)c6ccc3[nH]6)C=C5)C=C4)cc2)c(O)c1
REMARK SMILES IDX 23 1 22 2 21 3 19 4 20 5 18 7 15 8 16 9 85 10 17 11 83 12
REMARK SMILES IDX 14 13 13 15 1 16 2 17 3 18 12 19 6 20 10 21 7 22 8 23 11 24
REMARK SMILES IDX 9 25 4 26 5 27 84 28 24 30 25 31 26 32 27 33 28 35 29 36
REMARK SMILES IDX 30 37 82 38 31 39 81 40 32 41 33 42 34 43 75 44 35 45 80 46
REMARK SMILES IDX 74 47 76 48 36 49 79 50 73 51 72 52 37 54 63 55 46 56 62 57
REMARK SMILES IDX 47 58 50 59 61 60 77 61 48 62 49 63 60 65 78 66 51 67 38 68
REMARK SMILES IDX 39 69 44 70 40 71 41 72 43 73 45 74 42 75 64 76 65 77 70 78
REMARK SMILES IDX 66 79 67 80 69 81 71 82 68 83 52 84 53 85 58 86 54 87 55 88
REMARK SMILES IDX 57 89 59 90 56 91
REMARK H PARENT 21 6 14 14 84 29 26 34 76 53 50 64
REMARK Flexibility Score: inf
ROOT
ATOM      1  C   UNL     1      -9.016   3.176   0.172  1.00  0.00     0.023 C 
ENDROOT
BRANCH   1   2
ATOM      2  C   UNL     1      -8.301   2.368  -0.906  1.00  0.00     0.116 C 
BRANCH   2   3
ATOM      3  N   UNL     1      -7.879   3.148  -2.061  1.00  0.00    -0.352 N 
ATOM      4  C   UNL     1      -6.788   2.975  -2.880  1.00  0.00     0.255 C 
ATOM      5  O   UNL     1      -6.592   3.764  -3.799  1.00  0.00    -0.269 OA
ATOM      6  H   UNL     1      -8.460   3.910  -2.288  1.00  0.00     0.163 HD
BRANCH   4   7
ATOM      7  C   UNL     1      -5.819   1.882  -2.638  1.00  0.00     0.081 A 
ATOM      8  C   UNL     1      -3.857  -0.029  -1.960  1.00  0.00     0.042 A 
ATOM      9  C   UNL     1      -3.493   1.278  -2.299  1.00  0.00     0.027 A 
ATOM     10  C   UNL     1      -5.213  -0.379  -2.031  1.00  0.00     0.073 A 
ATOM     11  C   UNL     1      -4.463   2.228  -2.636  1.00  0.00     0.020 A 
ATOM     12  C   UNL     1      -6.178   0.553  -2.409  1.00  0.00     0.130 A 
BRANCH   8  13
ATOM     13  N   UNL     1      -2.950  -0.994  -1.506  1.00  0.00    -0.361 N 
ATOM     14  H   UNL     1      -3.283  -1.920  -1.520  1.00  0.00     0.166 HD
BRANCH  13  15
ATOM     15  C   UNL     1      -1.666  -0.844  -1.044  1.00  0.00     0.097 C 
ATOM     16  C   UNL     1       0.973  -0.078  -0.016  1.00  0.00     0.047 C 
ATOM     17  C   UNL     1       0.546  -1.525  -0.155  1.00  0.00    -0.013 C 
ATOM     18  C   UNL     1       1.359  -2.549   0.167  1.00  0.00     0.121 C 
ATOM     19  C   UNL     1      -0.800  -1.805  -0.656  1.00  0.00     0.060 C 
ATOM     20  C   UNL     1       0.954  -3.967   0.011  1.00  0.00     0.271 C 
ATOM     21  C   UNL     1      -1.273  -3.237  -0.750  1.00  0.00     0.262 C 
ATOM     22  O   UNL     1       1.744  -4.866   0.292  1.00  0.00    -0.268 OA
ATOM     23  N   UNL     1      -0.330  -4.209  -0.450  1.00  0.00    -0.277 N 
ATOM     24  O   UNL     1      -2.431  -3.509  -1.071  1.00  0.00    -0.269 OA
ATOM     25  C   UNL     1      -0.711  -5.605  -0.593  1.00  0.00     0.157 C 
BRANCH  18  26
ATOM     26  C   UNL     1       2.764  -2.308   0.694  1.00  0.00     0.105 C 
ATOM     27  N   UNL     1       3.930  -2.108   1.132  1.00  0.00    -0.192 NA
ENDBRANCH  18  26
ENDBRANCH  13  15
ENDBRANCH   8  13
BRANCH  12  28
ATOM     28  O   UNL     1      -7.449   0.071  -2.550  1.00  0.00    -0.507 OA
ATOM     29  H   UNL     1      -8.144   0.647  -2.802  1.00  0.00     0.293 HD
ENDBRANCH  12  28
ENDBRANCH   4   7
ENDBRANCH   2   3
ENDBRANCH   1   2
BRANCH   1  30
ATOM     30  C   UNL     1     -10.241   3.970  -0.280  1.00  0.00     0.023 C 
BRANCH  30  31
ATOM     31  C   UNL     1     -11.233   3.229  -1.171  1.00  0.00     0.116 C 
BRANCH  31  32
ATOM     32  N   UNL     1     -11.837   2.068  -0.536  1.00  0.00    -0.352 N 
ATOM     33  C   UNL     1     -13.148   1.814  -0.205  1.00  0.00     0.251 C 
ATOM     34  H   UNL     1     -11.206   1.348  -0.305  1.00  0.00     0.163 HD
ATOM     35  O   UNL     1     -13.435   0.799   0.424  1.00  0.00    -0.269 OA
BRANCH  33  36
ATOM     36  C   UNL     1     -14.212   2.779  -0.559  1.00  0.00     0.039 A 
ATOM     37  C   UNL     1     -15.151   3.131   0.415  1.00  0.00     0.014 A 
ATOM     38  C   UNL     1     -14.277   3.353  -1.830  1.00  0.00     0.014 A 
ATOM     39  C   UNL     1     -16.086   4.134   0.147  1.00  0.00     0.010 A 
ATOM     40  C   UNL     1     -15.147   4.415  -2.064  1.00  0.00     0.010 A 
ATOM     41  C   UNL     1     -16.053   4.825  -1.075  1.00  0.00    -0.014 A 
BRANCH  41  42
ATOM     42  C   UNL     1     -16.930   5.999  -1.321  1.00  0.00     0.031 A 
ATOM     43  C   UNL     1     -17.927   5.988  -2.446  1.00  0.00     0.074 A 
ATOM     44  C   UNL     1     -16.761   7.118  -0.590  1.00  0.00     0.049 A 
ATOM     45  N   UNL     1     -18.720   6.945  -2.859  1.00  0.00    -0.248 NA
ATOM     46  C   UNL     1     -18.019   4.749  -3.233  1.00  0.00     0.031 C 
ATOM     47  C   UNL     1     -15.777   7.288   0.481  1.00  0.00     0.029 A 
ATOM     48  N   UNL     1     -17.399   8.333  -0.649  1.00  0.00    -0.354 N 
ATOM     49  C   UNL     1     -19.386   6.432  -3.965  1.00  0.00     0.074 A 
ATOM     50  C   UNL     1     -18.863   5.102  -4.191  1.00  0.00     0.031 C 
ATOM     51  C   UNL     1     -15.888   8.525   0.989  1.00  0.00     0.029 A 
ATOM     52  C   UNL     1     -16.923   9.249   0.257  1.00  0.00     0.049 A 
ATOM     53  H   UNL     1     -18.128   8.528  -1.281  1.00  0.00     0.167 HD
ATOM     54  C   UNL     1     -20.359   7.008  -4.711  1.00  0.00     0.037 A 
ATOM     55  C   UNL     1     -17.270  10.532   0.470  1.00  0.00     0.037 A 
ATOM     56  C   UNL     1     -20.893   8.323  -4.469  1.00  0.00     0.049 A 
ATOM     57  C   UNL     1     -18.365  11.147  -0.353  1.00  0.00     0.074 A 
ATOM     58  C   UNL     1     -21.944   8.958  -5.107  1.00  0.00     0.029 A 
ATOM     59  N   UNL     1     -20.408   9.210  -3.518  1.00  0.00    -0.354 N 
ATOM     60  N   UNL     1     -19.056  10.617  -1.333  1.00  0.00    -0.248 NA
ATOM     61  C   UNL     1     -18.735  12.533  -0.037  1.00  0.00     0.031 C 
ATOM     62  C   UNL     1     -22.060  10.249  -4.580  1.00  0.00     0.029 A 
ATOM     63  C   UNL     1     -21.116  10.401  -3.577  1.00  0.00     0.049 A 
ATOM     64  H   UNL     1     -19.670   9.022  -2.895  1.00  0.00     0.167 HD
ATOM     65  C   UNL     1     -19.951  11.597  -1.742  1.00  0.00     0.074 A 
ATOM     66  C   UNL     1     -19.727  12.748  -0.891  1.00  0.00     0.031 C 
ATOM     67  C   UNL     1     -20.874  11.546  -2.734  1.00  0.00     0.037 A 
BRANCH  54  68
ATOM     68  C   UNL     1     -20.898   6.214  -5.867  1.00  0.00     0.057 A 
ATOM     69  C   UNL     1     -21.656   5.049  -5.679  1.00  0.00     0.134 A 
ATOM     70  C   UNL     1     -20.655   6.617  -7.186  1.00  0.00     0.134 A 
ATOM     71  F   UNL     1     -21.918   4.600  -4.442  1.00  0.00    -0.206 F 
ATOM     72  C   UNL     1     -22.114   4.293  -6.760  1.00  0.00     0.040 A 
ATOM     73  C   UNL     1     -21.134   5.886  -8.274  1.00  0.00     0.040 A 
ATOM     74  F   UNL     1     -19.944   7.727  -7.439  1.00  0.00    -0.206 F 
ATOM     75  C   UNL     1     -21.856   4.713  -8.062  1.00  0.00     0.006 A 
ENDBRANCH  54  68
BRANCH  55  76
ATOM     76  C   UNL     1     -16.579  11.308   1.530  1.00  0.00     0.057 A 
ATOM     77  C   UNL     1     -17.222  11.622   2.732  1.00  0.00     0.134 A 
ATOM     78  C   UNL     1     -15.248  11.717   1.383  1.00  0.00     0.134 A 
ATOM     79  F   UNL     1     -18.502  11.271   2.924  1.00  0.00    -0.206 F 
ATOM     80  C   UNL     1     -16.569  12.319   3.750  1.00  0.00     0.040 A 
ATOM     81  C   UNL     1     -14.575  12.395   2.401  1.00  0.00     0.040 A 
ATOM     82  F   UNL     1     -14.574  11.437   0.258  1.00  0.00    -0.206 F 
ATOM     83  C   UNL     1     -15.238  12.700   3.588  1.00  0.00     0.006 A 
ENDBRANCH  55  76
BRANCH  67  84
ATOM     84  C   UNL     1     -21.720  12.768  -2.948  1.00  0.00     0.057 A 
ATOM     85  C   UNL     1     -21.197  13.937  -3.515  1.00  0.00     0.134 A 
ATOM     86  C   UNL     1     -23.081  12.762  -2.618  1.00  0.00     0.134 A 
ATOM     87  F   UNL     1     -19.898  14.013  -3.841  1.00  0.00    -0.206 F 
ATOM     88  C   UNL     1     -21.994  15.063  -3.729  1.00  0.00     0.040 A 
ATOM     89  C   UNL     1     -23.894  13.873  -2.852  1.00  0.00     0.040 A 
ATOM     90  F   UNL     1     -23.647  11.672  -2.078  1.00  0.00    -0.206 F 
ATOM     91  C   UNL     1     -23.349  15.030  -3.404  1.00  0.00     0.006 A 
ENDBRANCH  67  84
ENDBRANCH  41  42
ENDBRANCH  33  36
ENDBRANCH  31  32
ENDBRANCH  30  31
ENDBRANCH   1  30
TORSDOF 15
