REMARK SMILES O=C(NCCCCNC(=O)c1ccc(-c2c3nc(c(-c4c(F)cccc4F)c4ccc([nH]4)c(-c4c(F)cccc4F)c4nc(c(-c5c(F)cccc5F)c5ccc2[nH]5)C=C4)C=C3)cc1)c1ccc(/[NH+]=C2\S[C@@H](Cc3ccc(F)cc3)C(=O)N2Cc2ccccc2)cc1
REMARK SMILES IDX 5 1 4 2 3 3 1 4 2 5 65 7 66 8 92 9 67 10 91 11 68 12 69 13
REMARK SMILES IDX 70 14 71 16 83 17 72 18 81 19 82 20 84 21 85 22 86 23 90 24
REMARK SMILES IDX 87 25 89 26 88 27 73 28 74 29 75 30 80 31 76 32 79 33 77 34
REMARK SMILES IDX 78 35 6 36 7 37 8 38 9 39 10 41 11 42 12 43 64 44 13 45
REMARK SMILES IDX 63 46 14 47 15 48 16 49 57 50 17 51 62 52 56 53 58 54 18 55
REMARK SMILES IDX 61 56 55 57 54 58 19 60 45 61 28 62 44 63 29 64 32 65 43 66
REMARK SMILES IDX 59 67 30 68 31 69 42 71 60 72 33 73 20 74 21 75 26 76 22 77
REMARK SMILES IDX 23 78 25 79 27 80 24 81 46 82 47 83 52 84 48 85 49 86 51 87
REMARK SMILES IDX 53 88 50 89 34 90 35 91 40 92 36 93 37 94 39 95 41 96 38 97
REMARK H PARENT 3 6 69 15 8 40 58 59 32 70
REMARK Flexibility Score: inf
ROOT
ATOM      1  C   UNL     1       4.928   2.348   0.913  1.00  0.00     0.023 C 
ENDROOT
BRANCH   1   2
ATOM      2  C   UNL     1       4.539   0.877   0.999  1.00  0.00     0.116 C 
BRANCH   2   3
ATOM      3  N   UNL     1       3.096   0.688   1.019  1.00  0.00    -0.352 N 
ATOM      4  O   UNL     1       1.069   0.171   0.168  1.00  0.00    -0.269 OA
ATOM      5  C   UNL     1       2.292   0.085   0.085  1.00  0.00     0.251 C 
ATOM      6  H   UNL     1       2.633   1.042   1.812  1.00  0.00     0.163 HD
BRANCH   5   7
ATOM      7  C   UNL     1       2.904  -0.667  -1.027  1.00  0.00     0.040 A 
ATOM      8  C   UNL     1       3.885  -1.624  -0.762  1.00  0.00     0.018 A 
ATOM      9  C   UNL     1       2.477  -0.435  -2.338  1.00  0.00     0.018 A 
ATOM     10  C   UNL     1       4.503  -2.277  -1.821  1.00  0.00     0.052 A 
ATOM     11  C   UNL     1       3.074  -1.131  -3.394  1.00  0.00     0.052 A 
ATOM     12  C   UNL     1       4.104  -2.037  -3.141  1.00  0.00     0.125 A 
BRANCH  12  13
ATOM     13  N   UNL     1       4.645  -2.855  -4.128  1.00  0.00    -0.235 N 
ATOM     14  C   UNL     1       5.546  -2.471  -4.962  1.00  0.00     0.320 C 
ATOM     15  H   UNL     1       4.318  -3.782  -4.193  1.00  0.00     0.313 HD
ATOM     16  S   UNL     1       6.158  -0.862  -5.211  1.00  0.00    -0.022 SA
ATOM     17  N   UNL     1       6.172  -3.368  -5.783  1.00  0.00    -0.186 N 
ATOM     18  C   UNL     1       6.945  -1.328  -6.790  1.00  0.00     0.178 C 
ATOM     19  C   UNL     1       7.012  -2.851  -6.746  1.00  0.00     0.324 C 
ATOM     20  O   UNL     1       7.655  -3.533  -7.536  1.00  0.00    -0.245 OA
BRANCH  17  21
ATOM     21  C   UNL     1       5.944  -4.809  -5.680  1.00  0.00     0.283 C 
BRANCH  21  22
ATOM     22  C   UNL     1       6.675  -5.489  -4.535  1.00  0.00    -0.006 A 
ATOM     23  C   UNL     1       7.813  -6.273  -4.764  1.00  0.00     0.008 A 
ATOM     24  C   UNL     1       6.194  -5.402  -3.219  1.00  0.00     0.008 A 
ATOM     25  C   UNL     1       8.444  -6.941  -3.707  1.00  0.00     0.000 A 
ATOM     26  C   UNL     1       6.845  -6.031  -2.157  1.00  0.00     0.000 A 
ATOM     27  C   UNL     1       7.969  -6.809  -2.403  1.00  0.00     0.000 A 
ENDBRANCH  21  22
ENDBRANCH  17  21
BRANCH  18  28
ATOM     28  C   UNL     1       8.297  -0.633  -6.965  1.00  0.00     0.063 C 
BRANCH  28  29
ATOM     29  C   UNL     1       8.942  -0.880  -8.313  1.00  0.00    -0.046 A 
ATOM     30  C   UNL     1      10.158  -1.579  -8.388  1.00  0.00     0.007 A 
ATOM     31  C   UNL     1       8.334  -0.442  -9.501  1.00  0.00     0.007 A 
ATOM     32  C   UNL     1      10.736  -1.865  -9.625  1.00  0.00     0.039 A 
ATOM     33  C   UNL     1       8.914  -0.733 -10.738  1.00  0.00     0.039 A 
ATOM     34  C   UNL     1      10.106  -1.446 -10.789  1.00  0.00     0.123 A 
ATOM     35  F   UNL     1      10.653  -1.735 -11.977  1.00  0.00    -0.207 F 
ENDBRANCH  28  29
ENDBRANCH  18  28
ENDBRANCH  12  13
ENDBRANCH   5   7
ENDBRANCH   2   3
ENDBRANCH   1   2
BRANCH   1  36
ATOM     36  C   UNL     1       4.478   3.201   2.095  1.00  0.00     0.023 C 
BRANCH  36  37
ATOM     37  C   UNL     1       4.870   2.671   3.468  1.00  0.00     0.116 C 
BRANCH  37  38
ATOM     38  N   UNL     1       6.307   2.508   3.627  1.00  0.00    -0.352 N 
ATOM     39  C   UNL     1       7.135   2.949   4.629  1.00  0.00     0.251 C 
ATOM     40  H   UNL     1       6.752   2.007   2.906  1.00  0.00     0.163 HD
ATOM     41  O   UNL     1       8.351   2.826   4.510  1.00  0.00    -0.269 OA
BRANCH  39  42
ATOM     42  C   UNL     1       6.576   3.600   5.834  1.00  0.00     0.039 A 
ATOM     43  C   UNL     1       7.223   4.731   6.340  1.00  0.00     0.014 A 
ATOM     44  C   UNL     1       5.432   3.109   6.469  1.00  0.00     0.014 A 
ATOM     45  C   UNL     1       6.686   5.401   7.441  1.00  0.00     0.010 A 
ATOM     46  C   UNL     1       4.849   3.829   7.510  1.00  0.00     0.010 A 
ATOM     47  C   UNL     1       5.473   4.980   8.012  1.00  0.00    -0.014 A 
BRANCH  47  48
ATOM     48  C   UNL     1       4.851   5.754   9.118  1.00  0.00     0.031 A 
ATOM     49  C   UNL     1       4.666   5.144  10.480  1.00  0.00     0.074 A 
ATOM     50  C   UNL     1       4.425   7.011   8.883  1.00  0.00     0.049 A 
ATOM     51  N   UNL     1       4.190   5.689  11.572  1.00  0.00    -0.248 NA
ATOM     52  C   UNL     1       5.038   3.729  10.631  1.00  0.00     0.031 C 
ATOM     53  C   UNL     1       4.489   7.697   7.591  1.00  0.00     0.029 A 
ATOM     54  N   UNL     1       3.865   7.939   9.724  1.00  0.00    -0.354 N 
ATOM     55  C   UNL     1       4.197   4.685  12.532  1.00  0.00     0.074 A 
ATOM     56  C   UNL     1       4.667   3.483  11.879  1.00  0.00     0.031 C 
ATOM     57  C   UNL     1       4.040   8.954   7.738  1.00  0.00     0.029 A 
ATOM     58  C   UNL     1       3.623   9.150   9.123  1.00  0.00     0.049 A 
ATOM     59  H   UNL     1       3.657   7.755  10.669  1.00  0.00     0.167 HD
ATOM     60  C   UNL     1       3.864   4.762  13.844  1.00  0.00     0.037 A 
ATOM     61  C   UNL     1       3.134  10.296   9.632  1.00  0.00     0.037 A 
ATOM     62  C   UNL     1       3.409   5.965  14.494  1.00  0.00     0.049 A 
ATOM     63  C   UNL     1       2.775  10.356  11.091  1.00  0.00     0.074 A 
ATOM     64  C   UNL     1       3.116   6.164  15.832  1.00  0.00     0.029 A 
ATOM     65  N   UNL     1       3.166   7.169  13.850  1.00  0.00    -0.354 N 
ATOM     66  N   UNL     1       2.877   9.427  12.009  1.00  0.00    -0.248 NA
ATOM     67  C   UNL     1       2.243  11.634  11.583  1.00  0.00     0.031 C 
ATOM     68  C   UNL     1       2.640   7.471  15.987  1.00  0.00     0.029 A 
ATOM     69  C   UNL     1       2.697   8.107  14.758  1.00  0.00     0.049 A 
ATOM     70  H   UNL     1       3.307   7.334  12.890  1.00  0.00     0.167 HD
ATOM     71  C   UNL     1       2.452  10.015  13.194  1.00  0.00     0.074 A 
ATOM     72  C   UNL     1       2.113  11.387  12.878  1.00  0.00     0.031 C 
ATOM     73  C   UNL     1       2.353   9.469  14.432  1.00  0.00     0.037 A 
BRANCH  60  74
ATOM     74  C   UNL     1       3.970   3.503  14.659  1.00  0.00     0.057 A 
ATOM     75  C   UNL     1       5.205   2.910  14.957  1.00  0.00     0.134 A 
ATOM     76  C   UNL     1       2.822   2.885  15.171  1.00  0.00     0.134 A 
ATOM     77  F   UNL     1       6.346   3.442  14.490  1.00  0.00    -0.206 F 
ATOM     78  C   UNL     1       5.292   1.732  15.701  1.00  0.00     0.040 A 
ATOM     79  C   UNL     1       2.897   1.725  15.943  1.00  0.00     0.040 A 
ATOM     80  F   UNL     1       1.606   3.401  14.933  1.00  0.00    -0.206 F 
ATOM     81  C   UNL     1       4.135   1.139  16.202  1.00  0.00     0.006 A 
ENDBRANCH  60  74
BRANCH  61  82
ATOM     82  C   UNL     1       3.003  11.498   8.770  1.00  0.00     0.057 A 
ATOM     83  C   UNL     1       3.827  12.614   8.963  1.00  0.00     0.134 A 
ATOM     84  C   UNL     1       2.054  11.568   7.744  1.00  0.00     0.134 A 
ATOM     85  F   UNL     1       4.743  12.615   9.943  1.00  0.00    -0.206 F 
ATOM     86  C   UNL     1       3.698  13.763   8.182  1.00  0.00     0.040 A 
ATOM     87  C   UNL     1       1.933  12.700   6.937  1.00  0.00     0.040 A 
ATOM     88  F   UNL     1       1.241  10.529   7.502  1.00  0.00    -0.206 F 
ATOM     89  C   UNL     1       2.751  13.806   7.161  1.00  0.00     0.006 A 
ENDBRANCH  61  82
BRANCH  73  90
ATOM     90  C   UNL     1       1.889  10.374  15.539  1.00  0.00     0.057 A 
ATOM     91  C   UNL     1       0.578  10.866  15.599  1.00  0.00     0.134 A 
ATOM     92  C   UNL     1       2.771  10.766  16.554  1.00  0.00     0.134 A 
ATOM     93  F   UNL     1      -0.315  10.540  14.652  1.00  0.00    -0.206 F 
ATOM     94  C   UNL     1       0.175  11.750  16.602  1.00  0.00     0.040 A 
ATOM     95  C   UNL     1       2.370  11.621  17.581  1.00  0.00     0.040 A 
ATOM     96  F   UNL     1       4.038  10.324  16.567  1.00  0.00    -0.206 F 
ATOM     97  C   UNL     1       1.072  12.127  17.599  1.00  0.00     0.006 A 
ENDBRANCH  73  90
ENDBRANCH  47  48
ENDBRANCH  39  42
ENDBRANCH  37  38
ENDBRANCH  36  37
ENDBRANCH   1  36
TORSDOF 16
