REMARK SMILES CC[C@H]1CC[C@](C(=O)NCCCCNC(=O)c2ccc(-c3c4nc(c(-c5c(F)cccc5F)c5ccc([nH]5)c(-c5c(F)cccc5F)c5nc(c(-c6c(F)cccc6F)c6ccc3[nH]6)C=C5)C=C4)cc2)([C@H]2CCC[C@@H](S(C)(=O)=O)C2)CC1
REMARK SMILES IDX 11 1 10 2 9 3 7 4 8 5 6 7 3 8 82 9 4 10 81 11 5 12 2 13 1 14
REMARK SMILES IDX 71 15 72 16 80 17 73 18 75 19 74 20 76 21 77 22 78 23 79 24
REMARK SMILES IDX 12 25 13 26 14 27 15 28 16 30 17 31 18 32 70 33 19 34 69 35
REMARK SMILES IDX 20 36 21 37 22 38 63 39 23 40 68 41 62 42 64 43 24 44 67 45
REMARK SMILES IDX 61 46 60 47 25 49 51 50 34 51 50 52 35 53 38 54 49 55 65 56
REMARK SMILES IDX 36 57 37 58 48 60 66 61 39 62 26 63 27 64 32 65 28 66 29 67
REMARK SMILES IDX 31 68 33 69 30 70 52 71 53 72 58 73 54 74 55 75 57 76 59 77
REMARK SMILES IDX 56 78 40 79 41 80 46 81 42 82 43 83 45 84 47 85 44 86
REMARK H PARENT 9 6 14 29 64 48 38 59
REMARK Flexibility Score: inf
ROOT
ATOM      1  C   UNL     1      -1.025  -9.093   5.290  1.00  0.00     0.023 C 
ENDROOT
BRANCH   1   2
ATOM      2  C   UNL     1       0.199  -8.204   5.140  1.00  0.00     0.116 C 
BRANCH   2   3
ATOM      3  N   UNL     1       0.912  -8.428   3.912  1.00  0.00    -0.356 N 
ATOM      4  C   UNL     1       1.528  -7.390   3.285  1.00  0.00     0.226 C 
ATOM      5  O   UNL     1       2.739  -7.242   3.456  1.00  0.00    -0.274 OA
ATOM      6  H   UNL     1       0.955  -9.332   3.525  1.00  0.00     0.163 HD
BRANCH   4   7
ATOM      7  C   UNL     1       0.707  -6.463   2.361  1.00  0.00     0.052 C 
ATOM      8  C   UNL     1      -0.946  -4.746   4.335  1.00  0.00    -0.011 C 
ATOM      9  C   UNL     1       0.580  -4.689   4.199  1.00  0.00     0.005 C 
ATOM     10  C   UNL     1      -1.617  -5.888   3.551  1.00  0.00     0.005 C 
ATOM     11  C   UNL     1       1.070  -5.013   2.784  1.00  0.00     0.017 C 
ATOM     12  C   UNL     1      -0.840  -6.568   2.419  1.00  0.00     0.017 C 
BRANCH   8  13
ATOM     13  C   UNL     1      -1.450  -4.796   5.804  1.00  0.00    -0.000 C 
ATOM     14  C   UNL     1      -0.693  -3.937   6.803  1.00  0.00     0.004 C 
ENDBRANCH   8  13
BRANCH   7  15
ATOM     15  C   UNL     1       1.155  -6.734   0.843  1.00  0.00     0.006 C 
ATOM     16  C   UNL     1       2.661  -6.675   0.511  1.00  0.00     0.005 C 
ATOM     17  C   UNL     1       0.495  -7.928   0.097  1.00  0.00     0.024 C 
ATOM     18  C   UNL     1       3.405  -8.010   0.546  1.00  0.00     0.002 C 
ATOM     19  C   UNL     1       1.239  -9.268   0.018  1.00  0.00     0.108 C 
ATOM     20  C   UNL     1       2.729  -9.109  -0.264  1.00  0.00     0.020 C 
BRANCH  19  21
ATOM     21  S   UNL     1       0.866 -10.410   1.367  1.00  0.00     0.150 S 
ATOM     22  C   UNL     1       0.883 -12.005   0.589  1.00  0.00     0.158 C 
ATOM     23  O   UNL     1       1.944 -10.417   2.337  1.00  0.00    -0.229 OA
ATOM     24  O   UNL     1      -0.506 -10.200   1.791  1.00  0.00    -0.229 OA
ENDBRANCH  19  21
ENDBRANCH   7  15
ENDBRANCH   4   7
ENDBRANCH   2   3
ENDBRANCH   1   2
BRANCH   1  25
ATOM     25  C   UNL     1      -0.750 -10.412   6.002  1.00  0.00     0.023 C 
BRANCH  25  26
ATOM     26  C   UNL     1      -0.030 -10.284   7.340  1.00  0.00     0.116 C 
BRANCH  26  27
ATOM     27  N   UNL     1      -0.577  -9.262   8.228  1.00  0.00    -0.352 N 
ATOM     28  C   UNL     1      -0.552  -9.240   9.602  1.00  0.00     0.251 C 
ATOM     29  H   UNL     1      -1.016  -8.498   7.790  1.00  0.00     0.163 HD
ATOM     30  O   UNL     1      -1.084  -8.335  10.237  1.00  0.00    -0.269 OA
BRANCH  28  31
ATOM     31  C   UNL     1       0.081 -10.373  10.299  1.00  0.00     0.039 A 
ATOM     32  C   UNL     1      -0.691 -11.135  11.177  1.00  0.00     0.014 A 
ATOM     33  C   UNL     1       1.385 -10.751   9.970  1.00  0.00     0.014 A 
ATOM     34  C   UNL     1      -0.182 -12.339  11.659  1.00  0.00     0.010 A 
ATOM     35  C   UNL     1       1.857 -11.987  10.389  1.00  0.00     0.010 A 
ATOM     36  C   UNL     1       1.073 -12.797  11.225  1.00  0.00    -0.014 A 
BRANCH  36  37
ATOM     37  C   UNL     1       1.582 -14.131  11.620  1.00  0.00     0.031 A 
ATOM     38  C   UNL     1       2.830 -14.239  12.447  1.00  0.00     0.074 A 
ATOM     39  C   UNL     1       0.970 -15.241  11.162  1.00  0.00     0.049 A 
ATOM     40  N   UNL     1       3.485 -15.308  12.819  1.00  0.00    -0.248 NA
ATOM     41  C   UNL     1       3.442 -12.973  12.884  1.00  0.00     0.031 C 
ATOM     42  C   UNL     1      -0.212 -15.264  10.297  1.00  0.00     0.029 A 
ATOM     43  N   UNL     1       1.268 -16.566  11.351  1.00  0.00    -0.354 N 
ATOM     44  C   UNL     1       4.597 -14.844  13.508  1.00  0.00     0.074 A 
ATOM     45  C   UNL     1       4.555 -13.399  13.461  1.00  0.00     0.031 C 
ATOM     46  C   UNL     1      -0.553 -16.540  10.053  1.00  0.00     0.029 A 
ATOM     47  C   UNL     1       0.401 -17.422  10.716  1.00  0.00     0.049 A 
ATOM     48  H   UNL     1       2.030 -16.875  11.892  1.00  0.00     0.167 HD
ATOM     49  C   UNL     1       5.554 -15.558  14.145  1.00  0.00     0.037 A 
ATOM     50  C   UNL     1       0.381 -18.767  10.675  1.00  0.00     0.037 A 
ATOM     51  C   UNL     1       5.569 -16.994  14.225  1.00  0.00     0.049 A 
ATOM     52  C   UNL     1       1.435 -19.538  11.420  1.00  0.00     0.074 A 
ATOM     53  C   UNL     1       6.453 -17.811  14.907  1.00  0.00     0.029 A 
ATOM     54  N   UNL     1       4.649 -17.825  13.605  1.00  0.00    -0.354 N 
ATOM     55  N   UNL     1       2.442 -19.087  12.127  1.00  0.00    -0.248 NA
ATOM     56  C   UNL     1       1.345 -21.004  11.366  1.00  0.00     0.031 C 
ATOM     57  C   UNL     1       6.082 -19.140  14.677  1.00  0.00     0.029 A 
ATOM     58  C   UNL     1       4.949 -19.148  13.880  1.00  0.00     0.049 A 
ATOM     59  H   UNL     1       3.894 -17.520  13.052  1.00  0.00     0.167 HD
ATOM     60  C   UNL     1       3.091 -20.210  12.623  1.00  0.00     0.074 A 
ATOM     61  C   UNL     1       2.357 -21.363  12.145  1.00  0.00     0.031 C 
ATOM     62  C   UNL     1       4.197 -20.280  13.403  1.00  0.00     0.037 A 
BRANCH  49  63
ATOM     63  C   UNL     1       6.654 -14.789  14.812  1.00  0.00     0.057 A 
ATOM     64  C   UNL     1       6.429 -14.042  15.976  1.00  0.00     0.134 A 
ATOM     65  C   UNL     1       7.954 -14.803  14.293  1.00  0.00     0.134 A 
ATOM     66  F   UNL     1       5.201 -13.976  16.514  1.00  0.00    -0.206 F 
ATOM     67  C   UNL     1       7.451 -13.313  16.584  1.00  0.00     0.040 A 
ATOM     68  C   UNL     1       8.991 -14.098  14.907  1.00  0.00     0.040 A 
ATOM     69  F   UNL     1       8.238 -15.500  13.183  1.00  0.00    -0.206 F 
ATOM     70  C   UNL     1       8.739 -13.344  16.052  1.00  0.00     0.006 A 
ENDBRANCH  49  63
BRANCH  50  71
ATOM     71  C   UNL     1      -0.693 -19.474   9.934  1.00  0.00     0.057 A 
ATOM     72  C   UNL     1      -1.710 -20.150  10.618  1.00  0.00     0.134 A 
ATOM     73  C   UNL     1      -0.728 -19.498   8.536  1.00  0.00     0.134 A 
ATOM     74  F   UNL     1      -1.718 -20.177  11.959  1.00  0.00    -0.206 F 
ATOM     75  C   UNL     1      -2.715 -20.840   9.939  1.00  0.00     0.040 A 
ATOM     76  C   UNL     1      -1.738 -20.167   7.843  1.00  0.00     0.040 A 
ATOM     77  F   UNL     1       0.215 -18.863   7.824  1.00  0.00    -0.206 F 
ATOM     78  C   UNL     1      -2.732 -20.846   8.545  1.00  0.00     0.006 A 
ENDBRANCH  50  71
BRANCH  62  79
ATOM     79  C   UNL     1       4.657 -21.645  13.815  1.00  0.00     0.057 A 
ATOM     80  C   UNL     1       5.311 -22.502  12.921  1.00  0.00     0.134 A 
ATOM     81  C   UNL     1       4.481 -22.088  15.131  1.00  0.00     0.134 A 
ATOM     82  F   UNL     1       5.497 -22.138  11.643  1.00  0.00    -0.206 F 
ATOM     83  C   UNL     1       5.762 -23.761  13.320  1.00  0.00     0.040 A 
ATOM     84  C   UNL     1       4.946 -23.336  15.547  1.00  0.00     0.040 A 
ATOM     85  F   UNL     1       3.867 -21.311  16.036  1.00  0.00    -0.206 F 
ATOM     86  C   UNL     1       5.585 -24.178  14.639  1.00  0.00     0.006 A 
ENDBRANCH  62  79
ENDBRANCH  36  37
ENDBRANCH  28  31
ENDBRANCH  26  27
ENDBRANCH  25  26
ENDBRANCH   1  25
TORSDOF 14
