REMARK SMILES CCN(CC(C)(C)O)C(=O)N[C@@H](C(=O)NCCCCNC(=O)c1ccc(-c2c3nc(c(-c4c(F)cccc4F)c4ccc([nH]4)c(-c4c(F)cccc4F)c4nc(c(-c5c(F)cccc5F)c5ccc2[nH]5)C=C4)C=C3)cc1)C(C)(C)C
REMARK SMILES IDX 16 1 15 2 13 3 14 4 12 6 11 7 9 8 10 9 3 11 2 12 1 13 4 14
REMARK SMILES IDX 5 15 6 16 7 17 8 18 77 20 78 21 79 22 80 23 17 24 18 25
REMARK SMILES IDX 19 26 20 27 21 28 22 30 23 31 24 32 76 33 25 34 75 35 26 36
REMARK SMILES IDX 27 37 28 38 69 39 29 40 74 41 68 42 70 43 30 44 73 45 67 46
REMARK SMILES IDX 66 47 31 49 57 50 40 51 56 52 41 53 44 54 55 55 71 56 42 57
REMARK SMILES IDX 43 58 54 60 72 61 45 62 32 63 33 64 38 65 34 66 35 67 37 68
REMARK SMILES IDX 39 69 36 70 58 71 59 72 64 73 60 74 61 75 63 76 65 77 62 78
REMARK SMILES IDX 46 79 47 80 52 81 48 82 49 83 51 84 53 85 50 86
REMARK H PARENT 15 5 11 10 8 19 20 29 70 48 44 59
REMARK Flexibility Score: inf
ROOT
ATOM      1  C   UNL     1       3.048  -2.898   4.383  1.00  0.00     0.116 C 
ENDROOT
BRANCH   1   2
ATOM      2  N   UNL     1       3.489  -2.191   5.582  1.00  0.00    -0.354 N 
ATOM      3  C   UNL     1       3.311  -0.899   6.019  1.00  0.00     0.243 C 
ATOM      4  O   UNL     1       3.575  -0.720   7.215  1.00  0.00    -0.273 OA
ATOM      5  H   UNL     1       4.018  -2.748   6.198  1.00  0.00     0.163 HD
BRANCH   3   6
ATOM      6  C   UNL     1       2.600   0.223   5.173  1.00  0.00     0.178 C 
BRANCH   6   7
ATOM      7  N   UNL     1       2.917   0.129   3.767  1.00  0.00    -0.326 N 
ATOM      8  C   UNL     1       2.252  -0.283   2.681  1.00  0.00     0.318 C 
ATOM      9  O   UNL     1       2.993  -0.498   1.714  1.00  0.00    -0.249 OA
ATOM     10  H   UNL     1       3.829   0.438   3.561  1.00  0.00     0.166 HD
BRANCH   8  11
ATOM     11  N   UNL     1       0.900  -0.508   2.633  1.00  0.00    -0.322 N 
BRANCH  11  12
ATOM     12  C   UNL     1       0.430  -1.028   1.335  1.00  0.00     0.118 C 
ATOM     13  C   UNL     1       0.543  -0.001   0.204  1.00  0.00     0.027 C 
ENDBRANCH  11  12
BRANCH  11  14
ATOM     14  C   UNL     1      -0.185  -0.103   3.571  1.00  0.00     0.155 C 
BRANCH  14  15
ATOM     15  C   UNL     1      -0.875  -1.208   4.465  1.00  0.00     0.077 C 
ATOM     16  C   UNL     1      -0.138  -1.608   5.745  1.00  0.00     0.043 C 
ATOM     17  C   UNL     1      -2.243  -0.687   4.937  1.00  0.00     0.043 C 
BRANCH  15  18
ATOM     18  O   UNL     1      -1.093  -2.393   3.693  1.00  0.00    -0.389 OA
ATOM     19  H   UNL     1      -0.242  -2.739   3.384  1.00  0.00     0.211 HD
ENDBRANCH  15  18
ENDBRANCH  14  15
ENDBRANCH  11  14
ENDBRANCH   8  11
ENDBRANCH   6   7
BRANCH   6  20
ATOM     20  C   UNL     1       2.727   1.707   5.692  1.00  0.00    -0.009 C 
ATOM     21  C   UNL     1       2.372   2.737   4.584  1.00  0.00     0.013 C 
ATOM     22  C   UNL     1       1.719   1.934   6.840  1.00  0.00     0.013 C 
ATOM     23  C   UNL     1       4.143   2.055   6.179  1.00  0.00     0.013 C 
ENDBRANCH   6  20
ENDBRANCH   3   6
ENDBRANCH   1   2
BRANCH   1  24
ATOM     24  C   UNL     1       3.823  -4.176   4.069  1.00  0.00     0.023 C 
BRANCH  24  25
ATOM     25  C   UNL     1       3.600  -5.345   5.026  1.00  0.00     0.023 C 
BRANCH  25  26
ATOM     26  C   UNL     1       2.158  -5.826   5.179  1.00  0.00     0.116 C 
BRANCH  26  27
ATOM     27  N   UNL     1       1.572  -6.322   3.942  1.00  0.00    -0.352 N 
ATOM     28  C   UNL     1       1.135  -7.586   3.610  1.00  0.00     0.251 C 
ATOM     29  H   UNL     1       1.472  -5.649   3.230  1.00  0.00     0.163 HD
ATOM     30  O   UNL     1       0.789  -7.839   2.463  1.00  0.00    -0.269 OA
BRANCH  28  31
ATOM     31  C   UNL     1       1.101  -8.655   4.634  1.00  0.00     0.039 A 
ATOM     32  C   UNL     1       1.614  -9.916   4.314  1.00  0.00     0.014 A 
ATOM     33  C   UNL     1       0.562  -8.422   5.901  1.00  0.00     0.014 A 
ATOM     34  C   UNL     1       1.657 -10.915   5.290  1.00  0.00     0.010 A 
ATOM     35  C   UNL     1       0.685  -9.389   6.896  1.00  0.00     0.010 A 
ATOM     36  C   UNL     1       1.232 -10.648   6.602  1.00  0.00    -0.014 A 
BRANCH  36  37
ATOM     37  C   UNL     1       1.349 -11.673   7.674  1.00  0.00     0.031 A 
ATOM     38  C   UNL     1       0.118 -12.198   8.363  1.00  0.00     0.074 A 
ATOM     39  C   UNL     1       2.568 -12.093   8.067  1.00  0.00     0.049 A 
ATOM     40  N   UNL     1       0.023 -13.059   9.345  1.00  0.00    -0.248 NA
ATOM     41  C   UNL     1      -1.175 -11.665   7.907  1.00  0.00     0.031 C 
ATOM     42  C   UNL     1       3.843 -11.626   7.519  1.00  0.00     0.029 A 
ATOM     43  N   UNL     1       2.936 -13.006   9.026  1.00  0.00    -0.354 N 
ATOM     44  C   UNL     1      -1.333 -13.161   9.629  1.00  0.00     0.074 A 
ATOM     45  C   UNL     1      -2.017 -12.228   8.761  1.00  0.00     0.031 C 
ATOM     46  C   UNL     1       4.849 -12.276   8.126  1.00  0.00     0.029 A 
ATOM     47  C   UNL     1       4.296 -13.175   9.134  1.00  0.00     0.049 A 
ATOM     48  H   UNL     1       2.287 -13.492   9.583  1.00  0.00     0.167 HD
ATOM     49  C   UNL     1      -1.957 -13.976  10.513  1.00  0.00     0.037 A 
ATOM     50  C   UNL     1       5.017 -13.963   9.954  1.00  0.00     0.037 A 
ATOM     51  C   UNL     1      -1.277 -14.918  11.363  1.00  0.00     0.049 A 
ATOM     52  C   UNL     1       4.302 -14.852  10.935  1.00  0.00     0.074 A 
ATOM     53  C   UNL     1      -1.823 -15.827  12.253  1.00  0.00     0.029 A 
ATOM     54  N   UNL     1       0.100 -15.069  11.432  1.00  0.00    -0.354 N 
ATOM     55  N   UNL     1       3.014 -14.990  11.142  1.00  0.00    -0.248 NA
ATOM     56  C   UNL     1       5.140 -15.703  11.792  1.00  0.00     0.031 C 
ATOM     57  C   UNL     1      -0.775 -16.489  12.900  1.00  0.00     0.029 A 
ATOM     58  C   UNL     1       0.422 -16.040  12.367  1.00  0.00     0.049 A 
ATOM     59  H   UNL     1       0.752 -14.562  10.897  1.00  0.00     0.167 HD
ATOM     60  C   UNL     1       2.888 -15.967  12.121  1.00  0.00     0.074 A 
ATOM     61  C   UNL     1       4.229 -16.395  12.460  1.00  0.00     0.031 C 
ATOM     62  C   UNL     1       1.761 -16.466  12.687  1.00  0.00     0.037 A 
BRANCH  49  63
ATOM     63  C   UNL     1      -3.455 -13.887  10.602  1.00  0.00     0.057 A 
ATOM     64  C   UNL     1      -4.287 -14.313   9.558  1.00  0.00     0.134 A 
ATOM     65  C   UNL     1      -4.075 -13.401  11.761  1.00  0.00     0.134 A 
ATOM     66  F   UNL     1      -3.759 -14.779   8.415  1.00  0.00    -0.206 F 
ATOM     67  C   UNL     1      -5.677 -14.230   9.649  1.00  0.00     0.040 A 
ATOM     68  C   UNL     1      -5.465 -13.344  11.877  1.00  0.00     0.040 A 
ATOM     69  F   UNL     1      -3.341 -12.983  12.803  1.00  0.00    -0.206 F 
ATOM     70  C   UNL     1      -6.270 -13.751  10.815  1.00  0.00     0.006 A 
ENDBRANCH  49  63
BRANCH  50  71
ATOM     71  C   UNL     1       6.501 -13.970   9.869  1.00  0.00     0.057 A 
ATOM     72  C   UNL     1       7.194 -15.093   9.400  1.00  0.00     0.134 A 
ATOM     73  C   UNL     1       7.263 -12.864  10.266  1.00  0.00     0.134 A 
ATOM     74  F   UNL     1       6.522 -16.191   9.023  1.00  0.00    -0.206 F 
ATOM     75  C   UNL     1       8.589 -15.126   9.352  1.00  0.00     0.040 A 
ATOM     76  C   UNL     1       8.657 -12.873  10.195  1.00  0.00     0.040 A 
ATOM     77  F   UNL     1       6.661 -11.754  10.716  1.00  0.00    -0.206 F 
ATOM     78  C   UNL     1       9.324 -14.010   9.746  1.00  0.00     0.006 A 
ENDBRANCH  50  71
BRANCH  62  79
ATOM     79  C   UNL     1       1.924 -17.570  13.693  1.00  0.00     0.057 A 
ATOM     80  C   UNL     1       2.463 -17.346  14.966  1.00  0.00     0.134 A 
ATOM     81  C   UNL     1       1.496 -18.870  13.392  1.00  0.00     0.134 A 
ATOM     82  F   UNL     1       2.902 -16.127  15.314  1.00  0.00    -0.206 F 
ATOM     83  C   UNL     1       2.596 -18.381  15.894  1.00  0.00     0.040 A 
ATOM     84  C   UNL     1       1.595 -19.906  14.322  1.00  0.00     0.040 A 
ATOM     85  F   UNL     1       0.961 -19.153  12.195  1.00  0.00    -0.206 F 
ATOM     86  C   UNL     1       2.154 -19.664  15.575  1.00  0.00     0.006 A 
ENDBRANCH  62  79
ENDBRANCH  36  37
ENDBRANCH  28  31
ENDBRANCH  26  27
ENDBRANCH  25  26
ENDBRANCH  24  25
ENDBRANCH   1  24
TORSDOF 18
