REMARK SMILES N#CCNC(=O)C[N@@H+]1CCO[C@H](CC(=O)NCCCCNC(=O)c2ccc(-c3c4nc(c(-c5c(F)cccc5F)c5ccc([nH]5)c(-c5c(F)cccc5F)c5nc(c(-c6c(F)cccc6F)c6ccc3[nH]6)C=C5)C=C4)cc2)C1
REMARK SMILES IDX 17 1 16 2 14 3 15 4 13 6 12 7 8 8 9 9 78 10 10 12 11 13 7 14
REMARK SMILES IDX 5 15 4 16 6 18 3 19 2 20 1 21 18 22 19 23 20 24 21 25 22 26
REMARK SMILES IDX 23 28 24 29 25 30 77 31 26 32 76 33 27 34 28 35 29 36 70 37
REMARK SMILES IDX 30 38 75 39 69 40 71 41 31 42 74 43 68 44 67 45 32 47 58 48
REMARK SMILES IDX 41 49 57 50 42 51 45 52 56 53 72 54 43 55 44 56 55 58 73 59
REMARK SMILES IDX 46 60 33 61 34 62 39 63 35 64 36 65 38 66 40 67 37 68 59 69
REMARK SMILES IDX 60 70 65 71 61 72 62 73 64 74 66 75 63 76 47 77 48 78 53 79
REMARK SMILES IDX 49 80 50 81 52 82 54 83 51 84
REMARK H PARENT 16 5 8 11 4 17 21 27 71 46 45 57
REMARK Flexibility Score: inf
ROOT
ATOM      1  C   UNL     1       4.106   3.000   5.248  1.00  0.00     0.116 C 
ENDROOT
BRANCH   1   2
ATOM      2  N   UNL     1       5.184   2.437   4.478  1.00  0.00    -0.356 N 
ATOM      3  C   UNL     1       5.039   2.027   3.191  1.00  0.00     0.222 C 
ATOM      4  O   UNL     1       6.004   2.056   2.432  1.00  0.00    -0.275 OA
ATOM      5  H   UNL     1       6.066   2.345   4.903  1.00  0.00     0.163 HD
BRANCH   3   6
ATOM      6  C   UNL     1       3.673   1.512   2.785  1.00  0.00     0.138 C 
BRANCH   6   7
ATOM      7  C   UNL     1       3.374   0.046   3.243  1.00  0.00     0.182 C 
ATOM      8  N   UNL     1       4.746  -2.123   3.169  1.00  0.00    -0.323 N 
ATOM      9  C   UNL     1       3.448  -2.778   3.059  1.00  0.00     0.291 C 
ATOM     10  C   UNL     1       4.556  -0.809   3.774  1.00  0.00     0.295 C 
ATOM     11  H   UNL     1       5.349  -2.656   3.796  1.00  0.00     0.348 HD
ATOM     12  C   UNL     1       2.544  -2.010   2.124  1.00  0.00     0.222 C 
ATOM     13  O   UNL     1       2.469  -0.601   2.345  1.00  0.00    -0.366 OA
BRANCH   8  14
ATOM     14  C   UNL     1       5.537  -2.155   1.923  1.00  0.00     0.363 C 
BRANCH  14  15
ATOM     15  C   UNL     1       5.848  -0.824   1.248  1.00  0.00     0.276 C 
ATOM     16  N   UNL     1       4.905   0.080   0.857  1.00  0.00    -0.338 N 
ATOM     17  H   UNL     1       4.981   0.952   1.307  1.00  0.00     0.164 HD
ATOM     18  O   UNL     1       7.029  -0.490   1.088  1.00  0.00    -0.268 OA
BRANCH  16  19
ATOM     19  C   UNL     1       3.807   0.007  -0.096  1.00  0.00     0.237 C 
BRANCH  19  20
ATOM     20  C   UNL     1       2.287   0.007  -0.096  1.00  0.00     0.084 C 
ATOM     21  N   UNL     1       1.026   0.007  -0.096  1.00  0.00    -0.196 NA
ENDBRANCH  19  20
ENDBRANCH  16  19
ENDBRANCH  14  15
ENDBRANCH   8  14
ENDBRANCH   6   7
ENDBRANCH   3   6
ENDBRANCH   1   2
BRANCH   1  22
ATOM     22  C   UNL     1       3.244   1.976   5.989  1.00  0.00     0.023 C 
BRANCH  22  23
ATOM     23  C   UNL     1       4.036   1.018   6.868  1.00  0.00     0.023 C 
BRANCH  23  24
ATOM     24  C   UNL     1       4.929   1.774   7.824  1.00  0.00     0.116 C 
BRANCH  24  25
ATOM     25  N   UNL     1       4.227   2.939   8.363  1.00  0.00    -0.352 N 
ATOM     26  C   UNL     1       3.933   3.234   9.652  1.00  0.00     0.251 C 
ATOM     27  H   UNL     1       3.927   3.599   7.698  1.00  0.00     0.163 HD
ATOM     28  O   UNL     1       3.043   4.033   9.934  1.00  0.00    -0.269 OA
BRANCH  26  29
ATOM     29  C   UNL     1       4.737   2.579  10.671  1.00  0.00     0.039 A 
ATOM     30  C   UNL     1       4.125   2.108  11.824  1.00  0.00     0.014 A 
ATOM     31  C   UNL     1       6.104   2.399  10.421  1.00  0.00     0.014 A 
ATOM     32  C   UNL     1       4.912   1.457  12.754  1.00  0.00     0.010 A 
ATOM     33  C   UNL     1       6.840   1.603  11.261  1.00  0.00     0.010 A 
ATOM     34  C   UNL     1       6.267   1.205  12.469  1.00  0.00    -0.014 A 
BRANCH  34  35
ATOM     35  C   UNL     1       7.149   0.629  13.489  1.00  0.00     0.031 A 
ATOM     36  C   UNL     1       8.284   1.459  14.012  1.00  0.00     0.074 A 
ATOM     37  C   UNL     1       6.914  -0.624  13.907  1.00  0.00     0.049 A 
ATOM     38  N   UNL     1       9.165   1.159  14.927  1.00  0.00    -0.248 NA
ATOM     39  C   UNL     1       8.491   2.787  13.400  1.00  0.00     0.031 C 
ATOM     40  C   UNL     1       5.872  -1.514  13.384  1.00  0.00     0.029 A 
ATOM     41  N   UNL     1       7.526  -1.355  14.882  1.00  0.00    -0.354 N 
ATOM     42  C   UNL     1      10.027   2.247  14.982  1.00  0.00     0.074 A 
ATOM     43  C   UNL     1       9.630   3.170  13.949  1.00  0.00     0.031 C 
ATOM     44  C   UNL     1       5.879  -2.653  14.093  1.00  0.00     0.029 A 
ATOM     45  C   UNL     1       6.942  -2.579  15.086  1.00  0.00     0.049 A 
ATOM     46  H   UNL     1       8.307  -1.037  15.388  1.00  0.00     0.167 HD
ATOM     47  C   UNL     1      11.031   2.474  15.856  1.00  0.00     0.037 A 
ATOM     48  C   UNL     1       7.237  -3.519  15.999  1.00  0.00     0.037 A 
ATOM     49  C   UNL     1      11.374   1.554  16.903  1.00  0.00     0.049 A 
ATOM     50  C   UNL     1       8.337  -3.228  16.980  1.00  0.00     0.074 A 
ATOM     51  C   UNL     1      12.332   1.684  17.889  1.00  0.00     0.029 A 
ATOM     52  N   UNL     1      10.753   0.328  17.098  1.00  0.00    -0.354 N 
ATOM     53  N   UNL     1       9.100  -2.165  17.078  1.00  0.00    -0.248 NA
ATOM     54  C   UNL     1       8.603  -4.259  17.987  1.00  0.00     0.031 C 
ATOM     55  C   UNL     1      12.321   0.513  18.654  1.00  0.00     0.029 A 
ATOM     56  C   UNL     1      11.319  -0.320  18.180  1.00  0.00     0.049 A 
ATOM     57  H   UNL     1      10.019  -0.028  16.547  1.00  0.00     0.167 HD
ATOM     58  C   UNL     1       9.922  -2.386  18.173  1.00  0.00     0.074 A 
ATOM     59  C   UNL     1       9.541  -3.675  18.718  1.00  0.00     0.031 C 
ATOM     60  C   UNL     1      10.906  -1.605  18.686  1.00  0.00     0.037 A 
BRANCH  47  61
ATOM     61  C   UNL     1      11.799   3.755  15.710  1.00  0.00     0.057 A 
ATOM     62  C   UNL     1      11.213   5.006  15.957  1.00  0.00     0.134 A 
ATOM     63  C   UNL     1      13.139   3.741  15.306  1.00  0.00     0.134 A 
ATOM     64  F   UNL     1       9.924   5.095  16.320  1.00  0.00    -0.206 F 
ATOM     65  C   UNL     1      11.924   6.195  15.782  1.00  0.00     0.040 A 
ATOM     66  C   UNL     1      13.869   4.922  15.159  1.00  0.00     0.040 A 
ATOM     67  F   UNL     1      13.760   2.582  15.044  1.00  0.00    -0.206 F 
ATOM     68  C   UNL     1      13.259   6.154  15.389  1.00  0.00     0.006 A 
ENDBRANCH  47  61
BRANCH  48  69
ATOM     69  C   UNL     1       6.450  -4.774  16.053  1.00  0.00     0.057 A 
ATOM     70  C   UNL     1       5.591  -5.044  17.123  1.00  0.00     0.134 A 
ATOM     71  C   UNL     1       6.528  -5.728  15.031  1.00  0.00     0.134 A 
ATOM     72  F   UNL     1       5.474  -4.169  18.133  1.00  0.00    -0.206 F 
ATOM     73  C   UNL     1       4.861  -6.232  17.193  1.00  0.00     0.040 A 
ATOM     74  C   UNL     1       5.783  -6.907  15.074  1.00  0.00     0.040 A 
ATOM     75  F   UNL     1       7.316  -5.517  13.966  1.00  0.00    -0.206 F 
ATOM     76  C   UNL     1       4.955  -7.166  16.163  1.00  0.00     0.006 A 
ENDBRANCH  48  69
BRANCH  60  77
ATOM     77  C   UNL     1      11.602  -2.121  19.909  1.00  0.00     0.057 A 
ATOM     78  C   UNL     1      12.467  -3.221  19.859  1.00  0.00     0.134 A 
ATOM     79  C   UNL     1      11.416  -1.495  21.148  1.00  0.00     0.134 A 
ATOM     80  F   UNL     1      12.677  -3.869  18.703  1.00  0.00    -0.206 F 
ATOM     81  C   UNL     1      13.090  -3.707  21.008  1.00  0.00     0.040 A 
ATOM     82  C   UNL     1      12.062  -1.950  22.296  1.00  0.00     0.040 A 
ATOM     83  F   UNL     1      10.613  -0.426  21.259  1.00  0.00    -0.206 F 
ATOM     84  C   UNL     1      12.892  -3.067  22.230  1.00  0.00     0.006 A 
ENDBRANCH  60  77
ENDBRANCH  34  35
ENDBRANCH  26  29
ENDBRANCH  24  25
ENDBRANCH  23  24
ENDBRANCH  22  23
ENDBRANCH   1  22
TORSDOF 16
