REMARK SMILES O=C(NCCCCNC(=O)[C@@H]1C=C[C@H](NC(=O)[C@@H]2Cc3ccccc3O2)C1)c1ccc(-c2c3nc(c(-c4c(F)cccc4F)c4ccc([nH]4)c(-c4c(F)cccc4F)c4nc(c(-c5c(F)cccc5F)c5ccc2[nH]5)C=C4)C=C3)cc1
REMARK SMILES IDX 5 1 4 2 3 3 1 4 2 5 28 7 29 8 81 9 30 10 80 11 31 12 32 13
REMARK SMILES IDX 33 14 74 15 34 16 79 17 73 18 75 19 35 20 78 21 72 22 71 23
REMARK SMILES IDX 36 25 62 26 45 27 61 28 46 29 49 30 60 31 76 32 47 33 48 34
REMARK SMILES IDX 59 36 77 37 50 38 37 39 38 40 43 41 39 42 40 43 42 44 44 45
REMARK SMILES IDX 41 46 63 47 64 48 69 49 65 50 66 51 68 52 70 53 67 54 51 55
REMARK SMILES IDX 52 56 57 57 53 58 54 59 56 60 58 61 55 62 6 63 7 64 8 65
REMARK SMILES IDX 9 66 10 68 11 69 12 70 27 71 13 72 14 73 15 74 16 75 17 77
REMARK SMILES IDX 18 78 19 79 26 80 20 81 25 82 21 83 24 84 22 85 23 86
REMARK H PARENT 3 6 75 24 49 35 8 67 15 76
REMARK Flexibility Score: inf
ROOT
ATOM      1  C   UNL     1       9.968   7.927   8.944  1.00  0.00     0.023 C 
ENDROOT
BRANCH   1   2
ATOM      2  C   UNL     1       9.092   8.710   9.917  1.00  0.00     0.116 C 
BRANCH   2   3
ATOM      3  N   UNL     1       9.044   8.130  11.249  1.00  0.00    -0.352 N 
ATOM      4  O   UNL     1       8.977   8.205  13.514  1.00  0.00    -0.269 OA
ATOM      5  C   UNL     1       8.919   8.798  12.443  1.00  0.00     0.251 C 
ATOM      6  H   UNL     1       9.107   7.149  11.302  1.00  0.00     0.163 HD
BRANCH   5   7
ATOM      7  C   UNL     1       8.752  10.262  12.406  1.00  0.00     0.039 A 
ATOM      8  C   UNL     1       7.730  10.829  11.638  1.00  0.00     0.014 A 
ATOM      9  C   UNL     1       9.658  11.066  13.100  1.00  0.00     0.014 A 
ATOM     10  C   UNL     1       7.673  12.208  11.486  1.00  0.00     0.010 A 
ATOM     11  C   UNL     1       9.559  12.453  12.998  1.00  0.00     0.010 A 
ATOM     12  C   UNL     1       8.573  13.031  12.182  1.00  0.00    -0.014 A 
BRANCH  12  13
ATOM     13  C   UNL     1       8.392  14.500  12.146  1.00  0.00     0.031 A 
ATOM     14  C   UNL     1       9.396  15.398  11.489  1.00  0.00     0.074 A 
ATOM     15  C   UNL     1       7.300  15.010  12.747  1.00  0.00     0.049 A 
ATOM     16  N   UNL     1       9.406  16.705  11.423  1.00  0.00    -0.248 NA
ATOM     17  C   UNL     1      10.542  14.754  10.828  1.00  0.00     0.031 C 
ATOM     18  C   UNL     1       6.272  14.221  13.434  1.00  0.00     0.029 A 
ATOM     19  N   UNL     1       6.872  16.303  12.884  1.00  0.00    -0.354 N 
ATOM     20  C   UNL     1      10.563  17.043  10.735  1.00  0.00     0.074 A 
ATOM     21  C   UNL     1      11.239  15.805  10.410  1.00  0.00     0.031 C 
ATOM     22  C   UNL     1       5.327  15.045  13.906  1.00  0.00     0.029 A 
ATOM     23  C   UNL     1       5.711  16.419  13.609  1.00  0.00     0.049 A 
ATOM     24  H   UNL     1       7.350  17.075  12.502  1.00  0.00     0.167 HD
ATOM     25  C   UNL     1      11.012  18.279  10.411  1.00  0.00     0.037 A 
ATOM     26  C   UNL     1       5.047  17.512  14.023  1.00  0.00     0.037 A 
ATOM     27  C   UNL     1      10.313  19.500  10.717  1.00  0.00     0.049 A 
ATOM     28  C   UNL     1       5.585  18.863  13.667  1.00  0.00     0.074 A 
ATOM     29  C   UNL     1      10.639  20.795  10.349  1.00  0.00     0.029 A 
ATOM     30  N   UNL     1       9.154  19.579  11.474  1.00  0.00    -0.354 N 
ATOM     31  N   UNL     1       6.649  19.166  12.964  1.00  0.00    -0.248 NA
ATOM     32  C   UNL     1       4.842  20.025  14.172  1.00  0.00     0.031 C 
ATOM     33  C   UNL     1       9.703  21.661  10.924  1.00  0.00     0.029 A 
ATOM     34  C   UNL     1       8.775  20.904  11.619  1.00  0.00     0.049 A 
ATOM     35  H   UNL     1       8.672  18.809  11.852  1.00  0.00     0.167 HD
ATOM     36  C   UNL     1       6.707  20.551  12.943  1.00  0.00     0.074 A 
ATOM     37  C   UNL     1       5.553  21.029  13.679  1.00  0.00     0.031 C 
ATOM     38  C   UNL     1       7.635  21.356  12.373  1.00  0.00     0.037 A 
BRANCH  25  39
ATOM     39  C   UNL     1      12.326  18.390   9.697  1.00  0.00     0.057 A 
ATOM     40  C   UNL     1      12.452  18.110   8.331  1.00  0.00     0.134 A 
ATOM     41  C   UNL     1      13.456  18.880  10.365  1.00  0.00     0.134 A 
ATOM     42  F   UNL     1      11.409  17.634   7.636  1.00  0.00    -0.206 F 
ATOM     43  C   UNL     1      13.658  18.312   7.655  1.00  0.00     0.040 A 
ATOM     44  C   UNL     1      14.661  19.101   9.697  1.00  0.00     0.040 A 
ATOM     45  F   UNL     1      13.398  19.174  11.673  1.00  0.00    -0.206 F 
ATOM     46  C   UNL     1      14.764  18.818   8.337  1.00  0.00     0.006 A 
ENDBRANCH  25  39
BRANCH  26  47
ATOM     47  C   UNL     1       3.830  17.361  14.855  1.00  0.00     0.057 A 
ATOM     48  C   UNL     1       2.563  17.667  14.351  1.00  0.00     0.134 A 
ATOM     49  C   UNL     1       3.908  16.889  16.172  1.00  0.00     0.134 A 
ATOM     50  F   UNL     1       2.429  18.138  13.103  1.00  0.00    -0.206 F 
ATOM     51  C   UNL     1       1.415  17.521  15.130  1.00  0.00     0.040 A 
ATOM     52  C   UNL     1       2.767  16.713  16.953  1.00  0.00     0.040 A 
ATOM     53  F   UNL     1       5.096  16.570  16.708  1.00  0.00    -0.206 F 
ATOM     54  C   UNL     1       1.515  17.036  16.434  1.00  0.00     0.006 A 
ENDBRANCH  26  47
BRANCH  38  55
ATOM     55  C   UNL     1       7.439  22.830  12.540  1.00  0.00     0.057 A 
ATOM     56  C   UNL     1       7.713  23.467  13.757  1.00  0.00     0.134 A 
ATOM     57  C   UNL     1       6.994  23.622  11.476  1.00  0.00     0.134 A 
ATOM     58  F   UNL     1       8.126  22.757  14.818  1.00  0.00    -0.206 F 
ATOM     59  C   UNL     1       7.533  24.841  13.914  1.00  0.00     0.040 A 
ATOM     60  C   UNL     1       6.830  25.000  11.615  1.00  0.00     0.040 A 
ATOM     61  F   UNL     1       6.718  23.070  10.284  1.00  0.00    -0.206 F 
ATOM     62  C   UNL     1       7.096  25.612  12.839  1.00  0.00     0.006 A 
ENDBRANCH  38  55
ENDBRANCH  12  13
ENDBRANCH   5   7
ENDBRANCH   2   3
ENDBRANCH   1   2
BRANCH   1  63
ATOM     63  C   UNL     1       9.521   6.484   8.713  1.00  0.00     0.023 C 
BRANCH  63  64
ATOM     64  C   UNL     1       8.139   6.386   8.071  1.00  0.00     0.116 C 
BRANCH  64  65
ATOM     65  N   UNL     1       8.230   6.080   6.664  1.00  0.00    -0.356 N 
ATOM     66  C   UNL     1       8.223   4.928   5.957  1.00  0.00     0.227 C 
ATOM     67  H   UNL     1       8.314   6.882   6.098  1.00  0.00     0.163 HD
ATOM     68  O   UNL     1       8.364   5.064   4.731  1.00  0.00    -0.274 OA
BRANCH  66  69
ATOM     69  C   UNL     1       8.082   3.509   6.535  1.00  0.00     0.103 C 
ATOM     70  C   UNL     1       6.851   2.864   5.953  1.00  0.00    -0.016 C 
ATOM     71  C   UNL     1       7.897   3.188   8.016  1.00  0.00     0.047 C 
ATOM     72  C   UNL     1       5.920   2.592   6.878  1.00  0.00    -0.006 C 
ATOM     73  C   UNL     1       6.396   2.922   8.235  1.00  0.00     0.106 C 
BRANCH  73  74
ATOM     74  N   UNL     1       5.679   3.974   8.939  1.00  0.00    -0.347 N 
ATOM     75  C   UNL     1       4.993   5.109   8.657  1.00  0.00     0.261 C 
ATOM     76  H   UNL     1       5.697   3.814   9.911  1.00  0.00     0.164 HD
ATOM     77  O   UNL     1       4.836   5.872   9.623  1.00  0.00    -0.271 OA
BRANCH  75  78
ATOM     78  C   UNL     1       4.340   5.472   7.317  1.00  0.00     0.266 C 
ATOM     79  C   UNL     1       3.144   4.564   7.002  1.00  0.00     0.095 C 
ATOM     80  O   UNL     1       5.209   5.583   6.185  1.00  0.00    -0.480 OA
ATOM     81  C   UNL     1       3.339   4.388   5.546  1.00  0.00    -0.002 A 
ATOM     82  C   UNL     1       4.510   5.014   5.154  1.00  0.00     0.123 A 
ATOM     83  C   UNL     1       2.585   3.661   4.643  1.00  0.00     0.008 A 
ATOM     84  C   UNL     1       4.968   4.956   3.853  1.00  0.00     0.047 A 
ATOM     85  C   UNL     1       3.040   3.574   3.324  1.00  0.00     0.001 A 
ATOM     86  C   UNL     1       4.223   4.221   2.930  1.00  0.00     0.004 A 
ENDBRANCH  75  78
ENDBRANCH  73  74
ENDBRANCH  66  69
ENDBRANCH  64  65
ENDBRANCH  63  64
ENDBRANCH   1  63
TORSDOF 13
