REMARK SMILES O=C(NCCCCNC(=O)[C@H]1C[C@](O)(c2ccc(F)cc2)[C@@H](c2ccc(F)cc2)O1)c1ccc(-c2c3nc(c(-c4c(F)cccc4F)c4ccc([nH]4)c(-c4c(F)cccc4F)c4nc(c(-c5c(F)cccc5F)c5ccc2[nH]5)C=C4)C=C3)cc1
REMARK SMILES IDX 5 1 4 2 3 3 1 4 2 5 31 7 32 8 84 9 33 10 83 11 34 12 35 13
REMARK SMILES IDX 36 14 77 15 37 16 82 17 76 18 78 19 38 20 81 21 75 22 74 23
REMARK SMILES IDX 39 25 65 26 48 27 64 28 49 29 52 30 63 31 79 32 50 33 51 34
REMARK SMILES IDX 62 36 80 37 53 38 40 39 41 40 46 41 42 42 43 43 45 44 47 45
REMARK SMILES IDX 44 46 66 47 67 48 72 49 68 50 69 51 71 52 73 53 70 54 54 55
REMARK SMILES IDX 55 56 60 57 56 58 57 59 59 60 61 61 58 62 6 63 7 64 8 65
REMARK SMILES IDX 9 66 10 68 11 69 12 70 30 71 13 72 22 73 15 74 16 75 21 76
REMARK SMILES IDX 17 77 20 78 18 79 19 80 14 81 23 83 24 84 29 85 25 86 28 87
REMARK SMILES IDX 26 88 27 89
REMARK H PARENT 3 6 78 24 52 35 8 67 14 82
REMARK Flexibility Score: inf
ROOT
ATOM      1  C   UNL     1       3.771   2.667   1.850  1.00  0.00     0.023 C 
ENDROOT
BRANCH   1   2
ATOM      2  C   UNL     1       2.946   3.947   1.908  1.00  0.00     0.116 C 
BRANCH   2   3
ATOM      3  N   UNL     1       3.438   4.957   0.985  1.00  0.00    -0.352 N 
ATOM      4  O   UNL     1       3.433   6.236  -0.871  1.00  0.00    -0.269 OA
ATOM      5  C   UNL     1       2.797   5.548  -0.075  1.00  0.00     0.251 C 
ATOM      6  H   UNL     1       4.362   5.259   1.142  1.00  0.00     0.163 HD
BRANCH   5   7
ATOM      7  C   UNL     1       1.345   5.353  -0.267  1.00  0.00     0.039 A 
ATOM      8  C   UNL     1       0.462   5.470   0.810  1.00  0.00     0.014 A 
ATOM      9  C   UNL     1       0.856   5.090  -1.551  1.00  0.00     0.014 A 
ATOM     10  C   UNL     1      -0.894   5.220   0.625  1.00  0.00     0.010 A 
ATOM     11  C   UNL     1      -0.516   4.912  -1.748  1.00  0.00     0.010 A 
ATOM     12  C   UNL     1      -1.400   4.964  -0.660  1.00  0.00    -0.014 A 
BRANCH  12  13
ATOM     13  C   UNL     1      -2.866   4.863  -0.862  1.00  0.00     0.031 A 
ATOM     14  C   UNL     1      -3.509   3.580  -1.299  1.00  0.00     0.074 A 
ATOM     15  C   UNL     1      -3.617   5.962  -0.649  1.00  0.00     0.049 A 
ATOM     16  N   UNL     1      -4.770   3.341  -1.554  1.00  0.00    -0.248 NA
ATOM     17  C   UNL     1      -2.629   2.414  -1.479  1.00  0.00     0.031 C 
ATOM     18  C   UNL     1      -3.097   7.267  -0.234  1.00  0.00     0.029 A 
ATOM     19  N   UNL     1      -4.970   6.161  -0.749  1.00  0.00    -0.354 N 
ATOM     20  C   UNL     1      -4.836   2.008  -1.938  1.00  0.00     0.074 A 
ATOM     21  C   UNL     1      -3.485   1.490  -1.899  1.00  0.00     0.031 C 
ATOM     22  C   UNL     1      -4.118   8.123  -0.089  1.00  0.00     0.029 A 
ATOM     23  C   UNL     1      -5.356   7.448  -0.463  1.00  0.00     0.049 A 
ATOM     24  H   UNL     1      -5.604   5.451  -1.001  1.00  0.00     0.167 HD
ATOM     25  C   UNL     1      -5.929   1.288  -2.282  1.00  0.00     0.037 A 
ATOM     26  C   UNL     1      -6.566   8.035  -0.523  1.00  0.00     0.037 A 
ATOM     27  C   UNL     1      -7.273   1.807  -2.293  1.00  0.00     0.049 A 
ATOM     28  C   UNL     1      -7.752   7.221  -0.946  1.00  0.00     0.074 A 
ATOM     29  C   UNL     1      -8.450   1.132  -2.566  1.00  0.00     0.029 A 
ATOM     30  N   UNL     1      -7.617   3.123  -2.029  1.00  0.00    -0.354 N 
ATOM     31  N   UNL     1      -7.804   5.950  -1.263  1.00  0.00    -0.248 NA
ATOM     32  C   UNL     1      -9.043   7.917  -1.031  1.00  0.00     0.031 C 
ATOM     33  C   UNL     1      -9.502   2.050  -2.518  1.00  0.00     0.029 A 
ATOM     34  C   UNL     1      -8.986   3.288  -2.168  1.00  0.00     0.049 A 
ATOM     35  H   UNL     1      -6.984   3.835  -1.779  1.00  0.00     0.167 HD
ATOM     36  C   UNL     1      -9.130   5.692  -1.580  1.00  0.00     0.074 A 
ATOM     37  C   UNL     1      -9.854   6.933  -1.397  1.00  0.00     0.031 C 
ATOM     38  C   UNL     1      -9.692   4.530  -1.989  1.00  0.00     0.037 A 
BRANCH  25  39
ATOM     39  C   UNL     1      -5.741  -0.145  -2.684  1.00  0.00     0.057 A 
ATOM     40  C   UNL     1      -5.931  -0.539  -4.016  1.00  0.00     0.134 A 
ATOM     41  C   UNL     1      -5.495  -1.149  -1.741  1.00  0.00     0.134 A 
ATOM     42  F   UNL     1      -6.181   0.373  -4.967  1.00  0.00    -0.206 F 
ATOM     43  C   UNL     1      -5.903  -1.884  -4.390  1.00  0.00     0.040 A 
ATOM     44  C   UNL     1      -5.445  -2.496  -2.106  1.00  0.00     0.040 A 
ATOM     45  F   UNL     1      -5.299  -0.836  -0.451  1.00  0.00    -0.206 F 
ATOM     46  C   UNL     1      -5.662  -2.867  -3.433  1.00  0.00     0.006 A 
ENDBRANCH  25  39
BRANCH  26  47
ATOM     47  C   UNL     1      -6.694   9.476  -0.197  1.00  0.00     0.057 A 
ATOM     48  C   UNL     1      -6.139  10.460  -1.025  1.00  0.00     0.134 A 
ATOM     49  C   UNL     1      -7.332   9.901   0.972  1.00  0.00     0.134 A 
ATOM     50  F   UNL     1      -5.505  10.115  -2.156  1.00  0.00    -0.206 F 
ATOM     51  C   UNL     1      -6.192  11.813  -0.691  1.00  0.00     0.040 A 
ATOM     52  C   UNL     1      -7.416  11.254   1.306  1.00  0.00     0.040 A 
ATOM     53  F   UNL     1      -7.896   9.007   1.797  1.00  0.00    -0.206 F 
ATOM     54  C   UNL     1      -6.836  12.213   0.477  1.00  0.00     0.006 A 
ENDBRANCH  26  47
BRANCH  38  55
ATOM     55  C   UNL     1     -11.163   4.534  -2.272  1.00  0.00     0.057 A 
ATOM     56  C   UNL     1     -12.059   3.885  -1.415  1.00  0.00     0.134 A 
ATOM     57  C   UNL     1     -11.679   5.103  -3.442  1.00  0.00     0.134 A 
ATOM     58  F   UNL     1     -11.624   3.312  -0.282  1.00  0.00    -0.206 F 
ATOM     59  C   UNL     1     -13.416   3.782  -1.722  1.00  0.00     0.040 A 
ATOM     60  C   UNL     1     -13.038   5.027  -3.750  1.00  0.00     0.040 A 
ATOM     61  F   UNL     1     -10.872   5.750  -4.298  1.00  0.00    -0.206 F 
ATOM     62  C   UNL     1     -13.908   4.354  -2.893  1.00  0.00     0.006 A 
ENDBRANCH  38  55
ENDBRANCH  12  13
ENDBRANCH   5   7
ENDBRANCH   2   3
ENDBRANCH   1   2
BRANCH   1  63
ATOM     63  C   UNL     1       5.225   2.810   2.314  1.00  0.00     0.023 C 
BRANCH  63  64
ATOM     64  C   UNL     1       5.404   3.318   3.745  1.00  0.00     0.116 C 
BRANCH  64  65
ATOM     65  N   UNL     1       4.783   2.425   4.701  1.00  0.00    -0.354 N 
ATOM     66  C   UNL     1       5.255   1.923   5.875  1.00  0.00     0.249 C 
ATOM     67  H   UNL     1       3.873   2.135   4.464  1.00  0.00     0.163 HD
ATOM     68  O   UNL     1       4.599   1.007   6.375  1.00  0.00    -0.272 OA
BRANCH  66  69
ATOM     69  C   UNL     1       6.545   2.483   6.520  1.00  0.00     0.211 C 
ATOM     70  C   UNL     1       6.566   4.007   6.641  1.00  0.00     0.085 C 
ATOM     71  O   UNL     1       6.710   1.950   7.844  1.00  0.00    -0.357 OA
ATOM     72  C   UNL     1       6.774   4.312   8.125  1.00  0.00     0.123 C 
ATOM     73  C   UNL     1       6.366   2.973   8.799  1.00  0.00     0.186 C 
BRANCH  72  74
ATOM     74  C   UNL     1       8.211   4.807   8.387  1.00  0.00    -0.013 A 
ATOM     75  C   UNL     1       8.614   6.069   7.891  1.00  0.00     0.010 A 
ATOM     76  C   UNL     1       9.160   4.082   9.133  1.00  0.00     0.010 A 
ATOM     77  C   UNL     1       9.876   6.599   8.172  1.00  0.00     0.039 A 
ATOM     78  C   UNL     1      10.422   4.617   9.423  1.00  0.00     0.039 A 
ATOM     79  C   UNL     1      10.764   5.872   8.948  1.00  0.00     0.123 A 
ATOM     80  F   UNL     1      11.966   6.387   9.238  1.00  0.00    -0.207 F 
ENDBRANCH  72  74
BRANCH  72  81
ATOM     81  O   UNL     1       5.904   5.369   8.550  1.00  0.00    -0.382 OA
ATOM     82  H   UNL     1       4.981   5.106   8.405  1.00  0.00     0.212 HD
ENDBRANCH  72  81
BRANCH  73  83
ATOM     83  C   UNL     1       4.927   2.783   9.281  1.00  0.00    -0.016 A 
ATOM     84  C   UNL     1       3.800   3.163   8.535  1.00  0.00     0.009 A 
ATOM     85  C   UNL     1       4.713   2.178  10.536  1.00  0.00     0.009 A 
ATOM     86  C   UNL     1       2.507   2.930   9.012  1.00  0.00     0.039 A 
ATOM     87  C   UNL     1       3.421   1.967  11.024  1.00  0.00     0.039 A 
ATOM     88  C   UNL     1       2.330   2.338  10.253  1.00  0.00     0.123 A 
ATOM     89  F   UNL     1       1.090   2.125  10.713  1.00  0.00    -0.207 F 
ENDBRANCH  73  83
ENDBRANCH  66  69
ENDBRANCH  64  65
ENDBRANCH  63  64
ENDBRANCH   1  63
TORSDOF 14
