REMARK SMILES O=C(NCCCCNC(=O)[C@@H]1CCCN(c2ccc3cc(S(=O)(=O)N4CCCCC4)ccc3n2)C1)c1ccc(-c2c3nc(c(-c4c(F)cccc4F)c4ccc([nH]4)c(-c4c(F)cccc4F)c4nc(c(-c5c(F)cccc5F)c5ccc2[nH]5)C=C4)C=C3)cc1
REMARK SMILES IDX 6 1 5 2 4 3 3 4 1 5 2 6 36 8 37 9 89 10 38 11 88 12 39 13
REMARK SMILES IDX 40 14 41 15 82 16 42 17 87 18 81 19 83 20 43 21 86 22 80 23
REMARK SMILES IDX 79 24 44 26 70 27 53 28 69 29 54 30 57 31 68 32 84 33 55 34
REMARK SMILES IDX 56 35 67 37 85 38 58 39 45 40 46 41 51 42 47 43 48 44 50 45
REMARK SMILES IDX 52 46 49 47 71 48 72 49 77 50 73 51 74 52 76 53 78 54 75 55
REMARK SMILES IDX 59 56 60 57 65 58 61 59 62 60 64 61 66 62 63 63 7 64 8 65
REMARK SMILES IDX 9 66 10 68 11 69 12 70 35 71 13 72 15 73 14 74 16 75 17 76
REMARK SMILES IDX 34 77 18 78 33 79 19 80 32 81 20 82 31 83 21 84 22 85 23 86
REMARK SMILES IDX 24 87 25 88 26 89 30 90 27 91 29 92 28 93
REMARK H PARENT 3 7 83 25 57 36 8 67
REMARK Flexibility Score: inf
ROOT
ATOM      1  C   UNL     1       4.360   3.816  -0.511  1.00  0.00     0.023 C 
ENDROOT
BRANCH   1   2
ATOM      2  C   UNL     1       4.877   2.452  -0.950  1.00  0.00     0.023 C 
BRANCH   2   3
ATOM      3  C   UNL     1       4.506   1.308  -0.021  1.00  0.00     0.116 C 
BRANCH   3   4
ATOM      4  N   UNL     1       3.067   1.152   0.147  1.00  0.00    -0.352 N 
ATOM      5  O   UNL     1       1.076   0.087   0.007  1.00  0.00    -0.269 OA
ATOM      6  C   UNL     1       2.299   0.027  -0.039  1.00  0.00     0.251 C 
ATOM      7  H   UNL     1       2.580   1.960   0.430  1.00  0.00     0.163 HD
BRANCH   6   8
ATOM      8  C   UNL     1       2.976  -1.253  -0.323  1.00  0.00     0.039 A 
ATOM      9  C   UNL     1       4.080  -1.637   0.440  1.00  0.00     0.014 A 
ATOM     10  C   UNL     1       2.539  -2.043  -1.388  1.00  0.00     0.014 A 
ATOM     11  C   UNL     1       4.847  -2.718   0.037  1.00  0.00     0.010 A 
ATOM     12  C   UNL     1       3.248  -3.200  -1.720  1.00  0.00     0.010 A 
ATOM     13  C   UNL     1       4.422  -3.532  -1.026  1.00  0.00    -0.014 A 
BRANCH  13  14
ATOM     14  C   UNL     1       5.173  -4.779  -1.312  1.00  0.00     0.031 A 
ATOM     15  C   UNL     1       5.861  -5.002  -2.628  1.00  0.00     0.074 A 
ATOM     16  C   UNL     1       5.241  -5.709  -0.339  1.00  0.00     0.049 A 
ATOM     17  N   UNL     1       6.555  -6.041  -3.023  1.00  0.00    -0.248 NA
ATOM     18  C   UNL     1       5.758  -3.934  -3.634  1.00  0.00     0.031 C 
ATOM     19  C   UNL     1       4.599  -5.600   0.976  1.00  0.00     0.029 A 
ATOM     20  N   UNL     1       5.887  -6.915  -0.290  1.00  0.00    -0.354 N 
ATOM     21  C   UNL     1       6.955  -5.762  -4.324  1.00  0.00     0.074 A 
ATOM     22  C   UNL     1       6.409  -4.465  -4.662  1.00  0.00     0.031 C 
ATOM     23  C   UNL     1       4.922  -6.669   1.715  1.00  0.00     0.029 A 
ATOM     24  C   UNL     1       5.720  -7.576   0.903  1.00  0.00     0.049 A 
ATOM     25  H   UNL     1       6.419  -7.274  -1.037  1.00  0.00     0.167 HD
ATOM     26  C   UNL     1       7.710  -6.522  -5.152  1.00  0.00     0.037 A 
ATOM     27  C   UNL     1       6.133  -8.795   1.292  1.00  0.00     0.037 A 
ATOM     28  C   UNL     1       8.257  -7.809  -4.798  1.00  0.00     0.049 A 
ATOM     29  C   UNL     1       6.931  -9.627   0.333  1.00  0.00     0.074 A 
ATOM     30  C   UNL     1       9.071  -8.636  -5.554  1.00  0.00     0.029 A 
ATOM     31  N   UNL     1       8.040  -8.460  -3.592  1.00  0.00    -0.354 N 
ATOM     32  N   UNL     1       7.340  -9.329  -0.877  1.00  0.00    -0.248 NA
ATOM     33  C   UNL     1       7.323 -10.965   0.790  1.00  0.00     0.031 C 
ATOM     34  C   UNL     1       9.294  -9.812  -4.832  1.00  0.00     0.029 A 
ATOM     35  C   UNL     1       8.676  -9.692  -3.599  1.00  0.00     0.049 A 
ATOM     36  H   UNL     1       7.512  -8.100  -2.843  1.00  0.00     0.167 HD
ATOM     37  C   UNL     1       8.057 -10.433  -1.315  1.00  0.00     0.074 A 
ATOM     38  C   UNL     1       8.048 -11.394  -0.232  1.00  0.00     0.031 C 
ATOM     39  C   UNL     1       8.664 -10.635  -2.510  1.00  0.00     0.037 A 
BRANCH  26  40
ATOM     40  C   UNL     1       7.985  -6.006  -6.536  1.00  0.00     0.057 A 
ATOM     41  C   UNL     1       8.863  -4.940  -6.771  1.00  0.00     0.134 A 
ATOM     42  C   UNL     1       7.433  -6.645  -7.655  1.00  0.00     0.134 A 
ATOM     43  F   UNL     1       9.421  -4.279  -5.746  1.00  0.00    -0.206 F 
ATOM     44  C   UNL     1       9.174  -4.524  -8.068  1.00  0.00     0.040 A 
ATOM     45  C   UNL     1       7.756  -6.254  -8.956  1.00  0.00     0.040 A 
ATOM     46  F   UNL     1       6.591  -7.678  -7.502  1.00  0.00    -0.206 F 
ATOM     47  C   UNL     1       8.629  -5.189  -9.165  1.00  0.00     0.006 A 
ENDBRANCH  26  40
BRANCH  27  48
ATOM     48  C   UNL     1       5.769  -9.312   2.635  1.00  0.00     0.057 A 
ATOM     49  C   UNL     1       6.744  -9.562   3.607  1.00  0.00     0.134 A 
ATOM     50  C   UNL     1       4.438  -9.592   2.970  1.00  0.00     0.134 A 
ATOM     51  F   UNL     1       8.037  -9.326   3.343  1.00  0.00    -0.206 F 
ATOM     52  C   UNL     1       6.413 -10.101   4.851  1.00  0.00     0.040 A 
ATOM     53  C   UNL     1       4.088 -10.097   4.222  1.00  0.00     0.040 A 
ATOM     54  F   UNL     1       3.453  -9.363   2.088  1.00  0.00    -0.206 F 
ATOM     55  C   UNL     1       5.080 -10.367   5.162  1.00  0.00     0.006 A 
ENDBRANCH  27  48
BRANCH  39  56
ATOM     56  C   UNL     1       9.402 -11.930  -2.688  1.00  0.00     0.057 A 
ATOM     57  C   UNL     1       8.734 -13.156  -2.799  1.00  0.00     0.134 A 
ATOM     58  C   UNL     1      10.800 -11.946  -2.766  1.00  0.00     0.134 A 
ATOM     59  F   UNL     1       7.396 -13.213  -2.715  1.00  0.00    -0.206 F 
ATOM     60  C   UNL     1       9.432 -14.355  -2.951  1.00  0.00     0.040 A 
ATOM     61  C   UNL     1      11.508 -13.134  -2.951  1.00  0.00     0.040 A 
ATOM     62  F   UNL     1      11.502 -10.806  -2.675  1.00  0.00    -0.206 F 
ATOM     63  C   UNL     1      10.823 -14.345  -3.035  1.00  0.00     0.006 A 
ENDBRANCH  39  56
ENDBRANCH  13  14
ENDBRANCH   6   8
ENDBRANCH   3   4
ENDBRANCH   2   3
ENDBRANCH   1   2
BRANCH   1  64
ATOM     64  C   UNL     1       4.704   4.181   0.926  1.00  0.00     0.116 C 
BRANCH  64  65
ATOM     65  N   UNL     1       6.131   4.347   1.117  1.00  0.00    -0.356 N 
ATOM     66  C   UNL     1       6.809   5.453   1.548  1.00  0.00     0.224 C 
ATOM     67  H   UNL     1       6.685   3.561   0.908  1.00  0.00     0.163 HD
ATOM     68  O   UNL     1       8.025   5.358   1.705  1.00  0.00    -0.275 OA
BRANCH  66  69
ATOM     69  C   UNL     1       6.013   6.726   1.802  1.00  0.00     0.098 C 
ATOM     70  C   UNL     1       5.702   7.461   0.482  1.00  0.00     0.017 C 
ATOM     71  C   UNL     1       6.675   7.579   2.879  1.00  0.00     0.131 C 
ATOM     72  C   UNL     1       6.728   8.529   0.089  1.00  0.00     0.022 C 
ATOM     73  N   UNL     1       7.605   8.521   2.289  1.00  0.00    -0.356 N 
ATOM     74  C   UNL     1       7.087   9.416   1.278  1.00  0.00     0.118 C 
BRANCH  73  75
ATOM     75  C   UNL     1       8.661   8.920   3.075  1.00  0.00     0.129 A 
ATOM     76  C   UNL     1       9.662   7.998   3.371  1.00  0.00     0.047 A 
ATOM     77  N   UNL     1       8.696  10.185   3.532  1.00  0.00    -0.231 NA
ATOM     78  C   UNL     1      10.743   8.381   4.149  1.00  0.00     0.014 A 
ATOM     79  C   UNL     1       9.722  10.548   4.312  1.00  0.00     0.073 A 
ATOM     80  C   UNL     1      10.786   9.681   4.641  1.00  0.00     0.002 A 
ATOM     81  C   UNL     1       9.738  11.829   4.828  1.00  0.00     0.030 A 
ATOM     82  C   UNL     1      11.849  10.122   5.440  1.00  0.00     0.032 A 
ATOM     83  C   UNL     1      10.783  12.276   5.640  1.00  0.00     0.024 A 
ATOM     84  C   UNL     1      11.849  11.427   5.936  1.00  0.00     0.083 A 
BRANCH  84  85
ATOM     85  S   UNL     1      13.256  11.898   6.926  1.00  0.00     0.243 S 
ATOM     86  O   UNL     1      13.212  11.061   8.104  1.00  0.00    -0.207 OA
ATOM     87  O   UNL     1      14.395  11.881   6.029  1.00  0.00    -0.207 OA
BRANCH  85  88
ATOM     88  N   UNL     1      13.009  13.514   7.422  1.00  0.00    -0.198 NA
ATOM     89  C   UNL     1      13.164  14.543   6.363  1.00  0.00     0.102 C 
ATOM     90  C   UNL     1      11.975  13.710   8.467  1.00  0.00     0.102 C 
ATOM     91  C   UNL     1      13.039  15.959   6.904  1.00  0.00     0.017 C 
ATOM     92  C   UNL     1      11.895  15.152   8.942  1.00  0.00     0.017 C 
ATOM     93  C   UNL     1      11.801  16.115   7.771  1.00  0.00     0.003 C 
ENDBRANCH  85  88
ENDBRANCH  84  85
ENDBRANCH  73  75
ENDBRANCH  66  69
ENDBRANCH  64  65
ENDBRANCH   1  64
TORSDOF 14
