REMARK SMILES O=C(NCCCCNC(=O)[C@H](c1ccc(Cl)cc1)[NH+]1CCCCC1)c1ccc(-c2c3nc(c(-c4c(F)cccc4F)c4ccc([nH]4)c(-c4c(F)cccc4F)c4nc(c(-c5c(F)cccc5F)c5ccc2[nH]5)C=C4)C=C3)cc1
REMARK SMILES IDX 5 1 4 2 3 3 1 4 2 5 25 7 26 8 78 9 27 10 77 11 28 12 29 13
REMARK SMILES IDX 30 14 71 15 31 16 76 17 70 18 72 19 32 20 75 21 69 22 68 23
REMARK SMILES IDX 33 25 59 26 42 27 58 28 43 29 46 30 57 31 73 32 44 33 45 34
REMARK SMILES IDX 56 36 74 37 47 38 34 39 35 40 40 41 36 42 37 43 39 44 41 45
REMARK SMILES IDX 38 46 60 47 61 48 66 49 62 50 63 51 65 52 67 53 64 54 48 55
REMARK SMILES IDX 49 56 54 57 50 58 51 59 53 60 55 61 52 62 6 63 7 64 8 65
REMARK SMILES IDX 9 66 10 68 11 69 19 70 20 71 24 72 21 74 23 75 22 76 12 77
REMARK SMILES IDX 13 78 18 79 14 80 17 81 15 82 16 83
REMARK H PARENT 3 6 72 24 46 35 8 67 19 73
REMARK Flexibility Score: inf
ROOT
ATOM      1  C   UNL     1       5.104   4.940   1.573  1.00  0.00     0.023 C 
ENDROOT
BRANCH   1   2
ATOM      2  C   UNL     1       5.537   6.338   1.179  1.00  0.00     0.116 C 
BRANCH   2   3
ATOM      3  N   UNL     1       6.692   6.356   0.293  1.00  0.00    -0.352 N 
ATOM      4  O   UNL     1       7.859   6.908  -1.564  1.00  0.00    -0.269 OA
ATOM      5  C   UNL     1       6.869   7.079  -0.862  1.00  0.00     0.251 C 
ATOM      6  H   UNL     1       7.443   5.776   0.555  1.00  0.00     0.163 HD
BRANCH   5   7
ATOM      7  C   UNL     1       5.829   8.047  -1.263  1.00  0.00     0.039 A 
ATOM      8  C   UNL     1       5.303   8.940  -0.326  1.00  0.00     0.014 A 
ATOM      9  C   UNL     1       5.355   8.034  -2.577  1.00  0.00     0.014 A 
ATOM     10  C   UNL     1       4.210   9.723  -0.663  1.00  0.00     0.010 A 
ATOM     11  C   UNL     1       4.316   8.892  -2.940  1.00  0.00     0.010 A 
ATOM     12  C   UNL     1       3.726   9.728  -1.980  1.00  0.00    -0.014 A 
BRANCH  12  13
ATOM     13  C   UNL     1       2.681  10.706  -2.357  1.00  0.00     0.031 A 
ATOM     14  C   UNL     1       1.316  10.266  -2.794  1.00  0.00     0.074 A 
ATOM     15  C   UNL     1       2.998  12.014  -2.302  1.00  0.00     0.049 A 
ATOM     16  N   UNL     1       0.310  10.999  -3.196  1.00  0.00    -0.248 NA
ATOM     17  C   UNL     1       1.042   8.820  -2.788  1.00  0.00     0.031 C 
ATOM     18  C   UNL     1       4.307  12.545  -1.906  1.00  0.00     0.029 A 
ATOM     19  N   UNL     1       2.256  13.132  -2.574  1.00  0.00    -0.354 N 
ATOM     20  C   UNL     1      -0.706  10.108  -3.518  1.00  0.00     0.074 A 
ATOM     21  C   UNL     1      -0.194   8.777  -3.271  1.00  0.00     0.031 C 
ATOM     22  C   UNL     1       4.266  13.884  -1.934  1.00  0.00     0.029 A 
ATOM     23  C   UNL     1       2.957  14.302  -2.417  1.00  0.00     0.049 A 
ATOM     24  H   UNL     1       1.313  13.100  -2.855  1.00  0.00     0.167 HD
ATOM     25  C   UNL     1      -1.948  10.387  -3.978  1.00  0.00     0.037 A 
ATOM     26  C   UNL     1       2.599  15.573  -2.669  1.00  0.00     0.037 A 
ATOM     27  C   UNL     1      -2.452  11.720  -4.189  1.00  0.00     0.049 A 
ATOM     28  C   UNL     1       1.226  15.844  -3.200  1.00  0.00     0.074 A 
ATOM     29  C   UNL     1      -3.724  12.110  -4.570  1.00  0.00     0.029 A 
ATOM     30  N   UNL     1      -1.704  12.880  -4.047  1.00  0.00    -0.354 N 
ATOM     31  N   UNL     1       0.258  14.996  -3.449  1.00  0.00    -0.248 NA
ATOM     32  C   UNL     1       0.898  17.243  -3.501  1.00  0.00     0.031 C 
ATOM     33  C   UNL     1      -3.733  13.503  -4.704  1.00  0.00     0.029 A 
ATOM     34  C   UNL     1      -2.477  13.983  -4.370  1.00  0.00     0.049 A 
ATOM     35  H   UNL     1      -0.763  12.913  -3.758  1.00  0.00     0.167 HD
ATOM     36  C   UNL     1      -0.794  15.755  -3.935  1.00  0.00     0.074 A 
ATOM     37  C   UNL     1      -0.355  17.137  -3.921  1.00  0.00     0.031 C 
ATOM     38  C   UNL     1      -2.013  15.346  -4.362  1.00  0.00     0.037 A 
BRANCH  25  39
ATOM     39  C   UNL     1      -2.853   9.238  -4.307  1.00  0.00     0.057 A 
ATOM     40  C   UNL     1      -3.491   8.487  -3.313  1.00  0.00     0.134 A 
ATOM     41  C   UNL     1      -3.152   8.932  -5.642  1.00  0.00     0.134 A 
ATOM     42  F   UNL     1      -3.243   8.725  -2.017  1.00  0.00    -0.206 F 
ATOM     43  C   UNL     1      -4.391   7.468  -3.635  1.00  0.00     0.040 A 
ATOM     44  C   UNL     1      -4.062   7.927  -5.975  1.00  0.00     0.040 A 
ATOM     45  F   UNL     1      -2.578   9.617  -6.642  1.00  0.00    -0.206 F 
ATOM     46  C   UNL     1      -4.684   7.192  -4.969  1.00  0.00     0.006 A 
ENDBRANCH  25  39
BRANCH  26  47
ATOM     47  C   UNL     1       3.579  16.665  -2.461  1.00  0.00     0.057 A 
ATOM     48  C   UNL     1       3.427  17.589  -1.424  1.00  0.00     0.134 A 
ATOM     49  C   UNL     1       4.707  16.793  -3.283  1.00  0.00     0.134 A 
ATOM     50  F   UNL     1       2.360  17.525  -0.614  1.00  0.00    -0.206 F 
ATOM     51  C   UNL     1       4.357  18.608  -1.214  1.00  0.00     0.040 A 
ATOM     52  C   UNL     1       5.658  17.790  -3.069  1.00  0.00     0.040 A 
ATOM     53  F   UNL     1       4.913  15.929  -4.288  1.00  0.00    -0.206 F 
ATOM     54  C   UNL     1       5.480  18.706  -2.034  1.00  0.00     0.006 A 
ENDBRANCH  26  47
BRANCH  38  55
ATOM     55  C   UNL     1      -2.947  16.409  -4.850  1.00  0.00     0.057 A 
ATOM     56  C   UNL     1      -2.776  17.010  -6.103  1.00  0.00     0.134 A 
ATOM     57  C   UNL     1      -4.040  16.814  -4.075  1.00  0.00     0.134 A 
ATOM     58  F   UNL     1      -1.736  16.674  -6.882  1.00  0.00    -0.206 F 
ATOM     59  C   UNL     1      -3.654  17.991  -6.563  1.00  0.00     0.040 A 
ATOM     60  C   UNL     1      -4.936  17.779  -4.534  1.00  0.00     0.040 A 
ATOM     61  F   UNL     1      -4.257  16.272  -2.868  1.00  0.00    -0.206 F 
ATOM     62  C   UNL     1      -4.741  18.374  -5.779  1.00  0.00     0.006 A 
ENDBRANCH  38  55
ENDBRANCH  12  13
ENDBRANCH   5   7
ENDBRANCH   2   3
ENDBRANCH   1   2
BRANCH   1  63
ATOM     63  C   UNL     1       6.175   4.100   2.254  1.00  0.00     0.023 C 
BRANCH  63  64
ATOM     64  C   UNL     1       6.785   4.699   3.518  1.00  0.00     0.116 C 
BRANCH  64  65
ATOM     65  N   UNL     1       5.879   4.709   4.648  1.00  0.00    -0.351 N 
ATOM     66  C   UNL     1       5.787   3.934   5.765  1.00  0.00     0.283 C 
ATOM     67  H   UNL     1       5.194   5.415   4.600  1.00  0.00     0.163 HD
ATOM     68  O   UNL     1       5.136   4.466   6.680  1.00  0.00    -0.268 OA
BRANCH  66  69
ATOM     69  C   UNL     1       6.409   2.502   5.960  1.00  0.00     0.305 C 
BRANCH  69  70
ATOM     70  N   UNL     1       5.435   1.544   6.596  1.00  0.00    -0.321 N 
ATOM     71  C   UNL     1       4.046   1.638   6.141  1.00  0.00     0.263 C 
ATOM     72  C   UNL     1       5.933   0.163   6.677  1.00  0.00     0.263 C 
ATOM     73  H   UNL     1       5.383   1.883   7.557  1.00  0.00     0.349 HD
ATOM     74  C   UNL     1       3.115   0.744   6.968  1.00  0.00     0.062 C 
ATOM     75  C   UNL     1       5.017  -0.769   7.470  1.00  0.00     0.062 C 
ATOM     76  C   UNL     1       3.587  -0.700   6.953  1.00  0.00     0.012 C 
ENDBRANCH  69  70
BRANCH  69  77
ATOM     77  C   UNL     1       7.243   1.923   4.815  1.00  0.00     0.019 A 
ATOM     78  C   UNL     1       6.671   1.265   3.715  1.00  0.00     0.012 A 
ATOM     79  C   UNL     1       8.648   2.034   4.861  1.00  0.00     0.012 A 
ATOM     80  C   UNL     1       7.464   0.785   2.668  1.00  0.00     0.021 A 
ATOM     81  C   UNL     1       9.442   1.557   3.814  1.00  0.00     0.021 A 
ATOM     82  C   UNL     1       8.845   0.944   2.717  1.00  0.00     0.041 A 
ATOM     83  Cl  UNL     1       9.814   0.393   1.409  1.00  0.00    -0.084 Cl
ENDBRANCH  69  77
ENDBRANCH  66  69
ENDBRANCH  64  65
ENDBRANCH  63  64
ENDBRANCH   1  63
TORSDOF 13
