REMARK SMILES Cc1cc(C(=O)NCCCCNC(=O)c2ccc(-c3c4nc(c(-c5c(F)cccc5F)c5ccc([nH]5)c(-c5c(F)cccc5F)c5nc(c(-c6c(F)cccc6F)c6ccc3[nH]6)C=C5)C=C4)cc2)ccc1-c1ccc(C(=O)N2CCCCC2)cc1
REMARK SMILES IDX 9 1 8 2 7 3 5 4 6 5 4 7 1 8 2 9 3 10 71 11 70 12 69 13 72 14
REMARK SMILES IDX 73 15 85 16 74 17 84 18 75 19 76 20 77 21 78 22 79 23 83 24
REMARK SMILES IDX 80 25 82 26 81 27 10 28 11 29 12 30 13 31 14 33 15 34 16 35
REMARK SMILES IDX 68 36 17 37 67 38 18 39 19 40 20 41 61 42 21 43 66 44 60 45
REMARK SMILES IDX 62 46 22 47 65 48 59 49 58 50 23 52 49 53 32 54 48 55 33 56
REMARK SMILES IDX 36 57 47 58 63 59 34 60 35 61 46 63 64 64 37 65 24 66 25 67
REMARK SMILES IDX 30 68 26 69 27 70 29 71 31 72 28 73 50 74 51 75 56 76 52 77
REMARK SMILES IDX 53 78 55 79 57 80 54 81 38 82 39 83 44 84 40 85 41 86 43 87
REMARK SMILES IDX 45 88 42 89
REMARK H PARENT 7 6 12 32 62 51 36 62
REMARK Flexibility Score: inf
ROOT
ATOM      1  C   UNL     1      -4.853  -0.966  -1.215  1.00  0.00     0.023 C 
ENDROOT
BRANCH   1   2
ATOM      2  C   UNL     1      -4.305  -1.470   0.131  1.00  0.00     0.116 C 
BRANCH   2   3
ATOM      3  N   UNL     1      -3.231  -2.431  -0.039  1.00  0.00    -0.352 N 
ATOM      4  C   UNL     1      -1.867  -2.318  -0.129  1.00  0.00     0.251 C 
ATOM      5  O   UNL     1      -1.235  -3.373  -0.222  1.00  0.00    -0.269 OA
ATOM      6  H   UNL     1      -3.549  -3.361  -0.103  1.00  0.00     0.163 HD
BRANCH   4   7
ATOM      7  C   UNL     1      -1.116  -1.026  -0.110  1.00  0.00     0.040 A 
ATOM      8  C   UNL     1       2.572  -0.145   0.304  1.00  0.00     0.045 C 
ATOM      9  C   UNL     1       1.090   0.051   0.114  1.00  0.00    -0.042 A 
ATOM     10  C   UNL     1       0.273  -1.099   0.097  1.00  0.00     0.018 A 
ATOM     11  C   UNL     1       0.504   1.315  -0.096  1.00  0.00    -0.015 A 
ATOM     12  C   UNL     1      -0.879   1.381  -0.309  1.00  0.00     0.010 A 
ATOM     13  C   UNL     1      -1.670   0.231  -0.326  1.00  0.00     0.014 A 
BRANCH  11  14
ATOM     14  C   UNL     1       1.265   2.569  -0.119  1.00  0.00    -0.018 A 
ATOM     15  C   UNL     1       2.186   2.825  -1.142  1.00  0.00     0.009 A 
ATOM     16  C   UNL     1       1.083   3.536   0.882  1.00  0.00     0.009 A 
ATOM     17  C   UNL     1       2.950   3.993  -1.136  1.00  0.00     0.014 A 
ATOM     18  C   UNL     1       1.828   4.718   0.876  1.00  0.00     0.014 A 
ATOM     19  C   UNL     1       2.771   4.952  -0.131  1.00  0.00     0.040 A 
BRANCH  19  20
ATOM     20  C   UNL     1       3.701   6.107   0.019  1.00  0.00     0.253 C 
ATOM     21  O   UNL     1       3.913   6.537   1.152  1.00  0.00    -0.269 OA
ATOM     22  N   UNL     1       4.400   6.568  -1.090  1.00  0.00    -0.339 N 
ATOM     23  C   UNL     1       5.784   6.981  -0.906  1.00  0.00     0.120 C 
ATOM     24  C   UNL     1       3.841   6.713  -2.434  1.00  0.00     0.120 C 
ATOM     25  C   UNL     1       6.033   8.388  -1.426  1.00  0.00     0.022 C 
ATOM     26  C   UNL     1       4.078   8.123  -2.979  1.00  0.00     0.022 C 
ATOM     27  C   UNL     1       5.549   8.525  -2.866  1.00  0.00     0.004 C 
ENDBRANCH  19  20
ENDBRANCH  11  14
ENDBRANCH   4   7
ENDBRANCH   2   3
ENDBRANCH   1   2
BRANCH   1  28
ATOM     28  C   UNL     1      -5.584  -2.025  -2.044  1.00  0.00     0.023 C 
BRANCH  28  29
ATOM     29  C   UNL     1      -6.942  -2.409  -1.475  1.00  0.00     0.116 C 
BRANCH  29  30
ATOM     30  N   UNL     1      -8.043  -1.550  -1.891  1.00  0.00    -0.352 N 
ATOM     31  C   UNL     1      -9.339  -1.459  -1.398  1.00  0.00     0.251 C 
ATOM     32  H   UNL     1      -7.837  -0.942  -2.637  1.00  0.00     0.163 HD
ATOM     33  O   UNL     1     -10.144  -0.731  -1.940  1.00  0.00    -0.269 OA
BRANCH  31  34
ATOM     34  C   UNL     1      -9.686  -2.127  -0.112  1.00  0.00     0.039 A 
ATOM     35  C   UNL     1     -10.410  -1.375   0.822  1.00  0.00     0.014 A 
ATOM     36  C   UNL     1      -9.096  -3.326   0.271  1.00  0.00     0.014 A 
ATOM     37  C   UNL     1     -10.272  -1.657   2.178  1.00  0.00     0.010 A 
ATOM     38  C   UNL     1      -8.860  -3.541   1.615  1.00  0.00     0.010 A 
ATOM     39  C   UNL     1      -9.374  -2.649   2.562  1.00  0.00    -0.014 A 
BRANCH  39  40
ATOM     40  C   UNL     1      -8.759  -2.686   3.886  1.00  0.00     0.031 A 
ATOM     41  C   UNL     1      -9.032  -3.791   4.825  1.00  0.00     0.074 A 
ATOM     42  C   UNL     1      -7.830  -1.753   4.191  1.00  0.00     0.049 A 
ATOM     43  N   UNL     1      -8.825  -3.737   6.097  1.00  0.00    -0.248 NA
ATOM     44  C   UNL     1      -9.625  -5.049   4.395  1.00  0.00     0.031 C 
ATOM     45  C   UNL     1      -6.865  -1.782   5.286  1.00  0.00     0.029 A 
ATOM     46  N   UNL     1      -7.711  -0.461   3.658  1.00  0.00    -0.354 N 
ATOM     47  C   UNL     1      -8.963  -5.012   6.602  1.00  0.00     0.074 A 
ATOM     48  C   UNL     1      -9.557  -5.763   5.521  1.00  0.00     0.031 C 
ATOM     49  C   UNL     1      -6.451  -0.530   5.533  1.00  0.00     0.029 A 
ATOM     50  C   UNL     1      -7.253   0.359   4.711  1.00  0.00     0.049 A 
ATOM     51  H   UNL     1      -7.907  -0.182   2.735  1.00  0.00     0.167 HD
ATOM     52  C   UNL     1      -8.419  -5.304   7.822  1.00  0.00     0.037 A 
ATOM     53  C   UNL     1      -8.014   1.385   5.192  1.00  0.00     0.037 A 
ATOM     54  C   UNL     1      -7.916  -4.088   8.472  1.00  0.00     0.049 A 
ATOM     55  C   UNL     1      -8.381   1.250   6.652  1.00  0.00     0.074 A 
ATOM     56  C   UNL     1      -6.646  -3.551   8.609  1.00  0.00     0.029 A 
ATOM     57  N   UNL     1      -8.806  -3.084   8.842  1.00  0.00    -0.354 N 
ATOM     58  N   UNL     1      -8.287   0.136   7.324  1.00  0.00    -0.248 NA
ATOM     59  C   UNL     1      -8.917   2.343   7.460  1.00  0.00     0.031 C 
ATOM     60  C   UNL     1      -6.779  -2.195   8.998  1.00  0.00     0.029 A 
ATOM     61  C   UNL     1      -8.128  -1.912   9.118  1.00  0.00     0.049 A 
ATOM     62  H   UNL     1      -9.783  -3.194   8.900  1.00  0.00     0.167 HD
ATOM     63  C   UNL     1      -8.767   0.324   8.593  1.00  0.00     0.074 A 
ATOM     64  C   UNL     1      -9.124   1.729   8.639  1.00  0.00     0.031 C 
ATOM     65  C   UNL     1      -8.848  -0.702   9.490  1.00  0.00     0.037 A 
BRANCH  52  66
ATOM     66  C   UNL     1      -8.047  -6.707   8.286  1.00  0.00     0.057 A 
ATOM     67  C   UNL     1      -7.034  -6.899   9.250  1.00  0.00     0.134 A 
ATOM     68  C   UNL     1      -8.567  -7.909   7.774  1.00  0.00     0.134 A 
ATOM     69  F   UNL     1      -6.516  -5.879   9.945  1.00  0.00    -0.206 F 
ATOM     70  C   UNL     1      -6.494  -8.157   9.561  1.00  0.00     0.040 A 
ATOM     71  C   UNL     1      -8.011  -9.170   8.043  1.00  0.00     0.040 A 
ATOM     72  F   UNL     1      -9.683  -7.945   7.043  1.00  0.00    -0.206 F 
ATOM     73  C   UNL     1      -6.953  -9.297   8.925  1.00  0.00     0.006 A 
ENDBRANCH  52  66
BRANCH  53  74
ATOM     74  C   UNL     1      -8.865   2.025   4.156  1.00  0.00     0.057 A 
ATOM     75  C   UNL     1      -8.239   2.725   3.110  1.00  0.00     0.134 A 
ATOM     76  C   UNL     1     -10.201   1.659   3.968  1.00  0.00     0.134 A 
ATOM     77  F   UNL     1      -6.955   3.102   3.225  1.00  0.00    -0.206 F 
ATOM     78  C   UNL     1      -8.877   2.955   1.889  1.00  0.00     0.040 A 
ATOM     79  C   UNL     1     -10.853   1.892   2.751  1.00  0.00     0.040 A 
ATOM     80  F   UNL     1     -10.857   0.966   4.909  1.00  0.00    -0.206 F 
ATOM     81  C   UNL     1     -10.180   2.507   1.696  1.00  0.00     0.006 A 
ENDBRANCH  53  74
BRANCH  65  82
ATOM     82  C   UNL     1      -9.546  -0.649  10.824  1.00  0.00     0.057 A 
ATOM     83  C   UNL     1     -10.688   0.121  11.084  1.00  0.00     0.134 A 
ATOM     84  C   UNL     1      -9.156  -1.521  11.865  1.00  0.00     0.134 A 
ATOM     85  F   UNL     1     -11.225   0.916  10.148  1.00  0.00    -0.206 F 
ATOM     86  C   UNL     1     -11.367   0.065  12.309  1.00  0.00     0.040 A 
ATOM     87  C   UNL     1      -9.856  -1.622  13.071  1.00  0.00     0.040 A 
ATOM     88  F   UNL     1      -8.091  -2.328  11.745  1.00  0.00    -0.206 F 
ATOM     89  C   UNL     1     -10.960  -0.818  13.302  1.00  0.00     0.006 A 
ENDBRANCH  65  82
ENDBRANCH  39  40
ENDBRANCH  31  34
ENDBRANCH  29  30
ENDBRANCH  28  29
ENDBRANCH   1  28
TORSDOF 13
