REMARK SMILES Cc1cc(F)ccc1OC1(C(=O)NCCCCNC(=O)c2ccc(-c3c4nc(c(-c5c(F)cccc5F)c5ccc([nH]5)c(-c5c(F)cccc5F)c5nc(c(-c6c(F)cccc6F)c6ccc3[nH]6)C=C5)C=C4)cc2)CCN(C(=O)[C@H]2CCOC2)CC1
REMARK SMILES IDX 15 1 14 2 13 3 11 4 12 5 10 7 75 8 86 9 76 10 85 11 77 12
REMARK SMILES IDX 78 13 79 14 9 15 8 16 1 17 2 18 3 19 4 20 7 21 5 22 6 23
REMARK SMILES IDX 80 24 81 25 84 26 82 27 83 28 16 29 17 30 18 31 19 32 20 34
REMARK SMILES IDX 21 35 22 36 74 37 23 38 73 39 24 40 25 41 26 42 67 43 27 44
REMARK SMILES IDX 72 45 66 46 68 47 28 48 71 49 65 50 64 51 29 53 55 54 38 55
REMARK SMILES IDX 54 56 39 57 42 58 53 59 69 60 40 61 41 62 52 64 70 65 43 66
REMARK SMILES IDX 30 67 31 68 36 69 32 70 33 71 35 72 37 73 34 74 56 75 57 76
REMARK SMILES IDX 62 77 58 78 59 79 61 80 63 81 60 82 44 83 45 84 50 85 46 86
REMARK SMILES IDX 47 87 49 88 51 89 48 90
REMARK H PARENT 13 6 18 33 68 52 42 63
REMARK Flexibility Score: inf
ROOT
ATOM      1  C   UNL     1      10.966   5.888  -1.032  1.00  0.00     0.023 C 
ENDROOT
BRANCH   1   2
ATOM      2  C   UNL     1       9.901   5.932   0.062  1.00  0.00     0.116 C 
BRANCH   2   3
ATOM      3  N   UNL     1       9.720   7.261   0.608  1.00  0.00    -0.353 N 
ATOM      4  C   UNL     1       8.729   8.191   0.449  1.00  0.00     0.264 C 
ATOM      5  O   UNL     1       8.874   9.216   1.127  1.00  0.00    -0.270 OA
ATOM      6  H   UNL     1      10.447   7.549   1.207  1.00  0.00     0.163 HD
BRANCH   4   7
ATOM      7  C   UNL     1       7.494   7.976  -0.517  1.00  0.00     0.190 C 
ATOM      8  C   UNL     1       8.041   7.853  -1.930  1.00  0.00     0.080 C 
ATOM      9  C   UNL     1       6.656   6.843   0.077  1.00  0.00     0.080 C 
ATOM     10  C   UNL     1       7.910   6.499  -2.605  1.00  0.00     0.124 C 
ATOM     11  C   UNL     1       6.194   5.755  -0.874  1.00  0.00     0.124 C 
ATOM     12  N   UNL     1       7.051   5.473  -2.021  1.00  0.00    -0.342 N 
ATOM     13  C   UNL     1       6.981   4.289  -2.764  1.00  0.00     0.228 C 
ATOM     14  O   UNL     1       7.785   4.072  -3.674  1.00  0.00    -0.274 OA
BRANCH   7  15
ATOM     15  O   UNL     1       6.804   9.234  -0.342  1.00  0.00    -0.477 OA
BRANCH  15  16
ATOM     16  C   UNL     1       5.753   9.843  -0.942  1.00  0.00     0.124 A 
ATOM     17  C   UNL     1       5.042   8.319  -2.930  1.00  0.00     0.048 C 
ATOM     18  C   UNL     1       4.940   9.508  -2.035  1.00  0.00    -0.006 A 
ATOM     19  C   UNL     1       3.927  10.414  -2.437  1.00  0.00     0.046 A 
ATOM     20  C   UNL     1       3.716  11.612  -1.773  1.00  0.00     0.123 A 
ATOM     21  C   UNL     1       5.507  11.074  -0.291  1.00  0.00     0.050 A 
ATOM     22  F   UNL     1       2.751  12.440  -2.193  1.00  0.00    -0.207 F 
ATOM     23  C   UNL     1       4.502  11.954  -0.695  1.00  0.00     0.043 A 
ENDBRANCH  15  16
ENDBRANCH   7  15
BRANCH  13  24
ATOM     24  C   UNL     1       5.839   3.322  -2.492  1.00  0.00     0.107 C 
ATOM     25  C   UNL     1       4.579   3.739  -3.227  1.00  0.00     0.044 C 
ATOM     26  C   UNL     1       6.106   1.948  -3.079  1.00  0.00     0.173 C 
ATOM     27  C   UNL     1       3.876   2.430  -3.525  1.00  0.00     0.161 C 
ATOM     28  O   UNL     1       4.828   1.373  -3.379  1.00  0.00    -0.381 OA
ENDBRANCH  13  24
ENDBRANCH   4   7
ENDBRANCH   2   3
ENDBRANCH   1   2
BRANCH   1  29
ATOM     29  C   UNL     1      12.405   6.014  -0.543  1.00  0.00     0.023 C 
BRANCH  29  30
ATOM     30  C   UNL     1      12.827   4.990   0.501  1.00  0.00     0.116 C 
BRANCH  30  31
ATOM     31  N   UNL     1      12.606   3.614   0.085  1.00  0.00    -0.352 N 
ATOM     32  C   UNL     1      13.424   2.518   0.235  1.00  0.00     0.251 C 
ATOM     33  H   UNL     1      11.749   3.443  -0.370  1.00  0.00     0.163 HD
ATOM     34  O   UNL     1      13.124   1.449  -0.269  1.00  0.00    -0.269 OA
BRANCH  32  35
ATOM     35  C   UNL     1      14.694   2.660   0.981  1.00  0.00     0.039 A 
ATOM     36  C   UNL     1      15.859   2.135   0.419  1.00  0.00     0.014 A 
ATOM     37  C   UNL     1      14.741   3.335   2.203  1.00  0.00     0.014 A 
ATOM     38  C   UNL     1      17.085   2.355   1.048  1.00  0.00     0.010 A 
ATOM     39  C   UNL     1      15.971   3.626   2.784  1.00  0.00     0.010 A 
ATOM     40  C   UNL     1      17.155   3.140   2.211  1.00  0.00    -0.014 A 
BRANCH  40  41
ATOM     41  C   UNL     1      18.465   3.475   2.825  1.00  0.00     0.031 A 
ATOM     42  C   UNL     1      18.800   2.998   4.210  1.00  0.00     0.074 A 
ATOM     43  C   UNL     1      19.332   4.252   2.147  1.00  0.00     0.049 A 
ATOM     44  N   UNL     1      19.882   3.209   4.916  1.00  0.00    -0.248 NA
ATOM     45  C   UNL     1      17.777   2.201   4.906  1.00  0.00     0.031 C 
ATOM     46  C   UNL     1      19.097   4.828   0.820  1.00  0.00     0.029 A 
ATOM     47  N   UNL     1      20.588   4.694   2.480  1.00  0.00    -0.354 N 
ATOM     48  C   UNL     1      19.669   2.575   6.133  1.00  0.00     0.074 A 
ATOM     49  C   UNL     1      18.331   2.026   6.096  1.00  0.00     0.031 C 
ATOM     50  C   UNL     1      20.184   5.517   0.440  1.00  0.00     0.029 A 
ATOM     51  C   UNL     1      21.178   5.464   1.507  1.00  0.00     0.049 A 
ATOM     52  H   UNL     1      21.025   4.480   3.336  1.00  0.00     0.167 HD
ATOM     53  C   UNL     1      20.521   2.438   7.177  1.00  0.00     0.037 A 
ATOM     54  C   UNL     1      22.384   6.061   1.480  1.00  0.00     0.037 A 
ATOM     55  C   UNL     1      21.858   2.971   7.204  1.00  0.00     0.049 A 
ATOM     56  C   UNL     1      23.307   5.897   2.655  1.00  0.00     0.074 A 
ATOM     57  C   UNL     1      22.818   2.841   8.193  1.00  0.00     0.029 A 
ATOM     58  N   UNL     1      22.424   3.736   6.195  1.00  0.00    -0.354 N 
ATOM     59  N   UNL     1      23.120   5.230   3.768  1.00  0.00    -0.248 NA
ATOM     60  C   UNL     1      24.614   6.562   2.566  1.00  0.00     0.031 C 
ATOM     61  C   UNL     1      23.949   3.565   7.802  1.00  0.00     0.029 A 
ATOM     62  C   UNL     1      23.712   4.103   6.548  1.00  0.00     0.049 A 
ATOM     63  H   UNL     1      21.977   3.981   5.353  1.00  0.00     0.167 HD
ATOM     64  C   UNL     1      24.292   5.374   4.499  1.00  0.00     0.074 A 
ATOM     65  C   UNL     1      25.192   6.170   3.692  1.00  0.00     0.031 C 
ATOM     66  C   UNL     1      24.596   4.895   5.730  1.00  0.00     0.037 A 
BRANCH  53  67
ATOM     67  C   UNL     1      20.038   1.669   8.372  1.00  0.00     0.057 A 
ATOM     68  C   UNL     1      19.849   0.281   8.327  1.00  0.00     0.134 A 
ATOM     69  C   UNL     1      19.806   2.312   9.594  1.00  0.00     0.134 A 
ATOM     70  F   UNL     1      20.041  -0.394   7.183  1.00  0.00    -0.206 F 
ATOM     71  C   UNL     1      19.429  -0.436   9.448  1.00  0.00     0.040 A 
ATOM     72  C   UNL     1      19.412   1.602  10.729  1.00  0.00     0.040 A 
ATOM     73  F   UNL     1      19.971   3.639   9.709  1.00  0.00    -0.206 F 
ATOM     74  C   UNL     1      19.218   0.224  10.657  1.00  0.00     0.006 A 
ENDBRANCH  53  67
BRANCH  54  75
ATOM     75  C   UNL     1      22.803   6.854   0.295  1.00  0.00     0.057 A 
ATOM     76  C   UNL     1      23.840   6.417  -0.537  1.00  0.00     0.134 A 
ATOM     77  C   UNL     1      22.201   8.079  -0.016  1.00  0.00     0.134 A 
ATOM     78  F   UNL     1      24.469   5.260  -0.281  1.00  0.00    -0.206 F 
ATOM     79  C   UNL     1      24.285   7.182  -1.617  1.00  0.00     0.040 A 
ATOM     80  C   UNL     1      22.616   8.841  -1.109  1.00  0.00     0.040 A 
ATOM     81  F   UNL     1      21.196   8.550   0.737  1.00  0.00    -0.206 F 
ATOM     82  C   UNL     1      23.669   8.398  -1.907  1.00  0.00     0.006 A 
ENDBRANCH  54  75
BRANCH  66  83
ATOM     83  C   UNL     1      25.967   5.199   6.260  1.00  0.00     0.057 A 
ATOM     84  C   UNL     1      26.337   6.490   6.659  1.00  0.00     0.134 A 
ATOM     85  C   UNL     1      26.924   4.184   6.387  1.00  0.00     0.134 A 
ATOM     86  F   UNL     1      25.471   7.509   6.550  1.00  0.00    -0.206 F 
ATOM     87  C   UNL     1      27.620   6.767   7.132  1.00  0.00     0.040 A 
ATOM     88  C   UNL     1      28.200   4.443   6.887  1.00  0.00     0.040 A 
ATOM     89  F   UNL     1      26.632   2.923   6.033  1.00  0.00    -0.206 F 
ATOM     90  C   UNL     1      28.554   5.740   7.253  1.00  0.00     0.006 A 
ENDBRANCH  66  83
ENDBRANCH  40  41
ENDBRANCH  32  35
ENDBRANCH  30  31
ENDBRANCH  29  30
ENDBRANCH   1  29
TORSDOF 14
