REMARK SMILES CCCc1c(C(=O)NCCCCNC(=O)c2ccc(-c3c4nc(c(-c5c(F)cccc5F)c5ccc([nH]5)c(-c5c(F)cccc5F)c5nc(c(-c6c(F)cccc6F)c6ccc3[nH]6)C=C5)C=C4)cc2)nnn1-c1ccccc1[N+](=O)[O-]
REMARK SMILES IDX 10 1 9 2 8 3 6 4 7 5 5 7 4 8 72 9 70 10 71 11 3 12 2 13 1 14
REMARK SMILES IDX 73 15 74 16 78 17 75 18 77 19 76 20 79 21 80 22 81 23 11 24
REMARK SMILES IDX 12 25 13 26 14 27 15 29 16 30 17 31 69 32 18 33 68 34 19 35
REMARK SMILES IDX 20 36 21 37 62 38 22 39 67 40 61 41 63 42 23 43 66 44 60 45
REMARK SMILES IDX 59 46 24 48 50 49 33 50 49 51 34 52 37 53 48 54 64 55 35 56
REMARK SMILES IDX 36 57 47 59 65 60 38 61 25 62 26 63 31 64 27 65 28 66 30 67
REMARK SMILES IDX 32 68 29 69 51 70 52 71 57 72 53 73 54 74 56 75 58 76 55 77
REMARK SMILES IDX 39 78 40 79 45 80 41 81 42 82 44 83 46 84 43 85
REMARK H PARENT 8 6 13 28 63 47 37 58
REMARK Flexibility Score: inf
ROOT
ATOM      1  C   UNL     1       0.191  -3.097   4.536  1.00  0.00     0.023 C 
ENDROOT
BRANCH   1   2
ATOM      2  C   UNL     1      -1.027  -2.360   3.972  1.00  0.00     0.116 C 
BRANCH   2   3
ATOM      3  N   UNL     1      -1.455  -1.300   4.840  1.00  0.00    -0.351 N 
ATOM      4  C   UNL     1      -1.239   0.052   4.857  1.00  0.00     0.273 C 
ATOM      5  O   UNL     1      -1.835   0.626   5.776  1.00  0.00    -0.267 OA
ATOM      6  H   UNL     1      -2.025  -1.612   5.580  1.00  0.00     0.163 HD
BRANCH   4   7
ATOM      7  C   UNL     1      -0.432   0.828   3.898  1.00  0.00     0.174 A 
ATOM      8  C   UNL     1       0.528   0.588   2.903  1.00  0.00     0.078 A 
ATOM      9  N   UNL     1       0.757   1.861   2.379  1.00  0.00    -0.210 N 
ATOM     10  N   UNL     1      -0.558   2.208   4.023  1.00  0.00    -0.124 NA
ATOM     11  N   UNL     1       0.235   2.808   3.163  1.00  0.00    -0.061 NA
BRANCH   8  12
ATOM     12  C   UNL     1       1.334  -0.586   2.421  1.00  0.00     0.059 C 
BRANCH  12  13
ATOM     13  C   UNL     1       0.740  -1.345   1.226  1.00  0.00     0.003 C 
ATOM     14  C   UNL     1       1.602  -1.323  -0.028  1.00  0.00     0.004 C 
ENDBRANCH  12  13
ENDBRANCH   8  12
BRANCH   9  15
ATOM     15  C   UNL     1       1.642   2.227   1.353  1.00  0.00     0.144 A 
ATOM     16  C   UNL     1       2.957   2.553   1.724  1.00  0.00     0.036 A 
ATOM     17  C   UNL     1       1.269   2.194   0.001  1.00  0.00     0.294 A 
ATOM     18  C   UNL     1       3.918   2.774   0.738  1.00  0.00     0.003 A 
ATOM     19  C   UNL     1       2.249   2.422  -0.981  1.00  0.00     0.088 A 
ATOM     20  C   UNL     1       3.569   2.691  -0.610  1.00  0.00     0.007 A 
BRANCH  17  21
ATOM     21  N   UNL     1      -0.100   1.879  -0.448  1.00  0.00     0.065 N 
ATOM     22  O   UNL     1      -0.263   1.645  -1.654  1.00  0.00    -0.258 OA
ATOM     23  O   UNL     1      -1.005   1.833   0.391  1.00  0.00    -0.258 OA
ENDBRANCH  17  21
ENDBRANCH   9  15
ENDBRANCH   4   7
ENDBRANCH   2   3
ENDBRANCH   1   2
BRANCH   1  24
ATOM     24  C   UNL     1      -0.117  -4.222   5.535  1.00  0.00     0.023 C 
BRANCH  24  25
ATOM     25  C   UNL     1      -0.813  -5.441   4.939  1.00  0.00     0.116 C 
BRANCH  25  26
ATOM     26  N   UNL     1      -0.042  -6.094   3.874  1.00  0.00    -0.352 N 
ATOM     27  C   UNL     1      -0.488  -7.009   2.930  1.00  0.00     0.251 C 
ATOM     28  H   UNL     1       0.912  -5.853   3.824  1.00  0.00     0.163 HD
ATOM     29  O   UNL     1       0.274  -7.777   2.371  1.00  0.00    -0.269 OA
BRANCH  27  30
ATOM     30  C   UNL     1      -1.920  -6.993   2.588  1.00  0.00     0.039 A 
ATOM     31  C   UNL     1      -2.681  -8.154   2.425  1.00  0.00     0.014 A 
ATOM     32  C   UNL     1      -2.504  -5.736   2.504  1.00  0.00     0.014 A 
ATOM     33  C   UNL     1      -4.058  -8.023   2.250  1.00  0.00     0.010 A 
ATOM     34  C   UNL     1      -3.860  -5.625   2.577  1.00  0.00     0.010 A 
ATOM     35  C   UNL     1      -4.638  -6.747   2.342  1.00  0.00    -0.014 A 
BRANCH  35  36
ATOM     36  C   UNL     1      -6.077  -6.535   2.304  1.00  0.00     0.031 A 
ATOM     37  C   UNL     1      -6.816  -7.282   3.351  1.00  0.00     0.074 A 
ATOM     38  C   UNL     1      -6.638  -5.550   1.566  1.00  0.00     0.049 A 
ATOM     39  N   UNL     1      -7.567  -8.319   3.192  1.00  0.00    -0.248 NA
ATOM     40  C   UNL     1      -6.543  -6.957   4.762  1.00  0.00     0.031 C 
ATOM     41  C   UNL     1      -5.966  -4.520   0.758  1.00  0.00     0.029 A 
ATOM     42  N   UNL     1      -7.947  -5.194   1.457  1.00  0.00    -0.354 N 
ATOM     43  C   UNL     1      -8.072  -8.610   4.456  1.00  0.00     0.074 A 
ATOM     44  C   UNL     1      -7.231  -7.913   5.391  1.00  0.00     0.031 C 
ATOM     45  C   UNL     1      -6.839  -3.539   0.442  1.00  0.00     0.029 A 
ATOM     46  C   UNL     1      -8.163  -3.955   0.856  1.00  0.00     0.049 A 
ATOM     47  H   UNL     1      -8.682  -5.764   1.778  1.00  0.00     0.167 HD
ATOM     48  C   UNL     1      -9.321  -9.137   4.593  1.00  0.00     0.037 A 
ATOM     49  C   UNL     1      -9.352  -3.318   0.713  1.00  0.00     0.037 A 
ATOM     50  C   UNL     1      -9.802  -9.632   3.324  1.00  0.00     0.049 A 
ATOM     51  C   UNL     1     -10.412  -4.341   0.870  1.00  0.00     0.074 A 
ATOM     52  C   UNL     1      -9.393 -10.592   2.420  1.00  0.00     0.029 A 
ATOM     53  N   UNL     1     -10.664  -8.811   2.641  1.00  0.00    -0.354 N 
ATOM     54  N   UNL     1     -10.598  -5.325   0.034  1.00  0.00    -0.248 NA
ATOM     55  C   UNL     1     -10.958  -4.543   2.201  1.00  0.00     0.031 C 
ATOM     56  C   UNL     1      -9.681 -10.040   1.135  1.00  0.00     0.029 A 
ATOM     57  C   UNL     1     -10.321  -8.812   1.316  1.00  0.00     0.049 A 
ATOM     58  H   UNL     1     -11.407  -8.303   3.039  1.00  0.00     0.167 HD
ATOM     59  C   UNL     1     -10.874  -6.423   0.836  1.00  0.00     0.074 A 
ATOM     60  C   UNL     1     -11.185  -5.858   2.148  1.00  0.00     0.031 C 
ATOM     61  C   UNL     1     -10.532  -7.684   0.433  1.00  0.00     0.037 A 
BRANCH  48  62
ATOM     62  C   UNL     1     -10.280  -8.797   5.718  1.00  0.00     0.057 A 
ATOM     63  C   UNL     1     -11.523  -9.458   5.764  1.00  0.00     0.134 A 
ATOM     64  C   UNL     1     -10.183  -7.663   6.551  1.00  0.00     0.134 A 
ATOM     65  F   UNL     1     -11.749 -10.550   5.019  1.00  0.00    -0.206 F 
ATOM     66  C   UNL     1     -12.610  -8.971   6.501  1.00  0.00     0.040 A 
ATOM     67  C   UNL     1     -11.247  -7.198   7.330  1.00  0.00     0.040 A 
ATOM     68  F   UNL     1      -9.100  -6.880   6.592  1.00  0.00    -0.206 F 
ATOM     69  C   UNL     1     -12.477  -7.829   7.279  1.00  0.00     0.006 A 
ENDBRANCH  48  62
BRANCH  49  70
ATOM     70  C   UNL     1      -9.633  -1.866   0.784  1.00  0.00     0.057 A 
ATOM     71  C   UNL     1     -10.832  -1.325   0.296  1.00  0.00     0.134 A 
ATOM     72  C   UNL     1      -8.858  -1.015   1.593  1.00  0.00     0.134 A 
ATOM     73  F   UNL     1     -11.664  -2.075  -0.442  1.00  0.00    -0.206 F 
ATOM     74  C   UNL     1     -11.244  -0.021   0.607  1.00  0.00     0.040 A 
ATOM     75  C   UNL     1      -9.256   0.288   1.909  1.00  0.00     0.040 A 
ATOM     76  F   UNL     1      -7.736  -1.457   2.179  1.00  0.00    -0.206 F 
ATOM     77  C   UNL     1     -10.459   0.787   1.425  1.00  0.00     0.006 A 
ENDBRANCH  49  70
BRANCH  61  78
ATOM     78  C   UNL     1     -10.145  -7.876  -1.012  1.00  0.00     0.057 A 
ATOM     79  C   UNL     1      -9.009  -7.317  -1.618  1.00  0.00     0.134 A 
ATOM     80  C   UNL     1     -10.884  -8.781  -1.781  1.00  0.00     0.134 A 
ATOM     81  F   UNL     1      -8.186  -6.509  -0.941  1.00  0.00    -0.206 F 
ATOM     82  C   UNL     1      -8.649  -7.618  -2.937  1.00  0.00     0.040 A 
ATOM     83  C   UNL     1     -10.518  -9.116  -3.086  1.00  0.00     0.040 A 
ATOM     84  F   UNL     1     -11.955  -9.395  -1.254  1.00  0.00    -0.206 F 
ATOM     85  C   UNL     1      -9.402  -8.527  -3.673  1.00  0.00     0.006 A 
ENDBRANCH  61  78
ENDBRANCH  35  36
ENDBRANCH  27  30
ENDBRANCH  25  26
ENDBRANCH  24  25
ENDBRANCH   1  24
TORSDOF 15
