REMARK SMILES O=C(CSc1nc(-c2cccc(F)c2)n[nH]1)NCCCCNC(=O)c1ccc(-c2c3nc(c(-c4c(F)cccc4F)c4ccc([nH]4)c(-c4c(F)cccc4F)c4nc(c(-c5c(F)cccc5F)c5ccc2[nH]5)C=C4)C=C3)cc1
REMARK SMILES IDX 19 1 18 2 17 3 1 4 2 5 3 7 4 8 5 9 6 10 16 11 7 12 15 13
REMARK SMILES IDX 8 15 9 16 14 17 10 18 12 19 11 20 13 21 20 22 21 23 22 24
REMARK SMILES IDX 23 25 24 27 25 28 26 29 78 30 27 31 77 32 28 33 29 34 30 35
REMARK SMILES IDX 71 36 31 37 76 38 70 39 72 40 32 41 75 42 69 43 68 44 33 46
REMARK SMILES IDX 59 47 42 48 58 49 43 50 46 51 57 52 73 53 44 54 45 55 56 57
REMARK SMILES IDX 74 58 47 59 34 60 35 61 40 62 36 63 37 64 39 65 41 66 38 67
REMARK SMILES IDX 60 68 61 69 66 70 62 71 63 72 65 73 67 74 64 75 48 76 49 77
REMARK SMILES IDX 54 78 50 79 51 80 53 81 55 82 52 83
REMARK H PARENT 17 6 16 14 22 26 72 45 46 56
REMARK Flexibility Score: inf
ROOT
ATOM      1  C   UNL     1       2.372  -1.416  -3.153  1.00  0.00     0.023 C 
ENDROOT
BRANCH   1   2
ATOM      2  C   UNL     1       1.981  -1.741  -1.713  1.00  0.00     0.116 C 
BRANCH   2   3
ATOM      3  N   UNL     1       2.626  -0.870  -0.751  1.00  0.00    -0.355 N 
ATOM      4  O   UNL     1       0.687   0.011   0.108  1.00  0.00    -0.274 OA
ATOM      5  C   UNL     1       1.910  -0.085   0.137  1.00  0.00     0.230 C 
ATOM      6  H   UNL     1       3.609  -0.836  -0.728  1.00  0.00     0.163 HD
BRANCH   5   7
ATOM      7  C   UNL     1       2.762   0.725   1.102  1.00  0.00     0.178 C 
BRANCH   7   8
ATOM      8  S   UNL     1       3.997  -0.319   1.928  1.00  0.00    -0.077 SA
BRANCH   8   9
ATOM      9  C   UNL     1       3.000  -1.285   2.944  1.00  0.00     0.184 A 
ATOM     10  N   UNL     1       1.954  -0.941   3.652  1.00  0.00    -0.201 NA
ATOM     11  N   UNL     1       3.304  -2.587   3.167  1.00  0.00    -0.254 N 
ATOM     12  C   UNL     1       1.680  -2.090   4.370  1.00  0.00     0.182 A 
ATOM     13  N   UNL     1       2.491  -3.124   4.085  1.00  0.00    -0.153 NA
ATOM     14  H   UNL     1       4.030  -3.075   2.714  1.00  0.00     0.192 HD
BRANCH  12  15
ATOM     15  C   UNL     1       0.652  -2.164   5.396  1.00  0.00     0.024 A 
ATOM     16  C   UNL     1      -0.633  -1.652   5.172  1.00  0.00     0.012 A 
ATOM     17  C   UNL     1       0.942  -2.775   6.623  1.00  0.00     0.051 A 
ATOM     18  C   UNL     1      -1.621  -1.770   6.157  1.00  0.00     0.004 A 
ATOM     19  C   UNL     1      -0.041  -2.871   7.599  1.00  0.00     0.123 A 
ATOM     20  C   UNL     1      -1.322  -2.381   7.375  1.00  0.00     0.039 A 
ATOM     21  F   UNL     1       0.249  -3.447   8.773  1.00  0.00    -0.207 F 
ENDBRANCH  12  15
ENDBRANCH   8   9
ENDBRANCH   7   8
ENDBRANCH   5   7
ENDBRANCH   2   3
ENDBRANCH   1   2
BRANCH   1  22
ATOM     22  C   UNL     1       3.857  -1.587  -3.483  1.00  0.00     0.023 C 
BRANCH  22  23
ATOM     23  C   UNL     1       4.441  -2.972  -3.219  1.00  0.00     0.116 C 
BRANCH  23  24
ATOM     24  N   UNL     1       3.834  -4.015  -4.029  1.00  0.00    -0.352 N 
ATOM     25  C   UNL     1       4.428  -4.980  -4.807  1.00  0.00     0.251 C 
ATOM     26  H   UNL     1       2.849  -4.034  -4.018  1.00  0.00     0.163 HD
ATOM     27  O   UNL     1       3.737  -5.697  -5.526  1.00  0.00    -0.269 OA
BRANCH  25  28
ATOM     28  C   UNL     1       5.900  -5.141  -4.813  1.00  0.00     0.039 A 
ATOM     29  C   UNL     1       6.552  -5.320  -6.037  1.00  0.00     0.014 A 
ATOM     30  C   UNL     1       6.640  -5.122  -3.628  1.00  0.00     0.014 A 
ATOM     31  C   UNL     1       7.947  -5.402  -6.078  1.00  0.00     0.010 A 
ATOM     32  C   UNL     1       8.033  -5.127  -3.677  1.00  0.00     0.010 A 
ATOM     33  C   UNL     1       8.703  -5.261  -4.903  1.00  0.00    -0.014 A 
BRANCH  33  34
ATOM     34  C   UNL     1      10.189  -5.232  -4.940  1.00  0.00     0.031 A 
ATOM     35  C   UNL     1      10.992  -6.293  -4.239  1.00  0.00     0.074 A 
ATOM     36  C   UNL     1      10.820  -4.213  -5.557  1.00  0.00     0.049 A 
ATOM     37  N   UNL     1      12.291  -6.390  -4.103  1.00  0.00    -0.248 NA
ATOM     38  C   UNL     1      10.238  -7.374  -3.586  1.00  0.00     0.031 C 
ATOM     39  C   UNL     1      10.159  -3.101  -6.242  1.00  0.00     0.029 A 
ATOM     40  N   UNL     1      12.159  -3.942  -5.702  1.00  0.00    -0.354 N 
ATOM     41  C   UNL     1      12.508  -7.535  -3.348  1.00  0.00     0.074 A 
ATOM     42  C   UNL     1      11.207  -8.067  -3.005  1.00  0.00     0.031 C 
ATOM     43  C   UNL     1      11.092  -2.286  -6.759  1.00  0.00     0.029 A 
ATOM     44  C   UNL     1      12.416  -2.789  -6.404  1.00  0.00     0.049 A 
ATOM     45  H   UNL     1      12.868  -4.520  -5.337  1.00  0.00     0.167 HD
ATOM     46  C   UNL     1      13.684  -8.106  -2.995  1.00  0.00     0.037 A 
ATOM     47  C   UNL     1      13.583  -2.196  -6.722  1.00  0.00     0.037 A 
ATOM     48  C   UNL     1      14.978  -7.587  -3.355  1.00  0.00     0.049 A 
ATOM     49  C   UNL     1      14.876  -2.833  -6.295  1.00  0.00     0.074 A 
ATOM     50  C   UNL     1      16.224  -8.123  -3.082  1.00  0.00     0.029 A 
ATOM     51  N   UNL     1      15.194  -6.414  -4.063  1.00  0.00    -0.354 N 
ATOM     52  N   UNL     1      15.065  -3.941  -5.622  1.00  0.00    -0.248 NA
ATOM     53  C   UNL     1      16.117  -2.140  -6.672  1.00  0.00     0.031 C 
ATOM     54  C   UNL     1      17.195  -7.249  -3.577  1.00  0.00     0.029 A 
ATOM     55  C   UNL     1      16.554  -6.198  -4.213  1.00  0.00     0.049 A 
ATOM     56  H   UNL     1      14.486  -5.823  -4.407  1.00  0.00     0.167 HD
ATOM     57  C   UNL     1      16.442  -4.093  -5.516  1.00  0.00     0.074 A 
ATOM     58  C   UNL     1      17.041  -2.968  -6.204  1.00  0.00     0.031 C 
ATOM     59  C   UNL     1      17.143  -5.077  -4.902  1.00  0.00     0.037 A 
BRANCH  46  60
ATOM     60  C   UNL     1      13.633  -9.371  -2.188  1.00  0.00     0.057 A 
ATOM     61  C   UNL     1      14.092  -9.397  -0.864  1.00  0.00     0.134 A 
ATOM     62  C   UNL     1      13.198 -10.582  -2.743  1.00  0.00     0.134 A 
ATOM     63  F   UNL     1      14.530  -8.275  -0.273  1.00  0.00    -0.206 F 
ATOM     64  C   UNL     1      14.130 -10.582  -0.127  1.00  0.00     0.040 A 
ATOM     65  C   UNL     1      13.204 -11.768  -2.006  1.00  0.00     0.040 A 
ATOM     66  F   UNL     1      12.737 -10.626  -4.002  1.00  0.00    -0.206 F 
ATOM     67  C   UNL     1      13.682 -11.771  -0.697  1.00  0.00     0.006 A 
ENDBRANCH  46  60
BRANCH  47  68
ATOM     68  C   UNL     1      13.573  -0.939  -7.513  1.00  0.00     0.057 A 
ATOM     69  C   UNL     1      13.104   0.265  -6.973  1.00  0.00     0.134 A 
ATOM     70  C   UNL     1      14.002  -0.923  -8.845  1.00  0.00     0.134 A 
ATOM     71  F   UNL     1      12.671   0.315  -5.705  1.00  0.00    -0.206 F 
ATOM     72  C   UNL     1      13.039   1.433  -7.735  1.00  0.00     0.040 A 
ATOM     73  C   UNL     1      13.967   0.243  -9.611  1.00  0.00     0.040 A 
ATOM     74  F   UNL     1      14.480  -2.040  -9.413  1.00  0.00    -0.206 F 
ATOM     75  C   UNL     1      13.475   1.424  -9.059  1.00  0.00     0.006 A 
ENDBRANCH  47  68
BRANCH  59  76
ATOM     76  C   UNL     1      18.642  -5.009  -4.957  1.00  0.00     0.057 A 
ATOM     77  C   UNL     1      19.371  -5.946  -5.702  1.00  0.00     0.134 A 
ATOM     78  C   UNL     1      19.366  -4.077  -4.205  1.00  0.00     0.134 A 
ATOM     79  F   UNL     1      18.738  -6.874  -6.437  1.00  0.00    -0.206 F 
ATOM     80  C   UNL     1      20.766  -5.971  -5.681  1.00  0.00     0.040 A 
ATOM     81  C   UNL     1      20.762  -4.075  -4.197  1.00  0.00     0.040 A 
ATOM     82  F   UNL     1      18.729  -3.147  -3.478  1.00  0.00    -0.206 F 
ATOM     83  C   UNL     1      21.465  -5.032  -4.927  1.00  0.00     0.006 A 
ENDBRANCH  59  76
ENDBRANCH  33  34
ENDBRANCH  25  28
ENDBRANCH  23  24
ENDBRANCH  22  23
ENDBRANCH   1  22
TORSDOF 14
