REMARK SMILES Cc1ccc(C)n1-c1ccccc1S[C@H](C)C(=O)NCCCCNC(=O)c1ccc(-c2c3nc(c(-c4c(F)cccc4F)c4ccc([nH]4)c(-c4c(F)cccc4F)c4nc(c(-c5c(F)cccc5F)c5ccc2[nH]5)C=C4)C=C3)cc1
REMARK SMILES IDX 21 1 20 2 19 3 17 4 18 5 15 7 16 8 14 9 13 10 8 11 9 12
REMARK SMILES IDX 10 13 12 14 11 15 7 16 1 17 2 18 3 19 4 20 5 21 6 22 22 23
REMARK SMILES IDX 23 24 24 25 25 26 26 28 27 29 28 30 80 31 29 32 79 33 30 34
REMARK SMILES IDX 31 35 32 36 73 37 33 38 78 39 72 40 74 41 34 42 77 43 71 44
REMARK SMILES IDX 70 45 35 47 61 48 44 49 60 50 45 51 48 52 59 53 75 54 46 55
REMARK SMILES IDX 47 56 58 58 76 59 49 60 36 61 37 62 42 63 38 64 39 65 41 66
REMARK SMILES IDX 43 67 40 68 62 69 63 70 68 71 64 72 65 73 67 74 69 75 66 76
REMARK SMILES IDX 50 77 51 78 56 79 52 80 53 81 55 82 57 83 54 84
REMARK H PARENT 19 6 24 27 74 46 48 57
REMARK Flexibility Score: inf
ROOT
ATOM      1  C   UNL     1       0.836   4.167   2.149  1.00  0.00     0.023 C 
ENDROOT
BRANCH   1   2
ATOM      2  C   UNL     1       0.662   2.656   2.162  1.00  0.00     0.116 C 
BRANCH   2   3
ATOM      3  N   UNL     1      -0.621   2.185   2.627  1.00  0.00    -0.355 N 
ATOM      4  C   UNL     1      -1.422   1.204   2.130  1.00  0.00     0.233 C 
ATOM      5  O   UNL     1      -2.328   0.821   2.883  1.00  0.00    -0.274 OA
ATOM      6  H   UNL     1      -0.969   2.643   3.426  1.00  0.00     0.163 HD
BRANCH   4   7
ATOM      7  C   UNL     1      -1.363   0.687   0.689  1.00  0.00     0.137 C 
ATOM      8  C   UNL     1      -2.010   1.653  -0.284  1.00  0.00     0.030 C 
BRANCH   7   9
ATOM      9  S   UNL     1       0.161  -0.238   0.230  1.00  0.00    -0.111 SA
BRANCH   9  10
ATOM     10  C   UNL     1       1.386   0.814  -0.581  1.00  0.00     0.032 A 
ATOM     11  C   UNL     1       2.774   0.581  -0.400  1.00  0.00     0.059 A 
ATOM     12  C   UNL     1       3.735   1.497  -0.874  1.00  0.00     0.028 A 
ATOM     13  C   UNL     1       3.339   2.651  -1.541  1.00  0.00     0.002 A 
ATOM     14  C   UNL     1       1.034   1.941  -1.340  1.00  0.00     0.017 A 
ATOM     15  C   UNL     1       1.990   2.865  -1.784  1.00  0.00     0.001 A 
BRANCH  11  16
ATOM     16  N   UNL     1       3.271  -0.567   0.283  1.00  0.00    -0.317 N 
ATOM     17  C   UNL     1       2.418  -2.340  -1.357  1.00  0.00     0.065 C 
ATOM     18  C   UNL     1       3.082  -1.895  -0.097  1.00  0.00     0.020 A 
ATOM     19  C   UNL     1       3.694  -2.698   0.846  1.00  0.00     0.023 A 
ATOM     20  C   UNL     1       4.364  -1.862   1.756  1.00  0.00     0.023 A 
ATOM     21  C   UNL     1       4.132  -0.552   1.381  1.00  0.00     0.020 A 
ATOM     22  C   UNL     1       4.645   0.671   2.063  1.00  0.00     0.065 C 
ENDBRANCH  11  16
ENDBRANCH   9  10
ENDBRANCH   7   9
ENDBRANCH   4   7
ENDBRANCH   2   3
ENDBRANCH   1   2
BRANCH   1  23
ATOM     23  C   UNL     1       0.573   4.912   3.458  1.00  0.00     0.023 C 
BRANCH  23  24
ATOM     24  C   UNL     1       0.989   4.232   4.763  1.00  0.00     0.116 C 
BRANCH  24  25
ATOM     25  N   UNL     1       2.360   4.438   5.168  1.00  0.00    -0.352 N 
ATOM     26  C   UNL     1       2.862   4.125   6.412  1.00  0.00     0.251 C 
ATOM     27  H   UNL     1       2.979   4.829   4.510  1.00  0.00     0.163 HD
ATOM     28  O   UNL     1       4.069   4.323   6.653  1.00  0.00    -0.269 OA
BRANCH  26  29
ATOM     29  C   UNL     1       1.950   3.620   7.486  1.00  0.00     0.039 A 
ATOM     30  C   UNL     1       1.213   4.543   8.210  1.00  0.00     0.014 A 
ATOM     31  C   UNL     1       1.854   2.270   7.861  1.00  0.00     0.014 A 
ATOM     32  C   UNL     1       0.374   4.109   9.264  1.00  0.00     0.010 A 
ATOM     33  C   UNL     1       1.067   1.846   8.996  1.00  0.00     0.010 A 
ATOM     34  C   UNL     1       0.315   2.758   9.757  1.00  0.00    -0.014 A 
BRANCH  34  35
ATOM     35  C   UNL     1      -0.071   2.613  11.285  1.00  0.00     0.031 A 
ATOM     36  C   UNL     1       0.797   3.638  11.938  1.00  0.00     0.074 A 
ATOM     37  C   UNL     1      -0.791   1.810  12.158  1.00  0.00     0.049 A 
ATOM     38  N   UNL     1       2.093   3.583  11.779  1.00  0.00    -0.248 NA
ATOM     39  C   UNL     1       0.290   4.936  12.389  1.00  0.00     0.031 C 
ATOM     40  C   UNL     1      -1.494   0.554  11.859  1.00  0.00     0.029 A 
ATOM     41  N   UNL     1      -1.077   1.929  13.549  1.00  0.00    -0.354 N 
ATOM     42  C   UNL     1       2.595   4.706  12.386  1.00  0.00     0.074 A 
ATOM     43  C   UNL     1       1.448   5.597  12.497  1.00  0.00     0.031 C 
ATOM     44  C   UNL     1      -2.211   0.112  12.934  1.00  0.00     0.029 A 
ATOM     45  C   UNL     1      -2.031   0.994  14.085  1.00  0.00     0.049 A 
ATOM     46  H   UNL     1      -0.646   2.612  14.112  1.00  0.00     0.167 HD
ATOM     47  C   UNL     1       3.569   4.486  13.315  1.00  0.00     0.037 A 
ATOM     48  C   UNL     1      -2.587   0.886  15.355  1.00  0.00     0.037 A 
ATOM     49  C   UNL     1       3.052   4.553  14.654  1.00  0.00     0.049 A 
ATOM     50  C   UNL     1      -1.652   1.548  16.269  1.00  0.00     0.074 A 
ATOM     51  C   UNL     1       2.205   5.433  15.300  1.00  0.00     0.029 A 
ATOM     52  N   UNL     1       3.010   3.373  15.361  1.00  0.00    -0.354 N 
ATOM     53  N   UNL     1      -0.577   0.956  16.685  1.00  0.00    -0.248 NA
ATOM     54  C   UNL     1      -1.918   2.863  16.841  1.00  0.00     0.031 C 
ATOM     55  C   UNL     1       1.325   4.613  16.041  1.00  0.00     0.029 A 
ATOM     56  C   UNL     1       1.869   3.341  16.133  1.00  0.00     0.049 A 
ATOM     57  H   UNL     1       3.689   2.662  15.321  1.00  0.00     0.167 HD
ATOM     58  C   UNL     1       0.182   1.984  17.136  1.00  0.00     0.074 A 
ATOM     59  C   UNL     1      -0.752   3.043  17.465  1.00  0.00     0.031 C 
ATOM     60  C   UNL     1       1.435   2.062  16.633  1.00  0.00     0.037 A 
BRANCH  47  61
ATOM     61  C   UNL     1       4.645   3.538  12.867  1.00  0.00     0.057 A 
ATOM     62  C   UNL     1       5.920   4.038  12.598  1.00  0.00     0.134 A 
ATOM     63  C   UNL     1       4.419   2.180  12.570  1.00  0.00     0.134 A 
ATOM     64  F   UNL     1       6.231   5.304  12.915  1.00  0.00    -0.206 F 
ATOM     65  C   UNL     1       6.901   3.249  11.989  1.00  0.00     0.040 A 
ATOM     66  C   UNL     1       5.367   1.401  11.908  1.00  0.00     0.040 A 
ATOM     67  F   UNL     1       3.272   1.577  12.924  1.00  0.00    -0.206 F 
ATOM     68  C   UNL     1       6.612   1.941  11.605  1.00  0.00     0.006 A 
ENDBRANCH  47  61
BRANCH  48  69
ATOM     69  C   UNL     1      -3.700   0.205  16.181  1.00  0.00     0.057 A 
ATOM     70  C   UNL     1      -3.543  -0.034  17.589  1.00  0.00     0.134 A 
ATOM     71  C   UNL     1      -5.031   0.136  15.760  1.00  0.00     0.134 A 
ATOM     72  F   UNL     1      -2.336  -0.058  18.172  1.00  0.00    -0.206 F 
ATOM     73  C   UNL     1      -4.604  -0.191  18.499  1.00  0.00     0.040 A 
ATOM     74  C   UNL     1      -6.109  -0.061  16.666  1.00  0.00     0.040 A 
ATOM     75  F   UNL     1      -5.344   0.341  14.474  1.00  0.00    -0.206 F 
ATOM     76  C   UNL     1      -5.904  -0.184  18.040  1.00  0.00     0.006 A 
ENDBRANCH  48  69
BRANCH  60  77
ATOM     77  C   UNL     1       2.209   0.766  16.481  1.00  0.00     0.057 A 
ATOM     78  C   UNL     1       1.787  -0.420  15.843  1.00  0.00     0.134 A 
ATOM     79  C   UNL     1       3.477   0.718  17.076  1.00  0.00     0.134 A 
ATOM     80  F   UNL     1       0.649  -0.495  15.139  1.00  0.00    -0.206 F 
ATOM     81  C   UNL     1       2.553  -1.594  15.874  1.00  0.00     0.040 A 
ATOM     82  C   UNL     1       4.273  -0.430  17.063  1.00  0.00     0.040 A 
ATOM     83  F   UNL     1       3.980   1.809  17.674  1.00  0.00    -0.206 F 
ATOM     84  C   UNL     1       3.802  -1.600  16.482  1.00  0.00     0.006 A 
ENDBRANCH  60  77
ENDBRANCH  34  35
ENDBRANCH  26  29
ENDBRANCH  24  25
ENDBRANCH  23  24
ENDBRANCH   1  23
TORSDOF 14
