REMARK SMILES COc1ccc([C@@H]2C(C#N)=C(N)N3C(=O)[C@H](CC(=O)NCCCCNC(=O)c4ccc(-c5c6nc(c(-c7c(F)cccc7F)c7ccc([nH]7)c(-c7c(F)cccc7F)c7nc(c(-c8c(F)cccc8F)c8ccc5[nH]8)C=C7)C=C6)cc4)SC3=C2C#N)cc1
REMARK SMILES IDX 22 1 21 2 20 3 18 4 19 5 17 7 16 8 7 9 8 10 84 11 11 12
REMARK SMILES IDX 83 13 13 14 82 15 14 16 15 17 6 18 3 19 4 20 88 21 5 22
REMARK SMILES IDX 87 23 2 24 1 25 9 26 10 27 85 28 86 29 12 30 23 33 24 34
REMARK SMILES IDX 25 35 26 36 27 38 28 39 29 40 81 41 30 42 80 43 31 44 32 45
REMARK SMILES IDX 33 46 74 47 34 48 79 49 73 50 75 51 35 52 78 53 72 54 71 55
REMARK SMILES IDX 36 57 62 58 45 59 61 60 46 61 49 62 60 63 76 64 47 65 48 66
REMARK SMILES IDX 59 68 77 69 50 70 37 71 38 72 43 73 39 74 40 75 42 76 44 77
REMARK SMILES IDX 41 78 63 79 64 80 69 81 65 82 66 83 68 84 70 85 67 86 51 87
REMARK SMILES IDX 52 88 57 89 53 90 54 91 56 92 58 93 55 94
REMARK H PARENT 20 6 12 31 12 32 25 37 75 56 49 67
REMARK Flexibility Score: inf
ROOT
ATOM      1  C   UNL     1       6.580   5.342  -9.517  1.00  0.00     0.023 C 
ENDROOT
BRANCH   1   2
ATOM      2  C   UNL     1       7.353   5.837  -8.295  1.00  0.00     0.116 C 
BRANCH   2   3
ATOM      3  N   UNL     1       7.265   7.277  -8.194  1.00  0.00    -0.356 N 
ATOM      4  C   UNL     1       6.590   8.032  -7.285  1.00  0.00     0.221 C 
ATOM      5  O   UNL     1       6.467   9.239  -7.489  1.00  0.00    -0.275 OA
ATOM      6  H   UNL     1       7.762   7.781  -8.879  1.00  0.00     0.163 HD
BRANCH   4   7
ATOM      7  C   UNL     1       6.034   7.389  -6.033  1.00  0.00     0.125 C 
BRANCH   7   8
ATOM      8  C   UNL     1       4.578   6.986  -6.204  1.00  0.00     0.152 C 
ATOM      9  C   UNL     1       2.186   2.829  -5.440  1.00  0.00     0.107 C 
ATOM     10  C   UNL     1       3.292   2.401  -6.434  1.00  0.00     0.083 C 
ATOM     11  C   UNL     1       2.514   4.116  -4.698  1.00  0.00     0.073 C 
ATOM     12  C   UNL     1       4.239   3.280  -6.811  1.00  0.00     0.126 C 
ATOM     13  C   UNL     1       3.506   4.884  -5.157  1.00  0.00     0.099 C 
ATOM     14  N   UNL     1       4.180   4.594  -6.318  1.00  0.00    -0.258 N 
ATOM     15  S   UNL     1       3.884   6.477  -4.584  1.00  0.00    -0.093 SA
ATOM     16  C   UNL     1       4.373   5.749  -7.072  1.00  0.00     0.247 C 
ATOM     17  O   UNL     1       4.210   5.811  -8.282  1.00  0.00    -0.273 OA
BRANCH   9  18
ATOM     18  C   UNL     1       1.801   1.773  -4.404  1.00  0.00    -0.034 A 
ATOM     19  C   UNL     1       0.961   0.243  -2.211  1.00  0.00     0.118 A 
ATOM     20  C   UNL     1       0.042   0.626  -3.185  1.00  0.00     0.047 A 
ATOM     21  C   UNL     1       2.311   0.555  -2.366  1.00  0.00     0.047 A 
ATOM     22  C   UNL     1       0.454   1.394  -4.274  1.00  0.00     0.008 A 
ATOM     23  C   UNL     1       2.732   1.317  -3.457  1.00  0.00     0.008 A 
BRANCH  19  24
ATOM     24  O   UNL     1       0.469  -0.472  -1.154  1.00  0.00    -0.497 OA
ATOM     25  C   UNL     1       0.947  -0.015   0.110  1.00  0.00     0.278 C 
ENDBRANCH  19  24
ENDBRANCH   9  18
BRANCH  10  26
ATOM     26  C   UNL     1       3.234   0.928  -6.805  1.00  0.00     0.100 C 
ATOM     27  N   UNL     1       3.186  -0.294  -7.113  1.00  0.00    -0.193 NA
ENDBRANCH  10  26
BRANCH  11  28
ATOM     28  C   UNL     1       1.680   4.554  -3.624  1.00  0.00     0.098 C 
ATOM     29  N   UNL     1       0.991   4.922  -2.764  1.00  0.00    -0.193 NA
ENDBRANCH  11  28
BRANCH  12  30
ATOM     30  N   UNL     1       5.292   2.867  -7.582  1.00  0.00    -0.384 N 
ATOM     31  H   UNL     1       5.322   1.943  -7.921  1.00  0.00     0.158 HD
ATOM     32  H   UNL     1       6.020   3.494  -7.798  1.00  0.00     0.158 HD
ENDBRANCH  12  30
ENDBRANCH   7   8
ENDBRANCH   4   7
ENDBRANCH   2   3
ENDBRANCH   1   2
BRANCH   1  33
ATOM     33  C   UNL     1       7.323   5.334 -10.824  1.00  0.00     0.023 C 
BRANCH  33  34
ATOM     34  C   UNL     1       8.617   4.564 -10.774  1.00  0.00     0.116 C 
BRANCH  34  35
ATOM     35  N   UNL     1       8.452   3.162 -10.398  1.00  0.00    -0.352 N 
ATOM     36  C   UNL     1       8.835   2.042 -11.100  1.00  0.00     0.251 C 
ATOM     37  H   UNL     1       8.012   2.998  -9.532  1.00  0.00     0.163 HD
ATOM     38  O   UNL     1       8.528   0.919 -10.720  1.00  0.00    -0.269 OA
BRANCH  36  39
ATOM     39  C   UNL     1       9.585   2.246 -12.354  1.00  0.00     0.039 A 
ATOM     40  C   UNL     1       9.113   1.676 -13.536  1.00  0.00     0.014 A 
ATOM     41  C   UNL     1      10.638   3.162 -12.367  1.00  0.00     0.014 A 
ATOM     42  C   UNL     1       9.636   2.115 -14.752  1.00  0.00     0.010 A 
ATOM     43  C   UNL     1      11.033   3.707 -13.576  1.00  0.00     0.010 A 
ATOM     44  C   UNL     1      10.552   3.179 -14.784  1.00  0.00    -0.014 A 
BRANCH  44  45
ATOM     45  C   UNL     1      11.068   3.747 -16.053  1.00  0.00     0.031 A 
ATOM     46  C   UNL     1      12.553   3.762 -16.292  1.00  0.00     0.074 A 
ATOM     47  C   UNL     1      10.230   4.325 -16.936  1.00  0.00     0.049 A 
ATOM     48  N   UNL     1      13.232   4.330 -17.254  1.00  0.00    -0.248 NA
ATOM     49  C   UNL     1      13.392   3.083 -15.288  1.00  0.00     0.031 C 
ATOM     50  C   UNL     1       8.774   4.413 -16.800  1.00  0.00     0.029 A 
ATOM     51  N   UNL     1      10.489   4.965 -18.123  1.00  0.00    -0.354 N 
ATOM     52  C   UNL     1      14.568   4.095 -16.955  1.00  0.00     0.074 A 
ATOM     53  C   UNL     1      14.610   3.408 -15.686  1.00  0.00     0.031 C 
ATOM     54  C   UNL     1       8.269   5.040 -17.875  1.00  0.00     0.029 A 
ATOM     55  C   UNL     1       9.364   5.450 -18.747  1.00  0.00     0.049 A 
ATOM     56  H   UNL     1      11.396   5.066 -18.493  1.00  0.00     0.167 HD
ATOM     57  C   UNL     1      15.663   4.394 -17.690  1.00  0.00     0.037 A 
ATOM     58  C   UNL     1       9.236   6.162 -19.884  1.00  0.00     0.037 A 
ATOM     59  C   UNL     1      15.613   5.056 -18.963  1.00  0.00     0.049 A 
ATOM     60  C   UNL     1      10.472   6.521 -20.665  1.00  0.00     0.074 A 
ATOM     61  C   UNL     1      16.658   5.361 -19.815  1.00  0.00     0.029 A 
ATOM     62  N   UNL     1      14.453   5.522 -19.564  1.00  0.00    -0.354 N 
ATOM     63  N   UNL     1      11.726   6.238 -20.405  1.00  0.00    -0.248 NA
ATOM     64  C   UNL     1      10.279   7.298 -21.898  1.00  0.00     0.031 C 
ATOM     65  C   UNL     1      16.140   6.074 -20.898  1.00  0.00     0.029 A 
ATOM     66  C   UNL     1      14.762   6.141 -20.762  1.00  0.00     0.049 A 
ATOM     67  H   UNL     1      13.545   5.426 -19.195  1.00  0.00     0.167 HD
ATOM     68  C   UNL     1      12.464   6.763 -21.459  1.00  0.00     0.074 A 
ATOM     69  C   UNL     1      11.518   7.380 -22.364  1.00  0.00     0.031 C 
ATOM     70  C   UNL     1      13.803   6.731 -21.662  1.00  0.00     0.037 A 
BRANCH  57  71
ATOM     71  C   UNL     1      17.002   4.011 -17.128  1.00  0.00     0.057 A 
ATOM     72  C   UNL     1      17.388   2.672 -16.972  1.00  0.00     0.134 A 
ATOM     73  C   UNL     1      17.927   4.995 -16.757  1.00  0.00     0.134 A 
ATOM     74  F   UNL     1      16.545   1.678 -17.293  1.00  0.00    -0.206 F 
ATOM     75  C   UNL     1      18.629   2.327 -16.436  1.00  0.00     0.040 A 
ATOM     76  C   UNL     1      19.186   4.662 -16.255  1.00  0.00     0.040 A 
ATOM     77  F   UNL     1      17.626   6.296 -16.883  1.00  0.00    -0.206 F 
ATOM     78  C   UNL     1      19.536   3.324 -16.084  1.00  0.00     0.006 A 
ENDBRANCH  57  71
BRANCH  58  79
ATOM     79  C   UNL     1       7.889   6.576 -20.362  1.00  0.00     0.057 A 
ATOM     80  C   UNL     1       7.348   6.054 -21.543  1.00  0.00     0.134 A 
ATOM     81  C   UNL     1       7.119   7.515 -19.664  1.00  0.00     0.134 A 
ATOM     82  F   UNL     1       8.042   5.163 -22.267  1.00  0.00    -0.206 F 
ATOM     83  C   UNL     1       6.106   6.468 -22.027  1.00  0.00     0.040 A 
ATOM     84  C   UNL     1       5.861   7.915 -20.119  1.00  0.00     0.040 A 
ATOM     85  F   UNL     1       7.573   8.049 -18.521  1.00  0.00    -0.206 F 
ATOM     86  C   UNL     1       5.356   7.398 -21.311  1.00  0.00     0.006 A 
ENDBRANCH  58  79
BRANCH  70  87
ATOM     87  C   UNL     1      14.334   7.321 -22.936  1.00  0.00     0.057 A 
ATOM     88  C   UNL     1      14.366   8.701 -23.164  1.00  0.00     0.134 A 
ATOM     89  C   UNL     1      14.908   6.491 -23.910  1.00  0.00     0.134 A 
ATOM     90  F   UNL     1      13.825   9.550 -22.277  1.00  0.00    -0.206 F 
ATOM     91  C   UNL     1      14.939   9.235 -24.320  1.00  0.00     0.040 A 
ATOM     92  C   UNL     1      15.513   7.014 -25.052  1.00  0.00     0.040 A 
ATOM     93  F   UNL     1      14.922   5.159 -23.747  1.00  0.00    -0.206 F 
ATOM     94  C   UNL     1      15.526   8.391 -25.261  1.00  0.00     0.006 A 
ENDBRANCH  70  87
ENDBRANCH  44  45
ENDBRANCH  36  39
ENDBRANCH  34  35
ENDBRANCH  33  34
ENDBRANCH   1  33
TORSDOF 17
