REMARK SMILES C[C@H]1N=N[C@H](S/C(=C/c2ccc(-c3cccc(Cl)c3)o2)C(=O)NCCCCNC(=O)c2ccc(-c3c4nc(c(-c5c(F)cccc5F)c5ccc([nH]5)c(-c5c(F)cccc5F)c5nc(c(-c6c(F)cccc6F)c6ccc3[nH]6)C=C5)C=C4)cc2)[NH2+]1
REMARK SMILES IDX 25 1 24 2 23 3 21 4 22 5 7 7 8 8 6 9 5 10 1 11 2 12 3 13
REMARK SMILES IDX 85 14 4 15 9 18 10 19 20 20 11 21 12 22 13 23 14 24 19 25
REMARK SMILES IDX 15 26 17 27 16 28 18 29 26 30 27 31 28 32 29 33 30 35 31 36
REMARK SMILES IDX 32 37 84 38 33 39 83 40 34 41 35 42 36 43 77 44 37 45 82 46
REMARK SMILES IDX 76 47 78 48 38 49 81 50 75 51 74 52 39 54 65 55 48 56 64 57
REMARK SMILES IDX 49 58 52 59 63 60 79 61 50 62 51 63 62 65 80 66 53 67 40 68
REMARK SMILES IDX 41 69 46 70 42 71 43 72 45 73 47 74 44 75 66 76 67 77 72 78
REMARK SMILES IDX 68 79 69 80 71 81 73 82 70 83 54 84 55 85 60 86 56 87 57 88
REMARK SMILES IDX 59 89 61 90 58 91
REMARK H PARENT 23 6 85 16 85 17 28 34 78 53 52 64
REMARK Flexibility Score: inf
ROOT
ATOM      1  C   UNL     1      -7.432   1.170   1.682  1.00  0.00     0.023 C 
ENDROOT
BRANCH   1   2
ATOM      2  C   UNL     1      -6.411   1.951   0.868  1.00  0.00     0.116 C 
BRANCH   2   3
ATOM      3  N   UNL     1      -5.931   3.192   1.426  1.00  0.00    -0.352 N 
ATOM      4  C   UNL     1      -4.831   3.926   1.059  1.00  0.00     0.258 C 
ATOM      5  O   UNL     1      -4.745   5.074   1.502  1.00  0.00    -0.269 OA
ATOM      6  H   UNL     1      -6.462   3.561   2.167  1.00  0.00     0.163 HD
BRANCH   4   7
ATOM      7  C   UNL     1      -3.703   3.343   0.226  1.00  0.00     0.084 C 
ATOM      8  C   UNL     1      -3.807   2.799  -1.000  1.00  0.00     0.068 C 
BRANCH   7   9
ATOM      9  S   UNL     1      -2.147   3.523   1.050  1.00  0.00    -0.030 SA
BRANCH   9  10
ATOM     10  C   UNL     1      -0.865   3.060  -0.166  1.00  0.00     0.393 C 
ATOM     11  C   UNL     1       1.152   0.128   0.017  1.00  0.00     0.106 C 
ATOM     12  C   UNL     1       0.378   1.335   0.522  1.00  0.00     0.324 C 
ATOM     13  N   UNL     1       1.224   2.536   0.469  1.00  0.00    -0.126 NA
ATOM     14  N   UNL     1      -0.806   1.599  -0.298  1.00  0.00    -0.293 N 
ATOM     15  N   UNL     1       0.513   3.518   0.136  1.00  0.00    -0.115 NA
ATOM     16  H   UNL     1      -1.639   1.148   0.080  1.00  0.00     0.350 HD
ATOM     17  H   UNL     1      -0.760   1.250  -1.255  1.00  0.00     0.350 HD
ENDBRANCH   9  10
ENDBRANCH   7   9
BRANCH   8  18
ATOM     18  C   UNL     1      -4.992   2.626  -1.751  1.00  0.00     0.128 A 
ATOM     19  C   UNL     1      -5.839   3.535  -2.366  1.00  0.00     0.051 A 
ATOM     20  O   UNL     1      -5.483   1.366  -1.997  1.00  0.00    -0.457 OA
ATOM     21  C   UNL     1      -6.897   2.796  -2.963  1.00  0.00     0.051 A 
ATOM     22  C   UNL     1      -6.663   1.471  -2.664  1.00  0.00     0.134 A 
BRANCH  22  23
ATOM     23  C   UNL     1      -7.423   0.234  -2.804  1.00  0.00     0.019 A 
ATOM     24  C   UNL     1      -8.401   0.104  -3.796  1.00  0.00     0.012 A 
ATOM     25  C   UNL     1      -7.271  -0.806  -1.871  1.00  0.00     0.032 A 
ATOM     26  C   UNL     1      -9.225  -1.025  -3.843  1.00  0.00     0.002 A 
ATOM     27  C   UNL     1      -8.108  -1.922  -1.911  1.00  0.00     0.041 A 
ATOM     28  C   UNL     1      -9.087  -2.035  -2.892  1.00  0.00     0.020 A 
ATOM     29  Cl  UNL     1      -7.956  -3.145  -0.709  1.00  0.00    -0.084 Cl
ENDBRANCH  22  23
ENDBRANCH   8  18
ENDBRANCH   4   7
ENDBRANCH   2   3
ENDBRANCH   1   2
BRANCH   1  30
ATOM     30  C   UNL     1      -8.787   1.836   1.933  1.00  0.00     0.023 C 
BRANCH  30  31
ATOM     31  C   UNL     1      -9.418   2.654   0.807  1.00  0.00     0.116 C 
BRANCH  31  32
ATOM     32  N   UNL     1      -9.709   1.926  -0.421  1.00  0.00    -0.352 N 
ATOM     33  C   UNL     1     -10.896   1.759  -1.105  1.00  0.00     0.251 C 
ATOM     34  H   UNL     1      -8.932   1.480  -0.830  1.00  0.00     0.163 HD
ATOM     35  O   UNL     1     -10.928   1.197  -2.188  1.00  0.00    -0.269 OA
BRANCH  33  36
ATOM     36  C   UNL     1     -12.164   2.202  -0.497  1.00  0.00     0.039 A 
ATOM     37  C   UNL     1     -13.185   1.259  -0.339  1.00  0.00     0.014 A 
ATOM     38  C   UNL     1     -12.324   3.504  -0.030  1.00  0.00     0.014 A 
ATOM     39  C   UNL     1     -14.309   1.583   0.420  1.00  0.00     0.010 A 
ATOM     40  C   UNL     1     -13.401   3.800   0.797  1.00  0.00     0.010 A 
ATOM     41  C   UNL     1     -14.383   2.830   1.059  1.00  0.00    -0.014 A 
BRANCH  41  42
ATOM     42  C   UNL     1     -15.434   3.123   2.065  1.00  0.00     0.031 A 
ATOM     43  C   UNL     1     -16.393   4.255   1.845  1.00  0.00     0.074 A 
ATOM     44  C   UNL     1     -15.439   2.444   3.229  1.00  0.00     0.049 A 
ATOM     45  N   UNL     1     -17.269   4.768   2.670  1.00  0.00    -0.248 NA
ATOM     46  C   UNL     1     -16.334   4.922   0.535  1.00  0.00     0.031 C 
ATOM     47  C   UNL     1     -14.520   1.358   3.584  1.00  0.00     0.029 A 
ATOM     48  N   UNL     1     -16.230   2.581   4.343  1.00  0.00    -0.354 N 
ATOM     49  C   UNL     1     -17.845   5.833   1.991  1.00  0.00     0.074 A 
ATOM     50  C   UNL     1     -17.190   5.919   0.703  1.00  0.00     0.031 C 
ATOM     51  C   UNL     1     -14.812   0.918   4.818  1.00  0.00     0.029 A 
ATOM     52  C   UNL     1     -15.903   1.718   5.361  1.00  0.00     0.049 A 
ATOM     53  H   UNL     1     -16.962   3.236   4.406  1.00  0.00     0.167 HD
ATOM     54  C   UNL     1     -18.841   6.653   2.399  1.00  0.00     0.037 A 
ATOM     55  C   UNL     1     -16.415   1.596   6.600  1.00  0.00     0.037 A 
ATOM     56  C   UNL     1     -19.512   6.540   3.667  1.00  0.00     0.049 A 
ATOM     57  C   UNL     1     -17.525   2.514   7.026  1.00  0.00     0.074 A 
ATOM     58  C   UNL     1     -20.582   7.275   4.146  1.00  0.00     0.029 A 
ATOM     59  N   UNL     1     -19.174   5.630   4.659  1.00  0.00    -0.354 N 
ATOM     60  N   UNL     1     -18.102   3.478   6.351  1.00  0.00    -0.248 NA
ATOM     61  C   UNL     1     -18.053   2.330   8.385  1.00  0.00     0.031 C 
ATOM     62  C   UNL     1     -20.871   6.832   5.441  1.00  0.00     0.029 A 
ATOM     63  C   UNL     1     -20.004   5.797   5.754  1.00  0.00     0.049 A 
ATOM     64  H   UNL     1     -18.452   4.964   4.593  1.00  0.00     0.167 HD
ATOM     65  C   UNL     1     -19.074   4.002   7.193  1.00  0.00     0.074 A 
ATOM     66  C   UNL     1     -19.017   3.240   8.424  1.00  0.00     0.031 C 
ATOM     67  C   UNL     1     -19.935   5.023   6.967  1.00  0.00     0.037 A 
BRANCH  54  68
ATOM     68  C   UNL     1     -19.267   7.740   1.458  1.00  0.00     0.057 A 
ATOM     69  C   UNL     1     -19.973   7.462   0.281  1.00  0.00     0.134 A 
ATOM     70  C   UNL     1     -18.985   9.082   1.742  1.00  0.00     0.134 A 
ATOM     71  F   UNL     1     -20.262   6.195  -0.055  1.00  0.00    -0.206 F 
ATOM     72  C   UNL     1     -20.359   8.476  -0.596  1.00  0.00     0.040 A 
ATOM     73  C   UNL     1     -19.388  10.108   0.885  1.00  0.00     0.040 A 
ATOM     74  F   UNL     1     -18.316   9.418   2.855  1.00  0.00    -0.206 F 
ATOM     75  C   UNL     1     -20.072   9.805  -0.291  1.00  0.00     0.006 A 
ENDBRANCH  54  68
BRANCH  55  76
ATOM     76  C   UNL     1     -15.893   0.557   7.522  1.00  0.00     0.057 A 
ATOM     77  C   UNL     1     -16.660  -0.569   7.842  1.00  0.00     0.134 A 
ATOM     78  C   UNL     1     -14.624   0.660   8.105  1.00  0.00     0.134 A 
ATOM     79  F   UNL     1     -17.891  -0.714   7.328  1.00  0.00    -0.206 F 
ATOM     80  C   UNL     1     -16.193  -1.548   8.720  1.00  0.00     0.040 A 
ATOM     81  C   UNL     1     -14.135  -0.323   8.968  1.00  0.00     0.040 A 
ATOM     82  F   UNL     1     -13.838   1.711   7.834  1.00  0.00    -0.206 F 
ATOM     83  C   UNL     1     -14.924  -1.428   9.282  1.00  0.00     0.006 A 
ENDBRANCH  55  76
BRANCH  67  84
ATOM     84  C   UNL     1     -20.901   5.357   8.062  1.00  0.00     0.057 A 
ATOM     85  C   UNL     1     -20.498   6.042   9.214  1.00  0.00     0.134 A 
ATOM     86  C   UNL     1     -22.259   5.036   7.938  1.00  0.00     0.134 A 
ATOM     87  F   UNL     1     -19.209   6.364   9.398  1.00  0.00    -0.206 F 
ATOM     88  C   UNL     1     -21.411   6.386  10.213  1.00  0.00     0.040 A 
ATOM     89  C   UNL     1     -23.184   5.394   8.918  1.00  0.00     0.040 A 
ATOM     90  F   UNL     1     -22.708   4.386   6.854  1.00  0.00    -0.206 F 
ATOM     91  C   UNL     1     -22.760   6.069  10.061  1.00  0.00     0.006 A 
ENDBRANCH  67  84
ENDBRANCH  41  42
ENDBRANCH  33  36
ENDBRANCH  31  32
ENDBRANCH  30  31
ENDBRANCH   1  30
TORSDOF 15
