REMARK SMILES Cc1ccc(S(=O)(=O)n2cc(C(=O)C(=O)N[C@@H](Cc3c[nH]c4ccccc34)C(=O)NCCCCNC(=O)c3ccc(-c4c5nc(c(-c6c(F)cccc6F)c6ccc([nH]6)c(-c6c(F)cccc6F)c6nc(c(-c7c(F)cccc7F)c7ccc4[nH]7)C=C6)C=C5)cc3)c3ccccc32)cc1
REMARK SMILES IDX 31 1 30 2 28 3 29 4 17 6 16 7 14 8 15 9 12 11 13 12 11 13
REMARK SMILES IDX 9 14 10 15 97 16 92 17 96 18 93 19 95 20 94 21 6 22 7 23
REMARK SMILES IDX 8 24 5 25 1 26 2 27 3 28 99 29 4 30 98 31 18 32 19 33 20 34
REMARK SMILES IDX 27 35 21 36 22 37 26 38 23 40 25 41 24 42 32 43 33 44 34 45
REMARK SMILES IDX 35 46 36 47 37 49 38 50 39 51 91 52 40 53 90 54 41 55 42 56
REMARK SMILES IDX 43 57 84 58 44 59 89 60 83 61 85 62 45 63 88 64 82 65 81 66
REMARK SMILES IDX 46 68 72 69 55 70 71 71 56 72 59 73 70 74 86 75 57 76 58 77
REMARK SMILES IDX 69 79 87 80 60 81 47 82 48 83 53 84 49 85 50 86 52 87 54 88
REMARK SMILES IDX 51 89 73 90 74 91 79 92 75 93 76 94 78 95 80 96 77 97 61 98
REMARK SMILES IDX 62 99 67 100 63 101 64 102 66 103 68 104 65 105
REMARK H PARENT 30 5 16 10 21 39 35 48 85 67 59 78
REMARK Flexibility Score: inf
ROOT
ATOM      1  C   UNL     1     -12.035   4.322  -1.554  1.00  0.00     0.116 C 
ENDROOT
BRANCH   1   2
ATOM      2  N   UNL     1     -11.927   2.981  -2.082  1.00  0.00    -0.354 N 
ATOM      3  C   UNL     1     -11.559   1.841  -1.413  1.00  0.00     0.242 C 
ATOM      4  O   UNL     1     -12.075   0.786  -1.803  1.00  0.00    -0.273 OA
ATOM      5  H   UNL     1     -12.144   2.873  -3.037  1.00  0.00     0.163 HD
BRANCH   3   6
ATOM      6  C   UNL     1     -10.659   1.841  -0.139  1.00  0.00     0.176 C 
BRANCH   6   7
ATOM      7  N   UNL     1      -9.504   2.766  -0.182  1.00  0.00    -0.337 N 
ATOM      8  C   UNL     1      -8.165   2.543  -0.477  1.00  0.00     0.293 C 
ATOM      9  O   UNL     1      -7.343   3.445  -0.343  1.00  0.00    -0.265 OA
ATOM     10  H   UNL     1      -9.722   3.701   0.036  1.00  0.00     0.164 HD
BRANCH   8  11
ATOM     11  C   UNL     1      -7.699   1.185  -1.009  1.00  0.00     0.252 C 
ATOM     12  O   UNL     1      -8.391   0.705  -1.908  1.00  0.00    -0.283 OA
BRANCH  11  13
ATOM     13  C   UNL     1      -6.572   0.433  -0.419  1.00  0.00     0.054 A 
ATOM     14  N   UNL     1      -4.621  -0.287   0.498  1.00  0.00    -0.240 N 
ATOM     15  C   UNL     1      -5.279   0.825  -0.037  1.00  0.00     0.117 A 
ATOM     16  C   UNL     1      -5.579  -1.307   0.642  1.00  0.00     0.065 A 
ATOM     17  C   UNL     1      -6.610  -0.984  -0.234  1.00  0.00     0.012 A 
ATOM     18  C   UNL     1      -5.483  -2.587   1.225  1.00  0.00     0.028 A 
ATOM     19  C   UNL     1      -7.446  -2.022  -0.700  1.00  0.00     0.011 A 
ATOM     20  C   UNL     1      -6.272  -3.607   0.697  1.00  0.00     0.002 A 
ATOM     21  C   UNL     1      -7.213  -3.337  -0.287  1.00  0.00     0.001 A 
BRANCH  14  22
ATOM     22  S   UNL     1      -3.081  -0.943  -0.028  1.00  0.00     0.268 S 
ATOM     23  O   UNL     1      -3.344  -1.333  -1.403  1.00  0.00    -0.201 OA
ATOM     24  O   UNL     1      -2.808  -1.941   0.999  1.00  0.00    -0.201 OA
BRANCH  22  25
ATOM     25  C   UNL     1      -1.538  -0.104  -0.079  1.00  0.00     0.088 A 
ATOM     26  C   UNL     1       2.654   0.965  -0.034  1.00  0.00     0.044 C 
ATOM     27  C   UNL     1       1.188   0.640  -0.092  1.00  0.00    -0.051 A 
ATOM     28  C   UNL     1       0.839  -0.676  -0.354  1.00  0.00     0.005 A 
ATOM     29  C   UNL     1       0.162   1.581   0.159  1.00  0.00     0.005 A 
ATOM     30  C   UNL     1      -0.498  -1.030  -0.359  1.00  0.00     0.022 A 
ATOM     31  C   UNL     1      -1.212   1.216   0.173  1.00  0.00     0.022 A 
ENDBRANCH  22  25
ENDBRANCH  14  22
ENDBRANCH  11  13
ENDBRANCH   8  11
ENDBRANCH   6   7
BRANCH   6  32
ATOM     32  C   UNL     1     -11.489   1.910   1.190  1.00  0.00     0.072 C 
BRANCH  32  33
ATOM     33  C   UNL     1     -12.186   3.208   1.528  1.00  0.00    -0.020 A 
ATOM     34  C   UNL     1     -13.555   3.425   1.542  1.00  0.00     0.087 A 
ATOM     35  C   UNL     1     -11.581   4.477   1.835  1.00  0.00     0.003 A 
ATOM     36  N   UNL     1     -13.779   4.763   1.738  1.00  0.00    -0.361 N 
ATOM     37  C   UNL     1     -12.585   5.441   1.734  1.00  0.00     0.046 A 
ATOM     38  C   UNL     1     -10.255   4.917   2.022  1.00  0.00     0.010 A 
ATOM     39  H   UNL     1     -14.663   5.177   1.862  1.00  0.00     0.166 HD
ATOM     40  C   UNL     1     -12.315   6.811   1.639  1.00  0.00     0.026 A 
ATOM     41  C   UNL     1      -9.964   6.281   1.921  1.00  0.00     0.001 A 
ATOM     42  C   UNL     1     -10.977   7.209   1.696  1.00  0.00     0.002 A 
ENDBRANCH  32  33
ENDBRANCH   6  32
ENDBRANCH   3   6
ENDBRANCH   1   2
BRANCH   1  43
ATOM     43  C   UNL     1     -11.363   5.433  -2.350  1.00  0.00     0.023 C 
BRANCH  43  44
ATOM     44  C   UNL     1     -12.076   5.884  -3.618  1.00  0.00     0.023 C 
BRANCH  44  45
ATOM     45  C   UNL     1     -13.482   6.442  -3.424  1.00  0.00     0.116 C 
BRANCH  45  46
ATOM     46  N   UNL     1     -13.574   7.790  -2.886  1.00  0.00    -0.352 N 
ATOM     47  C   UNL     1     -14.692   8.557  -2.575  1.00  0.00     0.251 C 
ATOM     48  H   UNL     1     -12.709   8.228  -2.714  1.00  0.00     0.163 HD
ATOM     49  O   UNL     1     -14.536   9.711  -2.221  1.00  0.00    -0.269 OA
BRANCH  47  50
ATOM     50  C   UNL     1     -16.060   7.950  -2.518  1.00  0.00     0.039 A 
ATOM     51  C   UNL     1     -16.972   8.484  -1.591  1.00  0.00     0.014 A 
ATOM     52  C   UNL     1     -16.394   6.780  -3.189  1.00  0.00     0.014 A 
ATOM     53  C   UNL     1     -18.044   7.710  -1.146  1.00  0.00     0.010 A 
ATOM     54  C   UNL     1     -17.381   5.965  -2.679  1.00  0.00     0.010 A 
ATOM     55  C   UNL     1     -18.150   6.402  -1.601  1.00  0.00    -0.014 A 
BRANCH  55  56
ATOM     56  C   UNL     1     -18.893   5.356  -0.917  1.00  0.00     0.031 A 
ATOM     57  C   UNL     1     -20.125   4.797  -1.497  1.00  0.00     0.074 A 
ATOM     58  C   UNL     1     -18.298   4.771   0.145  1.00  0.00     0.049 A 
ATOM     59  N   UNL     1     -20.932   4.028  -0.852  1.00  0.00    -0.248 NA
ATOM     60  C   UNL     1     -20.589   5.116  -2.844  1.00  0.00     0.031 C 
ATOM     61  C   UNL     1     -18.586   3.472   0.746  1.00  0.00     0.029 A 
ATOM     62  N   UNL     1     -17.353   5.348   1.010  1.00  0.00    -0.354 N 
ATOM     63  C   UNL     1     -21.823   3.510  -1.761  1.00  0.00     0.074 A 
ATOM     64  C   UNL     1     -21.669   4.331  -2.934  1.00  0.00     0.031 C 
ATOM     65  C   UNL     1     -18.075   3.446   1.989  1.00  0.00     0.029 A 
ATOM     66  C   UNL     1     -17.614   4.792   2.283  1.00  0.00     0.049 A 
ATOM     67  H   UNL     1     -16.655   6.002   0.778  1.00  0.00     0.167 HD
ATOM     68  C   UNL     1     -22.471   2.354  -1.449  1.00  0.00     0.037 A 
ATOM     69  C   UNL     1     -18.113   5.565   3.294  1.00  0.00     0.037 A 
ATOM     70  C   UNL     1     -22.300   2.035  -0.029  1.00  0.00     0.049 A 
ATOM     71  C   UNL     1     -19.474   5.134   3.796  1.00  0.00     0.074 A 
ATOM     72  C   UNL     1     -21.542   1.100   0.652  1.00  0.00     0.029 A 
ATOM     73  N   UNL     1     -22.773   2.932   0.926  1.00  0.00    -0.354 N 
ATOM     74  N   UNL     1     -20.278   4.349   3.133  1.00  0.00    -0.248 NA
ATOM     75  C   UNL     1     -20.050   5.577   5.064  1.00  0.00     0.031 C 
ATOM     76  C   UNL     1     -21.461   1.515   2.010  1.00  0.00     0.029 A 
ATOM     77  C   UNL     1     -22.215   2.668   2.161  1.00  0.00     0.049 A 
ATOM     78  H   UNL     1     -23.416   3.655   0.746  1.00  0.00     0.167 HD
ATOM     79  C   UNL     1     -21.459   4.220   3.815  1.00  0.00     0.074 A 
ATOM     80  C   UNL     1     -21.255   4.981   5.033  1.00  0.00     0.031 C 
ATOM     81  C   UNL     1     -22.515   3.522   3.304  1.00  0.00     0.037 A 
BRANCH  68  82
ATOM     82  C   UNL     1     -23.096   1.390  -2.441  1.00  0.00     0.057 A 
ATOM     83  C   UNL     1     -23.742   0.224  -1.978  1.00  0.00     0.134 A 
ATOM     84  C   UNL     1     -22.993   1.464  -3.845  1.00  0.00     0.134 A 
ATOM     85  F   UNL     1     -23.917  -0.005  -0.669  1.00  0.00    -0.206 F 
ATOM     86  C   UNL     1     -24.223  -0.779  -2.834  1.00  0.00     0.040 A 
ATOM     87  C   UNL     1     -23.514   0.492  -4.713  1.00  0.00     0.040 A 
ATOM     88  F   UNL     1     -22.334   2.443  -4.471  1.00  0.00    -0.206 F 
ATOM     89  C   UNL     1     -24.119  -0.644  -4.209  1.00  0.00     0.006 A 
ENDBRANCH  68  82
BRANCH  69  90
ATOM     90  C   UNL     1     -17.643   6.974   3.247  1.00  0.00     0.057 A 
ATOM     91  C   UNL     1     -16.290   7.244   3.513  1.00  0.00     0.134 A 
ATOM     92  C   UNL     1     -18.374   7.971   2.593  1.00  0.00     0.134 A 
ATOM     93  F   UNL     1     -15.528   6.321   4.120  1.00  0.00    -0.206 F 
ATOM     94  C   UNL     1     -15.665   8.407   3.057  1.00  0.00     0.040 A 
ATOM     95  C   UNL     1     -17.756   9.139   2.129  1.00  0.00     0.040 A 
ATOM     96  F   UNL     1     -19.663   7.777   2.281  1.00  0.00    -0.206 F 
ATOM     97  C   UNL     1     -16.391   9.341   2.326  1.00  0.00     0.006 A 
ENDBRANCH  69  90
BRANCH  81  98
ATOM     98  C   UNL     1     -23.918   3.541   3.855  1.00  0.00     0.057 A 
ATOM     99  C   UNL     1     -24.495   4.644   4.502  1.00  0.00     0.134 A 
ATOM    100  C   UNL     1     -24.799   2.469   3.595  1.00  0.00     0.134 A 
ATOM    101  F   UNL     1     -23.805   5.773   4.716  1.00  0.00    -0.206 F 
ATOM    102  C   UNL     1     -25.836   4.659   4.910  1.00  0.00     0.040 A 
ATOM    103  C   UNL     1     -26.151   2.494   3.948  1.00  0.00     0.040 A 
ATOM    104  F   UNL     1     -24.387   1.359   2.963  1.00  0.00    -0.206 F 
ATOM    105  C   UNL     1     -26.673   3.587   4.622  1.00  0.00     0.006 A 
ENDBRANCH  81  98
ENDBRANCH  55  56
ENDBRANCH  47  50
ENDBRANCH  45  46
ENDBRANCH  44  45
ENDBRANCH  43  44
ENDBRANCH   1  43
TORSDOF 18
