REMARK SMILES Cc1occc1C(=O)NN1C(=O)/C(=C\c2ccc(O[C@H](C)C(=O)NCCCCNC(=O)c3ccc(-c4c5nc(c(-c6c(F)cccc6F)c6ccc([nH]6)c(-c6c(F)cccc6F)c6nc(c(-c7c(F)cccc7F)c7ccc4[nH]7)C=C6)C=C5)cc3)cc2)SC1=S
REMARK SMILES IDX 25 1 24 2 22 3 23 4 20 6 21 7 19 8 18 9 15 10 16 11 87 12
REMARK SMILES IDX 17 13 86 14 14 15 10 16 11 17 89 18 12 19 13 20 88 21 90 22
REMARK SMILES IDX 9 23 7 24 8 25 6 27 1 28 2 29 3 30 4 31 5 32 26 33 27 34
REMARK SMILES IDX 28 35 29 36 30 37 31 39 32 40 33 41 85 42 34 43 84 44 35 45
REMARK SMILES IDX 36 46 37 47 78 48 38 49 83 50 77 51 79 52 39 53 82 54 76 55
REMARK SMILES IDX 75 56 40 58 66 59 49 60 65 61 50 62 53 63 64 64 80 65 51 66
REMARK SMILES IDX 52 67 63 69 81 70 54 71 41 72 42 73 47 74 43 75 44 76 46 77
REMARK SMILES IDX 48 78 45 79 67 80 68 81 73 82 69 83 70 84 72 85 74 86 71 87
REMARK SMILES IDX 55 88 56 89 61 90 57 91 58 92 60 93 62 94 59 95
REMARK H PARENT 24 5 9 26 29 38 79 57 53 68
REMARK Flexibility Score: inf
ROOT
ATOM      1  C   UNL     1       4.921  -2.334  -5.660  1.00  0.00     0.116 C 
ENDROOT
BRANCH   1   2
ATOM      2  N   UNL     1       5.487  -2.769  -6.913  1.00  0.00    -0.353 N 
ATOM      3  C   UNL     1       5.937  -3.988  -7.315  1.00  0.00     0.260 C 
ATOM      4  O   UNL     1       6.230  -4.083  -8.515  1.00  0.00    -0.271 OA
ATOM      5  H   UNL     1       5.560  -2.063  -7.595  1.00  0.00     0.163 HD
BRANCH   3   6
ATOM      6  C   UNL     1       6.208  -5.185  -6.359  1.00  0.00     0.258 C 
ATOM      7  C   UNL     1       7.636  -5.094  -5.824  1.00  0.00     0.064 C 
BRANCH   6   8
ATOM      8  O   UNL     1       5.194  -5.700  -5.506  1.00  0.00    -0.481 OA
BRANCH   8   9
ATOM      9  C   UNL     1       4.948  -5.311  -4.229  1.00  0.00     0.120 A 
ATOM     10  C   UNL     1       4.111  -4.461  -1.677  1.00  0.00    -0.024 A 
ATOM     11  C   UNL     1       5.454  -4.389  -2.053  1.00  0.00     0.012 A 
ATOM     12  C   UNL     1       3.180  -4.977  -2.577  1.00  0.00     0.012 A 
ATOM     13  C   UNL     1       5.870  -4.825  -3.313  1.00  0.00     0.047 A 
ATOM     14  C   UNL     1       3.605  -5.415  -3.838  1.00  0.00     0.047 A 
BRANCH  10  15
ATOM     15  C   UNL     1       3.789  -4.069  -0.304  1.00  0.00     0.029 C 
ATOM     16  N   UNL     1       3.201  -6.962   1.817  1.00  0.00    -0.198 N 
ATOM     17  C   UNL     1       3.482  -6.426   0.569  1.00  0.00     0.285 C 
ATOM     18  C   UNL     1       3.328  -6.148   2.921  1.00  0.00     0.168 C 
ATOM     19  O   UNL     1       3.620  -7.077  -0.451  1.00  0.00    -0.266 OA
ATOM     20  C   UNL     1       3.605  -4.945   0.693  1.00  0.00     0.082 C 
ATOM     21  S   UNL     1       3.531  -4.484   2.362  1.00  0.00    -0.052 SA
ATOM     22  S   UNL     1       3.322  -6.583   4.529  1.00  0.00    -0.050 S 
BRANCH  16  23
ATOM     23  N   UNL     1       3.039  -8.339   1.875  1.00  0.00    -0.254 N 
ATOM     24  C   UNL     1       1.854  -9.030   1.981  1.00  0.00     0.273 C 
ATOM     25  O   UNL     1       1.898 -10.241   1.753  1.00  0.00    -0.267 OA
ATOM     26  H   UNL     1       3.860  -8.880   1.836  1.00  0.00     0.192 HD
BRANCH  24  27
ATOM     27  C   UNL     1       0.619  -8.427   2.472  1.00  0.00     0.082 A 
ATOM     28  C   UNL     1       0.213  -6.010   1.414  1.00  0.00     0.088 C 
ATOM     29  C   UNL     1      -0.008  -7.208   2.246  1.00  0.00     0.113 A 
ATOM     30  O   UNL     1      -1.173  -7.138   2.959  1.00  0.00    -0.469 OA
ATOM     31  C   UNL     1      -1.346  -8.319   3.589  1.00  0.00     0.196 A 
ATOM     32  C   UNL     1      -0.297  -9.152   3.309  1.00  0.00     0.056 A 
ENDBRANCH  24  27
ENDBRANCH  16  23
ENDBRANCH  10  15
ENDBRANCH   8   9
ENDBRANCH   6   8
ENDBRANCH   3   6
ENDBRANCH   1   2
BRANCH   1  33
ATOM     33  C   UNL     1       5.915  -1.574  -4.787  1.00  0.00     0.023 C 
BRANCH  33  34
ATOM     34  C   UNL     1       5.938  -0.063  -5.032  1.00  0.00     0.023 C 
BRANCH  34  35
ATOM     35  C   UNL     1       4.604   0.654  -4.824  1.00  0.00     0.116 C 
BRANCH  35  36
ATOM     36  N   UNL     1       4.014   0.444  -3.510  1.00  0.00    -0.352 N 
ATOM     37  C   UNL     1       3.185   1.288  -2.808  1.00  0.00     0.251 C 
ATOM     38  H   UNL     1       4.236  -0.408  -3.070  1.00  0.00     0.163 HD
ATOM     39  O   UNL     1       2.832   1.008  -1.667  1.00  0.00    -0.269 OA
BRANCH  37  40
ATOM     40  C   UNL     1       2.766   2.563  -3.429  1.00  0.00     0.039 A 
ATOM     41  C   UNL     1       2.959   3.752  -2.722  1.00  0.00     0.014 A 
ATOM     42  C   UNL     1       2.245   2.587  -4.725  1.00  0.00     0.014 A 
ATOM     43  C   UNL     1       2.711   4.974  -3.352  1.00  0.00     0.010 A 
ATOM     44  C   UNL     1       2.065   3.806  -5.374  1.00  0.00     0.010 A 
ATOM     45  C   UNL     1       2.308   5.011  -4.697  1.00  0.00    -0.014 A 
BRANCH  45  46
ATOM     46  C   UNL     1       2.175   6.301  -5.420  1.00  0.00     0.031 A 
ATOM     47  C   UNL     1       0.839   6.755  -5.935  1.00  0.00     0.074 A 
ATOM     48  C   UNL     1       3.277   7.035  -5.670  1.00  0.00     0.049 A 
ATOM     49  N   UNL     1       0.538   7.837  -6.609  1.00  0.00    -0.248 NA
ATOM     50  C   UNL     1      -0.306   5.865  -5.687  1.00  0.00     0.031 C 
ATOM     51  C   UNL     1       4.643   6.670  -5.286  1.00  0.00     0.029 A 
ATOM     52  N   UNL     1       3.425   8.238  -6.314  1.00  0.00    -0.354 N 
ATOM     53  C   UNL     1      -0.823   7.753  -6.871  1.00  0.00     0.074 A 
ATOM     54  C   UNL     1      -1.279   6.489  -6.334  1.00  0.00     0.031 C 
ATOM     55  C   UNL     1       5.484   7.641  -5.674  1.00  0.00     0.029 A 
ATOM     56  C   UNL     1       4.724   8.683  -6.358  1.00  0.00     0.049 A 
ATOM     57  H   UNL     1       2.672   8.735  -6.706  1.00  0.00     0.167 HD
ATOM     58  C   UNL     1      -1.625   8.657  -7.482  1.00  0.00     0.037 A 
ATOM     59  C   UNL     1       5.245   9.806  -6.887  1.00  0.00     0.037 A 
ATOM     60  C   UNL     1      -1.175   9.925  -7.995  1.00  0.00     0.049 A 
ATOM     61  C   UNL     1       4.331  10.801  -7.545  1.00  0.00     0.074 A 
ATOM     62  C   UNL     1      -1.924  10.939  -8.566  1.00  0.00     0.029 A 
ATOM     63  N   UNL     1       0.145  10.350  -8.002  1.00  0.00    -0.354 N 
ATOM     64  N   UNL     1       3.032  10.747  -7.710  1.00  0.00    -0.248 NA
ATOM     65  C   UNL     1       4.956  12.018  -8.082  1.00  0.00     0.031 C 
ATOM     66  C   UNL     1      -1.052  11.963  -8.953  1.00  0.00     0.029 A 
ATOM     67  C   UNL     1       0.235  11.603  -8.586  1.00  0.00     0.049 A 
ATOM     68  H   UNL     1       0.906   9.837  -7.645  1.00  0.00     0.167 HD
ATOM     69  C   UNL     1       2.681  11.928  -8.349  1.00  0.00     0.074 A 
ATOM     70  C   UNL     1       3.901  12.688  -8.525  1.00  0.00     0.031 C 
ATOM     71  C   UNL     1       1.457  12.346  -8.755  1.00  0.00     0.037 A 
BRANCH  58  72
ATOM     72  C   UNL     1      -3.078   8.309  -7.618  1.00  0.00     0.057 A 
ATOM     73  C   UNL     1      -3.935   8.286  -6.509  1.00  0.00     0.134 A 
ATOM     74  C   UNL     1      -3.634   8.025  -8.871  1.00  0.00     0.134 A 
ATOM     75  F   UNL     1      -3.462   8.537  -5.279  1.00  0.00    -0.206 F 
ATOM     76  C   UNL     1      -5.288   7.967  -6.639  1.00  0.00     0.040 A 
ATOM     77  C   UNL     1      -4.991   7.730  -9.016  1.00  0.00     0.040 A 
ATOM     78  F   UNL     1      -2.871   8.035  -9.974  1.00  0.00    -0.206 F 
ATOM     79  C   UNL     1      -5.820   7.694  -7.897  1.00  0.00     0.006 A 
ENDBRANCH  58  72
BRANCH  59  80
ATOM     80  C   UNL     1       6.702  10.068  -6.785  1.00  0.00     0.057 A 
ATOM     81  C   UNL     1       7.195  11.063  -5.932  1.00  0.00     0.134 A 
ATOM     82  C   UNL     1       7.632   9.340  -7.535  1.00  0.00     0.134 A 
ATOM     83  F   UNL     1       6.350  11.805  -5.202  1.00  0.00    -0.206 F 
ATOM     84  C   UNL     1       8.560  11.337  -5.842  1.00  0.00     0.040 A 
ATOM     85  C   UNL     1       9.002   9.588  -7.438  1.00  0.00     0.040 A 
ATOM     86  F   UNL     1       7.223   8.369  -8.364  1.00  0.00    -0.206 F 
ATOM     87  C   UNL     1       9.469  10.595  -6.594  1.00  0.00     0.006 A 
ENDBRANCH  59  80
BRANCH  71  88
ATOM     88  C   UNL     1       1.379  13.693  -9.410  1.00  0.00     0.057 A 
ATOM     89  C   UNL     1       1.853  13.909 -10.710  1.00  0.00     0.134 A 
ATOM     90  C   UNL     1       0.797  14.778  -8.743  1.00  0.00     0.134 A 
ATOM     91  F   UNL     1       2.434  12.913 -11.396  1.00  0.00    -0.206 F 
ATOM     92  C   UNL     1       1.774  15.165 -11.315  1.00  0.00     0.040 A 
ATOM     93  C   UNL     1       0.690  16.032  -9.347  1.00  0.00     0.040 A 
ATOM     94  F   UNL     1       0.316  14.636  -7.499  1.00  0.00    -0.206 F 
ATOM     95  C   UNL     1       1.186  16.229 -10.634  1.00  0.00     0.006 A 
ENDBRANCH  71  88
ENDBRANCH  45  46
ENDBRANCH  37  40
ENDBRANCH  35  36
ENDBRANCH  34  35
ENDBRANCH  33  34
ENDBRANCH   1  33
TORSDOF 16
