REMARK SMILES CC(C)Cc1cc2c(cc1Cl)C=C(C(=O)NCCCCNC(=O)c1ccc(-c3c4nc(c(-c5c(F)cccc5F)c5ccc([nH]5)c(-c5c(F)cccc5F)c5nc(c(-c6c(F)cccc6F)c6ccc3[nH]6)C=C5)C=C4)cc1)[C@@H](C(F)(F)F)O2
REMARK SMILES IDX 18 1 17 2 16 3 14 4 15 5 13 7 5 8 6 9 10 10 7 11 9 12 11 13
REMARK SMILES IDX 8 14 83 15 12 16 78 17 4 18 2 19 1 20 3 21 79 22 80 23 81 24
REMARK SMILES IDX 82 25 19 26 20 27 21 28 22 29 23 31 24 32 25 33 77 34 26 35
REMARK SMILES IDX 76 36 27 37 28 38 29 39 70 40 30 41 75 42 69 43 71 44 31 45
REMARK SMILES IDX 74 46 68 47 67 48 32 50 58 51 41 52 57 53 42 54 45 55 56 56
REMARK SMILES IDX 72 57 43 58 44 59 55 61 73 62 46 63 33 64 34 65 39 66 35 67
REMARK SMILES IDX 36 68 38 69 40 70 37 71 59 72 60 73 65 74 61 75 62 76 64 77
REMARK SMILES IDX 66 78 63 79 47 80 48 81 53 82 49 83 50 84 52 85 54 86 51 87
REMARK H PARENT 16 6 21 30 71 49 45 60
REMARK Flexibility Score: inf
ROOT
ATOM      1  C   UNL     1      -0.273  -6.247   5.613  1.00  0.00     0.023 C 
ENDROOT
BRANCH   1   2
ATOM      2  C   UNL     1      -1.724  -5.867   5.326  1.00  0.00     0.116 C 
BRANCH   2   3
ATOM      3  N   UNL     1      -2.169  -4.735   6.122  1.00  0.00    -0.352 N 
ATOM      4  C   UNL     1      -2.426  -3.420   5.917  1.00  0.00     0.251 C 
ATOM      5  O   UNL     1      -2.820  -2.799   6.909  1.00  0.00    -0.270 OA
ATOM      6  H   UNL     1      -2.326  -4.992   7.059  1.00  0.00     0.163 HD
BRANCH   4   7
ATOM      7  C   UNL     1      -2.252  -2.701   4.618  1.00  0.00     0.067 C 
ATOM      8  C   UNL     1      -1.406   0.872   1.142  1.00  0.00    -0.025 A 
ATOM      9  C   UNL     1      -1.418  -0.529   1.145  1.00  0.00     0.052 A 
ATOM     10  C   UNL     1      -1.798   1.539   2.313  1.00  0.00     0.045 A 
ATOM     11  C   UNL     1      -1.720  -1.241   2.301  1.00  0.00     0.128 A 
ATOM     12  C   UNL     1      -2.149   0.816   3.464  1.00  0.00     0.032 A 
ATOM     13  Cl  UNL     1      -1.835   3.263   2.410  1.00  0.00    -0.084 Cl
ATOM     14  C   UNL     1      -2.082  -0.581   3.469  1.00  0.00     0.019 A 
ATOM     15  O   UNL     1      -1.549  -2.587   2.215  1.00  0.00    -0.475 OA
ATOM     16  C   UNL     1      -2.297  -1.357   4.684  1.00  0.00     0.025 C 
ATOM     17  C   UNL     1      -2.055  -3.398   3.302  1.00  0.00     0.314 C 
BRANCH   8  18
ATOM     18  C   UNL     1      -0.887   1.563  -0.099  1.00  0.00     0.040 C 
BRANCH  18  19
ATOM     19  C   UNL     1       0.655   1.691  -0.128  1.00  0.00    -0.013 C 
ATOM     20  C   UNL     1       1.378   0.338  -0.152  1.00  0.00     0.008 C 
ATOM     21  C   UNL     1       1.080   2.499  -1.356  1.00  0.00     0.008 C 
ENDBRANCH  18  19
ENDBRANCH   8  18
BRANCH  17  22
ATOM     22  C   UNL     1      -3.323  -4.113   2.805  1.00  0.00     0.429 C 
ATOM     23  F   UNL     1      -3.010  -4.995   1.821  1.00  0.00    -0.167 F 
ATOM     24  F   UNL     1      -3.938  -4.828   3.775  1.00  0.00    -0.167 F 
ATOM     25  F   UNL     1      -4.238  -3.254   2.304  1.00  0.00    -0.167 F 
ENDBRANCH  17  22
ENDBRANCH   4   7
ENDBRANCH   2   3
ENDBRANCH   1   2
BRANCH   1  26
ATOM     26  C   UNL     1      -0.096  -7.224   6.777  1.00  0.00     0.023 C 
BRANCH  26  27
ATOM     27  C   UNL     1      -0.887  -8.526   6.665  1.00  0.00     0.116 C 
BRANCH  27  28
ATOM     28  N   UNL     1      -0.673  -9.264   5.427  1.00  0.00    -0.352 N 
ATOM     29  C   UNL     1      -0.873 -10.611   5.208  1.00  0.00     0.251 C 
ATOM     30  H   UNL     1      -0.348  -8.741   4.659  1.00  0.00     0.163 HD
ATOM     31  O   UNL     1      -0.581 -11.127   4.135  1.00  0.00    -0.269 OA
BRANCH  29  32
ATOM     32  C   UNL     1      -1.389 -11.434   6.321  1.00  0.00     0.039 A 
ATOM     33  C   UNL     1      -2.529 -11.030   7.014  1.00  0.00     0.014 A 
ATOM     34  C   UNL     1      -0.656 -12.545   6.744  1.00  0.00     0.014 A 
ATOM     35  C   UNL     1      -2.819 -11.611   8.241  1.00  0.00     0.010 A 
ATOM     36  C   UNL     1      -1.006 -13.187   7.935  1.00  0.00     0.010 A 
ATOM     37  C   UNL     1      -2.047 -12.680   8.728  1.00  0.00    -0.014 A 
BRANCH  37  38
ATOM     38  C   UNL     1      -2.334 -13.208  10.088  1.00  0.00     0.031 A 
ATOM     39  C   UNL     1      -1.331 -13.059  11.203  1.00  0.00     0.074 A 
ATOM     40  C   UNL     1      -3.547 -13.736  10.341  1.00  0.00     0.049 A 
ATOM     41  N   UNL     1      -1.452 -13.377  12.468  1.00  0.00    -0.248 NA
ATOM     42  C   UNL     1      -0.022 -12.485  10.855  1.00  0.00     0.031 C 
ATOM     43  C   UNL     1      -4.604 -13.931   9.347  1.00  0.00     0.029 A 
ATOM     44  N   UNL     1      -4.109 -14.162  11.516  1.00  0.00    -0.354 N 
ATOM     45  C   UNL     1      -0.234 -13.062  13.060  1.00  0.00     0.074 A 
ATOM     46  C   UNL     1       0.623 -12.555  12.011  1.00  0.00     0.031 C 
ATOM     47  C   UNL     1      -5.710 -14.370   9.966  1.00  0.00     0.029 A 
ATOM     48  C   UNL     1      -5.424 -14.539  11.386  1.00  0.00     0.049 A 
ATOM     49  H   UNL     1      -3.620 -14.195  12.369  1.00  0.00     0.167 HD
ATOM     50  C   UNL     1       0.134 -13.174  14.360  1.00  0.00     0.037 A 
ATOM     51  C   UNL     1      -6.303 -14.970  12.308  1.00  0.00     0.037 A 
ATOM     52  C   UNL     1      -0.725 -13.655  15.411  1.00  0.00     0.049 A 
ATOM     53  C   UNL     1      -5.865 -15.091  13.738  1.00  0.00     0.074 A 
ATOM     54  C   UNL     1      -0.448 -13.790  16.761  1.00  0.00     0.029 A 
ATOM     55  N   UNL     1      -2.033 -14.077  15.229  1.00  0.00    -0.354 N 
ATOM     56  N   UNL     1      -4.713 -14.783  14.280  1.00  0.00    -0.248 NA
ATOM     57  C   UNL     1      -6.853 -15.630  14.683  1.00  0.00     0.031 C 
ATOM     58  C   UNL     1      -1.579 -14.321  17.391  1.00  0.00     0.029 A 
ATOM     59  C   UNL     1      -2.572 -14.484  16.439  1.00  0.00     0.049 A 
ATOM     60  H   UNL     1      -2.509 -14.086  14.367  1.00  0.00     0.167 HD
ATOM     61  C   UNL     1      -4.838 -15.082  15.629  1.00  0.00     0.074 A 
ATOM     62  C   UNL     1      -6.188 -15.568  15.827  1.00  0.00     0.031 C 
ATOM     63  C   UNL     1      -3.915 -14.973  16.616  1.00  0.00     0.037 A 
BRANCH  50  64
ATOM     64  C   UNL     1       1.539 -12.781  14.714  1.00  0.00     0.057 A 
ATOM     65  C   UNL     1       2.492 -13.754  15.042  1.00  0.00     0.134 A 
ATOM     66  C   UNL     1       1.944 -11.441  14.757  1.00  0.00     0.134 A 
ATOM     67  F   UNL     1       2.168 -15.056  15.027  1.00  0.00    -0.206 F 
ATOM     68  C   UNL     1       3.796 -13.408  15.399  1.00  0.00     0.040 A 
ATOM     69  C   UNL     1       3.252 -11.083  15.090  1.00  0.00     0.040 A 
ATOM     70  F   UNL     1       1.085 -10.461  14.438  1.00  0.00    -0.206 F 
ATOM     71  C   UNL     1       4.182 -12.069  15.417  1.00  0.00     0.006 A 
ENDBRANCH  50  64
BRANCH  51  72
ATOM     72  C   UNL     1      -7.688 -15.313  11.906  1.00  0.00     0.057 A 
ATOM     73  C   UNL     1      -7.962 -16.443  11.127  1.00  0.00     0.134 A 
ATOM     74  C   UNL     1      -8.771 -14.518  12.299  1.00  0.00     0.134 A 
ATOM     75  F   UNL     1      -6.964 -17.240  10.717  1.00  0.00    -0.206 F 
ATOM     76  C   UNL     1      -9.263 -16.767  10.743  1.00  0.00     0.040 A 
ATOM     77  C   UNL     1     -10.080 -14.844  11.943  1.00  0.00     0.040 A 
ATOM     78  F   UNL     1      -8.571 -13.433  13.061  1.00  0.00    -0.206 F 
ATOM     79  C   UNL     1     -10.328 -15.969  11.158  1.00  0.00     0.006 A 
ENDBRANCH  51  72
BRANCH  63  80
ATOM     80  C   UNL     1      -4.352 -15.378  17.991  1.00  0.00     0.057 A 
ATOM     81  C   UNL     1      -4.606 -14.415  18.974  1.00  0.00     0.134 A 
ATOM     82  C   UNL     1      -4.532 -16.724  18.338  1.00  0.00     0.134 A 
ATOM     83  F   UNL     1      -4.448 -13.110  18.707  1.00  0.00    -0.206 F 
ATOM     84  C   UNL     1      -5.033 -14.775  20.253  1.00  0.00     0.040 A 
ATOM     85  C   UNL     1      -4.980 -17.095  19.606  1.00  0.00     0.040 A 
ATOM     86  F   UNL     1      -4.321 -17.692  17.434  1.00  0.00    -0.206 F 
ATOM     87  C   UNL     1      -5.230 -16.118  20.569  1.00  0.00     0.006 A 
ENDBRANCH  63  80
ENDBRANCH  37  38
ENDBRANCH  29  32
ENDBRANCH  27  28
ENDBRANCH  26  27
ENDBRANCH   1  26
TORSDOF 14
