REMARK SMILES CC[NH2+][C@@]1(C(=O)NCCCCNC(=O)c2ccc(-c3c4nc(c(-c5c(F)cccc5F)c5ccc([nH]5)c(-c5c(F)cccc5F)c5nc(c(-c6c(F)cccc6F)c6ccc3[nH]6)C=C5)C=C4)cc2)CC[C@H]([NH+]2CCS(=O)(=O)CC2)C1
REMARK SMILES IDX 9 1 8 2 7 3 5 4 6 5 4 7 69 8 80 9 70 10 71 11 3 12 2 15 1 16
REMARK SMILES IDX 72 17 73 18 79 19 74 21 78 22 75 23 76 24 77 25 10 26 11 27
REMARK SMILES IDX 12 28 13 29 14 31 15 32 16 33 68 34 17 35 67 36 18 37 19 38
REMARK SMILES IDX 20 39 61 40 21 41 66 42 60 43 62 44 22 45 65 46 59 47 58 48
REMARK SMILES IDX 23 50 49 51 32 52 48 53 33 54 36 55 47 56 63 57 34 58 35 59
REMARK SMILES IDX 46 61 64 62 37 63 24 64 25 65 30 66 26 67 27 68 29 69 31 70
REMARK SMILES IDX 28 71 50 72 51 73 56 74 52 75 53 76 55 77 57 78 54 79 38 80
REMARK SMILES IDX 39 81 44 82 40 83 41 84 43 85 45 86 42 87
REMARK H PARENT 7 6 3 13 3 14 72 20 12 30 62 49 36 60
REMARK Flexibility Score: inf
ROOT
ATOM      1  C   UNL     1      -2.038   7.035  -0.186  1.00  0.00     0.023 C 
ENDROOT
BRANCH   1   2
ATOM      2  C   UNL     1      -0.157   6.115  -0.162  1.00  0.00     0.116 C 
BRANCH   2   3
ATOM      3  N   UNL     1       0.398   4.956   0.605  1.00  0.00    -0.351 N 
ATOM      4  C   UNL     1       0.795   3.696   0.299  1.00  0.00     0.281 C 
ATOM      5  O   UNL     1       1.128   3.048   1.299  1.00  0.00    -0.268 OA
ATOM      6  H   UNL     1       0.500   5.157   1.564  1.00  0.00     0.163 HD
BRANCH   4   7
ATOM      7  C   UNL     1       0.903   3.127  -1.163  1.00  0.00     0.181 C 
ATOM      8  C   UNL     1       1.832   4.067  -1.962  1.00  0.00     0.085 C 
ATOM      9  C   UNL     1      -0.363   3.072  -2.042  1.00  0.00     0.144 C 
ATOM     10  C   UNL     1       0.941   4.809  -2.970  1.00  0.00     0.072 C 
ATOM     11  C   UNL     1      -0.550   4.482  -2.626  1.00  0.00     0.191 C 
BRANCH   7  12
ATOM     12  N   UNL     1       1.565   1.784  -1.127  1.00  0.00    -0.334 N 
ATOM     13  H   UNL     1       1.635   1.442  -2.086  1.00  0.00     0.347 HD
ATOM     14  H   UNL     1       2.469   1.927  -0.677  1.00  0.00     0.347 HD
BRANCH  12  15
ATOM     15  C   UNL     1       0.872   0.763  -0.331  1.00  0.00     0.257 C 
ATOM     16  C   UNL     1       1.405  -0.618  -0.680  1.00  0.00     0.071 C 
ENDBRANCH  12  15
ENDBRANCH   7  12
BRANCH  11  17
ATOM     17  N   UNL     1      -1.393   5.452  -1.833  1.00  0.00    -0.331 N 
ATOM     18  C   UNL     1      -0.831   7.180  -2.038  1.00  0.00     0.278 C 
ATOM     19  C   UNL     1      -1.943   4.874  -0.189  1.00  0.00     0.278 C 
ATOM     20  H   UNL     1      -2.318   5.474  -2.263  1.00  0.00     0.348 HD
ATOM     21  C   UNL     1      -0.168   8.341  -0.652  1.00  0.00     0.198 C 
ATOM     22  C   UNL     1      -1.611   5.734   1.532  1.00  0.00     0.198 C 
ATOM     23  S   UNL     1      -0.495   7.693   1.498  1.00  0.00     0.161 S 
ATOM     24  O   UNL     1       0.816   7.400   2.079  1.00  0.00    -0.228 OA
ATOM     25  O   UNL     1      -1.212   8.724   2.188  1.00  0.00    -0.228 OA
ENDBRANCH  11  17
ENDBRANCH   4   7
ENDBRANCH   2   3
ENDBRANCH   1   2
BRANCH   1  26
ATOM     26  C   UNL     1      -3.548   7.089   0.592  1.00  0.00     0.023 C 
BRANCH  26  27
ATOM     27  C   UNL     1      -3.859   8.159   1.651  1.00  0.00     0.116 C 
BRANCH  27  28
ATOM     28  N   UNL     1      -3.570   9.509   1.192  1.00  0.00    -0.352 N 
ATOM     29  C   UNL     1      -3.502  10.664   1.936  1.00  0.00     0.251 C 
ATOM     30  H   UNL     1      -3.402   9.609   0.227  1.00  0.00     0.163 HD
ATOM     31  O   UNL     1      -3.204  11.731   1.409  1.00  0.00    -0.269 OA
BRANCH  29  32
ATOM     32  C   UNL     1      -3.933  10.626   3.344  1.00  0.00     0.039 A 
ATOM     33  C   UNL     1      -5.093  11.327   3.672  1.00  0.00     0.014 A 
ATOM     34  C   UNL     1      -3.267   9.861   4.304  1.00  0.00     0.014 A 
ATOM     35  C   UNL     1      -5.631  11.195   4.946  1.00  0.00     0.010 A 
ATOM     36  C   UNL     1      -3.841   9.671   5.554  1.00  0.00     0.010 A 
ATOM     37  C   UNL     1      -5.032  10.331   5.877  1.00  0.00    -0.014 A 
BRANCH  37  38
ATOM     38  C   UNL     1      -5.673  10.105   7.187  1.00  0.00     0.031 A 
ATOM     39  C   UNL     1      -5.019  10.609   8.435  1.00  0.00     0.074 A 
ATOM     40  C   UNL     1      -6.837   9.429   7.222  1.00  0.00     0.049 A 
ATOM     41  N   UNL     1      -5.453  10.562   9.667  1.00  0.00    -0.248 NA
ATOM     42  C   UNL     1      -3.692  11.226   8.285  1.00  0.00     0.031 C 
ATOM     43  C   UNL     1      -7.506   8.845   6.055  1.00  0.00     0.029 A 
ATOM     44  N   UNL     1      -7.669   9.128   8.266  1.00  0.00    -0.354 N 
ATOM     45  C   UNL     1      -4.453  11.141  10.436  1.00  0.00     0.074 A 
ATOM     46  C   UNL     1      -3.365  11.474   9.544  1.00  0.00     0.031 C 
ATOM     47  C   UNL     1      -8.667   8.295   6.443  1.00  0.00     0.029 A 
ATOM     48  C   UNL     1      -8.808   8.461   7.885  1.00  0.00     0.049 A 
ATOM     49  H   UNL     1      -7.470   9.366   9.200  1.00  0.00     0.167 HD
ATOM     50  C   UNL     1      -4.460  11.392  11.766  1.00  0.00     0.037 A 
ATOM     51  C   UNL     1      -9.852   8.044   8.624  1.00  0.00     0.037 A 
ATOM     52  C   UNL     1      -5.563  11.055  12.626  1.00  0.00     0.049 A 
ATOM     53  C   UNL     1      -9.846   8.353  10.095  1.00  0.00     0.074 A 
ATOM     54  C   UNL     1      -5.713  11.299  13.978  1.00  0.00     0.029 A 
ATOM     55  N   UNL     1      -6.708  10.389  12.207  1.00  0.00    -0.354 N 
ATOM     56  N   UNL     1      -8.933   8.977  10.802  1.00  0.00    -0.248 NA
ATOM     57  C   UNL     1     -11.013   7.915  10.869  1.00  0.00     0.031 C 
ATOM     58  C   UNL     1      -6.927  10.736  14.387  1.00  0.00     0.029 A 
ATOM     59  C   UNL     1      -7.560  10.191  13.280  1.00  0.00     0.049 A 
ATOM     60  H   UNL     1      -6.887  10.100  11.283  1.00  0.00     0.167 HD
ATOM     61  C   UNL     1      -9.421   9.024  12.100  1.00  0.00     0.074 A 
ATOM     62  C   UNL     1     -10.723   8.384  12.074  1.00  0.00     0.031 C 
ATOM     63  C   UNL     1      -8.849   9.545  13.214  1.00  0.00     0.037 A 
BRANCH  50  64
ATOM     64  C   UNL     1      -3.240  12.043  12.352  1.00  0.00     0.057 A 
ATOM     65  C   UNL     1      -2.882  13.364  12.045  1.00  0.00     0.134 A 
ATOM     66  C   UNL     1      -2.404  11.340  13.228  1.00  0.00     0.134 A 
ATOM     67  F   UNL     1      -3.629  14.093  11.201  1.00  0.00    -0.206 F 
ATOM     68  C   UNL     1      -1.719  13.947  12.554  1.00  0.00     0.040 A 
ATOM     69  C   UNL     1      -1.254  11.922  13.768  1.00  0.00     0.040 A 
ATOM     70  F   UNL     1      -2.685  10.074  13.570  1.00  0.00    -0.206 F 
ATOM     71  C   UNL     1      -0.903  13.225  13.423  1.00  0.00     0.006 A 
ENDBRANCH  50  64
BRANCH  51  72
ATOM     72  C   UNL     1     -10.986   7.334   7.977  1.00  0.00     0.057 A 
ATOM     73  C   UNL     1     -12.247   7.929   7.859  1.00  0.00     0.134 A 
ATOM     74  C   UNL     1     -10.830   6.051   7.437  1.00  0.00     0.134 A 
ATOM     75  F   UNL     1     -12.466   9.152   8.363  1.00  0.00    -0.206 F 
ATOM     76  C   UNL     1     -13.315   7.270   7.245  1.00  0.00     0.040 A 
ATOM     77  C   UNL     1     -11.881   5.391   6.797  1.00  0.00     0.040 A 
ATOM     78  F   UNL     1      -9.644   5.428   7.503  1.00  0.00    -0.206 F 
ATOM     79  C   UNL     1     -13.131   5.999   6.706  1.00  0.00     0.006 A 
ENDBRANCH  51  72
BRANCH  63  80
ATOM     80  C   UNL     1      -9.640   9.456  14.484  1.00  0.00     0.057 A 
ATOM     81  C   UNL     1      -9.824   8.241  15.155  1.00  0.00     0.134 A 
ATOM     82  C   UNL     1     -10.184  10.609  15.064  1.00  0.00     0.134 A 
ATOM     83  F   UNL     1      -9.339   7.100  14.643  1.00  0.00    -0.206 F 
ATOM     84  C   UNL     1     -10.543   8.172  16.349  1.00  0.00     0.040 A 
ATOM     85  C   UNL     1     -10.878  10.557  16.273  1.00  0.00     0.040 A 
ATOM     86  F   UNL     1     -10.033  11.805  14.475  1.00  0.00    -0.206 F 
ATOM     87  C   UNL     1     -11.065   9.335  16.915  1.00  0.00     0.006 A 
ENDBRANCH  63  80
ENDBRANCH  37  38
ENDBRANCH  29  32
ENDBRANCH  27  28
ENDBRANCH  26  27
ENDBRANCH   1  26
TORSDOF 14
