REMARK SMILES CCCC1(CCC)SC[C@@H]2C(=O)N(Cc3ccc(C(=O)NCCCCNC(=O)c4ccc(-c5c6nc(c(-c7c(F)cccc7F)c7ccc([nH]7)c(-c7c(F)cccc7F)c7nc(c(-c8c(F)cccc8F)c8ccc5[nH]8)C=C7)C=C6)cc4)cc3)CC(=O)N21
REMARK SMILES IDX 22 1 21 2 19 3 20 4 18 6 15 7 16 8 84 9 17 10 83 11 14 12
REMARK SMILES IDX 13 13 4 14 8 15 88 16 9 17 10 18 86 19 11 20 85 21 87 22
REMARK SMILES IDX 12 23 3 24 2 25 1 26 5 27 6 28 7 29 23 30 24 31 25 32 26 33
REMARK SMILES IDX 27 34 28 36 29 37 30 38 82 39 31 40 81 41 32 42 33 43 34 44
REMARK SMILES IDX 75 45 35 46 80 47 74 48 76 49 36 50 79 51 73 52 72 53 37 55
REMARK SMILES IDX 63 56 46 57 62 58 47 59 50 60 61 61 77 62 48 63 49 64 60 66
REMARK SMILES IDX 78 67 51 68 38 69 39 70 44 71 40 72 41 73 43 74 45 75 42 76
REMARK SMILES IDX 64 77 65 78 70 79 66 80 67 81 69 82 71 83 68 84 52 85 53 86
REMARK SMILES IDX 58 87 54 88 55 89 57 90 59 91 56 92
REMARK H PARENT 21 5 26 35 76 54 50 65
REMARK Flexibility Score: inf
ROOT
ATOM      1  C   UNL     1      -0.410  11.089  -1.974  1.00  0.00     0.116 C 
ENDROOT
BRANCH   1   2
ATOM      2  N   UNL     1       0.131  11.166  -3.320  1.00  0.00    -0.352 N 
ATOM      3  C   UNL     1       1.031  10.353  -3.968  1.00  0.00     0.251 C 
ATOM      4  O   UNL     1       1.247  10.539  -5.164  1.00  0.00    -0.269 OA
ATOM      5  H   UNL     1      -0.200  11.924  -3.856  1.00  0.00     0.163 HD
BRANCH   3   6
ATOM      6  C   UNL     1       1.707   9.227  -3.273  1.00  0.00     0.039 A 
ATOM      7  C   UNL     1       2.903   7.009  -2.009  1.00  0.00    -0.029 A 
ATOM      8  C   UNL     1       2.484   6.923  -3.343  1.00  0.00     0.006 A 
ATOM      9  C   UNL     1       2.767   8.233  -1.341  1.00  0.00     0.006 A 
ATOM     10  C   UNL     1       1.893   8.027  -3.971  1.00  0.00     0.014 A 
ATOM     11  C   UNL     1       2.198   9.335  -1.974  1.00  0.00     0.014 A 
BRANCH   7  12
ATOM     12  C   UNL     1       3.512   5.835  -1.284  1.00  0.00     0.155 C 
BRANCH  12  13
ATOM     13  N   UNL     1       2.545   4.969  -0.617  1.00  0.00    -0.327 N 
ATOM     14  C   UNL     1       0.257   2.002   1.591  1.00  0.00     0.090 C 
ATOM     15  S   UNL     1      -0.383   3.182   3.006  1.00  0.00    -0.131 SA
ATOM     16  N   UNL     1       0.907   2.992   0.689  1.00  0.00    -0.314 N 
ATOM     17  C   UNL     1       0.264   4.692   2.275  1.00  0.00     0.107 C 
ATOM     18  C   UNL     1       1.382   4.192   1.387  1.00  0.00     0.186 C 
ATOM     19  C   UNL     1       1.472   2.683  -0.536  1.00  0.00     0.244 C 
ATOM     20  C   UNL     1       1.965   5.356   0.581  1.00  0.00     0.247 C 
ATOM     21  C   UNL     1       1.935   3.887  -1.369  1.00  0.00     0.220 C 
ATOM     22  O   UNL     1       1.430   1.572  -1.052  1.00  0.00    -0.273 OA
ATOM     23  O   UNL     1       2.142   6.459   1.095  1.00  0.00    -0.272 OA
BRANCH  14  24
ATOM     24  C   UNL     1       1.287   1.121   2.370  1.00  0.00     0.040 C 
BRANCH  24  25
ATOM     25  C   UNL     1       1.469  -0.365   2.078  1.00  0.00    -0.000 C 
ATOM     26  C   UNL     1       2.318  -0.692   0.865  1.00  0.00     0.004 C 
ENDBRANCH  24  25
ENDBRANCH  14  24
BRANCH  14  27
ATOM     27  C   UNL     1      -1.105   1.393   1.135  1.00  0.00     0.040 C 
BRANCH  27  28
ATOM     28  C   UNL     1      -1.302   0.534  -0.123  1.00  0.00    -0.000 C 
ATOM     29  C   UNL     1      -1.256  -0.974   0.076  1.00  0.00     0.004 C 
ENDBRANCH  27  28
ENDBRANCH  14  27
ENDBRANCH  12  13
ENDBRANCH   7  12
ENDBRANCH   3   6
ENDBRANCH   1   2
BRANCH   1  30
ATOM     30  C   UNL     1       0.219  12.138  -1.055  1.00  0.00     0.023 C 
BRANCH  30  31
ATOM     31  C   UNL     1      -0.284  13.565  -1.274  1.00  0.00     0.023 C 
BRANCH  31  32
ATOM     32  C   UNL     1      -1.765  13.780  -0.987  1.00  0.00     0.116 C 
BRANCH  32  33
ATOM     33  N   UNL     1      -2.145  13.442   0.377  1.00  0.00    -0.352 N 
ATOM     34  C   UNL     1      -3.036  14.085   1.205  1.00  0.00     0.251 C 
ATOM     35  H   UNL     1      -1.706  12.648   0.758  1.00  0.00     0.163 HD
ATOM     36  O   UNL     1      -3.176  13.731   2.368  1.00  0.00    -0.269 OA
BRANCH  34  37
ATOM     37  C   UNL     1      -3.789  15.245   0.684  1.00  0.00     0.039 A 
ATOM     38  C   UNL     1      -3.758  16.442   1.403  1.00  0.00     0.014 A 
ATOM     39  C   UNL     1      -4.461  15.166  -0.538  1.00  0.00     0.014 A 
ATOM     40  C   UNL     1      -4.322  17.591   0.847  1.00  0.00     0.010 A 
ATOM     41  C   UNL     1      -4.965  16.325  -1.119  1.00  0.00     0.010 A 
ATOM     42  C   UNL     1      -4.881  17.550  -0.441  1.00  0.00    -0.014 A 
BRANCH  42  43
ATOM     43  C   UNL     1      -5.325  18.790  -1.124  1.00  0.00     0.031 A 
ATOM     44  C   UNL     1      -6.771  18.991  -1.469  1.00  0.00     0.074 A 
ATOM     45  C   UNL     1      -4.404  19.693  -1.511  1.00  0.00     0.049 A 
ATOM     46  N   UNL     1      -7.331  19.965  -2.140  1.00  0.00    -0.248 NA
ATOM     47  C   UNL     1      -7.709  17.948  -1.024  1.00  0.00     0.031 C 
ATOM     48  C   UNL     1      -2.961  19.584  -1.279  1.00  0.00     0.029 A 
ATOM     49  N   UNL     1      -4.540  20.873  -2.198  1.00  0.00    -0.354 N 
ATOM     50  C   UNL     1      -8.681  19.650  -2.205  1.00  0.00     0.074 A 
ATOM     51  C   UNL     1      -8.851  18.372  -1.546  1.00  0.00     0.031 C 
ATOM     52  C   UNL     1      -2.349  20.659  -1.799  1.00  0.00     0.029 A 
ATOM     53  C   UNL     1      -3.347  21.512  -2.436  1.00  0.00     0.049 A 
ATOM     54  H   UNL     1      -5.410  21.229  -2.492  1.00  0.00     0.167 HD
ATOM     55  C   UNL     1      -9.690  20.372  -2.747  1.00  0.00     0.037 A 
ATOM     56  C   UNL     1      -3.085  22.651  -3.105  1.00  0.00     0.037 A 
ATOM     57  C   UNL     1      -9.520  21.651  -3.385  1.00  0.00     0.049 A 
ATOM     58  C   UNL     1      -4.219  23.418  -3.722  1.00  0.00     0.074 A 
ATOM     59  C   UNL     1     -10.490  22.498  -3.892  1.00  0.00     0.029 A 
ATOM     60  N   UNL     1      -8.297  22.264  -3.611  1.00  0.00    -0.354 N 
ATOM     61  N   UNL     1      -5.502  23.149  -3.706  1.00  0.00    -0.248 NA
ATOM     62  C   UNL     1      -3.870  24.642  -4.456  1.00  0.00     0.031 C 
ATOM     63  C   UNL     1      -9.851  23.601  -4.467  1.00  0.00     0.029 A 
ATOM     64  C   UNL     1      -8.485  23.461  -4.283  1.00  0.00     0.049 A 
ATOM     65  H   UNL     1      -7.424  21.902  -3.336  1.00  0.00     0.167 HD
ATOM     66  C   UNL     1      -6.114  24.174  -4.414  1.00  0.00     0.074 A 
ATOM     67  C   UNL     1      -5.064  25.082  -4.829  1.00  0.00     0.031 C 
ATOM     68  C   UNL     1      -7.428  24.346  -4.699  1.00  0.00     0.037 A 
BRANCH  55  69
ATOM     69  C   UNL     1     -11.073  19.796  -2.670  1.00  0.00     0.057 A 
ATOM     70  C   UNL     1     -11.777  19.730  -1.461  1.00  0.00     0.134 A 
ATOM     71  C   UNL     1     -11.723  19.337  -3.822  1.00  0.00     0.134 A 
ATOM     72  F   UNL     1     -11.206  20.143  -0.319  1.00  0.00    -0.206 F 
ATOM     73  C   UNL     1     -13.070  19.209  -1.396  1.00  0.00     0.040 A 
ATOM     74  C   UNL     1     -13.024  18.836  -3.775  1.00  0.00     0.040 A 
ATOM     75  F   UNL     1     -11.107  19.376  -5.013  1.00  0.00    -0.206 F 
ATOM     76  C   UNL     1     -13.700  18.766  -2.558  1.00  0.00     0.006 A 
ENDBRANCH  55  69
BRANCH  56  77
ATOM     77  C   UNL     1      -1.688  23.136  -3.225  1.00  0.00     0.057 A 
ATOM     78  C   UNL     1      -1.260  24.275  -2.535  1.00  0.00     0.134 A 
ATOM     79  C   UNL     1      -0.750  22.478  -4.029  1.00  0.00     0.134 A 
ATOM     80  F   UNL     1      -2.118  24.959  -1.764  1.00  0.00    -0.206 F 
ATOM     81  C   UNL     1       0.047  24.752  -2.651  1.00  0.00     0.040 A 
ATOM     82  C   UNL     1       0.566  22.930  -4.137  1.00  0.00     0.040 A 
ATOM     83  F   UNL     1      -1.097  21.377  -4.712  1.00  0.00    -0.206 F 
ATOM     84  C   UNL     1       0.966  24.075  -3.450  1.00  0.00     0.006 A 
ENDBRANCH  56  77
BRANCH  68  85
ATOM     85  C   UNL     1      -7.801  25.560  -5.495  1.00  0.00     0.057 A 
ATOM     86  C   UNL     1      -7.536  25.645  -6.868  1.00  0.00     0.134 A 
ATOM     87  C   UNL     1      -8.468  26.636  -4.895  1.00  0.00     0.134 A 
ATOM     88  F   UNL     1      -6.886  24.654  -7.497  1.00  0.00    -0.206 F 
ATOM     89  C   UNL     1      -7.909  26.764  -7.614  1.00  0.00     0.040 A 
ATOM     90  C   UNL     1      -8.866  27.750  -5.635  1.00  0.00     0.040 A 
ATOM     91  F   UNL     1      -8.756  26.614  -3.585  1.00  0.00    -0.206 F 
ATOM     92  C   UNL     1      -8.583  27.817  -6.998  1.00  0.00     0.006 A 
ENDBRANCH  68  85
ENDBRANCH  42  43
ENDBRANCH  34  37
ENDBRANCH  32  33
ENDBRANCH  31  32
ENDBRANCH  30  31
ENDBRANCH   1  30
TORSDOF 17
