REMARK SMILES CC(C)c1nc(N(C)CCc2ccccn2)sc1C(=O)NCCCCNC(=O)c1ccc(-c2c3nc(c(-c4c(F)cccc4F)c4ccc([nH]4)c(-c4c(F)cccc4F)c4nc(c(-c5c(F)cccc5F)c5ccc2[nH]5)C=C4)C=C3)cc1
REMARK SMILES IDX 22 1 21 2 19 3 20 4 18 6 4 7 5 8 6 9 17 10 2 11 1 12 3 13
REMARK SMILES IDX 7 14 8 15 9 16 10 17 11 18 12 19 16 20 13 21 15 22 14 23
REMARK SMILES IDX 23 24 24 25 25 26 26 27 27 28 28 30 29 31 30 32 82 33 31 34
REMARK SMILES IDX 81 35 32 36 33 37 34 38 75 39 35 40 80 41 74 42 76 43 36 44
REMARK SMILES IDX 79 45 73 46 72 47 37 49 63 50 46 51 62 52 47 53 50 54 61 55
REMARK SMILES IDX 77 56 48 57 49 58 60 60 78 61 51 62 38 63 39 64 44 65 40 66
REMARK SMILES IDX 41 67 43 68 45 69 42 70 64 71 65 72 70 73 66 74 67 75 69 76
REMARK SMILES IDX 71 77 68 78 52 79 53 80 58 81 54 82 55 83 57 84 59 85 56 86
REMARK H PARENT 21 5 26 29 76 48 50 59
REMARK Flexibility Score: inf
ROOT
ATOM      1  C   UNL     1       1.055   1.266  -2.014  1.00  0.00     0.116 C 
ENDROOT
BRANCH   1   2
ATOM      2  N   UNL     1       0.057   2.182  -1.529  1.00  0.00    -0.351 N 
ATOM      3  C   UNL     1      -1.131   1.901  -0.883  1.00  0.00     0.263 C 
ATOM      4  O   UNL     1      -1.792   2.892  -0.556  1.00  0.00    -0.268 OA
ATOM      5  H   UNL     1       0.246   3.136  -1.678  1.00  0.00     0.163 HD
BRANCH   3   6
ATOM      6  C   UNL     1      -1.597   0.537  -0.681  1.00  0.00     0.117 A 
ATOM      7  C   UNL     1      -1.024  -0.665  -0.270  1.00  0.00     0.069 A 
ATOM      8  N   UNL     1      -1.901  -1.736  -0.303  1.00  0.00    -0.224 NA
ATOM      9  C   UNL     1      -3.084  -1.426  -0.771  1.00  0.00     0.186 A 
ATOM     10  S   UNL     1      -3.291   0.268  -0.960  1.00  0.00    -0.091 S 
BRANCH   7  11
ATOM     11  C   UNL     1       0.387  -1.012   0.147  1.00  0.00     0.034 C 
ATOM     12  C   UNL     1       0.863  -0.206   1.352  1.00  0.00     0.014 C 
ATOM     13  C   UNL     1       0.598  -2.511   0.413  1.00  0.00     0.014 C 
ENDBRANCH   7  11
BRANCH   9  14
ATOM     14  N   UNL     1      -3.983  -2.382  -1.137  1.00  0.00    -0.351 N 
ATOM     15  C   UNL     1      -5.399  -2.139  -1.312  1.00  0.00     0.146 C 
BRANCH  14  16
ATOM     16  C   UNL     1      -3.495  -3.764  -1.283  1.00  0.00     0.125 C 
BRANCH  16  17
ATOM     17  C   UNL     1      -3.060  -4.087  -2.722  1.00  0.00     0.077 C 
BRANCH  17  18
ATOM     18  C   UNL     1      -1.779  -3.425  -3.172  1.00  0.00     0.042 A 
ATOM     19  C   UNL     1      -1.800  -2.142  -3.718  1.00  0.00     0.024 A 
ATOM     20  N   UNL     1      -0.630  -4.134  -3.041  1.00  0.00    -0.261 NA
ATOM     21  C   UNL     1      -0.602  -1.551  -4.109  1.00  0.00     0.003 A 
ATOM     22  C   UNL     1       0.518  -3.535  -3.433  1.00  0.00     0.111 A 
ATOM     23  C   UNL     1       0.584  -2.257  -3.961  1.00  0.00     0.020 A 
ENDBRANCH  17  18
ENDBRANCH  16  17
ENDBRANCH  14  16
ENDBRANCH   9  14
ENDBRANCH   3   6
ENDBRANCH   1   2
BRANCH   1  24
ATOM     24  C   UNL     1       1.937   1.768  -3.147  1.00  0.00     0.023 C 
BRANCH  24  25
ATOM     25  C   UNL     1       2.864   2.933  -2.811  1.00  0.00     0.023 C 
BRANCH  25  26
ATOM     26  C   UNL     1       3.644   2.839  -1.502  1.00  0.00     0.116 C 
BRANCH  26  27
ATOM     27  N   UNL     1       4.532   1.688  -1.409  1.00  0.00    -0.352 N 
ATOM     28  C   UNL     1       5.889   1.634  -1.178  1.00  0.00     0.251 C 
ATOM     29  H   UNL     1       4.096   0.815  -1.531  1.00  0.00     0.163 HD
ATOM     30  O   UNL     1       6.471   0.552  -1.190  1.00  0.00    -0.269 OA
BRANCH  28  31
ATOM     31  C   UNL     1       6.661   2.880  -0.972  1.00  0.00     0.039 A 
ATOM     32  C   UNL     1       7.836   3.072  -1.705  1.00  0.00     0.014 A 
ATOM     33  C   UNL     1       6.209   3.875  -0.104  1.00  0.00     0.014 A 
ATOM     34  C   UNL     1       8.489   4.306  -1.656  1.00  0.00     0.010 A 
ATOM     35  C   UNL     1       6.809   5.131  -0.124  1.00  0.00     0.010 A 
ATOM     36  C   UNL     1       7.945   5.367  -0.914  1.00  0.00    -0.014 A 
BRANCH  36  37
ATOM     37  C   UNL     1       8.523   6.736  -0.976  1.00  0.00     0.031 A 
ATOM     38  C   UNL     1       9.059   7.393   0.265  1.00  0.00     0.074 A 
ATOM     39  C   UNL     1       8.486   7.425  -2.135  1.00  0.00     0.049 A 
ATOM     40  N   UNL     1       9.514   8.611   0.426  1.00  0.00    -0.248 NA
ATOM     41  C   UNL     1       9.054   6.587   1.495  1.00  0.00     0.031 C 
ATOM     42  C   UNL     1       7.939   6.929  -3.400  1.00  0.00     0.029 A 
ATOM     43  N   UNL     1       8.904   8.698  -2.434  1.00  0.00    -0.354 N 
ATOM     44  C   UNL     1       9.828   8.721   1.775  1.00  0.00     0.074 A 
ATOM     45  C   UNL     1       9.463   7.466   2.397  1.00  0.00     0.031 C 
ATOM     46  C   UNL     1       8.077   7.876  -4.342  1.00  0.00     0.029 A 
ATOM     47  C   UNL     1       8.686   9.059  -3.742  1.00  0.00     0.049 A 
ATOM     48  H   UNL     1       9.320   9.297  -1.773  1.00  0.00     0.167 HD
ATOM     49  C   UNL     1      10.391   9.762   2.432  1.00  0.00     0.037 A 
ATOM     50  C   UNL     1       8.941  10.214  -4.386  1.00  0.00     0.037 A 
ATOM     51  C   UNL     1      10.785  10.999   1.809  1.00  0.00     0.049 A 
ATOM     52  C   UNL     1       9.574  11.353  -3.637  1.00  0.00     0.074 A 
ATOM     53  C   UNL     1      11.428  12.084   2.378  1.00  0.00     0.029 A 
ATOM     54  N   UNL     1      10.572  11.314   0.476  1.00  0.00    -0.354 N 
ATOM     55  N   UNL     1       9.931  11.415  -2.377  1.00  0.00    -0.248 NA
ATOM     56  C   UNL     1       9.842  12.580  -4.399  1.00  0.00     0.031 C 
ATOM     57  C   UNL     1      11.570  13.072   1.398  1.00  0.00     0.029 A 
ATOM     58  C   UNL     1      11.053  12.585   0.209  1.00  0.00     0.049 A 
ATOM     59  H   UNL     1      10.142  10.722  -0.183  1.00  0.00     0.167 HD
ATOM     60  C   UNL     1      10.489  12.675  -2.203  1.00  0.00     0.074 A 
ATOM     61  C   UNL     1      10.435  13.339  -3.489  1.00  0.00     0.031 C 
ATOM     62  C   UNL     1      10.999  13.232  -1.077  1.00  0.00     0.037 A 
BRANCH  49  63
ATOM     63  C   UNL     1      10.624   9.602   3.906  1.00  0.00     0.057 A 
ATOM     64  C   UNL     1      11.605   8.736   4.407  1.00  0.00     0.134 A 
ATOM     65  C   UNL     1       9.879  10.340   4.834  1.00  0.00     0.134 A 
ATOM     66  F   UNL     1      12.345   7.991   3.572  1.00  0.00    -0.206 F 
ATOM     67  C   UNL     1      11.817   8.588   5.779  1.00  0.00     0.040 A 
ATOM     68  C   UNL     1      10.100  10.221   6.207  1.00  0.00     0.040 A 
ATOM     69  F   UNL     1       8.928  11.192   4.422  1.00  0.00    -0.206 F 
ATOM     70  C   UNL     1      11.066   9.336   6.683  1.00  0.00     0.006 A 
ENDBRANCH  49  63
BRANCH  50  71
ATOM     71  C   UNL     1       8.623  10.346  -5.830  1.00  0.00     0.057 A 
ATOM     72  C   UNL     1       9.642  10.399  -6.789  1.00  0.00     0.134 A 
ATOM     73  C   UNL     1       7.303  10.435  -6.287  1.00  0.00     0.134 A 
ATOM     74  F   UNL     1      10.927  10.339  -6.411  1.00  0.00    -0.206 F 
ATOM     75  C   UNL     1       9.361  10.553  -8.148  1.00  0.00     0.040 A 
ATOM     76  C   UNL     1       7.006  10.566  -7.644  1.00  0.00     0.040 A 
ATOM     77  F   UNL     1       6.281  10.384  -5.419  1.00  0.00    -0.206 F 
ATOM     78  C   UNL     1       8.038  10.632  -8.579  1.00  0.00     0.006 A 
ENDBRANCH  50  71
BRANCH  62  79
ATOM     79  C   UNL     1      11.569  14.615  -1.193  1.00  0.00     0.057 A 
ATOM     80  C   UNL     1      10.749  15.741  -1.334  1.00  0.00     0.134 A 
ATOM     81  C   UNL     1      12.952  14.824  -1.122  1.00  0.00     0.134 A 
ATOM     82  F   UNL     1       9.417  15.606  -1.422  1.00  0.00    -0.206 F 
ATOM     83  C   UNL     1      11.286  17.027  -1.421  1.00  0.00     0.040 A 
ATOM     84  C   UNL     1      13.499  16.106  -1.183  1.00  0.00     0.040 A 
ATOM     85  F   UNL     1      13.791  13.788  -0.979  1.00  0.00    -0.206 F 
ATOM     86  C   UNL     1      12.665  17.212  -1.338  1.00  0.00     0.006 A 
ENDBRANCH  62  79
ENDBRANCH  36  37
ENDBRANCH  28  31
ENDBRANCH  26  27
ENDBRANCH  25  26
ENDBRANCH  24  25
ENDBRANCH   1  24
TORSDOF 16
