REMARK SMILES COc1ccc(NC(=O)N[C@@H]2C=C[C@H](C(=O)NCCCCNC(=O)c3ccc(-c4c5nc(c(-c6c(F)cccc6F)c6ccc([nH]6)c(-c6c(F)cccc6F)c6nc(c(-c7c(F)cccc7F)c7ccc4[nH]7)C=C6)C=C5)cc3)C2)c(C)c1
REMARK SMILES IDX 19 1 18 2 17 3 15 4 16 5 14 7 11 8 12 9 79 10 13 11 10 12
REMARK SMILES IDX 7 13 8 14 9 16 6 18 3 19 4 20 82 21 5 22 80 23 81 24 2 25
REMARK SMILES IDX 1 26 20 27 21 28 22 29 23 30 24 32 25 33 26 34 78 35 27 36
REMARK SMILES IDX 77 37 28 38 29 39 30 40 71 41 31 42 76 43 70 44 72 45 32 46
REMARK SMILES IDX 75 47 69 48 68 49 33 51 59 52 42 53 58 54 43 55 46 56 57 57
REMARK SMILES IDX 73 58 44 59 45 60 56 62 74 63 47 64 34 65 35 66 40 67 36 68
REMARK SMILES IDX 37 69 39 70 41 71 38 72 60 73 61 74 66 75 62 76 63 77 65 78
REMARK SMILES IDX 67 79 64 80 48 81 49 82 54 83 50 84 51 85 53 86 55 87 52 88
REMARK H PARENT 17 6 7 15 10 17 22 31 72 50 46 61
REMARK Flexibility Score: inf
ROOT
ATOM      1  C   UNL     1      -1.485   2.272   2.605  1.00  0.00     0.023 C 
ENDROOT
BRANCH   1   2
ATOM      2  C   UNL     1      -1.042   0.804   2.652  1.00  0.00     0.116 C 
BRANCH   2   3
ATOM      3  N   UNL     1      -0.258   0.414   1.497  1.00  0.00    -0.356 N 
ATOM      4  C   UNL     1       1.086   0.432   1.287  1.00  0.00     0.227 C 
ATOM      5  O   UNL     1       1.479   0.143   0.155  1.00  0.00    -0.274 OA
ATOM      6  H   UNL     1      -0.787   0.079   0.738  1.00  0.00     0.163 HD
BRANCH   4   7
ATOM      7  C   UNL     1       2.029   0.777   2.434  1.00  0.00     0.103 C 
ATOM      8  C   UNL     1       3.859   2.281   2.994  1.00  0.00     0.107 C 
ATOM      9  C   UNL     1       4.360   0.991   2.423  1.00  0.00    -0.006 C 
ATOM     10  C   UNL     1       2.406   2.271   2.489  1.00  0.00     0.047 C 
ATOM     11  C   UNL     1       3.364   0.135   2.186  1.00  0.00    -0.016 C 
BRANCH   8  12
ATOM     12  N   UNL     1       4.708   3.335   2.516  1.00  0.00    -0.332 N 
ATOM     13  N   UNL     1       6.498   3.711   4.098  1.00  0.00    -0.308 N 
ATOM     14  C   UNL     1       5.849   3.897   2.933  1.00  0.00     0.319 C 
ATOM     15  H   UNL     1       7.274   4.314   4.157  1.00  0.00     0.171 HD
ATOM     16  O   UNL     1       6.329   4.754   2.178  1.00  0.00    -0.248 OA
ATOM     17  H   UNL     1       4.371   3.741   1.685  1.00  0.00     0.165 HD
BRANCH  13  18
ATOM     18  C   UNL     1       6.405   2.917   5.258  1.00  0.00     0.046 A 
ATOM     19  C   UNL     1       5.833   1.531   7.666  1.00  0.00     0.119 A 
ATOM     20  C   UNL     1       5.478   0.992   6.445  1.00  0.00     0.048 A 
ATOM     21  C   UNL     1       6.630   2.675   7.671  1.00  0.00     0.052 A 
ATOM     22  C   UNL     1       5.816   1.663   5.269  1.00  0.00     0.030 A 
ATOM     23  C   UNL     1       6.953   3.363   6.476  1.00  0.00    -0.024 A 
ATOM     24  C   UNL     1       7.972   4.468   6.587  1.00  0.00     0.047 C 
BRANCH  19  25
ATOM     25  O   UNL     1       5.523   1.002   8.886  1.00  0.00    -0.497 OA
ATOM     26  C   UNL     1       4.564  -0.052   8.884  1.00  0.00     0.278 C 
ENDBRANCH  19  25
ENDBRANCH  13  18
ENDBRANCH   8  12
ENDBRANCH   4   7
ENDBRANCH   2   3
ENDBRANCH   1   2
BRANCH   1  27
ATOM     27  C   UNL     1      -1.996   2.778   1.251  1.00  0.00     0.023 C 
BRANCH  27  28
ATOM     28  C   UNL     1      -3.127   1.966   0.633  1.00  0.00     0.116 C 
BRANCH  28  29
ATOM     29  N   UNL     1      -4.462   2.305   1.098  1.00  0.00    -0.352 N 
ATOM     30  C   UNL     1      -5.649   1.609   0.917  1.00  0.00     0.251 C 
ATOM     31  H   UNL     1      -4.533   3.143   1.610  1.00  0.00     0.163 HD
ATOM     32  O   UNL     1      -6.697   2.067   1.341  1.00  0.00    -0.269 OA
BRANCH  30  33
ATOM     33  C   UNL     1      -5.616   0.243   0.329  1.00  0.00     0.039 A 
ATOM     34  C   UNL     1      -6.334  -0.765   0.983  1.00  0.00     0.014 A 
ATOM     35  C   UNL     1      -4.746  -0.086  -0.709  1.00  0.00     0.014 A 
ATOM     36  C   UNL     1      -5.981  -2.098   0.780  1.00  0.00     0.010 A 
ATOM     37  C   UNL     1      -4.333  -1.399  -0.852  1.00  0.00     0.010 A 
ATOM     38  C   UNL     1      -4.900  -2.393  -0.052  1.00  0.00    -0.014 A 
BRANCH  38  39
ATOM     39  C   UNL     1      -4.220  -3.682  -0.019  1.00  0.00     0.031 A 
ATOM     40  C   UNL     1      -4.475  -4.707  -1.046  1.00  0.00     0.074 A 
ATOM     41  C   UNL     1      -3.357  -3.967   0.982  1.00  0.00     0.049 A 
ATOM     42  N   UNL     1      -4.529  -5.973  -0.788  1.00  0.00    -0.248 NA
ATOM     43  C   UNL     1      -4.712  -4.380  -2.448  1.00  0.00     0.031 C 
ATOM     44  C   UNL     1      -2.476  -5.128   1.083  1.00  0.00     0.029 A 
ATOM     45  N   UNL     1      -3.260  -3.344   2.231  1.00  0.00    -0.354 N 
ATOM     46  C   UNL     1      -4.538  -6.627  -1.994  1.00  0.00     0.074 A 
ATOM     47  C   UNL     1      -4.736  -5.600  -2.994  1.00  0.00     0.031 C 
ATOM     48  C   UNL     1      -2.145  -5.308   2.371  1.00  0.00     0.029 A 
ATOM     49  C   UNL     1      -2.902  -4.348   3.154  1.00  0.00     0.049 A 
ATOM     50  H   UNL     1      -3.413  -2.391   2.427  1.00  0.00     0.167 HD
ATOM     51  C   UNL     1      -4.219  -7.949  -2.068  1.00  0.00     0.037 A 
ATOM     52  C   UNL     1      -3.681  -4.649   4.232  1.00  0.00     0.037 A 
ATOM     53  C   UNL     1      -3.835  -8.501  -0.778  1.00  0.00     0.049 A 
ATOM     54  C   UNL     1      -4.134  -6.088   4.283  1.00  0.00     0.074 A 
ATOM     55  C   UNL     1      -2.595  -8.689  -0.190  1.00  0.00     0.029 A 
ATOM     56  N   UNL     1      -4.776  -8.649   0.234  1.00  0.00    -0.354 N 
ATOM     57  N   UNL     1      -4.118  -6.888   3.255  1.00  0.00    -0.248 NA
ATOM     58  C   UNL     1      -4.694  -6.720   5.475  1.00  0.00     0.031 C 
ATOM     59  C   UNL     1      -2.788  -8.923   1.189  1.00  0.00     0.029 A 
ATOM     60  C   UNL     1      -4.147  -8.888   1.442  1.00  0.00     0.049 A 
ATOM     61  H   UNL     1      -5.751  -8.592   0.108  1.00  0.00     0.167 HD
ATOM     62  C   UNL     1      -4.704  -8.081   3.597  1.00  0.00     0.074 A 
ATOM     63  C   UNL     1      -5.014  -7.939   5.006  1.00  0.00     0.031 C 
ATOM     64  C   UNL     1      -4.903  -9.066   2.671  1.00  0.00     0.037 A 
BRANCH  51  65
ATOM     65  C   UNL     1      -3.952  -8.601  -3.394  1.00  0.00     0.057 A 
ATOM     66  C   UNL     1      -2.824  -9.411  -3.611  1.00  0.00     0.134 A 
ATOM     67  C   UNL     1      -4.773  -8.404  -4.517  1.00  0.00     0.134 A 
ATOM     68  F   UNL     1      -1.984  -9.733  -2.619  1.00  0.00    -0.206 F 
ATOM     69  C   UNL     1      -2.484  -9.908  -4.874  1.00  0.00     0.040 A 
ATOM     70  C   UNL     1      -4.425  -8.862  -5.795  1.00  0.00     0.040 A 
ATOM     71  F   UNL     1      -5.936  -7.741  -4.410  1.00  0.00    -0.206 F 
ATOM     72  C   UNL     1      -3.268  -9.608  -5.978  1.00  0.00     0.006 A 
ENDBRANCH  51  65
BRANCH  52  73
ATOM     73  C   UNL     1      -4.493  -3.502   4.713  1.00  0.00     0.057 A 
ATOM     74  C   UNL     1      -3.836  -2.377   5.241  1.00  0.00     0.134 A 
ATOM     75  C   UNL     1      -5.827  -3.342   4.331  1.00  0.00     0.134 A 
ATOM     76  F   UNL     1      -2.550  -2.461   5.621  1.00  0.00    -0.206 F 
ATOM     77  C   UNL     1      -4.445  -1.121   5.284  1.00  0.00     0.040 A 
ATOM     78  C   UNL     1      -6.450  -2.091   4.379  1.00  0.00     0.040 A 
ATOM     79  F   UNL     1      -6.513  -4.365   3.801  1.00  0.00    -0.206 F 
ATOM     80  C   UNL     1      -5.747  -0.970   4.818  1.00  0.00     0.006 A 
ENDBRANCH  52  73
BRANCH  64  81
ATOM     81  C   UNL     1      -5.726 -10.319   2.851  1.00  0.00     0.057 A 
ATOM     82  C   UNL     1      -6.809 -10.441   3.734  1.00  0.00     0.134 A 
ATOM     83  C   UNL     1      -5.525 -11.433   2.002  1.00  0.00     0.134 A 
ATOM     84  F   UNL     1      -7.190  -9.427   4.522  1.00  0.00    -0.206 F 
ATOM     85  C   UNL     1      -7.594 -11.601   3.809  1.00  0.00     0.040 A 
ATOM     86  C   UNL     1      -6.335 -12.572   2.030  1.00  0.00     0.040 A 
ATOM     87  F   UNL     1      -4.543 -11.456   1.087  1.00  0.00    -0.206 F 
ATOM     88  C   UNL     1      -7.367 -12.666   2.948  1.00  0.00     0.006 A 
ENDBRANCH  64  81
ENDBRANCH  38  39
ENDBRANCH  30  33
ENDBRANCH  28  29
ENDBRANCH  27  28
ENDBRANCH   1  27
TORSDOF 14
