REMARK SMILES C[C@@](O)(CNC(=O)c1ccc(Br)cc1N)CC(=O)NCCCCNC(=O)c1ccc(-c2c3nc(c(-c4c(F)cccc4F)c4ccc([nH]4)c(-c4c(F)cccc4F)c4nc(c(-c5c(F)cccc5F)c5ccc2[nH]5)C=C4)C=C3)cc1
REMARK SMILES IDX 20 1 19 2 17 3 18 4 16 6 2 7 1 8 3 9 4 11 5 12 6 13 7 15
REMARK SMILES IDX 8 16 9 17 14 18 10 19 13 20 11 21 12 22 15 23 21 26 22 27
REMARK SMILES IDX 23 28 24 29 25 30 26 32 27 33 28 34 80 35 29 36 79 37 30 38
REMARK SMILES IDX 31 39 32 40 73 41 33 42 78 43 72 44 74 45 34 46 77 47 71 48
REMARK SMILES IDX 70 49 35 51 61 52 44 53 60 54 45 55 48 56 59 57 75 58 46 59
REMARK SMILES IDX 47 60 58 62 76 63 49 64 36 65 37 66 42 67 38 68 39 69 41 70
REMARK SMILES IDX 43 71 40 72 62 73 63 74 68 75 64 76 65 77 67 78 69 79 66 80
REMARK SMILES IDX 50 81 51 82 56 83 52 84 53 85 55 86 57 87 54 88
REMARK H PARENT 19 5 3 10 5 14 15 24 15 25 24 31 74 50 48 61
REMARK Flexibility Score: inf
ROOT
ATOM      1  C   UNL     1      -1.701  -1.988  -1.633  1.00  0.00     0.116 C 
ENDROOT
BRANCH   1   2
ATOM      2  N   UNL     1      -0.865  -1.479  -2.734  1.00  0.00    -0.356 N 
ATOM      3  C   UNL     1       0.373  -0.937  -2.895  1.00  0.00     0.222 C 
ATOM      4  O   UNL     1       0.765  -0.661  -4.033  1.00  0.00    -0.275 OA
ATOM      5  H   UNL     1      -1.334  -1.551  -3.597  1.00  0.00     0.163 HD
BRANCH   3   6
ATOM      6  C   UNL     1       1.295  -0.726  -1.750  1.00  0.00     0.136 C 
BRANCH   6   7
ATOM      7  C   UNL     1       0.647  -0.011  -0.594  1.00  0.00     0.088 C 
ATOM      8  C   UNL     1       1.701   0.784   0.205  1.00  0.00     0.044 C 
BRANCH   7   9
ATOM      9  O   UNL     1       0.268  -1.039   0.372  1.00  0.00    -0.388 OA
ATOM     10  H   UNL     1      -0.156  -0.623   1.139  1.00  0.00     0.211 HD
ENDBRANCH   7   9
BRANCH   7  11
ATOM     11  C   UNL     1      -0.646   0.848  -0.902  1.00  0.00     0.151 C 
BRANCH  11  12
ATOM     12  N   UNL     1      -1.194   1.373  -2.248  1.00  0.00    -0.349 N 
ATOM     13  C   UNL     1      -2.081   1.210  -3.343  1.00  0.00     0.253 C 
ATOM     14  H   UNL     1      -0.699   2.204  -2.429  1.00  0.00     0.163 HD
ATOM     15  O   UNL     1      -2.463   2.302  -3.804  1.00  0.00    -0.269 OA
BRANCH  13  16
ATOM     16  C   UNL     1      -2.576   0.013  -4.184  1.00  0.00     0.062 A 
ATOM     17  C   UNL     1      -3.494  -0.988  -3.809  1.00  0.00     0.017 A 
ATOM     18  C   UNL     1      -2.193  -0.067  -5.539  1.00  0.00     0.045 A 
ATOM     19  C   UNL     1      -3.733  -2.168  -4.536  1.00  0.00     0.016 A 
ATOM     20  C   UNL     1      -2.373  -1.274  -6.264  1.00  0.00     0.042 A 
ATOM     21  C   UNL     1      -3.097  -2.339  -5.740  1.00  0.00     0.020 A 
ATOM     22  Br  UNL     1      -3.222  -3.989  -6.646  1.00  0.00    -0.051 Br
BRANCH  18  23
ATOM     23  N   UNL     1      -1.528   0.979  -6.178  1.00  0.00    -0.398 N 
ATOM     24  H   UNL     1      -1.384   1.832  -5.708  1.00  0.00     0.156 HD
ATOM     25  H   UNL     1      -1.202   0.865  -7.101  1.00  0.00     0.156 HD
ENDBRANCH  18  23
ENDBRANCH  13  16
ENDBRANCH  11  12
ENDBRANCH   7  11
ENDBRANCH   6   7
ENDBRANCH   3   6
ENDBRANCH   1   2
BRANCH   1  26
ATOM     26  C   UNL     1      -3.018  -1.334  -0.886  1.00  0.00     0.023 C 
BRANCH  26  27
ATOM     27  C   UNL     1      -3.796   0.085  -0.741  1.00  0.00     0.023 C 
BRANCH  27  28
ATOM     28  C   UNL     1      -4.897   0.754  -1.638  1.00  0.00     0.116 C 
BRANCH  28  29
ATOM     29  N   UNL     1      -6.079  -0.038  -1.931  1.00  0.00    -0.352 N 
ATOM     30  C   UNL     1      -7.256   0.358  -2.533  1.00  0.00     0.251 C 
ATOM     31  H   UNL     1      -6.034  -0.985  -1.664  1.00  0.00     0.163 HD
ATOM     32  O   UNL     1      -8.156  -0.471  -2.697  1.00  0.00    -0.269 OA
BRANCH  30  33
ATOM     33  C   UNL     1      -7.511   1.771  -2.917  1.00  0.00     0.039 A 
ATOM     34  C   UNL     1      -6.719   2.461  -3.838  1.00  0.00     0.014 A 
ATOM     35  C   UNL     1      -8.640   2.404  -2.378  1.00  0.00     0.014 A 
ATOM     36  C   UNL     1      -6.991   3.811  -4.125  1.00  0.00     0.010 A 
ATOM     37  C   UNL     1      -8.925   3.741  -2.687  1.00  0.00     0.010 A 
ATOM     38  C   UNL     1      -8.076   4.478  -3.529  1.00  0.00    -0.014 A 
BRANCH  38  39
ATOM     39  C   UNL     1      -8.299   5.943  -3.728  1.00  0.00     0.031 A 
ATOM     40  C   UNL     1      -8.121   6.900  -2.572  1.00  0.00     0.074 A 
ATOM     41  C   UNL     1      -8.662   6.433  -4.930  1.00  0.00     0.049 A 
ATOM     42  N   UNL     1      -8.305   8.197  -2.523  1.00  0.00    -0.248 NA
ATOM     43  C   UNL     1      -7.687   6.312  -1.296  1.00  0.00     0.031 C 
ATOM     44  C   UNL     1      -8.868   5.636  -6.137  1.00  0.00     0.029 A 
ATOM     45  N   UNL     1      -8.925   7.722  -5.332  1.00  0.00    -0.354 N 
ATOM     46  C   UNL     1      -8.018   8.577  -1.216  1.00  0.00     0.074 A 
ATOM     47  C   UNL     1      -7.692   7.366  -0.493  1.00  0.00     0.031 C 
ATOM     48  C   UNL     1      -9.204   6.453  -7.150  1.00  0.00     0.029 A 
ATOM     49  C   UNL     1      -9.285   7.825  -6.655  1.00  0.00     0.049 A 
ATOM     50  H   UNL     1      -8.861   8.498  -4.729  1.00  0.00     0.167 HD
ATOM     51  C   UNL     1      -8.011   9.818  -0.666  1.00  0.00     0.037 A 
ATOM     52  C   UNL     1      -9.657   8.896  -7.383  1.00  0.00     0.037 A 
ATOM     53  C   UNL     1      -8.337  11.027  -1.380  1.00  0.00     0.049 A 
ATOM     54  C   UNL     1      -9.711  10.254  -6.735  1.00  0.00     0.074 A 
ATOM     55  C   UNL     1      -8.336  12.333  -0.915  1.00  0.00     0.029 A 
ATOM     56  N   UNL     1      -8.734  11.080  -2.708  1.00  0.00    -0.354 N 
ATOM     57  N   UNL     1      -9.409  10.600  -5.507  1.00  0.00    -0.248 NA
ATOM     58  C   UNL     1     -10.163  11.372  -7.577  1.00  0.00     0.031 C 
ATOM     59  C   UNL     1      -8.787  13.166  -1.945  1.00  0.00     0.029 A 
ATOM     60  C   UNL     1      -9.008  12.390  -3.071  1.00  0.00     0.049 A 
ATOM     61  H   UNL     1      -8.810  10.301  -3.305  1.00  0.00     0.167 HD
ATOM     62  C   UNL     1      -9.605  11.975  -5.438  1.00  0.00     0.074 A 
ATOM     63  C   UNL     1     -10.037  12.402  -6.753  1.00  0.00     0.031 C 
ATOM     64  C   UNL     1      -9.438  12.808  -4.381  1.00  0.00     0.037 A 
BRANCH  51  65
ATOM     65  C   UNL     1      -7.658   9.925   0.793  1.00  0.00     0.057 A 
ATOM     66  C   UNL     1      -8.621  10.309   1.737  1.00  0.00     0.134 A 
ATOM     67  C   UNL     1      -6.365   9.665   1.268  1.00  0.00     0.134 A 
ATOM     68  F   UNL     1      -9.877  10.588   1.355  1.00  0.00    -0.206 F 
ATOM     69  C   UNL     1      -8.314  10.420   3.095  1.00  0.00     0.040 A 
ATOM     70  C   UNL     1      -6.053   9.742   2.628  1.00  0.00     0.040 A 
ATOM     71  F   UNL     1      -5.394   9.287   0.423  1.00  0.00    -0.206 F 
ATOM     72  C   UNL     1      -7.029  10.125   3.545  1.00  0.00     0.006 A 
ENDBRANCH  51  65
BRANCH  52  73
ATOM     73  C   UNL     1     -10.017   8.735  -8.816  1.00  0.00     0.057 A 
ATOM     74  C   UNL     1     -11.176   8.052  -9.206  1.00  0.00     0.134 A 
ATOM     75  C   UNL     1      -9.221   9.282  -9.830  1.00  0.00     0.134 A 
ATOM     76  F   UNL     1     -11.983   7.507  -8.285  1.00  0.00    -0.206 F 
ATOM     77  C   UNL     1     -11.523   7.907 -10.550  1.00  0.00     0.040 A 
ATOM     78  C   UNL     1      -9.572   9.170 -11.177  1.00  0.00     0.040 A 
ATOM     79  F   UNL     1      -8.113   9.971  -9.521  1.00  0.00    -0.206 F 
ATOM     80  C   UNL     1     -10.724   8.475 -11.540  1.00  0.00     0.006 A 
ENDBRANCH  52  73
BRANCH  64  81
ATOM     81  C   UNL     1      -9.681  14.273  -4.616  1.00  0.00     0.057 A 
ATOM     82  C   UNL     1      -8.613  15.181  -4.612  1.00  0.00     0.134 A 
ATOM     83  C   UNL     1     -10.965  14.791  -4.832  1.00  0.00     0.134 A 
ATOM     84  F   UNL     1      -7.358  14.756  -4.402  1.00  0.00    -0.206 F 
ATOM     85  C   UNL     1      -8.813  16.547  -4.815  1.00  0.00     0.040 A 
ATOM     86  C   UNL     1     -11.174  16.152  -5.067  1.00  0.00     0.040 A 
ATOM     87  F   UNL     1     -12.031  13.976  -4.863  1.00  0.00    -0.206 F 
ATOM     88  C   UNL     1     -10.096  17.035  -5.053  1.00  0.00     0.006 A 
ENDBRANCH  64  81
ENDBRANCH  38  39
ENDBRANCH  30  33
ENDBRANCH  28  29
ENDBRANCH  27  28
ENDBRANCH  26  27
ENDBRANCH   1  26
TORSDOF 17
