REMARK SMILES Cc1ccc(S(=O)(=O)N2CCC(C(=O)N3CCC[C@@H](C(=O)NCCCCNC(=O)c4ccc(-c5c6nc(c(-c7c(F)cccc7F)c7ccc([nH]7)c(-c7c(F)cccc7F)c7nc(c(-c8c(F)cccc8F)c8ccc5[nH]8)C=C7)C=C6)cc4)C3)CC2)cc1
REMARK SMILES IDX 23 1 22 2 20 3 21 4 19 6 15 7 16 8 84 9 17 10 18 11 13 12
REMARK SMILES IDX 14 13 12 14 9 15 10 16 86 17 11 18 85 19 6 20 7 21 8 22 5 23
REMARK SMILES IDX 1 24 2 25 3 26 88 27 4 28 87 29 24 30 25 31 26 32 27 33
REMARK SMILES IDX 28 34 29 36 30 37 31 38 83 39 32 40 82 41 33 42 34 43 35 44
REMARK SMILES IDX 76 45 36 46 81 47 75 48 77 49 37 50 80 51 74 52 73 53 38 55
REMARK SMILES IDX 64 56 47 57 63 58 48 59 51 60 62 61 78 62 49 63 50 64 61 66
REMARK SMILES IDX 79 67 52 68 39 69 40 70 45 71 41 72 42 73 44 74 46 75 43 76
REMARK SMILES IDX 65 77 66 78 71 79 67 80 68 81 70 82 72 83 69 84 53 85 54 86
REMARK SMILES IDX 59 87 55 88 56 89 58 90 60 91 57 92
REMARK H PARENT 22 5 27 35 77 54 51 65
REMARK Flexibility Score: inf
ROOT
ATOM      1  C   UNL     1     -11.204   5.396   0.336  1.00  0.00     0.116 C 
ENDROOT
BRANCH   1   2
ATOM      2  N   UNL     1     -10.391   5.418   1.535  1.00  0.00    -0.356 N 
ATOM      3  C   UNL     1      -9.167   5.919   1.823  1.00  0.00     0.224 C 
ATOM      4  O   UNL     1      -8.797   5.788   2.998  1.00  0.00    -0.275 OA
ATOM      5  H   UNL     1     -10.819   4.974   2.302  1.00  0.00     0.163 HD
BRANCH   3   6
ATOM      6  C   UNL     1      -8.193   6.510   0.809  1.00  0.00     0.098 C 
ATOM      7  N   UNL     1      -6.220   5.906  -0.577  1.00  0.00    -0.342 N 
ATOM      8  C   UNL     1      -6.725   6.675  -1.706  1.00  0.00     0.119 C 
ATOM      9  C   UNL     1      -7.208   5.414   0.386  1.00  0.00     0.133 C 
ATOM     10  C   UNL     1      -7.584   7.836  -1.235  1.00  0.00     0.022 C 
ATOM     11  C   UNL     1      -8.730   7.280  -0.394  1.00  0.00     0.017 C 
BRANCH   7  12
ATOM     12  C   UNL     1      -4.852   5.838  -0.406  1.00  0.00     0.225 C 
ATOM     13  O   UNL     1      -4.121   6.793  -0.683  1.00  0.00    -0.275 OA
BRANCH  12  14
ATOM     14  C   UNL     1      -4.226   4.468  -0.177  1.00  0.00     0.081 C 
ATOM     15  N   UNL     1      -3.921   1.612  -0.080  1.00  0.00    -0.198 NA
ATOM     16  C   UNL     1      -3.806   2.410   1.166  1.00  0.00     0.103 C 
ATOM     17  C   UNL     1      -3.691   2.316  -1.364  1.00  0.00     0.103 C 
ATOM     18  C   UNL     1      -4.640   3.678   1.054  1.00  0.00     0.030 C 
ATOM     19  C   UNL     1      -4.468   3.617  -1.427  1.00  0.00     0.030 C 
BRANCH  15  20
ATOM     20  S   UNL     1      -3.406  -0.009   0.003  1.00  0.00     0.243 S 
ATOM     21  O   UNL     1      -3.793  -0.645  -1.248  1.00  0.00    -0.207 OA
ATOM     22  O   UNL     1      -3.829  -0.544   1.272  1.00  0.00    -0.207 OA
BRANCH  20  23
ATOM     23  C   UNL     1      -1.623  -0.002   0.020  1.00  0.00     0.082 A 
ATOM     24  C   UNL     1       2.674  -0.231  -0.004  1.00  0.00     0.044 C 
ATOM     25  C   UNL     1       1.177  -0.152   0.010  1.00  0.00    -0.051 A 
ATOM     26  C   UNL     1       0.406  -1.320  -0.008  1.00  0.00     0.005 A 
ATOM     27  C   UNL     1       0.536   1.089   0.038  1.00  0.00     0.005 A 
ATOM     28  C   UNL     1      -0.989  -1.248  -0.004  1.00  0.00     0.022 A 
ATOM     29  C   UNL     1      -0.857   1.163   0.044  1.00  0.00     0.022 A 
ENDBRANCH  20  23
ENDBRANCH  15  20
ENDBRANCH  12  14
ENDBRANCH   7  12
ENDBRANCH   3   6
ENDBRANCH   1   2
BRANCH   1  30
ATOM     30  C   UNL     1     -11.095   4.072  -0.425  1.00  0.00     0.023 C 
BRANCH  30  31
ATOM     31  C   UNL     1     -11.951   2.940   0.151  1.00  0.00     0.023 C 
BRANCH  31  32
ATOM     32  C   UNL     1     -13.446   3.219   0.126  1.00  0.00     0.116 C 
BRANCH  32  33
ATOM     33  N   UNL     1     -14.059   3.226  -1.194  1.00  0.00    -0.352 N 
ATOM     34  C   UNL     1     -15.377   3.421  -1.575  1.00  0.00     0.251 C 
ATOM     35  H   UNL     1     -13.435   3.067  -1.938  1.00  0.00     0.163 HD
ATOM     36  O   UNL     1     -15.681   3.236  -2.752  1.00  0.00    -0.269 OA
BRANCH  34  37
ATOM     37  C   UNL     1     -16.377   4.044  -0.658  1.00  0.00     0.039 A 
ATOM     38  C   UNL     1     -17.377   4.828  -1.261  1.00  0.00     0.014 A 
ATOM     39  C   UNL     1     -16.060   4.261   0.669  1.00  0.00     0.014 A 
ATOM     40  C   UNL     1     -17.747   6.027  -0.669  1.00  0.00     0.010 A 
ATOM     41  C   UNL     1     -16.218   5.532   1.142  1.00  0.00     0.010 A 
ATOM     42  C   UNL     1     -17.026   6.428   0.441  1.00  0.00    -0.014 A 
BRANCH  42  43
ATOM     43  C   UNL     1     -17.096   7.722   1.073  1.00  0.00     0.031 A 
ATOM     44  C   UNL     1     -17.881   7.795   2.313  1.00  0.00     0.074 A 
ATOM     45  C   UNL     1     -16.186   8.647   0.700  1.00  0.00     0.049 A 
ATOM     46  N   UNL     1     -18.125   8.882   2.943  1.00  0.00    -0.248 NA
ATOM     47  C   UNL     1     -18.495   6.623   2.938  1.00  0.00     0.031 C 
ATOM     48  C   UNL     1     -15.672   9.774   1.467  1.00  0.00     0.029 A 
ATOM     49  N   UNL     1     -15.658   8.842  -0.583  1.00  0.00    -0.354 N 
ATOM     50  C   UNL     1     -18.605   8.536   4.186  1.00  0.00     0.074 A 
ATOM     51  C   UNL     1     -18.955   7.145   4.077  1.00  0.00     0.031 C 
ATOM     52  C   UNL     1     -15.165  10.684   0.616  1.00  0.00     0.029 A 
ATOM     53  C   UNL     1     -15.510  10.244  -0.725  1.00  0.00     0.049 A 
ATOM     54  H   UNL     1     -15.437   8.149  -1.247  1.00  0.00     0.167 HD
ATOM     55  C   UNL     1     -18.491   9.461   5.179  1.00  0.00     0.037 A 
ATOM     56  C   UNL     1     -16.328  10.928  -1.586  1.00  0.00     0.037 A 
ATOM     57  C   UNL     1     -17.992  10.720   4.620  1.00  0.00     0.049 A 
ATOM     58  C   UNL     1     -17.267  11.903  -0.895  1.00  0.00     0.074 A 
ATOM     59  C   UNL     1     -16.760  11.348   4.568  1.00  0.00     0.029 A 
ATOM     60  N   UNL     1     -18.783  11.357   3.689  1.00  0.00    -0.354 N 
ATOM     61  N   UNL     1     -17.441  11.956   0.398  1.00  0.00    -0.248 NA
ATOM     62  C   UNL     1     -18.126  12.854  -1.599  1.00  0.00     0.031 C 
ATOM     63  C   UNL     1     -16.832  12.364   3.564  1.00  0.00     0.029 A 
ATOM     64  C   UNL     1     -18.112  12.362   3.035  1.00  0.00     0.049 A 
ATOM     65  H   UNL     1     -19.722  11.120   3.513  1.00  0.00     0.167 HD
ATOM     66  C   UNL     1     -18.414  12.868   0.706  1.00  0.00     0.074 A 
ATOM     67  C   UNL     1     -18.824  13.396  -0.583  1.00  0.00     0.031 C 
ATOM     68  C   UNL     1     -18.823  13.087   1.992  1.00  0.00     0.037 A 
BRANCH  55  69
ATOM     69  C   UNL     1     -18.640   9.245   6.665  1.00  0.00     0.057 A 
ATOM     70  C   UNL     1     -18.312  10.297   7.547  1.00  0.00     0.134 A 
ATOM     71  C   UNL     1     -19.023   8.057   7.312  1.00  0.00     0.134 A 
ATOM     72  F   UNL     1     -17.989  11.518   7.099  1.00  0.00    -0.206 F 
ATOM     73  C   UNL     1     -18.296  10.156   8.939  1.00  0.00     0.040 A 
ATOM     74  C   UNL     1     -19.021   7.905   8.706  1.00  0.00     0.040 A 
ATOM     75  F   UNL     1     -19.429   6.971   6.654  1.00  0.00    -0.206 F 
ATOM     76  C   UNL     1     -18.640   8.952   9.526  1.00  0.00     0.006 A 
ENDBRANCH  55  69
BRANCH  56  77
ATOM     77  C   UNL     1     -16.657  10.095  -2.785  1.00  0.00     0.057 A 
ATOM     78  C   UNL     1     -15.583   9.679  -3.599  1.00  0.00     0.134 A 
ATOM     79  C   UNL     1     -17.813   9.309  -2.809  1.00  0.00     0.134 A 
ATOM     80  F   UNL     1     -14.451  10.401  -3.641  1.00  0.00    -0.206 F 
ATOM     81  C   UNL     1     -15.582   8.435  -4.236  1.00  0.00     0.040 A 
ATOM     82  C   UNL     1     -17.832   8.076  -3.473  1.00  0.00     0.040 A 
ATOM     83  F   UNL     1     -18.881   9.642  -2.070  1.00  0.00    -0.206 F 
ATOM     84  C   UNL     1     -16.694   7.606  -4.128  1.00  0.00     0.006 A 
ENDBRANCH  56  77
BRANCH  68  85
ATOM     85  C   UNL     1     -19.960  13.993   2.392  1.00  0.00     0.057 A 
ATOM     86  C   UNL     1     -20.126  15.277   1.866  1.00  0.00     0.134 A 
ATOM     87  C   UNL     1     -20.866  13.642   3.421  1.00  0.00     0.134 A 
ATOM     88  F   UNL     1     -19.285  15.758   0.940  1.00  0.00    -0.206 F 
ATOM     89  C   UNL     1     -21.152  16.130   2.297  1.00  0.00     0.040 A 
ATOM     90  C   UNL     1     -21.846  14.508   3.906  1.00  0.00     0.040 A 
ATOM     91  F   UNL     1     -20.872  12.427   3.988  1.00  0.00    -0.206 F 
ATOM     92  C   UNL     1     -22.006  15.754   3.328  1.00  0.00     0.006 A 
ENDBRANCH  68  85
ENDBRANCH  42  43
ENDBRANCH  34  37
ENDBRANCH  32  33
ENDBRANCH  31  32
ENDBRANCH  30  31
ENDBRANCH   1  30
TORSDOF 15
