REMARK SMILES COCCC(=O)N[C@H](C)CC(=O)NCCCCNC(=O)c1ccc(-c2c3nc(c(-c4c(F)cccc4F)c4ccc([nH]4)c(-c4c(F)cccc4F)c4nc(c(-c5c(F)cccc5F)c5ccc2[nH]5)C=C4)C=C3)cc1
REMARK SMILES IDX 14 1 13 2 11 3 12 4 10 6 8 7 9 8 7 9 5 10 6 11 4 13 3 14
REMARK SMILES IDX 2 15 1 16 15 17 16 18 17 19 18 20 19 21 20 23 21 24 22 25
REMARK SMILES IDX 74 26 23 27 73 28 24 29 25 30 26 31 67 32 27 33 72 34 66 35
REMARK SMILES IDX 68 36 28 37 71 38 65 39 64 40 29 42 55 43 38 44 54 45 39 46
REMARK SMILES IDX 42 47 53 48 69 49 40 50 41 51 52 53 70 54 43 55 30 56 31 57
REMARK SMILES IDX 36 58 32 59 33 60 35 61 37 62 34 63 56 64 57 65 62 66 58 67
REMARK SMILES IDX 59 68 61 69 63 70 60 71 44 72 45 73 50 74 46 75 47 76 49 77
REMARK SMILES IDX 51 78 48 79
REMARK H PARENT 13 5 7 12 18 22 68 41 42 52
REMARK Flexibility Score: inf
ROOT
ATOM      1  C   UNL     1      -0.443   3.340   1.887  1.00  0.00     0.116 C 
ENDROOT
BRANCH   1   2
ATOM      2  N   UNL     1      -1.581   2.613   1.372  1.00  0.00    -0.356 N 
ATOM      3  C   UNL     1      -1.776   1.269   1.283  1.00  0.00     0.222 C 
ATOM      4  O   UNL     1      -2.825   0.866   0.777  1.00  0.00    -0.275 OA
ATOM      5  H   UNL     1      -2.322   3.170   1.038  1.00  0.00     0.163 HD
BRANCH   3   6
ATOM      6  C   UNL     1      -0.743   0.298   1.825  1.00  0.00     0.124 C 
BRANCH   6   7
ATOM      7  C   UNL     1       0.395   0.005   0.835  1.00  0.00     0.088 C 
ATOM      8  C   UNL     1       1.700   0.731   1.175  1.00  0.00     0.031 C 
BRANCH   7   9
ATOM      9  N   UNL     1       0.697  -1.429   0.809  1.00  0.00    -0.353 N 
ATOM     10  C   UNL     1       1.191  -2.162  -0.232  1.00  0.00     0.222 C 
ATOM     11  O   UNL     1       1.482  -3.343  -0.041  1.00  0.00    -0.275 OA
ATOM     12  H   UNL     1       0.523  -1.923   1.642  1.00  0.00     0.163 HD
BRANCH  10  13
ATOM     13  C   UNL     1       1.336  -1.529  -1.597  1.00  0.00     0.128 C 
BRANCH  13  14
ATOM     14  C   UNL     1       0.122  -1.849  -2.455  1.00  0.00     0.169 C 
BRANCH  14  15
ATOM     15  O   UNL     1      -0.976  -1.001  -2.116  1.00  0.00    -0.384 OA
ATOM     16  C   UNL     1      -2.022  -1.700  -1.446  1.00  0.00     0.194 C 
ENDBRANCH  14  15
ENDBRANCH  13  14
ENDBRANCH  10  13
ENDBRANCH   7   9
ENDBRANCH   6   7
ENDBRANCH   3   6
ENDBRANCH   1   2
BRANCH   1  17
ATOM     17  C   UNL     1       0.419   3.879   0.746  1.00  0.00     0.023 C 
BRANCH  17  18
ATOM     18  C   UNL     1       0.062   5.281   0.272  1.00  0.00     0.023 C 
BRANCH  18  19
ATOM     19  C   UNL     1       0.149   6.361   1.341  1.00  0.00     0.116 C 
BRANCH  19  20
ATOM     20  N   UNL     1       1.408   6.378   2.077  1.00  0.00    -0.352 N 
ATOM     21  C   UNL     1       2.080   7.466   2.583  1.00  0.00     0.251 C 
ATOM     22  H   UNL     1       1.829   5.501   2.229  1.00  0.00     0.163 HD
ATOM     23  O   UNL     1       3.168   7.338   3.132  1.00  0.00    -0.269 OA
BRANCH  21  24
ATOM     24  C   UNL     1       1.484   8.802   2.401  1.00  0.00     0.039 A 
ATOM     25  C   UNL     1       2.233   9.794   1.769  1.00  0.00     0.014 A 
ATOM     26  C   UNL     1       0.148   9.020   2.746  1.00  0.00     0.014 A 
ATOM     27  C   UNL     1       1.609  10.982   1.392  1.00  0.00     0.010 A 
ATOM     28  C   UNL     1      -0.492  10.164   2.291  1.00  0.00     0.010 A 
ATOM     29  C   UNL     1       0.230  11.151   1.602  1.00  0.00    -0.014 A 
BRANCH  29  30
ATOM     30  C   UNL     1      -0.487  12.344   1.094  1.00  0.00     0.031 A 
ATOM     31  C   UNL     1      -1.157  13.280   2.057  1.00  0.00     0.074 A 
ATOM     32  C   UNL     1      -0.613  12.530  -0.234  1.00  0.00     0.049 A 
ATOM     33  N   UNL     1      -1.905  14.324   1.810  1.00  0.00    -0.248 NA
ATOM     34  C   UNL     1      -0.998  12.979   3.489  1.00  0.00     0.031 C 
ATOM     35  C   UNL     1      -0.065  11.651  -1.270  1.00  0.00     0.029 A 
ATOM     36  N   UNL     1      -1.252  13.516  -0.940  1.00  0.00    -0.354 N 
ATOM     37  C   UNL     1      -2.324  14.786   3.050  1.00  0.00     0.074 A 
ATOM     38  C   UNL     1      -1.795  13.879   4.044  1.00  0.00     0.031 C 
ATOM     39  C   UNL     1      -0.364  12.156  -2.478  1.00  0.00     0.029 A 
ATOM     40  C   UNL     1      -1.151  13.372  -2.303  1.00  0.00     0.049 A 
ATOM     41  H   UNL     1      -1.737  14.258  -0.512  1.00  0.00     0.167 HD
ATOM     42  C   UNL     1      -3.061  15.885   3.337  1.00  0.00     0.037 A 
ATOM     43  C   UNL     1      -1.639  14.136  -3.297  1.00  0.00     0.037 A 
ATOM     44  C   UNL     1      -3.548  16.808   2.349  1.00  0.00     0.049 A 
ATOM     45  C   UNL     1      -2.435  15.363  -2.954  1.00  0.00     0.074 A 
ATOM     46  C   UNL     1      -4.224  18.000   2.539  1.00  0.00     0.029 A 
ATOM     47  N   UNL     1      -3.408  16.640   0.979  1.00  0.00    -0.354 N 
ATOM     48  N   UNL     1      -2.758  15.834  -1.774  1.00  0.00    -0.248 NA
ATOM     49  C   UNL     1      -2.933  16.165  -4.080  1.00  0.00     0.031 C 
ATOM     50  C   UNL     1      -4.523  18.537   1.282  1.00  0.00     0.029 A 
ATOM     51  C   UNL     1      -4.004  17.696   0.310  1.00  0.00     0.049 A 
ATOM     52  H   UNL     1      -2.952  15.883   0.546  1.00  0.00     0.167 HD
ATOM     53  C   UNL     1      -3.482  16.994  -2.013  1.00  0.00     0.074 A 
ATOM     54  C   UNL     1      -3.538  17.163  -3.451  1.00  0.00     0.031 C 
ATOM     55  C   UNL     1      -4.052  17.842  -1.122  1.00  0.00     0.037 A 
BRANCH  42  56
ATOM     56  C   UNL     1      -3.370  16.142   4.782  1.00  0.00     0.057 A 
ATOM     57  C   UNL     1      -2.379  16.543   5.688  1.00  0.00     0.134 A 
ATOM     58  C   UNL     1      -4.671  15.985   5.274  1.00  0.00     0.134 A 
ATOM     59  F   UNL     1      -1.109  16.694   5.284  1.00  0.00    -0.206 F 
ATOM     60  C   UNL     1      -2.664  16.744   7.040  1.00  0.00     0.040 A 
ATOM     61  C   UNL     1      -4.974  16.209   6.618  1.00  0.00     0.040 A 
ATOM     62  F   UNL     1      -5.667  15.605   4.459  1.00  0.00    -0.206 F 
ATOM     63  C   UNL     1      -3.967  16.581   7.506  1.00  0.00     0.006 A 
ENDBRANCH  42  56
BRANCH  43  64
ATOM     64  C   UNL     1      -1.353  13.784  -4.709  1.00  0.00     0.057 A 
ATOM     65  C   UNL     1      -0.440  14.532  -5.461  1.00  0.00     0.134 A 
ATOM     66  C   UNL     1      -1.969  12.695  -5.335  1.00  0.00     0.134 A 
ATOM     67  F   UNL     1       0.168  15.597  -4.919  1.00  0.00    -0.206 F 
ATOM     68  C   UNL     1      -0.155  14.215  -6.790  1.00  0.00     0.040 A 
ATOM     69  C   UNL     1      -1.680  12.355  -6.658  1.00  0.00     0.040 A 
ATOM     70  F   UNL     1      -2.847  11.936  -4.664  1.00  0.00    -0.206 F 
ATOM     71  C   UNL     1      -0.773  13.120  -7.390  1.00  0.00     0.006 A 
ENDBRANCH  43  64
BRANCH  55  72
ATOM     72  C   UNL     1      -4.772  19.031  -1.680  1.00  0.00     0.057 A 
ATOM     73  C   UNL     1      -6.030  18.910  -2.283  1.00  0.00     0.134 A 
ATOM     74  C   UNL     1      -4.221  20.314  -1.577  1.00  0.00     0.134 A 
ATOM     75  F   UNL     1      -6.604  17.705  -2.423  1.00  0.00    -0.206 F 
ATOM     76  C   UNL     1      -6.708  20.024  -2.780  1.00  0.00     0.040 A 
ATOM     77  C   UNL     1      -4.899  21.438  -2.051  1.00  0.00     0.040 A 
ATOM     78  F   UNL     1      -3.022  20.497  -1.004  1.00  0.00    -0.206 F 
ATOM     79  C   UNL     1      -6.145  21.293  -2.658  1.00  0.00     0.006 A 
ENDBRANCH  55  72
ENDBRANCH  29  30
ENDBRANCH  21  24
ENDBRANCH  19  20
ENDBRANCH  18  19
ENDBRANCH  17  18
ENDBRANCH   1  17
TORSDOF 16
