REMARK SMILES O=C(NCCCCNC(=O)c1ccc(-c2c3nc(c(-c4c(F)cccc4F)c4ccc([nH]4)c(-c4c(F)cccc4F)c4nc(c(-c5c(F)cccc5F)c5ccc2[nH]5)C=C4)C=C3)cc1)C1=Cc2cc(C(F)(F)F)ccc2O[C@@H]1C(F)(F)F
REMARK SMILES IDX 6 1 5 2 4 3 3 4 1 5 2 6 65 8 66 9 78 10 67 11 77 12 68 13
REMARK SMILES IDX 76 14 69 15 75 16 74 17 79 18 80 19 81 20 82 21 70 22 71 23
REMARK SMILES IDX 72 24 73 25 7 26 8 27 9 28 10 30 11 31 12 32 64 33 13 34
REMARK SMILES IDX 63 35 14 36 15 37 16 38 57 39 17 40 62 41 56 42 58 43 18 44
REMARK SMILES IDX 61 45 55 46 54 47 19 49 45 50 28 51 44 52 29 53 32 54 43 55
REMARK SMILES IDX 59 56 30 57 31 58 42 60 60 61 33 62 20 63 21 64 26 65 22 66
REMARK SMILES IDX 23 67 25 68 27 69 24 70 46 71 47 72 52 73 48 74 49 75 51 76
REMARK SMILES IDX 53 77 50 78 34 79 35 80 40 81 36 82 37 83 39 84 41 85 38 86
REMARK H PARENT 3 7 8 29 58 48 32 59
REMARK Flexibility Score: inf
ROOT
ATOM      1  C   UNL     1       3.962  -4.229   0.794  1.00  0.00     0.023 C 
ENDROOT
BRANCH   1   2
ATOM      2  C   UNL     1       4.066  -2.764   1.228  1.00  0.00     0.023 C 
BRANCH   2   3
ATOM      3  C   UNL     1       3.367  -1.787   0.278  1.00  0.00     0.116 C 
BRANCH   3   4
ATOM      4  N   UNL     1       2.322  -0.988   0.925  1.00  0.00    -0.352 N 
ATOM      5  O   UNL     1       1.037   0.853   1.263  1.00  0.00    -0.270 OA
ATOM      6  C   UNL     1       2.102   0.370   0.901  1.00  0.00     0.251 C 
ATOM      7  H   UNL     1       1.676  -1.504   1.460  1.00  0.00     0.163 HD
BRANCH   6   8
ATOM      8  C   UNL     1       3.180   1.220   0.368  1.00  0.00     0.067 C 
ATOM      9  C   UNL     1       4.336   1.211   1.042  1.00  0.00     0.025 C 
ATOM     10  C   UNL     1       3.055   1.721  -1.037  1.00  0.00     0.314 C 
ATOM     11  C   UNL     1       5.499   1.035   0.168  1.00  0.00     0.018 A 
ATOM     12  O   UNL     1       4.168   1.311  -1.873  1.00  0.00    -0.475 OA
ATOM     13  C   UNL     1       6.649   0.494   0.752  1.00  0.00     0.025 A 
ATOM     14  C   UNL     1       5.331   0.973  -1.226  1.00  0.00     0.128 A 
ATOM     15  C   UNL     1       7.576  -0.209  -0.031  1.00  0.00     0.056 A 
ATOM     16  C   UNL     1       6.296   0.356  -2.020  1.00  0.00     0.048 A 
ATOM     17  C   UNL     1       7.399  -0.258  -1.423  1.00  0.00     0.017 A 
BRANCH  10  18
ATOM     18  C   UNL     1       2.888   3.249  -1.081  1.00  0.00     0.429 C 
ATOM     19  F   UNL     1       2.630   3.673  -2.343  1.00  0.00    -0.167 F 
ATOM     20  F   UNL     1       1.857   3.670  -0.311  1.00  0.00    -0.167 F 
ATOM     21  F   UNL     1       3.997   3.901  -0.660  1.00  0.00    -0.167 F 
ENDBRANCH  10  18
BRANCH  15  22
ATOM     22  C   UNL     1       8.695  -0.967   0.641  1.00  0.00     0.416 C 
ATOM     23  F   UNL     1       9.790  -0.197   0.865  1.00  0.00    -0.166 F 
ATOM     24  F   UNL     1       8.322  -1.463   1.856  1.00  0.00    -0.166 F 
ATOM     25  F   UNL     1       9.114  -2.041  -0.078  1.00  0.00    -0.166 F 
ENDBRANCH  15  22
ENDBRANCH   6   8
ENDBRANCH   3   4
ENDBRANCH   2   3
ENDBRANCH   1   2
BRANCH   1  26
ATOM     26  C   UNL     1       4.522  -4.570  -0.586  1.00  0.00     0.116 C 
BRANCH  26  27
ATOM     27  N   UNL     1       5.962  -4.407  -0.717  1.00  0.00    -0.352 N 
ATOM     28  C   UNL     1       6.851  -5.226  -1.383  1.00  0.00     0.251 C 
ATOM     29  H   UNL     1       6.350  -3.617  -0.276  1.00  0.00     0.163 HD
ATOM     30  O   UNL     1       8.051  -4.973  -1.403  1.00  0.00    -0.269 OA
BRANCH  28  31
ATOM     31  C   UNL     1       6.344  -6.453  -2.033  1.00  0.00     0.039 A 
ATOM     32  C   UNL     1       6.871  -7.689  -1.648  1.00  0.00     0.014 A 
ATOM     33  C   UNL     1       5.281  -6.386  -2.936  1.00  0.00     0.014 A 
ATOM     34  C   UNL     1       6.256  -8.865  -2.083  1.00  0.00     0.010 A 
ATOM     35  C   UNL     1       4.627  -7.556  -3.310  1.00  0.00     0.010 A 
ATOM     36  C   UNL     1       5.094  -8.806  -2.869  1.00  0.00    -0.014 A 
BRANCH  36  37
ATOM     37  C   UNL     1       4.327 -10.029  -3.220  1.00  0.00     0.031 A 
ATOM     38  C   UNL     1       4.169 -10.429  -4.659  1.00  0.00     0.074 A 
ATOM     39  C   UNL     1       3.691 -10.722  -2.254  1.00  0.00     0.049 A 
ATOM     40  N   UNL     1       3.432 -11.377  -5.179  1.00  0.00    -0.248 NA
ATOM     41  C   UNL     1       4.913  -9.634  -5.649  1.00  0.00     0.031 C 
ATOM     42  C   UNL     1       3.719 -10.409  -0.823  1.00  0.00     0.029 A 
ATOM     43  N   UNL     1       2.878 -11.827  -2.333  1.00  0.00    -0.354 N 
ATOM     44  C   UNL     1       3.600 -11.273  -6.554  1.00  0.00     0.074 A 
ATOM     45  C   UNL     1       4.476 -10.145  -6.790  1.00  0.00     0.031 C 
ATOM     46  C   UNL     1       2.974 -11.308  -0.160  1.00  0.00     0.029 A 
ATOM     47  C   UNL     1       2.386 -12.239  -1.117  1.00  0.00     0.049 A 
ATOM     48  H   UNL     1       2.668 -12.280  -3.181  1.00  0.00     0.167 HD
ATOM     49  C   UNL     1       3.087 -12.058  -7.530  1.00  0.00     0.037 A 
ATOM     50  C   UNL     1       1.549 -13.249  -0.811  1.00  0.00     0.037 A 
ATOM     51  C   UNL     1       2.253 -13.206  -7.293  1.00  0.00     0.049 A 
ATOM     52  C   UNL     1       1.020 -14.126  -1.912  1.00  0.00     0.074 A 
ATOM     53  C   UNL     1       1.735 -14.100  -8.214  1.00  0.00     0.029 A 
ATOM     54  N   UNL     1       1.825 -13.623  -6.043  1.00  0.00    -0.354 N 
ATOM     55  N   UNL     1       1.233 -14.049  -3.203  1.00  0.00    -0.248 NA
ATOM     56  C   UNL     1       0.138 -15.234  -1.514  1.00  0.00     0.031 C 
ATOM     57  C   UNL     1       0.971 -15.045  -7.522  1.00  0.00     0.029 A 
ATOM     58  C   UNL     1       1.043 -14.759  -6.168  1.00  0.00     0.049 A 
ATOM     59  H   UNL     1       2.044 -13.178  -5.192  1.00  0.00     0.167 HD
ATOM     60  C   UNL     1       0.542 -15.114  -3.767  1.00  0.00     0.074 A 
ATOM     61  C   UNL     1      -0.093 -15.826  -2.677  1.00  0.00     0.031 C 
ATOM     62  C   UNL     1       0.442 -15.469  -5.070  1.00  0.00     0.037 A 
BRANCH  49  63
ATOM     63  C   UNL     1       3.427 -11.705  -8.947  1.00  0.00     0.057 A 
ATOM     64  C   UNL     1       4.710 -11.911  -9.470  1.00  0.00     0.134 A 
ATOM     65  C   UNL     1       2.454 -11.180  -9.807  1.00  0.00     0.134 A 
ATOM     66  F   UNL     1       5.690 -12.398  -8.693  1.00  0.00    -0.206 F 
ATOM     67  C   UNL     1       5.021 -11.585 -10.791  1.00  0.00     0.040 A 
ATOM     68  C   UNL     1       2.746 -10.873 -11.137  1.00  0.00     0.040 A 
ATOM     69  F   UNL     1       1.204 -10.963  -9.370  1.00  0.00    -0.206 F 
ATOM     70  C   UNL     1       4.035 -11.070 -11.630  1.00  0.00     0.006 A 
ENDBRANCH  49  63
BRANCH  50  71
ATOM     71  C   UNL     1       1.176 -13.510   0.602  1.00  0.00     0.057 A 
ATOM     72  C   UNL     1       1.666 -14.633   1.280  1.00  0.00     0.134 A 
ATOM     73  C   UNL     1       0.309 -12.662   1.301  1.00  0.00     0.134 A 
ATOM     74  F   UNL     1       2.485 -15.492   0.655  1.00  0.00    -0.206 F 
ATOM     75  C   UNL     1       1.290 -14.916   2.594  1.00  0.00     0.040 A 
ATOM     76  C   UNL     1      -0.058 -12.921   2.623  1.00  0.00     0.040 A 
ATOM     77  F   UNL     1      -0.189 -11.566   0.710  1.00  0.00    -0.206 F 
ATOM     78  C   UNL     1       0.427 -14.056   3.270  1.00  0.00     0.006 A 
ENDBRANCH  50  71
BRANCH  62  79
ATOM     79  C   UNL     1      -0.338 -16.709  -5.387  1.00  0.00     0.057 A 
ATOM     80  C   UNL     1      -1.737 -16.730  -5.355  1.00  0.00     0.134 A 
ATOM     81  C   UNL     1       0.322 -17.880  -5.782  1.00  0.00     0.134 A 
ATOM     82  F   UNL     1      -2.425 -15.644  -4.973  1.00  0.00    -0.206 F 
ATOM     83  C   UNL     1      -2.454 -17.879  -5.691  1.00  0.00     0.040 A 
ATOM     84  C   UNL     1      -0.384 -19.028  -6.140  1.00  0.00     0.040 A 
ATOM     85  F   UNL     1       1.662 -17.920  -5.839  1.00  0.00    -0.206 F 
ATOM     86  C   UNL     1      -1.777 -19.030  -6.093  1.00  0.00     0.006 A 
ENDBRANCH  62  79
ENDBRANCH  36  37
ENDBRANCH  28  31
ENDBRANCH  26  27
ENDBRANCH   1  26
TORSDOF 13
