REMARK SMILES Cc1c(C(=O)Nc2ccc(C(=O)Nc3ccccc3C(=O)NCCCCNC(=O)c3ccc(-c4c5nc(c(-c6c(F)cccc6F)c6ccc([nH]6)c(-c6c(F)cccc6F)c6nc(c(-c7c(F)cccc7F)c7ccc4[nH]7)C=C6)C=C5)cc3)cc2)cccc1[N+](=O)[O-]
REMARK SMILES IDX 23 1 22 2 20 3 21 4 19 6 14 7 15 8 16 9 18 10 17 11 13 12
REMARK SMILES IDX 11 13 12 14 10 16 7 17 8 18 85 19 9 20 84 21 6 22 4 23 5 24
REMARK SMILES IDX 3 26 1 27 2 28 89 29 86 30 88 31 87 32 90 33 91 34 92 35
REMARK SMILES IDX 24 36 25 37 26 38 27 39 28 40 29 42 30 43 31 44 83 45 32 46
REMARK SMILES IDX 82 47 33 48 34 49 35 50 76 51 36 52 81 53 75 54 77 55 37 56
REMARK SMILES IDX 80 57 74 58 73 59 38 61 64 62 47 63 63 64 48 65 51 66 62 67
REMARK SMILES IDX 78 68 49 69 50 70 61 72 79 73 52 74 39 75 40 76 45 77 41 78
REMARK SMILES IDX 42 79 44 80 46 81 43 82 65 83 66 84 71 85 67 86 68 87 70 88
REMARK SMILES IDX 72 89 69 90 53 91 54 92 59 93 55 94 56 95 58 96 60 97 57 98
REMARK H PARENT 22 5 13 15 6 25 27 41 77 60 51 71
REMARK Flexibility Score: inf
ROOT
ATOM      1  C   UNL     1       3.124  -0.340   4.456  1.00  0.00     0.116 C 
ENDROOT
BRANCH   1   2
ATOM      2  N   UNL     1       4.396   0.093   3.889  1.00  0.00    -0.352 N 
ATOM      3  C   UNL     1       4.902   1.317   3.490  1.00  0.00     0.253 C 
ATOM      4  O   UNL     1       6.106   1.377   3.246  1.00  0.00    -0.269 OA
ATOM      5  H   UNL     1       5.033  -0.647   3.762  1.00  0.00     0.163 HD
BRANCH   3   6
ATOM      6  C   UNL     1       4.056   2.530   3.302  1.00  0.00     0.063 A 
ATOM      7  C   UNL     1       4.230   3.418   2.208  1.00  0.00     0.054 A 
ATOM      8  C   UNL     1       3.394   4.545   2.099  1.00  0.00     0.027 A 
ATOM      9  C   UNL     1       2.369   4.774   3.016  1.00  0.00     0.002 A 
ATOM     10  C   UNL     1       3.107   2.860   4.283  1.00  0.00     0.016 A 
ATOM     11  C   UNL     1       2.237   3.940   4.118  1.00  0.00     0.001 A 
BRANCH   7  12
ATOM     12  N   UNL     1       5.143   3.287   1.138  1.00  0.00    -0.321 N 
ATOM     13  C   UNL     1       5.570   2.204   0.401  1.00  0.00     0.255 C 
ATOM     14  O   UNL     1       6.539   2.338  -0.349  1.00  0.00    -0.269 OA
ATOM     15  H   UNL     1       5.555   4.138   0.865  1.00  0.00     0.170 HD
BRANCH  13  16
ATOM     16  C   UNL     1       4.779   0.945   0.316  1.00  0.00     0.040 A 
ATOM     17  C   UNL     1       3.203  -1.333  -0.189  1.00  0.00     0.041 A 
ATOM     18  C   UNL     1       2.699  -0.264   0.532  1.00  0.00     0.027 A 
ATOM     19  C   UNL     1       4.559  -1.329  -0.529  1.00  0.00     0.027 A 
ATOM     20  C   UNL     1       3.439   0.896   0.684  1.00  0.00     0.016 A 
ATOM     21  C   UNL     1       5.346  -0.194  -0.272  1.00  0.00     0.016 A 
BRANCH  17  22
ATOM     22  N   UNL     1       2.380  -2.368  -0.664  1.00  0.00    -0.322 N 
ATOM     23  C   UNL     1       1.008  -2.426  -0.859  1.00  0.00     0.256 C 
ATOM     24  O   UNL     1       0.490  -3.502  -1.155  1.00  0.00    -0.269 OA
ATOM     25  H   UNL     1       2.860  -3.195  -0.900  1.00  0.00     0.170 HD
BRANCH  23  26
ATOM     26  C   UNL     1       0.115  -1.236  -0.709  1.00  0.00     0.049 A 
ATOM     27  C   UNL     1       1.353   0.198  -2.414  1.00  0.00     0.053 C 
ATOM     28  C   UNL     1       0.352   0.028  -1.300  1.00  0.00     0.039 A 
ATOM     29  C   UNL     1      -0.383   1.123  -0.786  1.00  0.00     0.273 A 
ATOM     30  C   UNL     1      -0.989  -1.420   0.145  1.00  0.00     0.014 A 
ATOM     31  C   UNL     1      -1.466   0.937   0.090  1.00  0.00     0.086 A 
ATOM     32  C   UNL     1      -1.799  -0.346   0.511  1.00  0.00     0.008 A 
BRANCH  29  33
ATOM     33  N   UNL     1       0.036   2.510  -1.030  1.00  0.00     0.063 N 
ATOM     34  O   UNL     1      -0.850   3.373  -1.087  1.00  0.00    -0.258 OA
ATOM     35  O   UNL     1       1.252   2.743  -1.084  1.00  0.00    -0.258 OA
ENDBRANCH  29  33
ENDBRANCH  23  26
ENDBRANCH  17  22
ENDBRANCH  13  16
ENDBRANCH   7  12
ENDBRANCH   3   6
ENDBRANCH   1   2
BRANCH   1  36
ATOM     36  C   UNL     1       2.403  -1.510   3.768  1.00  0.00     0.023 C 
BRANCH  36  37
ATOM     37  C   UNL     1       3.252  -2.650   3.215  1.00  0.00     0.023 C 
BRANCH  37  38
ATOM     38  C   UNL     1       3.811  -3.580   4.278  1.00  0.00     0.116 C 
BRANCH  38  39
ATOM     39  N   UNL     1       2.893  -4.631   4.710  1.00  0.00    -0.352 N 
ATOM     40  C   UNL     1       3.033  -5.558   5.735  1.00  0.00     0.251 C 
ATOM     41  H   UNL     1       2.053  -4.691   4.200  1.00  0.00     0.163 HD
ATOM     42  O   UNL     1       2.160  -6.382   5.944  1.00  0.00    -0.269 OA
BRANCH  40  43
ATOM     43  C   UNL     1       4.181  -5.435   6.670  1.00  0.00     0.039 A 
ATOM     44  C   UNL     1       3.905  -5.474   8.042  1.00  0.00     0.014 A 
ATOM     45  C   UNL     1       5.425  -5.012   6.217  1.00  0.00     0.014 A 
ATOM     46  C   UNL     1       4.749  -4.803   8.919  1.00  0.00     0.010 A 
ATOM     47  C   UNL     1       6.197  -4.243   7.058  1.00  0.00     0.010 A 
ATOM     48  C   UNL     1       5.809  -4.072   8.390  1.00  0.00    -0.014 A 
BRANCH  48  49
ATOM     49  C   UNL     1       6.500  -3.021   9.123  1.00  0.00     0.031 A 
ATOM     50  C   UNL     1       7.871  -3.247   9.609  1.00  0.00     0.074 A 
ATOM     51  C   UNL     1       5.904  -1.816   9.264  1.00  0.00     0.049 A 
ATOM     52  N   UNL     1       8.443  -2.555  10.533  1.00  0.00    -0.248 NA
ATOM     53  C   UNL     1       8.693  -4.348   9.125  1.00  0.00     0.031 C 
ATOM     54  C   UNL     1       6.511  -0.566   9.711  1.00  0.00     0.029 A 
ATOM     55  N   UNL     1       4.528  -1.541   9.226  1.00  0.00    -0.354 N 
ATOM     56  C   UNL     1       9.770  -2.922  10.578  1.00  0.00     0.074 A 
ATOM     57  C   UNL     1       9.843  -4.105   9.758  1.00  0.00     0.031 C 
ATOM     58  C   UNL     1       5.545   0.235  10.188  1.00  0.00     0.029 A 
ATOM     59  C   UNL     1       4.314  -0.536  10.195  1.00  0.00     0.049 A 
ATOM     60  H   UNL     1       3.853  -1.961   8.646  1.00  0.00     0.167 HD
ATOM     61  C   UNL     1      10.654  -2.092  11.205  1.00  0.00     0.037 A 
ATOM     62  C   UNL     1       3.553  -0.776  11.302  1.00  0.00     0.037 A 
ATOM     63  C   UNL     1       9.934  -1.052  11.949  1.00  0.00     0.049 A 
ATOM     64  C   UNL     1       4.304  -0.623  12.605  1.00  0.00     0.074 A 
ATOM     65  C   UNL     1       9.649   0.279  11.685  1.00  0.00     0.029 A 
ATOM     66  N   UNL     1       9.114  -1.423  13.012  1.00  0.00    -0.354 N 
ATOM     67  N   UNL     1       5.606  -0.625  12.703  1.00  0.00    -0.248 NA
ATOM     68  C   UNL     1       3.649  -0.476  13.902  1.00  0.00     0.031 C 
ATOM     69  C   UNL     1       8.591   0.679  12.544  1.00  0.00     0.029 A 
ATOM     70  C   UNL     1       8.255  -0.395  13.350  1.00  0.00     0.049 A 
ATOM     71  H   UNL     1       9.144  -2.298  13.462  1.00  0.00     0.167 HD
ATOM     72  C   UNL     1       5.968  -0.522  14.021  1.00  0.00     0.074 A 
ATOM     73  C   UNL     1       4.707  -0.401  14.729  1.00  0.00     0.031 C 
ATOM     74  C   UNL     1       7.276  -0.563  14.418  1.00  0.00     0.037 A 
BRANCH  61  75
ATOM     75  C   UNL     1      12.152  -2.043  10.933  1.00  0.00     0.057 A 
ATOM     76  C   UNL     1      12.898  -0.890  11.263  1.00  0.00     0.134 A 
ATOM     77  C   UNL     1      12.913  -3.028  10.275  1.00  0.00     0.134 A 
ATOM     78  F   UNL     1      12.366   0.117  11.968  1.00  0.00    -0.206 F 
ATOM     79  C   UNL     1      14.238  -0.700  10.883  1.00  0.00     0.040 A 
ATOM     80  C   UNL     1      14.242  -2.843   9.865  1.00  0.00     0.040 A 
ATOM     81  F   UNL     1      12.444  -4.250  10.026  1.00  0.00    -0.206 F 
ATOM     82  C   UNL     1      14.909  -1.668  10.155  1.00  0.00     0.006 A 
ENDBRANCH  61  75
BRANCH  62  83
ATOM     83  C   UNL     1       2.445  -1.738  11.053  1.00  0.00     0.057 A 
ATOM     84  C   UNL     1       1.440  -1.381  10.134  1.00  0.00     0.134 A 
ATOM     85  C   UNL     1       2.551  -3.091  11.383  1.00  0.00     0.134 A 
ATOM     86  F   UNL     1       1.283  -0.097   9.773  1.00  0.00    -0.206 F 
ATOM     87  C   UNL     1       0.659  -2.338   9.482  1.00  0.00     0.040 A 
ATOM     88  C   UNL     1       1.763  -4.059  10.745  1.00  0.00     0.040 A 
ATOM     89  F   UNL     1       3.496  -3.515  12.233  1.00  0.00    -0.206 F 
ATOM     90  C   UNL     1       0.845  -3.687   9.762  1.00  0.00     0.006 A 
ENDBRANCH  62  83
BRANCH  74  91
ATOM     91  C   UNL     1       7.769  -0.697  15.841  1.00  0.00     0.057 A 
ATOM     92  C   UNL     1       7.056  -1.323  16.874  1.00  0.00     0.134 A 
ATOM     93  C   UNL     1       9.087  -0.312  16.179  1.00  0.00     0.134 A 
ATOM     94  F   UNL     1       5.839  -1.846  16.672  1.00  0.00    -0.206 F 
ATOM     95  C   UNL     1       7.589  -1.501  18.159  1.00  0.00     0.040 A 
ATOM     96  C   UNL     1       9.649  -0.536  17.440  1.00  0.00     0.040 A 
ATOM     97  F   UNL     1       9.900   0.278  15.289  1.00  0.00    -0.206 F 
ATOM     98  C   UNL     1       8.893  -1.119  18.443  1.00  0.00     0.006 A 
ENDBRANCH  74  91
ENDBRANCH  48  49
ENDBRANCH  40  43
ENDBRANCH  38  39
ENDBRANCH  37  38
ENDBRANCH  36  37
ENDBRANCH   1  36
TORSDOF 16
