REMARK SMILES C[C@@H]1[C@@H](C(=O)NCCCCNC(=O)c2ccc(-c3c4nc(c(-c5c(F)cccc5F)c5ccc([nH]5)c(-c5c(F)cccc5F)c5nc(c(-c6c(F)cccc6F)c6ccc3[nH]6)C=C5)C=C4)cc2)CCN1C(=O)Nc1nccs1
REMARK SMILES IDX 8 1 7 2 6 3 4 4 5 5 3 7 1 8 2 9 70 10 68 11 69 12 71 13
REMARK SMILES IDX 72 14 73 15 74 17 75 18 78 19 76 20 77 21 9 22 10 23 11 24
REMARK SMILES IDX 12 25 13 27 14 28 15 29 67 30 16 31 66 32 17 33 18 34 19 35
REMARK SMILES IDX 60 36 20 37 65 38 59 39 61 40 21 41 64 42 58 43 57 44 22 46
REMARK SMILES IDX 48 47 31 48 47 49 32 50 35 51 46 52 62 53 33 54 34 55 45 57
REMARK SMILES IDX 63 58 36 59 23 60 24 61 29 62 25 63 26 64 28 65 30 66 27 67
REMARK SMILES IDX 49 68 50 69 55 70 51 71 52 72 54 73 56 74 53 75 37 76 38 77
REMARK SMILES IDX 43 78 39 79 40 80 42 81 44 82 41 83
REMARK H PARENT 6 6 73 16 11 26 61 45 35 56
REMARK Flexibility Score: inf
ROOT
ATOM      1  C   UNL     1      -2.857   4.388  -1.159  1.00  0.00     0.023 C 
ENDROOT
BRANCH   1   2
ATOM      2  C   UNL     1      -2.545   2.955  -0.750  1.00  0.00     0.116 C 
BRANCH   2   3
ATOM      3  N   UNL     1      -1.817   2.219  -1.763  1.00  0.00    -0.356 N 
ATOM      4  C   UNL     1      -0.841   1.277  -1.588  1.00  0.00     0.225 C 
ATOM      5  O   UNL     1      -0.386   0.732  -2.592  1.00  0.00    -0.275 OA
ATOM      6  H   UNL     1      -2.055   2.422  -2.696  1.00  0.00     0.163 HD
BRANCH   4   7
ATOM      7  C   UNL     1      -0.336   1.008  -0.174  1.00  0.00     0.102 C 
ATOM      8  C   UNL     1       1.714   0.246   1.062  1.00  0.00     0.032 C 
ATOM      9  C   UNL     1       0.808  -0.022  -0.150  1.00  0.00     0.096 C 
ATOM     10  N   UNL     1       0.132  -1.320  -0.017  1.00  0.00    -0.321 N 
ATOM     11  C   UNL     1      -1.383   0.353   0.730  1.00  0.00     0.037 C 
ATOM     12  C   UNL     1      -1.233  -1.129   0.443  1.00  0.00     0.122 C 
BRANCH  10  13
ATOM     13  C   UNL     1       0.466  -2.562  -0.475  1.00  0.00     0.323 C 
ATOM     14  O   UNL     1      -0.315  -3.511  -0.309  1.00  0.00    -0.248 OA
ATOM     15  N   UNL     1       1.534  -2.825  -1.250  1.00  0.00    -0.283 N 
ATOM     16  H   UNL     1       1.463  -3.671  -1.748  1.00  0.00     0.174 HD
BRANCH  15  17
ATOM     17  C   UNL     1       2.692  -2.153  -1.479  1.00  0.00     0.190 A 
ATOM     18  N   UNL     1       3.299  -1.238  -0.771  1.00  0.00    -0.228 NA
ATOM     19  S   UNL     1       3.478  -2.617  -2.926  1.00  0.00    -0.105 S 
ATOM     20  C   UNL     1       4.395  -0.766  -1.460  1.00  0.00     0.125 A 
ATOM     21  C   UNL     1       4.624  -1.363  -2.680  1.00  0.00     0.088 A 
ENDBRANCH  15  17
ENDBRANCH  10  13
ENDBRANCH   4   7
ENDBRANCH   2   3
ENDBRANCH   1   2
BRANCH   1  22
ATOM     22  C   UNL     1      -3.716   4.535  -2.413  1.00  0.00     0.023 C 
BRANCH  22  23
ATOM     23  C   UNL     1      -4.986   3.693  -2.438  1.00  0.00     0.116 C 
BRANCH  23  24
ATOM     24  N   UNL     1      -5.888   3.991  -1.336  1.00  0.00    -0.352 N 
ATOM     25  C   UNL     1      -7.186   4.445  -1.360  1.00  0.00     0.251 C 
ATOM     26  H   UNL     1      -5.512   3.845  -0.437  1.00  0.00     0.163 HD
ATOM     27  O   UNL     1      -7.740   4.779  -0.322  1.00  0.00    -0.269 OA
BRANCH  25  28
ATOM     28  C   UNL     1      -7.900   4.558  -2.650  1.00  0.00     0.039 A 
ATOM     29  C   UNL     1      -8.625   5.720  -2.922  1.00  0.00     0.014 A 
ATOM     30  C   UNL     1      -7.839   3.531  -3.594  1.00  0.00     0.014 A 
ATOM     31  C   UNL     1      -9.226   5.883  -4.173  1.00  0.00     0.010 A 
ATOM     32  C   UNL     1      -8.355   3.734  -4.869  1.00  0.00     0.010 A 
ATOM     33  C   UNL     1      -9.060   4.909  -5.171  1.00  0.00    -0.014 A 
BRANCH  33  34
ATOM     34  C   UNL     1      -9.630   5.088  -6.531  1.00  0.00     0.031 A 
ATOM     35  C   UNL     1     -10.657   4.119  -7.050  1.00  0.00     0.074 A 
ATOM     36  C   UNL     1      -9.179   6.080  -7.324  1.00  0.00     0.049 A 
ATOM     37  N   UNL     1     -11.217   4.059  -8.232  1.00  0.00    -0.248 NA
ATOM     38  C   UNL     1     -11.089   3.057  -6.128  1.00  0.00     0.031 C 
ATOM     39  C   UNL     1      -8.152   7.058  -6.959  1.00  0.00     0.029 A 
ATOM     40  N   UNL     1      -9.520   6.423  -8.609  1.00  0.00    -0.354 N 
ATOM     41  C   UNL     1     -12.051   2.948  -8.197  1.00  0.00     0.074 A 
ATOM     42  C   UNL     1     -11.874   2.326  -6.904  1.00  0.00     0.031 C 
ATOM     43  C   UNL     1      -7.969   7.907  -7.983  1.00  0.00     0.029 A 
ATOM     44  C   UNL     1      -8.830   7.508  -9.092  1.00  0.00     0.049 A 
ATOM     45  H   UNL     1     -10.195   5.936  -9.135  1.00  0.00     0.167 HD
ATOM     46  C   UNL     1     -12.907   2.500  -9.146  1.00  0.00     0.037 A 
ATOM     47  C   UNL     1      -8.882   8.111 -10.295  1.00  0.00     0.037 A 
ATOM     48  C   UNL     1     -13.096   3.131 -10.425  1.00  0.00     0.049 A 
ATOM     49  C   UNL     1      -9.830   7.587 -11.339  1.00  0.00     0.074 A 
ATOM     50  C   UNL     1     -13.975   2.785 -11.437  1.00  0.00     0.029 A 
ATOM     51  N   UNL     1     -12.389   4.239 -10.871  1.00  0.00    -0.354 N 
ATOM     52  N   UNL     1     -10.660   6.574 -11.270  1.00  0.00    -0.248 NA
ATOM     53  C   UNL     1      -9.855   8.296 -12.626  1.00  0.00     0.031 C 
ATOM     54  C   UNL     1     -13.765   3.653 -12.514  1.00  0.00     0.029 A 
ATOM     55  C   UNL     1     -12.799   4.577 -12.150  1.00  0.00     0.049 A 
ATOM     56  H   UNL     1     -11.699   4.715 -10.354  1.00  0.00     0.167 HD
ATOM     57  C   UNL     1     -11.331   6.547 -12.487  1.00  0.00     0.074 A 
ATOM     58  C   UNL     1     -10.817   7.651 -13.271  1.00  0.00     0.031 C 
ATOM     59  C   UNL     1     -12.288   5.688 -12.914  1.00  0.00     0.037 A 
BRANCH  46  60
ATOM     60  C   UNL     1     -13.703   1.266  -8.830  1.00  0.00     0.057 A 
ATOM     61  C   UNL     1     -14.707   1.262  -7.851  1.00  0.00     0.134 A 
ATOM     62  C   UNL     1     -13.478   0.070  -9.524  1.00  0.00     0.134 A 
ATOM     63  F   UNL     1     -14.966   2.369  -7.139  1.00  0.00    -0.206 F 
ATOM     64  C   UNL     1     -15.432   0.107  -7.550  1.00  0.00     0.040 A 
ATOM     65  C   UNL     1     -14.219  -1.082  -9.256  1.00  0.00     0.040 A 
ATOM     66  F   UNL     1     -12.538   0.003 -10.479  1.00  0.00    -0.206 F 
ATOM     67  C   UNL     1     -15.193  -1.068  -8.259  1.00  0.00     0.006 A 
ENDBRANCH  46  60
BRANCH  47  68
ATOM     68  C   UNL     1      -8.032   9.298 -10.572  1.00  0.00     0.057 A 
ATOM     69  C   UNL     1      -8.597  10.569 -10.727  1.00  0.00     0.134 A 
ATOM     70  C   UNL     1      -6.642   9.191 -10.700  1.00  0.00     0.134 A 
ATOM     71  F   UNL     1      -9.925  10.733 -10.634  1.00  0.00    -0.206 F 
ATOM     72  C   UNL     1      -7.815  11.688 -11.021  1.00  0.00     0.040 A 
ATOM     73  C   UNL     1      -5.845  10.306 -10.966  1.00  0.00     0.040 A 
ATOM     74  F   UNL     1      -6.037   8.003 -10.554  1.00  0.00    -0.206 F 
ATOM     75  C   UNL     1      -6.433  11.557 -11.136  1.00  0.00     0.006 A 
ENDBRANCH  47  68
BRANCH  59  76
ATOM     76  C   UNL     1     -12.884   5.938 -14.270  1.00  0.00     0.057 A 
ATOM     77  C   UNL     1     -12.166   5.719 -15.453  1.00  0.00     0.134 A 
ATOM     78  C   UNL     1     -14.212   6.368 -14.391  1.00  0.00     0.134 A 
ATOM     79  F   UNL     1     -10.887   5.318 -15.408  1.00  0.00    -0.206 F 
ATOM     80  C   UNL     1     -12.739   5.946 -16.705  1.00  0.00     0.040 A 
ATOM     81  C   UNL     1     -14.805   6.568 -15.638  1.00  0.00     0.040 A 
ATOM     82  F   UNL     1     -14.960   6.587 -13.299  1.00  0.00    -0.206 F 
ATOM     83  C   UNL     1     -14.065   6.364 -16.800  1.00  0.00     0.006 A 
ENDBRANCH  59  76
ENDBRANCH  33  34
ENDBRANCH  25  28
ENDBRANCH  23  24
ENDBRANCH  22  23
ENDBRANCH   1  22
TORSDOF 13
