REMARK SMILES CCNC(=O)c1ccc(N[C@@H]2COC[C@@]2(C)C(=O)NCCCCNC(=O)c2ccc(-c3c4nc(c(-c5c(F)cccc5F)c5ccc([nH]5)c(-c5c(F)cccc5F)c5nc(c(-c6c(F)cccc6F)c6ccc3[nH]6)C=C5)C=C4)cc2)nn1
REMARK SMILES IDX 20 1 19 2 17 3 18 4 15 6 11 7 12 8 13 9 14 10 16 11 10 12
REMARK SMILES IDX 9 14 6 15 7 16 82 17 8 18 81 19 4 20 3 21 5 23 2 24 1 25
REMARK SMILES IDX 21 26 22 27 23 28 24 29 25 30 26 32 27 33 28 34 80 35 29 36
REMARK SMILES IDX 79 37 30 38 31 39 32 40 73 41 33 42 78 43 72 44 74 45 34 46
REMARK SMILES IDX 77 47 71 48 70 49 35 51 61 52 44 53 60 54 45 55 48 56 59 57
REMARK SMILES IDX 75 58 46 59 47 60 58 62 76 63 49 64 36 65 37 66 42 67 38 68
REMARK SMILES IDX 39 69 41 70 43 71 40 72 62 73 63 74 68 75 64 76 65 77 67 78
REMARK SMILES IDX 69 79 66 80 50 81 51 82 56 83 52 84 53 85 55 86 57 87 54 88
REMARK H PARENT 19 5 10 13 3 22 24 31 74 50 48 61
REMARK Flexibility Score: inf
ROOT
ATOM      1  C   UNL     1      -4.821  -5.973  -3.319  1.00  0.00     0.116 C 
ENDROOT
BRANCH   1   2
ATOM      2  N   UNL     1      -6.165  -5.526  -3.009  1.00  0.00    -0.355 N 
ATOM      3  C   UNL     1      -6.747  -4.895  -1.960  1.00  0.00     0.230 C 
ATOM      4  O   UNL     1      -7.947  -4.633  -2.133  1.00  0.00    -0.274 OA
ATOM      5  H   UNL     1      -6.805  -5.727  -3.730  1.00  0.00     0.163 HD
BRANCH   3   6
ATOM      6  C   UNL     1      -6.059  -4.481  -0.651  1.00  0.00     0.092 C 
ATOM      7  C   UNL     1      -6.258  -2.968  -0.427  1.00  0.00     0.124 C 
ATOM      8  C   UNL     1      -6.204  -2.822   1.086  1.00  0.00     0.186 C 
ATOM      9  O   UNL     1      -6.753  -4.045   1.618  1.00  0.00    -0.378 OA
ATOM     10  C   UNL     1      -6.933  -4.972   0.525  1.00  0.00     0.179 C 
ATOM     11  C   UNL     1      -4.654  -5.018  -0.367  1.00  0.00     0.026 C 
BRANCH   7  12
ATOM     12  N   UNL     1      -5.463  -2.044  -1.228  1.00  0.00    -0.362 N 
ATOM     13  H   UNL     1      -5.958  -1.419  -1.806  1.00  0.00     0.162 HD
BRANCH  12  14
ATOM     14  C   UNL     1      -4.091  -1.960  -1.257  1.00  0.00     0.149 A 
ATOM     15  C   UNL     1      -1.400  -2.283  -1.511  1.00  0.00     0.150 A 
ATOM     16  C   UNL     1      -2.107  -1.853  -2.616  1.00  0.00     0.040 A 
ATOM     17  N   UNL     1      -1.978  -2.481  -0.310  1.00  0.00    -0.143 NA
ATOM     18  C   UNL     1      -3.479  -1.673  -2.473  1.00  0.00     0.051 A 
ATOM     19  N   UNL     1      -3.338  -2.309  -0.194  1.00  0.00    -0.132 NA
BRANCH  15  20
ATOM     20  C   UNL     1       0.018  -2.662  -1.645  1.00  0.00     0.271 C 
ATOM     21  N   UNL     1       0.984  -1.687  -1.605  1.00  0.00    -0.351 N 
ATOM     22  H   UNL     1       1.904  -1.983  -1.792  1.00  0.00     0.163 HD
ATOM     23  O   UNL     1       0.318  -3.834  -1.853  1.00  0.00    -0.267 OA
BRANCH  21  24
ATOM     24  C   UNL     1       0.817  -0.275  -1.322  1.00  0.00     0.113 C 
ATOM     25  C   UNL     1       1.244   0.046   0.097  1.00  0.00     0.027 C 
ENDBRANCH  21  24
ENDBRANCH  15  20
ENDBRANCH  12  14
ENDBRANCH   7  12
ENDBRANCH   3   6
ENDBRANCH   1   2
BRANCH   1  26
ATOM     26  C   UNL     1      -4.716  -7.497  -3.332  1.00  0.00     0.023 C 
BRANCH  26  27
ATOM     27  C   UNL     1      -5.214  -8.156  -4.621  1.00  0.00     0.023 C 
BRANCH  27  28
ATOM     28  C   UNL     1      -4.587  -7.636  -5.913  1.00  0.00     0.116 C 
BRANCH  28  29
ATOM     29  N   UNL     1      -3.132  -7.613  -5.897  1.00  0.00    -0.352 N 
ATOM     30  C   UNL     1      -2.256  -7.878  -6.926  1.00  0.00     0.251 C 
ATOM     31  H   UNL     1      -2.718  -7.378  -5.035  1.00  0.00     0.163 HD
ATOM     32  O   UNL     1      -1.051  -7.882  -6.742  1.00  0.00    -0.269 OA
BRANCH  30  33
ATOM     33  C   UNL     1      -2.805  -8.204  -8.258  1.00  0.00     0.039 A 
ATOM     34  C   UNL     1      -2.397  -9.386  -8.879  1.00  0.00     0.014 A 
ATOM     35  C   UNL     1      -3.761  -7.378  -8.853  1.00  0.00     0.014 A 
ATOM     36  C   UNL     1      -3.016  -9.787 -10.064  1.00  0.00     0.010 A 
ATOM     37  C   UNL     1      -4.423  -7.813  -9.996  1.00  0.00     0.010 A 
ATOM     38  C   UNL     1      -4.065  -9.025 -10.606  1.00  0.00    -0.014 A 
BRANCH  38  39
ATOM     39  C   UNL     1      -4.816  -9.489 -11.799  1.00  0.00     0.031 A 
ATOM     40  C   UNL     1      -4.778  -8.687 -13.069  1.00  0.00     0.074 A 
ATOM     41  C   UNL     1      -5.600 -10.582 -11.708  1.00  0.00     0.049 A 
ATOM     42  N   UNL     1      -5.441  -8.871 -14.181  1.00  0.00    -0.248 NA
ATOM     43  C   UNL     1      -3.905  -7.502 -13.080  1.00  0.00     0.031 C 
ATOM     44  C   UNL     1      -5.771 -11.408 -10.511  1.00  0.00     0.029 A 
ATOM     45  N   UNL     1      -6.418 -11.175 -12.637  1.00  0.00    -0.354 N 
ATOM     46  C   UNL     1      -5.088  -7.814 -15.010  1.00  0.00     0.074 A 
ATOM     47  C   UNL     1      -4.183  -6.971 -14.262  1.00  0.00     0.031 C 
ATOM     48  C   UNL     1      -6.627 -12.407 -10.783  1.00  0.00     0.029 A 
ATOM     49  C   UNL     1      -7.090 -12.275 -12.160  1.00  0.00     0.049 A 
ATOM     50  H   UNL     1      -6.513 -10.844 -13.560  1.00  0.00     0.167 HD
ATOM     51  C   UNL     1      -5.471  -7.580 -16.287  1.00  0.00     0.037 A 
ATOM     52  C   UNL     1      -7.985 -13.079 -12.764  1.00  0.00     0.037 A 
ATOM     53  C   UNL     1      -6.327  -8.451 -17.048  1.00  0.00     0.049 A 
ATOM     54  C   UNL     1      -8.361 -12.814 -14.196  1.00  0.00     0.074 A 
ATOM     55  C   UNL     1      -6.692  -8.350 -18.379  1.00  0.00     0.029 A 
ATOM     56  N   UNL     1      -6.946  -9.584 -16.545  1.00  0.00    -0.354 N 
ATOM     57  N   UNL     1      -7.949 -11.860 -14.995  1.00  0.00    -0.248 NA
ATOM     58  C   UNL     1      -9.320 -13.742 -14.813  1.00  0.00     0.031 C 
ATOM     59  C   UNL     1      -7.562  -9.404 -18.673  1.00  0.00     0.029 A 
ATOM     60  C   UNL     1      -7.707 -10.182 -17.536  1.00  0.00     0.049 A 
ATOM     61  H   UNL     1      -6.858  -9.915 -15.622  1.00  0.00     0.167 HD
ATOM     62  C   UNL     1      -8.573 -12.090 -16.214  1.00  0.00     0.074 A 
ATOM     63  C   UNL     1      -9.380 -13.281 -16.054  1.00  0.00     0.031 C 
ATOM     64  C   UNL     1      -8.487 -11.378 -17.363  1.00  0.00     0.037 A 
BRANCH  51  65
ATOM     65  C   UNL     1      -4.957  -6.341 -16.955  1.00  0.00     0.057 A 
ATOM     66  C   UNL     1      -3.625  -6.228 -17.374  1.00  0.00     0.134 A 
ATOM     67  C   UNL     1      -5.820  -5.277 -17.244  1.00  0.00     0.134 A 
ATOM     68  F   UNL     1      -2.746  -7.208 -17.117  1.00  0.00    -0.206 F 
ATOM     69  C   UNL     1      -3.167  -5.093 -18.045  1.00  0.00     0.040 A 
ATOM     70  C   UNL     1      -5.379  -4.147 -17.934  1.00  0.00     0.040 A 
ATOM     71  F   UNL     1      -7.109  -5.325 -16.873  1.00  0.00    -0.206 F 
ATOM     72  C   UNL     1      -4.048  -4.053 -18.335  1.00  0.00     0.006 A 
ENDBRANCH  51  65
BRANCH  52  73
ATOM     73  C   UNL     1      -8.586 -14.222 -12.030  1.00  0.00     0.057 A 
ATOM     74  C   UNL     1      -8.268 -15.543 -12.368  1.00  0.00     0.134 A 
ATOM     75  C   UNL     1      -9.519 -14.025 -11.006  1.00  0.00     0.134 A 
ATOM     76  F   UNL     1      -7.395 -15.795 -13.355  1.00  0.00    -0.206 F 
ATOM     77  C   UNL     1      -8.879 -16.627 -11.737  1.00  0.00     0.040 A 
ATOM     78  C   UNL     1     -10.120 -15.100 -10.349  1.00  0.00     0.040 A 
ATOM     79  F   UNL     1      -9.861 -12.784 -10.630  1.00  0.00    -0.206 F 
ATOM     80  C   UNL     1      -9.808 -16.407 -10.722  1.00  0.00     0.006 A 
ENDBRANCH  52  73
BRANCH  64  81
ATOM     81  C   UNL     1      -9.250 -11.891 -18.547  1.00  0.00     0.057 A 
ATOM     82  C   UNL     1     -10.643 -11.773 -18.634  1.00  0.00     0.134 A 
ATOM     83  C   UNL     1      -8.578 -12.470 -19.630  1.00  0.00     0.134 A 
ATOM     84  F   UNL     1     -11.344 -11.240 -17.623  1.00  0.00    -0.206 F 
ATOM     85  C   UNL     1     -11.342 -12.232 -19.751  1.00  0.00     0.040 A 
ATOM     86  C   UNL     1      -9.264 -12.910 -20.762  1.00  0.00     0.040 A 
ATOM     87  F   UNL     1      -7.243 -12.603 -19.611  1.00  0.00    -0.206 F 
ATOM     88  C   UNL     1     -10.651 -12.796 -20.822  1.00  0.00     0.006 A 
ENDBRANCH  64  81
ENDBRANCH  38  39
ENDBRANCH  30  33
ENDBRANCH  28  29
ENDBRANCH  27  28
ENDBRANCH  26  27
ENDBRANCH   1  26
TORSDOF 15
