REMARK SMILES CC[C@@H](C)[C@H](NC(=O)NCc1ccc(C)cc1)C(=O)NCCCCNC(=O)c1ccc(-c2c3nc(c(-c4c(F)cccc4F)c4ccc([nH]4)c(-c4c(F)cccc4F)c4nc(c(-c5c(F)cccc5F)c5ccc2[nH]5)C=C4)C=C3)cc1
REMARK SMILES IDX 22 1 21 2 20 3 18 4 19 5 5 7 3 8 4 9 2 10 1 11 6 12 7 13
REMARK SMILES IDX 8 15 9 16 10 18 11 19 12 20 17 21 13 22 16 23 14 24 15 25
REMARK SMILES IDX 23 26 24 27 25 28 26 29 27 31 28 32 29 33 81 34 30 35 80 36
REMARK SMILES IDX 31 37 32 38 33 39 74 40 34 41 79 42 73 43 75 44 35 45 78 46
REMARK SMILES IDX 72 47 71 48 36 50 62 51 45 52 61 53 46 54 49 55 60 56 76 57
REMARK SMILES IDX 47 58 48 59 59 61 77 62 50 63 37 64 38 65 43 66 39 67 40 68
REMARK SMILES IDX 42 69 44 70 41 71 63 72 64 73 69 74 65 75 66 76 68 77 70 78
REMARK SMILES IDX 67 79 51 80 52 81 57 82 53 83 54 84 56 85 58 86 55 87
REMARK H PARENT 20 6 6 14 9 17 25 30 75 49 49 60
REMARK Flexibility Score: inf
ROOT
ATOM      1  C   UNL     1       4.715   2.236   2.124  1.00  0.00     0.023 C 
ENDROOT
BRANCH   1   2
ATOM      2  C   UNL     1       4.155   1.488   3.333  1.00  0.00     0.116 C 
BRANCH   2   3
ATOM      3  N   UNL     1       3.454   2.258   4.349  1.00  0.00    -0.354 N 
ATOM      4  C   UNL     1       2.189   2.119   4.846  1.00  0.00     0.242 C 
ATOM      5  O   UNL     1       1.992   2.494   6.008  1.00  0.00    -0.273 OA
ATOM      6  H   UNL     1       3.974   2.996   4.740  1.00  0.00     0.163 HD
BRANCH   4   7
ATOM      7  C   UNL     1       1.044   1.437   4.067  1.00  0.00     0.175 C 
BRANCH   7   8
ATOM      8  C   UNL     1       0.871  -0.073   4.481  1.00  0.00     0.018 C 
ATOM      9  C   UNL     1       0.284  -0.187   5.894  1.00  0.00     0.010 C 
BRANCH   8  10
ATOM     10  C   UNL     1       2.164  -0.908   4.339  1.00  0.00     0.002 C 
ATOM     11  C   UNL     1       2.145  -2.322   4.900  1.00  0.00     0.004 C 
ENDBRANCH   8  10
ENDBRANCH   7   8
BRANCH   7  12
ATOM     12  N   UNL     1       1.153   1.615   2.621  1.00  0.00    -0.326 N 
ATOM     13  C   UNL     1       1.274   2.688   1.829  1.00  0.00     0.315 C 
ATOM     14  H   UNL     1       1.134   0.765   2.123  1.00  0.00     0.166 HD
ATOM     15  O   UNL     1       1.370   2.479   0.616  1.00  0.00    -0.249 OA
ATOM     16  N   UNL     1       1.392   3.953   2.246  1.00  0.00    -0.334 N 
ATOM     17  H   UNL     1       1.905   4.510   1.617  1.00  0.00     0.165 HD
BRANCH  16  18
ATOM     18  C   UNL     1       0.940   4.702   3.409  1.00  0.00     0.153 C 
BRANCH  18  19
ATOM     19  C   UNL     1       2.026   5.480   4.125  1.00  0.00    -0.029 A 
ATOM     20  C   UNL     1       2.051   5.493   5.527  1.00  0.00     0.006 A 
ATOM     21  C   UNL     1       2.984   6.254   3.454  1.00  0.00     0.006 A 
ATOM     22  C   UNL     1       3.053   6.164   6.234  1.00  0.00     0.004 A 
ATOM     23  C   UNL     1       3.992   6.930   4.161  1.00  0.00     0.004 A 
ATOM     24  C   UNL     1       4.051   6.866   5.557  1.00  0.00    -0.051 A 
ATOM     25  C   UNL     1       5.122   7.577   6.330  1.00  0.00     0.044 C 
ENDBRANCH  18  19
ENDBRANCH  16  18
ENDBRANCH   7  12
ENDBRANCH   4   7
ENDBRANCH   2   3
ENDBRANCH   1   2
BRANCH   1  26
ATOM     26  C   UNL     1       5.271   3.623   2.374  1.00  0.00     0.023 C 
BRANCH  26  27
ATOM     27  C   UNL     1       6.407   3.693   3.373  1.00  0.00     0.116 C 
BRANCH  27  28
ATOM     28  N   UNL     1       7.726   3.450   2.806  1.00  0.00    -0.352 N 
ATOM     29  C   UNL     1       8.959   3.441   3.445  1.00  0.00     0.251 C 
ATOM     30  H   UNL     1       7.747   3.268   1.838  1.00  0.00     0.163 HD
ATOM     31  O   UNL     1       9.979   3.217   2.821  1.00  0.00    -0.269 OA
BRANCH  29  32
ATOM     32  C   UNL     1       8.993   3.538   4.929  1.00  0.00     0.039 A 
ATOM     33  C   UNL     1       9.701   2.543   5.611  1.00  0.00     0.014 A 
ATOM     34  C   UNL     1       8.116   4.372   5.614  1.00  0.00     0.014 A 
ATOM     35  C   UNL     1       9.296   2.189   6.892  1.00  0.00     0.010 A 
ATOM     36  C   UNL     1       7.627   3.946   6.831  1.00  0.00     0.010 A 
ATOM     37  C   UNL     1       8.167   2.804   7.428  1.00  0.00    -0.014 A 
BRANCH  37  38
ATOM     38  C   UNL     1       7.440   2.256   8.564  1.00  0.00     0.031 A 
ATOM     39  C   UNL     1       7.580   2.889   9.888  1.00  0.00     0.074 A 
ATOM     40  C   UNL     1       6.645   1.174   8.403  1.00  0.00     0.049 A 
ATOM     41  N   UNL     1       7.372   2.282  11.006  1.00  0.00    -0.248 NA
ATOM     42  C   UNL     1       8.083   4.248  10.059  1.00  0.00     0.031 C 
ATOM     43  C   UNL     1       5.694   0.624   9.365  1.00  0.00     0.029 A 
ATOM     44  N   UNL     1       6.720   0.204   7.391  1.00  0.00    -0.354 N 
ATOM     45  C   UNL     1       7.435   3.218  12.011  1.00  0.00     0.074 A 
ATOM     46  C   UNL     1       8.018   4.377  11.387  1.00  0.00     0.031 C 
ATOM     47  C   UNL     1       5.496  -0.673   9.082  1.00  0.00     0.029 A 
ATOM     48  C   UNL     1       6.415  -1.026   8.014  1.00  0.00     0.049 A 
ATOM     49  H   UNL     1       6.940   0.351   6.443  1.00  0.00     0.167 HD
ATOM     50  C   UNL     1       6.856   2.925  13.210  1.00  0.00     0.037 A 
ATOM     51  C   UNL     1       7.313  -2.051   8.065  1.00  0.00     0.037 A 
ATOM     52  C   UNL     1       6.509   1.501  13.275  1.00  0.00     0.049 A 
ATOM     53  C   UNL     1       7.654  -2.498   9.467  1.00  0.00     0.074 A 
ATOM     54  C   UNL     1       5.316   0.810  13.145  1.00  0.00     0.029 A 
ATOM     55  N   UNL     1       7.524   0.548  13.223  1.00  0.00    -0.354 N 
ATOM     56  N   UNL     1       7.452  -1.771  10.530  1.00  0.00    -0.248 NA
ATOM     57  C   UNL     1       8.270  -3.784   9.779  1.00  0.00     0.031 C 
ATOM     58  C   UNL     1       5.624  -0.561  12.945  1.00  0.00     0.029 A 
ATOM     59  C   UNL     1       7.001  -0.708  12.989  1.00  0.00     0.049 A 
ATOM     60  H   UNL     1       8.482   0.744  13.338  1.00  0.00     0.167 HD
ATOM     61  C   UNL     1       7.914  -2.437  11.637  1.00  0.00     0.074 A 
ATOM     62  C   UNL     1       8.394  -3.704  11.116  1.00  0.00     0.031 C 
ATOM     63  C   UNL     1       7.870  -1.874  12.882  1.00  0.00     0.037 A 
BRANCH  50  64
ATOM     64  C   UNL     1       6.363   3.943  14.232  1.00  0.00     0.057 A 
ATOM     65  C   UNL     1       5.549   3.523  15.307  1.00  0.00     0.134 A 
ATOM     66  C   UNL     1       6.532   5.341  14.173  1.00  0.00     0.134 A 
ATOM     67  F   UNL     1       5.318   2.226  15.552  1.00  0.00    -0.206 F 
ATOM     68  C   UNL     1       4.909   4.413  16.187  1.00  0.00     0.040 A 
ATOM     69  C   UNL     1       5.912   6.240  15.054  1.00  0.00     0.040 A 
ATOM     70  F   UNL     1       7.294   5.944  13.262  1.00  0.00    -0.206 F 
ATOM     71  C   UNL     1       5.079   5.780  16.055  1.00  0.00     0.006 A 
ENDBRANCH  50  64
BRANCH  51  72
ATOM     72  C   UNL     1       8.241  -2.083   6.906  1.00  0.00     0.057 A 
ATOM     73  C   UNL     1       7.711  -2.328   5.627  1.00  0.00     0.134 A 
ATOM     74  C   UNL     1       9.518  -1.519   6.969  1.00  0.00     0.134 A 
ATOM     75  F   UNL     1       6.489  -2.871   5.497  1.00  0.00    -0.206 F 
ATOM     76  C   UNL     1       8.368  -1.921   4.464  1.00  0.00     0.040 A 
ATOM     77  C   UNL     1      10.191  -1.117   5.809  1.00  0.00     0.040 A 
ATOM     78  F   UNL     1      10.082  -1.237   8.151  1.00  0.00    -0.206 F 
ATOM     79  C   UNL     1       9.599  -1.280   4.556  1.00  0.00     0.006 A 
ENDBRANCH  51  72
BRANCH  63  80
ATOM     80  C   UNL     1       8.556  -2.390  14.131  1.00  0.00     0.057 A 
ATOM     81  C   UNL     1       9.697  -3.206  14.139  1.00  0.00     0.134 A 
ATOM     82  C   UNL     1       8.145  -1.939  15.409  1.00  0.00     0.134 A 
ATOM     83  F   UNL     1      10.277  -3.619  13.005  1.00  0.00    -0.206 F 
ATOM     84  C   UNL     1      10.343  -3.592  15.324  1.00  0.00     0.040 A 
ATOM     85  C   UNL     1       8.815  -2.270  16.591  1.00  0.00     0.040 A 
ATOM     86  F   UNL     1       7.087  -1.131  15.567  1.00  0.00    -0.206 F 
ATOM     87  C   UNL     1       9.912  -3.114  16.554  1.00  0.00     0.006 A 
ENDBRANCH  63  80
ENDBRANCH  37  38
ENDBRANCH  29  32
ENDBRANCH  27  28
ENDBRANCH  26  27
ENDBRANCH   1  26
TORSDOF 16
