REMARK SMILES COc1ccc(-c2csc(NC(=O)[C@H](CC(=O)NCCCCNC(=O)c3ccc(-c4c5nc(c(-c6c(F)cccc6F)c6ccc([nH]6)c(-c6c(F)cccc6F)c6nc(c(-c7c(F)cccc7F)c7ccc4[nH]7)C=C6)C=C5)cc3)[NH+]3CCCCC3)n2)cc1
REMARK SMILES IDX 19 1 18 2 16 3 17 4 15 6 14 7 12 8 11 9 13 11 10 12 7 13
REMARK SMILES IDX 8 14 86 15 9 16 6 17 3 18 4 19 88 20 5 21 87 22 2 23 1 24
REMARK SMILES IDX 80 25 81 26 85 27 82 29 84 30 83 31 20 32 21 33 22 34 23 35
REMARK SMILES IDX 24 36 25 38 26 39 27 40 79 41 28 42 78 43 29 44 30 45 31 46
REMARK SMILES IDX 72 47 32 48 77 49 71 50 73 51 33 52 76 53 70 54 69 55 34 57
REMARK SMILES IDX 60 58 43 59 59 60 44 61 47 62 58 63 74 64 45 65 46 66 57 68
REMARK SMILES IDX 75 69 48 70 35 71 36 72 41 73 37 74 38 75 40 76 42 77 39 78
REMARK SMILES IDX 61 79 62 80 67 81 63 82 64 83 66 84 68 85 65 86 49 87 50 88
REMARK SMILES IDX 55 89 51 90 52 91 54 92 56 93 53 94
REMARK H PARENT 18 5 11 10 80 28 23 37 73 56 47 67
REMARK Flexibility Score: inf
ROOT
ATOM      1  C   UNL     1       5.185  -0.898  -7.988  1.00  0.00     0.116 C 
ENDROOT
BRANCH   1   2
ATOM      2  N   UNL     1       5.042  -2.332  -7.867  1.00  0.00    -0.356 N 
ATOM      3  C   UNL     1       4.941  -3.319  -8.785  1.00  0.00     0.226 C 
ATOM      4  O   UNL     1       5.406  -4.409  -8.409  1.00  0.00    -0.275 OA
ATOM      5  H   UNL     1       5.012  -2.651  -6.936  1.00  0.00     0.163 HD
BRANCH   3   6
ATOM      6  C   UNL     1       4.360  -3.262 -10.193  1.00  0.00     0.175 C 
BRANCH   6   7
ATOM      7  C   UNL     1       3.239  -2.366 -10.742  1.00  0.00     0.284 C 
BRANCH   7   8
ATOM      8  C   UNL     1       1.735  -2.764 -10.433  1.00  0.00     0.285 C 
ATOM      9  N   UNL     1       1.072  -2.470  -9.274  1.00  0.00    -0.297 N 
ATOM     10  H   UNL     1       0.250  -1.939  -9.388  1.00  0.00     0.172 HD
ATOM     11  O   UNL     1       1.030  -3.151 -11.381  1.00  0.00    -0.268 OA
BRANCH   9  12
ATOM     12  C   UNL     1       1.374  -2.799  -7.982  1.00  0.00     0.190 A 
ATOM     13  C   UNL     1       1.396  -2.822  -5.775  1.00  0.00     0.084 A 
ATOM     14  C   UNL     1       2.374  -3.763  -6.050  1.00  0.00     0.097 A 
ATOM     15  N   UNL     1       0.816  -2.261  -6.912  1.00  0.00    -0.220 NA
ATOM     16  S   UNL     1       2.267  -4.214  -7.687  1.00  0.00    -0.105 S 
BRANCH  13  17
ATOM     17  C   UNL     1       1.154  -2.421  -4.389  1.00  0.00     0.001 A 
ATOM     18  C   UNL     1       1.302  -1.735  -1.657  1.00  0.00     0.118 A 
ATOM     19  C   UNL     1       1.083  -0.757  -2.634  1.00  0.00     0.047 A 
ATOM     20  C   UNL     1       1.323  -3.070  -2.039  1.00  0.00     0.047 A 
ATOM     21  C   UNL     1       1.007  -1.090  -3.996  1.00  0.00     0.014 A 
ATOM     22  C   UNL     1       1.231  -3.406  -3.390  1.00  0.00     0.014 A 
BRANCH  18  23
ATOM     23  O   UNL     1       1.483  -1.278  -0.381  1.00  0.00    -0.497 OA
ATOM     24  C   UNL     1       2.005  -2.213   0.562  1.00  0.00     0.278 C 
ENDBRANCH  18  23
ENDBRANCH  13  17
ENDBRANCH   9  12
ENDBRANCH   7   8
BRANCH   7  25
ATOM     25  N   UNL     1       3.491  -0.891 -10.769  1.00  0.00    -0.324 N 
ATOM     26  C   UNL     1       4.740  -0.526 -11.464  1.00  0.00     0.262 C 
ATOM     27  C   UNL     1       2.393  -0.092 -11.342  1.00  0.00     0.262 C 
ATOM     28  H   UNL     1       3.568  -0.660  -9.779  1.00  0.00     0.348 HD
ATOM     29  C   UNL     1       5.108   0.941 -11.219  1.00  0.00     0.062 C 
ATOM     30  C   UNL     1       2.611   1.390 -11.027  1.00  0.00     0.062 C 
ATOM     31  C   UNL     1       3.965   1.906 -11.502  1.00  0.00     0.012 C 
ENDBRANCH   7  25
ENDBRANCH   6   7
ENDBRANCH   3   6
ENDBRANCH   1   2
BRANCH   1  32
ATOM     32  C   UNL     1       3.897  -0.088  -7.999  1.00  0.00     0.023 C 
BRANCH  32  33
ATOM     33  C   UNL     1       3.187   0.234  -6.705  1.00  0.00     0.023 C 
BRANCH  33  34
ATOM     34  C   UNL     1       3.999   0.889  -5.619  1.00  0.00     0.116 C 
BRANCH  34  35
ATOM     35  N   UNL     1       4.376   2.258  -5.918  1.00  0.00    -0.352 N 
ATOM     36  C   UNL     1       4.183   3.389  -5.150  1.00  0.00     0.251 C 
ATOM     37  H   UNL     1       4.828   2.398  -6.780  1.00  0.00     0.163 HD
ATOM     38  O   UNL     1       4.440   4.492  -5.603  1.00  0.00    -0.269 OA
BRANCH  36  39
ATOM     39  C   UNL     1       3.622   3.258  -3.780  1.00  0.00     0.039 A 
ATOM     40  C   UNL     1       2.645   4.161  -3.356  1.00  0.00     0.014 A 
ATOM     41  C   UNL     1       4.026   2.228  -2.929  1.00  0.00     0.014 A 
ATOM     42  C   UNL     1       2.032   3.988  -2.109  1.00  0.00     0.010 A 
ATOM     43  C   UNL     1       3.329   1.986  -1.750  1.00  0.00     0.010 A 
ATOM     44  C   UNL     1       2.335   2.873  -1.309  1.00  0.00    -0.014 A 
BRANCH  44  45
ATOM     45  C   UNL     1       1.647   2.626  -0.009  1.00  0.00     0.031 A 
ATOM     46  C   UNL     1       2.451   2.477   1.261  1.00  0.00     0.074 A 
ATOM     47  C   UNL     1       0.307   2.473   0.038  1.00  0.00     0.049 A 
ATOM     48  N   UNL     1       2.043   2.206   2.476  1.00  0.00    -0.248 NA
ATOM     49  C   UNL     1       3.912   2.617   1.145  1.00  0.00     0.031 C 
ATOM     50  C   UNL     1      -0.596   2.513  -1.114  1.00  0.00     0.029 A 
ATOM     51  N   UNL     1      -0.530   2.243   1.103  1.00  0.00    -0.354 N 
ATOM     52  C   UNL     1       3.192   2.120   3.252  1.00  0.00     0.074 A 
ATOM     53  C   UNL     1       4.317   2.288   2.361  1.00  0.00     0.031 C 
ATOM     54  C   UNL     1      -1.860   2.349  -0.690  1.00  0.00     0.029 A 
ATOM     55  C   UNL     1      -1.858   2.160   0.757  1.00  0.00     0.049 A 
ATOM     56  H   UNL     1      -0.209   2.146   2.029  1.00  0.00     0.167 HD
ATOM     57  C   UNL     1       3.308   1.958   4.592  1.00  0.00     0.037 A 
ATOM     58  C   UNL     1      -2.952   1.959   1.517  1.00  0.00     0.037 A 
ATOM     59  C   UNL     1       2.194   1.839   5.493  1.00  0.00     0.049 A 
ATOM     60  C   UNL     1      -2.801   1.796   3.005  1.00  0.00     0.074 A 
ATOM     61  C   UNL     1       2.208   1.749   6.874  1.00  0.00     0.029 A 
ATOM     62  N   UNL     1       0.864   1.798   5.103  1.00  0.00    -0.354 N 
ATOM     63  N   UNL     1      -1.712   1.806   3.734  1.00  0.00    -0.248 NA
ATOM     64  C   UNL     1      -4.037   1.605   3.778  1.00  0.00     0.031 C 
ATOM     65  C   UNL     1       0.890   1.607   7.317  1.00  0.00     0.029 A 
ATOM     66  C   UNL     1       0.051   1.663   6.216  1.00  0.00     0.049 A 
ATOM     67  H   UNL     1       0.545   1.856   4.173  1.00  0.00     0.167 HD
ATOM     68  C   UNL     1      -2.133   1.658   5.050  1.00  0.00     0.074 A 
ATOM     69  C   UNL     1      -3.577   1.575   5.021  1.00  0.00     0.031 C 
ATOM     70  C   UNL     1      -1.387   1.597   6.180  1.00  0.00     0.037 A 
BRANCH  57  71
ATOM     71  C   UNL     1       4.697   1.924   5.167  1.00  0.00     0.057 A 
ATOM     72  C   UNL     1       5.519   3.059   5.181  1.00  0.00     0.134 A 
ATOM     73  C   UNL     1       5.209   0.750   5.734  1.00  0.00     0.134 A 
ATOM     74  F   UNL     1       5.095   4.213   4.644  1.00  0.00    -0.206 F 
ATOM     75  C   UNL     1       6.813   3.019   5.704  1.00  0.00     0.040 A 
ATOM     76  C   UNL     1       6.488   0.707   6.290  1.00  0.00     0.040 A 
ATOM     77  F   UNL     1       4.473  -0.371   5.762  1.00  0.00    -0.206 F 
ATOM     78  C   UNL     1       7.298   1.841   6.267  1.00  0.00     0.006 A 
ENDBRANCH  57  71
BRANCH  58  79
ATOM     79  C   UNL     1      -4.301   1.943   0.894  1.00  0.00     0.057 A 
ATOM     80  C   UNL     1      -5.215   2.977   1.130  1.00  0.00     0.134 A 
ATOM     81  C   UNL     1      -4.719   0.889   0.074  1.00  0.00     0.134 A 
ATOM     82  F   UNL     1      -4.881   4.005   1.924  1.00  0.00    -0.206 F 
ATOM     83  C   UNL     1      -6.505   2.951   0.597  1.00  0.00     0.040 A 
ATOM     84  C   UNL     1      -5.997   0.864  -0.489  1.00  0.00     0.040 A 
ATOM     85  F   UNL     1      -3.890  -0.130  -0.197  1.00  0.00    -0.206 F 
ATOM     86  C   UNL     1      -6.897   1.893  -0.220  1.00  0.00     0.006 A 
ENDBRANCH  58  79
BRANCH  70  87
ATOM     87  C   UNL     1      -2.117   1.478   7.487  1.00  0.00     0.057 A 
ATOM     88  C   UNL     1      -2.772   0.300   7.867  1.00  0.00     0.134 A 
ATOM     89  C   UNL     1      -2.124   2.543   8.397  1.00  0.00     0.134 A 
ATOM     90  F   UNL     1      -2.813  -0.754   7.038  1.00  0.00    -0.206 F 
ATOM     91  C   UNL     1      -3.427   0.194   9.096  1.00  0.00     0.040 A 
ATOM     92  C   UNL     1      -2.749   2.439   9.639  1.00  0.00     0.040 A 
ATOM     93  F   UNL     1      -1.507   3.697   8.100  1.00  0.00    -0.206 F 
ATOM     94  C   UNL     1      -3.409   1.263   9.989  1.00  0.00     0.006 A 
ENDBRANCH  70  87
ENDBRANCH  44  45
ENDBRANCH  36  39
ENDBRANCH  34  35
ENDBRANCH  33  34
ENDBRANCH  32  33
ENDBRANCH   1  32
TORSDOF 17
