REMARK SMILES Cc1ccc(NC(=O)C[C@H]([NH2+]Cc2cccnc2)C(=O)NCCCCNC(=O)c2ccc(-c3c4nc(c(-c5c(F)cccc5F)c5ccc([nH]5)c(-c5c(F)cccc5F)c5nc(c(-c6c(F)cccc6F)c6ccc3[nH]6)C=C5)C=C4)cc2)cc1Cl
REMARK SMILES IDX 23 1 22 2 21 3 19 4 20 5 10 7 9 8 7 9 6 10 8 12 5 13 1 14
REMARK SMILES IDX 2 15 3 16 84 17 4 18 83 19 85 20 11 21 12 24 13 25 14 26
REMARK SMILES IDX 18 27 15 28 17 29 16 30 24 31 25 32 26 33 27 34 28 36 29 37
REMARK SMILES IDX 30 38 82 39 31 40 81 41 32 42 33 43 34 44 75 45 35 46 80 47
REMARK SMILES IDX 74 48 76 49 36 50 79 51 73 52 72 53 37 55 63 56 46 57 62 58
REMARK SMILES IDX 47 59 50 60 61 61 77 62 48 63 49 64 60 66 78 67 51 68 38 69
REMARK SMILES IDX 39 70 44 71 40 72 41 73 43 74 45 75 42 76 64 77 65 78 70 79
REMARK SMILES IDX 66 80 67 81 69 82 71 83 68 84 52 85 53 86 58 87 54 88 55 89
REMARK SMILES IDX 57 90 59 91 56 92
REMARK H PARENT 21 6 6 11 11 22 11 23 26 35 76 54 50 65
REMARK Flexibility Score: inf
ROOT
ATOM      1  C   UNL     1       2.805  -2.989   1.391  1.00  0.00     0.023 C 
ENDROOT
BRANCH   1   2
ATOM      2  C   UNL     1       2.579  -2.238   0.077  1.00  0.00     0.116 C 
BRANCH   2   3
ATOM      3  N   UNL     1       2.120  -3.129  -0.987  1.00  0.00    -0.351 N 
ATOM      4  C   UNL     1       0.950  -3.420  -1.608  1.00  0.00     0.278 C 
ATOM      5  O   UNL     1       1.027  -4.322  -2.460  1.00  0.00    -0.268 OA
ATOM      6  H   UNL     1       2.862  -3.663  -1.352  1.00  0.00     0.163 HD
BRANCH   4   7
ATOM      7  C   UNL     1      -0.459  -2.806  -1.325  1.00  0.00     0.282 C 
BRANCH   7   8
ATOM      8  C   UNL     1      -0.490  -1.422  -0.717  1.00  0.00     0.175 C 
BRANCH   8   9
ATOM      9  C   UNL     1      -0.723  -0.974   0.717  1.00  0.00     0.230 C 
ATOM     10  N   UNL     1      -0.692  -1.598   1.907  1.00  0.00    -0.326 N 
ATOM     11  H   UNL     1      -0.899  -0.950   2.619  1.00  0.00     0.169 HD
ATOM     12  O   UNL     1      -0.966   0.246   0.838  1.00  0.00    -0.274 OA
BRANCH  10  13
ATOM     13  C   UNL     1      -0.466  -2.859   2.480  1.00  0.00     0.042 A 
ATOM     14  C   UNL     1       0.177  -6.609   4.582  1.00  0.00     0.046 C 
ATOM     15  C   UNL     1      -0.031  -5.316   3.854  1.00  0.00    -0.032 A 
ATOM     16  C   UNL     1      -0.423  -4.166   4.546  1.00  0.00     0.007 A 
ATOM     17  C   UNL     1       0.145  -5.218   2.476  1.00  0.00     0.046 A 
ATOM     18  C   UNL     1      -0.640  -2.958   3.866  1.00  0.00     0.026 A 
ATOM     19  C   UNL     1      -0.049  -3.998   1.820  1.00  0.00     0.047 A 
ATOM     20  Cl  UNL     1       0.638  -6.574   1.520  1.00  0.00    -0.084 Cl
ENDBRANCH  10  13
ENDBRANCH   8   9
ENDBRANCH   7   8
BRANCH   7  21
ATOM     21  N   UNL     1      -1.345  -3.860  -0.808  1.00  0.00    -0.332 N 
ATOM     22  H   UNL     1      -0.972  -4.149   0.096  1.00  0.00     0.347 HD
ATOM     23  H   UNL     1      -1.345  -4.567  -1.543  1.00  0.00     0.347 HD
BRANCH  21  24
ATOM     24  C   UNL     1      -2.755  -3.553  -0.612  1.00  0.00     0.299 C 
BRANCH  24  25
ATOM     25  C   UNL     1      -3.249  -4.204   0.658  1.00  0.00     0.024 A 
ATOM     26  C   UNL     1      -3.179  -5.587   0.863  1.00  0.00     0.013 A 
ATOM     27  C   UNL     1      -3.729  -3.437   1.718  1.00  0.00     0.120 A 
ATOM     28  C   UNL     1      -3.538  -6.127   2.096  1.00  0.00     0.021 A 
ATOM     29  N   UNL     1      -4.098  -3.933   2.923  1.00  0.00    -0.264 NA
ATOM     30  C   UNL     1      -3.978  -5.267   3.087  1.00  0.00     0.111 A 
ENDBRANCH  24  25
ENDBRANCH  21  24
ENDBRANCH   7  21
ENDBRANCH   4   7
ENDBRANCH   2   3
ENDBRANCH   1   2
BRANCH   1  31
ATOM     31  C   UNL     1       4.178  -2.869   2.027  1.00  0.00     0.023 C 
BRANCH  31  32
ATOM     32  C   UNL     1       4.566  -1.465   2.456  1.00  0.00     0.116 C 
BRANCH  32  33
ATOM     33  N   UNL     1       3.738  -0.888   3.511  1.00  0.00    -0.352 N 
ATOM     34  C   UNL     1       4.133  -0.143   4.605  1.00  0.00     0.251 C 
ATOM     35  H   UNL     1       2.771  -1.050   3.432  1.00  0.00     0.163 HD
ATOM     36  O   UNL     1       3.311   0.248   5.428  1.00  0.00    -0.269 OA
BRANCH  34  37
ATOM     37  C   UNL     1       5.576   0.116   4.815  1.00  0.00     0.039 A 
ATOM     38  C   UNL     1       6.145  -0.170   6.059  1.00  0.00     0.014 A 
ATOM     39  C   UNL     1       6.383   0.512   3.749  1.00  0.00     0.014 A 
ATOM     40  C   UNL     1       7.536  -0.191   6.191  1.00  0.00     0.010 A 
ATOM     41  C   UNL     1       7.761   0.374   3.851  1.00  0.00     0.010 A 
ATOM     42  C   UNL     1       8.356   0.006   5.068  1.00  0.00    -0.014 A 
BRANCH  42  43
ATOM     43  C   UNL     1       9.830  -0.184   5.122  1.00  0.00     0.031 A 
ATOM     44  C   UNL     1      10.746   0.943   4.726  1.00  0.00     0.074 A 
ATOM     45  C   UNL     1      10.345  -1.398   5.410  1.00  0.00     0.049 A 
ATOM     46  N   UNL     1      12.044   0.936   4.559  1.00  0.00    -0.248 NA
ATOM     47  C   UNL     1      10.111   2.237   4.429  1.00  0.00     0.031 C 
ATOM     48  C   UNL     1       9.572  -2.599   5.737  1.00  0.00     0.029 A 
ATOM     49  N   UNL     1      11.650  -1.826   5.458  1.00  0.00    -0.354 N 
ATOM     50  C   UNL     1      12.370   2.203   4.094  1.00  0.00     0.074 A 
ATOM     51  C   UNL     1      11.132   2.938   3.958  1.00  0.00     0.031 C 
ATOM     52  C   UNL     1      10.416  -3.614   5.985  1.00  0.00     0.029 A 
ATOM     53  C   UNL     1      11.786  -3.152   5.796  1.00  0.00     0.049 A 
ATOM     54  H   UNL     1      12.416  -1.238   5.268  1.00  0.00     0.167 HD
ATOM     55  C   UNL     1      13.592   2.721   3.829  1.00  0.00     0.037 A 
ATOM     56  C   UNL     1      12.891  -3.908   5.937  1.00  0.00     0.037 A 
ATOM     57  C   UNL     1      14.829   2.019   4.040  1.00  0.00     0.049 A 
ATOM     58  C   UNL     1      14.241  -3.291   5.696  1.00  0.00     0.074 A 
ATOM     59  C   UNL     1      16.122   2.493   3.906  1.00  0.00     0.029 A 
ATOM     60  N   UNL     1      14.925   0.697   4.443  1.00  0.00    -0.354 N 
ATOM     61  N   UNL     1      14.537  -2.067   5.333  1.00  0.00    -0.248 NA
ATOM     62  C   UNL     1      15.412  -4.160   5.889  1.00  0.00     0.031 C 
ATOM     63  C   UNL     1      17.003   1.448   4.205  1.00  0.00     0.029 A 
ATOM     64  C   UNL     1      16.256   0.334   4.553  1.00  0.00     0.049 A 
ATOM     65  H   UNL     1      14.160   0.104   4.625  1.00  0.00     0.167 HD
ATOM     66  C   UNL     1      15.924  -2.011   5.284  1.00  0.00     0.074 A 
ATOM     67  C   UNL     1      16.412  -3.320   5.663  1.00  0.00     0.031 C 
ATOM     68  C   UNL     1      16.722  -0.967   4.954  1.00  0.00     0.037 A 
BRANCH  55  69
ATOM     69  C   UNL     1      13.650   4.124   3.302  1.00  0.00     0.057 A 
ATOM     70  C   UNL     1      13.356   5.229   4.111  1.00  0.00     0.134 A 
ATOM     71  C   UNL     1      14.028   4.373   1.977  1.00  0.00     0.134 A 
ATOM     72  F   UNL     1      12.973   5.057   5.385  1.00  0.00    -0.206 F 
ATOM     73  C   UNL     1      13.408   6.532   3.612  1.00  0.00     0.040 A 
ATOM     74  C   UNL     1      14.110   5.673   1.475  1.00  0.00     0.040 A 
ATOM     75  F   UNL     1      14.327   3.359   1.151  1.00  0.00    -0.206 F 
ATOM     76  C   UNL     1      13.792   6.756   2.292  1.00  0.00     0.006 A 
ENDBRANCH  55  69
BRANCH  56  77
ATOM     77  C   UNL     1      12.781  -5.326   6.363  1.00  0.00     0.057 A 
ATOM     78  C   UNL     1      13.183  -5.720   7.645  1.00  0.00     0.134 A 
ATOM     79  C   UNL     1      12.303  -6.321   5.503  1.00  0.00     0.134 A 
ATOM     80  F   UNL     1      13.670  -4.815   8.507  1.00  0.00    -0.206 F 
ATOM     81  C   UNL     1      13.136  -7.055   8.050  1.00  0.00     0.040 A 
ATOM     82  C   UNL     1      12.229  -7.657   5.902  1.00  0.00     0.040 A 
ATOM     83  F   UNL     1      11.898  -6.007   4.264  1.00  0.00    -0.206 F 
ATOM     84  C   UNL     1      12.655  -8.028   7.177  1.00  0.00     0.006 A 
ENDBRANCH  56  77
BRANCH  68  85
ATOM     85  C   UNL     1      18.202  -1.185   5.030  1.00  0.00     0.057 A 
ATOM     86  C   UNL     1      18.889  -1.929   4.064  1.00  0.00     0.134 A 
ATOM     87  C   UNL     1      18.954  -0.604   6.059  1.00  0.00     0.134 A 
ATOM     88  F   UNL     1      18.222  -2.522   3.062  1.00  0.00    -0.206 F 
ATOM     89  C   UNL     1      20.272  -2.102   4.128  1.00  0.00     0.040 A 
ATOM     90  C   UNL     1      20.339  -0.751   6.121  1.00  0.00     0.040 A 
ATOM     91  F   UNL     1      18.354   0.127   7.011  1.00  0.00    -0.206 F 
ATOM     92  C   UNL     1      21.002  -1.505   5.155  1.00  0.00     0.006 A 
ENDBRANCH  68  85
ENDBRANCH  42  43
ENDBRANCH  34  37
ENDBRANCH  32  33
ENDBRANCH  31  32
ENDBRANCH   1  31
TORSDOF 17
