REMARK SMILES CCOC(=O)C1=NN(c2ccc(F)cc2F)[C@@H](C(=O)NCCCCNC(=O)c2ccc(-c3c4nc(c(-c5c(F)cccc5F)c5ccc([nH]5)c(-c5c(F)cccc5F)c5nc(c(-c6c(F)cccc6F)c6ccc3[nH]6)C=C5)C=C4)cc2)C1
REMARK SMILES IDX 22 1 21 2 20 3 18 4 19 5 17 7 6 8 7 9 82 10 8 11 4 12 5 13
REMARK SMILES IDX 3 14 2 15 1 16 9 17 10 18 15 19 11 20 14 21 16 22 12 23
REMARK SMILES IDX 13 24 23 25 24 26 25 27 26 28 27 30 28 31 29 32 81 33 30 34
REMARK SMILES IDX 80 35 31 36 32 37 33 38 74 39 34 40 79 41 73 42 75 43 35 44
REMARK SMILES IDX 78 45 72 46 71 47 36 49 62 50 45 51 61 52 46 53 49 54 60 55
REMARK SMILES IDX 76 56 47 57 48 58 59 60 77 61 50 62 37 63 38 64 43 65 39 66
REMARK SMILES IDX 40 67 42 68 44 69 41 70 63 71 64 72 69 73 65 74 66 75 68 76
REMARK SMILES IDX 70 77 67 78 51 79 52 80 57 81 53 82 54 83 56 84 58 85 55 86
REMARK H PARENT 20 6 25 29 75 48 49 59
REMARK Flexibility Score: inf
ROOT
ATOM      1  C   UNL     1       3.852   9.161   5.051  1.00  0.00     0.023 C 
ENDROOT
BRANCH   1   2
ATOM      2  C   UNL     1       3.198   7.780   5.039  1.00  0.00     0.116 C 
BRANCH   2   3
ATOM      3  N   UNL     1       2.380   7.563   3.862  1.00  0.00    -0.354 N 
ATOM      4  C   UNL     1       2.282   6.482   3.030  1.00  0.00     0.245 C 
ATOM      5  O   UNL     1       1.352   6.495   2.218  1.00  0.00    -0.273 OA
ATOM      6  H   UNL     1       1.798   8.320   3.622  1.00  0.00     0.163 HD
BRANCH   4   7
ATOM      7  C   UNL     1       3.269   5.308   3.133  1.00  0.00     0.203 C 
ATOM      8  C   UNL     1       2.842   3.279   2.128  1.00  0.00     0.148 C 
ATOM      9  N   UNL     1       3.652   3.860   1.302  1.00  0.00    -0.169 NA
ATOM     10  C   UNL     1       2.495   4.013   3.374  1.00  0.00     0.103 C 
ATOM     11  N   UNL     1       3.946   5.074   1.849  1.00  0.00    -0.249 N 
BRANCH   8  12
ATOM     12  C   UNL     1       2.287   1.904   1.913  1.00  0.00     0.354 C 
ATOM     13  O   UNL     1       2.831   0.914   2.364  1.00  0.00    -0.245 OA
BRANCH  12  14
ATOM     14  O   UNL     1       1.111   1.999   1.264  1.00  0.00    -0.461 OA
BRANCH  14  15
ATOM     15  C   UNL     1       0.441   0.755   1.020  1.00  0.00     0.230 C 
ATOM     16  C   UNL     1       0.905   0.163  -0.297  1.00  0.00     0.049 C 
ENDBRANCH  14  15
ENDBRANCH  12  14
ENDBRANCH   8  12
BRANCH  11  17
ATOM     17  C   UNL     1       4.817   5.955   1.210  1.00  0.00     0.096 A 
ATOM     18  C   UNL     1       5.486   6.965   1.927  1.00  0.00     0.034 A 
ATOM     19  C   UNL     1       5.090   5.881  -0.174  1.00  0.00     0.151 A 
ATOM     20  C   UNL     1       6.367   7.852   1.298  1.00  0.00     0.041 A 
ATOM     21  C   UNL     1       5.961   6.765  -0.811  1.00  0.00     0.080 A 
ATOM     22  F   UNL     1       4.484   4.968  -0.950  1.00  0.00    -0.205 F 
ATOM     23  C   UNL     1       6.593   7.745  -0.066  1.00  0.00     0.126 A 
ATOM     24  F   UNL     1       7.433   8.598  -0.665  1.00  0.00    -0.207 F 
ENDBRANCH  11  17
ENDBRANCH   4   7
ENDBRANCH   2   3
ENDBRANCH   1   2
BRANCH   1  25
ATOM     25  C   UNL     1       2.893  10.360   5.041  1.00  0.00     0.023 C 
BRANCH  25  26
ATOM     26  C   UNL     1       1.768  10.337   6.075  1.00  0.00     0.116 C 
BRANCH  26  27
ATOM     27  N   UNL     1       2.246  10.188   7.437  1.00  0.00    -0.352 N 
ATOM     28  C   UNL     1       1.724  10.685   8.605  1.00  0.00     0.251 C 
ATOM     29  H   UNL     1       3.065   9.652   7.537  1.00  0.00     0.163 HD
ATOM     30  O   UNL     1       2.329  10.506   9.659  1.00  0.00    -0.269 OA
BRANCH  28  31
ATOM     31  C   UNL     1       0.466  11.465   8.609  1.00  0.00     0.039 A 
ATOM     32  C   UNL     1       0.432  12.651   9.353  1.00  0.00     0.014 A 
ATOM     33  C   UNL     1      -0.682  11.026   7.943  1.00  0.00     0.014 A 
ATOM     34  C   UNL     1      -0.730  13.424   9.386  1.00  0.00     0.010 A 
ATOM     35  C   UNL     1      -1.839  11.809   7.960  1.00  0.00     0.010 A 
ATOM     36  C   UNL     1      -1.868  13.016   8.676  1.00  0.00    -0.014 A 
BRANCH  36  37
ATOM     37  C   UNL     1      -3.089  13.853   8.663  1.00  0.00     0.031 A 
ATOM     38  C   UNL     1      -4.266  13.498   9.520  1.00  0.00     0.074 A 
ATOM     39  C   UNL     1      -3.148  14.923   7.850  1.00  0.00     0.049 A 
ATOM     40  N   UNL     1      -5.450  14.054   9.562  1.00  0.00    -0.248 NA
ATOM     41  C   UNL     1      -4.094  12.367  10.443  1.00  0.00     0.031 C 
ATOM     42  C   UNL     1      -2.074  15.375   6.964  1.00  0.00     0.029 A 
ATOM     43  N   UNL     1      -4.162  15.821   7.635  1.00  0.00    -0.354 N 
ATOM     44  C   UNL     1      -6.176  13.323  10.491  1.00  0.00     0.074 A 
ATOM     45  C   UNL     1      -5.295  12.293  11.003  1.00  0.00     0.031 C 
ATOM     46  C   UNL     1      -2.486  16.470   6.303  1.00  0.00     0.029 A 
ATOM     47  C   UNL     1      -3.854  16.783   6.707  1.00  0.00     0.049 A 
ATOM     48  H   UNL     1      -5.028  15.779   8.101  1.00  0.00     0.167 HD
ATOM     49  C   UNL     1      -7.463  13.490  10.878  1.00  0.00     0.037 A 
ATOM     50  C   UNL     1      -4.595  17.798   6.228  1.00  0.00     0.037 A 
ATOM     51  C   UNL     1      -8.338  14.527  10.403  1.00  0.00     0.049 A 
ATOM     52  C   UNL     1      -6.003  17.988   6.705  1.00  0.00     0.074 A 
ATOM     53  C   UNL     1      -9.657  14.772  10.748  1.00  0.00     0.029 A 
ATOM     54  N   UNL     1      -7.977  15.502   9.489  1.00  0.00    -0.354 N 
ATOM     55  N   UNL     1      -6.684  17.271   7.563  1.00  0.00    -0.248 NA
ATOM     56  C   UNL     1      -6.745  19.124   6.138  1.00  0.00     0.031 C 
ATOM     57  C   UNL     1     -10.093  15.901  10.042  1.00  0.00     0.029 A 
ATOM     58  C   UNL     1      -9.044  16.355   9.260  1.00  0.00     0.049 A 
ATOM     59  H   UNL     1      -7.092  15.579   9.064  1.00  0.00     0.167 HD
ATOM     60  C   UNL     1      -7.938  17.860   7.634  1.00  0.00     0.074 A 
ATOM     61  C   UNL     1      -7.921  19.001   6.740  1.00  0.00     0.031 C 
ATOM     62  C   UNL     1      -9.010  17.483   8.370  1.00  0.00     0.037 A 
BRANCH  49  63
ATOM     63  C   UNL     1      -8.005  12.506  11.862  1.00  0.00     0.057 A 
ATOM     64  C   UNL     1      -8.653  11.345  11.428  1.00  0.00     0.134 A 
ATOM     65  C   UNL     1      -7.899  12.722  13.240  1.00  0.00     0.134 A 
ATOM     66  F   UNL     1      -8.775  11.083  10.118  1.00  0.00    -0.206 F 
ATOM     67  C   UNL     1      -9.182  10.427  12.335  1.00  0.00     0.040 A 
ATOM     68  C   UNL     1      -8.422  11.810  14.157  1.00  0.00     0.040 A 
ATOM     69  F   UNL     1      -7.277  13.812  13.712  1.00  0.00    -0.206 F 
ATOM     70  C   UNL     1      -9.067  10.659  13.705  1.00  0.00     0.006 A 
ENDBRANCH  49  63
BRANCH  50  71
ATOM     71  C   UNL     1      -4.016  18.710   5.220  1.00  0.00     0.057 A 
ATOM     72  C   UNL     1      -4.081  18.413   3.856  1.00  0.00     0.134 A 
ATOM     73  C   UNL     1      -3.381  19.894   5.605  1.00  0.00     0.134 A 
ATOM     74  F   UNL     1      -4.685  17.292   3.437  1.00  0.00    -0.206 F 
ATOM     75  C   UNL     1      -3.528  19.266   2.902  1.00  0.00     0.040 A 
ATOM     76  C   UNL     1      -2.826  20.758   4.661  1.00  0.00     0.040 A 
ATOM     77  F   UNL     1      -3.303  20.229   6.901  1.00  0.00    -0.206 F 
ATOM     78  C   UNL     1      -2.898  20.443   3.304  1.00  0.00     0.006 A 
ENDBRANCH  50  71
BRANCH  62  79
ATOM     79  C   UNL     1     -10.247  18.308   8.230  1.00  0.00     0.057 A 
ATOM     80  C   UNL     1     -10.490  19.394   9.078  1.00  0.00     0.134 A 
ATOM     81  C   UNL     1     -11.207  18.008   7.257  1.00  0.00     0.134 A 
ATOM     82  F   UNL     1      -9.600  19.733  10.022  1.00  0.00    -0.206 F 
ATOM     83  C   UNL     1     -11.651  20.159   8.960  1.00  0.00     0.040 A 
ATOM     84  C   UNL     1     -12.371  18.766   7.130  1.00  0.00     0.040 A 
ATOM     85  F   UNL     1     -11.020  16.984   6.411  1.00  0.00    -0.206 F 
ATOM     86  C   UNL     1     -12.596  19.844   7.984  1.00  0.00     0.006 A 
ENDBRANCH  62  79
ENDBRANCH  36  37
ENDBRANCH  28  31
ENDBRANCH  26  27
ENDBRANCH  25  26
ENDBRANCH   1  25
TORSDOF 15
