REMARK SMILES CC(C)(C)c1cc2c(cc1Cl)C=C(C(=O)NCCCCNC(=O)c1ccc(-c3c4nc(c(-c5c(F)cccc5F)c5ccc([nH]5)c(-c5c(F)cccc5F)c5nc(c(-c6c(F)cccc6F)c6ccc3[nH]6)C=C5)C=C4)cc1)[C@@H](C(F)(F)F)O2
REMARK SMILES IDX 19 1 18 2 17 3 16 4 14 5 15 6 13 8 5 9 6 10 10 11 7 12 9 13
REMARK SMILES IDX 11 14 8 15 83 16 12 17 78 18 2 19 1 20 3 21 4 22 79 23 80 24
REMARK SMILES IDX 81 25 82 26 20 27 21 28 22 29 23 31 24 32 25 33 77 34 26 35
REMARK SMILES IDX 76 36 27 37 28 38 29 39 70 40 30 41 75 42 69 43 71 44 31 45
REMARK SMILES IDX 74 46 68 47 67 48 32 50 58 51 41 52 57 53 42 54 45 55 56 56
REMARK SMILES IDX 72 57 43 58 44 59 55 61 73 62 46 63 33 64 34 65 39 66 35 67
REMARK SMILES IDX 36 68 38 69 40 70 37 71 59 72 60 73 65 74 61 75 62 76 64 77
REMARK SMILES IDX 66 78 63 79 47 80 48 81 53 82 49 83 50 84 52 85 54 86 51 87
REMARK H PARENT 16 7 21 30 71 49 45 60
REMARK Flexibility Score: inf
ROOT
ATOM      1  C   UNL     1      -1.468  11.684   0.335  1.00  0.00     0.023 C 
ENDROOT
BRANCH   1   2
ATOM      2  C   UNL     1      -1.261  10.266  -0.206  1.00  0.00     0.023 C 
BRANCH   2   3
ATOM      3  C   UNL     1       0.087  10.038  -0.885  1.00  0.00     0.116 C 
BRANCH   3   4
ATOM      4  N   UNL     1       1.129   9.678   0.061  1.00  0.00    -0.352 N 
ATOM      5  C   UNL     1       1.725   8.539   0.488  1.00  0.00     0.251 C 
ATOM      6  O   UNL     1       2.606   8.695   1.339  1.00  0.00    -0.270 OA
ATOM      7  H   UNL     1       1.499  10.471   0.512  1.00  0.00     0.163 HD
BRANCH   5   8
ATOM      8  C   UNL     1       1.393   7.161   0.016  1.00  0.00     0.067 C 
ATOM      9  C   UNL     1       1.042   2.095  -0.474  1.00  0.00    -0.020 A 
ATOM     10  C   UNL     1       0.351   3.226  -0.976  1.00  0.00     0.053 A 
ATOM     11  C   UNL     1       2.134   2.377   0.377  1.00  0.00     0.045 A 
ATOM     12  C   UNL     1       0.681   4.534  -0.615  1.00  0.00     0.128 A 
ATOM     13  C   UNL     1       2.449   3.701   0.752  1.00  0.00     0.032 A 
ATOM     14  Cl  UNL     1       3.223   1.197   1.016  1.00  0.00    -0.084 Cl
ATOM     15  C   UNL     1       1.718   4.782   0.267  1.00  0.00     0.019 A 
ATOM     16  O   UNL     1      -0.094   5.525  -1.142  1.00  0.00    -0.475 OA
ATOM     17  C   UNL     1       1.992   6.153   0.680  1.00  0.00     0.025 C 
ATOM     18  C   UNL     1       0.490   6.857  -1.147  1.00  0.00     0.314 C 
BRANCH   9  19
ATOM     19  C   UNL     1       0.554   0.702  -0.951  1.00  0.00    -0.012 C 
ATOM     20  C   UNL     1       0.968  -0.512  -0.092  1.00  0.00     0.016 C 
ATOM     21  C   UNL     1       1.084   0.472  -2.382  1.00  0.00     0.016 C 
ATOM     22  C   UNL     1      -1.002   0.642  -0.988  1.00  0.00     0.016 C 
ENDBRANCH   9  19
BRANCH  18  23
ATOM     23  C   UNL     1       1.173   7.106  -2.505  1.00  0.00     0.429 C 
ATOM     24  F   UNL     1       0.253   7.127  -3.501  1.00  0.00    -0.167 F 
ATOM     25  F   UNL     1       1.814   8.299  -2.551  1.00  0.00    -0.167 F 
ATOM     26  F   UNL     1       2.084   6.157  -2.814  1.00  0.00    -0.167 F 
ENDBRANCH  18  23
ENDBRANCH   5   8
ENDBRANCH   3   4
ENDBRANCH   2   3
ENDBRANCH   1   2
BRANCH   1  27
ATOM     27  C   UNL     1      -1.298  12.808  -0.684  1.00  0.00     0.116 C 
BRANCH  27  28
ATOM     28  N   UNL     1      -2.103  12.663  -1.890  1.00  0.00    -0.352 N 
ATOM     29  C   UNL     1      -2.447  13.649  -2.792  1.00  0.00     0.251 C 
ATOM     30  H   UNL     1      -2.441  11.759  -2.083  1.00  0.00     0.163 HD
ATOM     31  O   UNL     1      -3.196  13.414  -3.733  1.00  0.00    -0.269 OA
BRANCH  29  32
ATOM     32  C   UNL     1      -1.948  15.018  -2.553  1.00  0.00     0.039 A 
ATOM     33  C   UNL     1      -0.584  15.239  -2.360  1.00  0.00     0.014 A 
ATOM     34  C   UNL     1      -2.869  16.055  -2.384  1.00  0.00     0.014 A 
ATOM     35  C   UNL     1      -0.164  16.437  -1.798  1.00  0.00     0.010 A 
ATOM     36  C   UNL     1      -2.432  17.288  -1.893  1.00  0.00     0.010 A 
ATOM     37  C   UNL     1      -1.089  17.459  -1.521  1.00  0.00    -0.014 A 
BRANCH  37  38
ATOM     38  C   UNL     1      -0.632  18.654  -0.766  1.00  0.00     0.031 A 
ATOM     39  C   UNL     1      -1.119  18.902   0.639  1.00  0.00     0.074 A 
ATOM     40  C   UNL     1       0.300  19.461  -1.305  1.00  0.00     0.049 A 
ATOM     41  N   UNL     1      -0.766  19.840   1.483  1.00  0.00    -0.248 NA
ATOM     42  C   UNL     1      -2.138  17.980   1.167  1.00  0.00     0.031 C 
ATOM     43  C   UNL     1       0.859  19.321  -2.650  1.00  0.00     0.029 A 
ATOM     44  N   UNL     1       0.971  20.530  -0.771  1.00  0.00    -0.354 N 
ATOM     45  C   UNL     1      -1.533  19.637   2.624  1.00  0.00     0.074 A 
ATOM     46  C   UNL     1      -2.388  18.501   2.359  1.00  0.00     0.031 C 
ATOM     47  C   UNL     1       1.834  20.229  -2.814  1.00  0.00     0.029 A 
ATOM     48  C   UNL     1       1.938  21.038  -1.604  1.00  0.00     0.049 A 
ATOM     49  H   UNL     1       0.779  20.898   0.121  1.00  0.00     0.167 HD
ATOM     50  C   UNL     1      -1.521  20.325   3.791  1.00  0.00     0.037 A 
ATOM     51  C   UNL     1       2.816  22.038  -1.410  1.00  0.00     0.037 A 
ATOM     52  C   UNL     1      -0.650  21.436   4.073  1.00  0.00     0.049 A 
ATOM     53  C   UNL     1       2.817  22.777  -0.104  1.00  0.00     0.074 A 
ATOM     54  C   UNL     1      -0.558  22.192   5.229  1.00  0.00     0.029 A 
ATOM     55  N   UNL     1       0.291  21.942   3.190  1.00  0.00    -0.354 N 
ATOM     56  N   UNL     1       2.082  22.574   0.961  1.00  0.00    -0.248 NA
ATOM     57  C   UNL     1       3.771  23.887   0.022  1.00  0.00     0.031 C 
ATOM     58  C   UNL     1       0.425  23.171   5.037  1.00  0.00     0.029 A 
ATOM     59  C   UNL     1       0.964  23.003   3.772  1.00  0.00     0.049 A 
ATOM     60  H   UNL     1       0.456  21.598   2.282  1.00  0.00     0.167 HD
ATOM     61  C   UNL     1       2.488  23.524   1.887  1.00  0.00     0.074 A 
ATOM     62  C   UNL     1       3.552  24.287   1.267  1.00  0.00     0.031 C 
ATOM     63  C   UNL     1       2.018  23.751   3.138  1.00  0.00     0.037 A 
BRANCH  50  64
ATOM     64  C   UNL     1      -2.496  19.900   4.849  1.00  0.00     0.057 A 
ATOM     65  C   UNL     1      -3.629  20.674   5.127  1.00  0.00     0.134 A 
ATOM     66  C   UNL     1      -2.305  18.736   5.605  1.00  0.00     0.134 A 
ATOM     67  F   UNL     1      -3.868  21.802   4.441  1.00  0.00    -0.206 F 
ATOM     68  C   UNL     1      -4.540  20.305   6.118  1.00  0.00     0.040 A 
ATOM     69  C   UNL     1      -3.220  18.346   6.586  1.00  0.00     0.040 A 
ATOM     70  F   UNL     1      -1.249  17.942   5.375  1.00  0.00    -0.206 F 
ATOM     71  C   UNL     1      -4.339  19.135   6.848  1.00  0.00     0.006 A 
ENDBRANCH  50  64
BRANCH  51  72
ATOM     72  C   UNL     1       3.783  22.385  -2.478  1.00  0.00     0.057 A 
ATOM     73  C   UNL     1       3.372  23.022  -3.653  1.00  0.00     0.134 A 
ATOM     74  C   UNL     1       5.143  22.084  -2.344  1.00  0.00     0.134 A 
ATOM     75  F   UNL     1       2.080  23.331  -3.840  1.00  0.00    -0.206 F 
ATOM     76  C   UNL     1       4.278  23.340  -4.665  1.00  0.00     0.040 A 
ATOM     77  C   UNL     1       6.064  22.415  -3.338  1.00  0.00     0.040 A 
ATOM     78  F   UNL     1       5.596  21.489  -1.230  1.00  0.00    -0.206 F 
ATOM     79  C   UNL     1       5.630  23.040  -4.506  1.00  0.00     0.006 A 
ENDBRANCH  51  72
BRANCH  63  80
ATOM     80  C   UNL     1       2.669  24.857   3.910  1.00  0.00     0.057 A 
ATOM     81  C   UNL     1       3.567  24.574   4.946  1.00  0.00     0.134 A 
ATOM     82  C   UNL     1       2.408  26.203   3.624  1.00  0.00     0.134 A 
ATOM     83  F   UNL     1       3.855  23.305   5.270  1.00  0.00    -0.206 F 
ATOM     84  C   UNL     1       4.192  25.594   5.665  1.00  0.00     0.040 A 
ATOM     85  C   UNL     1       3.041  27.231   4.324  1.00  0.00     0.040 A 
ATOM     86  F   UNL     1       1.568  26.537   2.633  1.00  0.00    -0.206 F 
ATOM     87  C   UNL     1       3.934  26.927   5.349  1.00  0.00     0.006 A 
ENDBRANCH  63  80
ENDBRANCH  37  38
ENDBRANCH  29  32
ENDBRANCH  27  28
ENDBRANCH   1  27
TORSDOF 13
