REMARK SMILES O=C(NCCCCNC(=O)c1cc(OC[C@@H]2Cc3cc(F)ccc3O2)cs1)c1ccc(-c2c3nc(c(-c4c(F)cccc4F)c4ccc([nH]4)c(-c4c(F)cccc4F)c4nc(c(-c5c(F)cccc5F)c5ccc2[nH]5)C=C4)C=C3)cc1
REMARK SMILES IDX 6 1 5 2 4 3 3 4 1 5 2 6 28 8 29 9 81 10 30 11 80 12 31 13
REMARK SMILES IDX 32 14 33 15 74 16 34 17 79 18 73 19 75 20 35 21 78 22 72 23
REMARK SMILES IDX 71 24 36 26 62 27 45 28 61 29 46 30 49 31 60 32 76 33 47 34
REMARK SMILES IDX 48 35 59 37 77 38 50 39 37 40 38 41 43 42 39 43 40 44 42 45
REMARK SMILES IDX 44 46 41 47 63 48 64 49 69 50 65 51 66 52 68 53 70 54 67 55
REMARK SMILES IDX 51 56 52 57 57 58 53 59 54 60 56 61 58 62 55 63 7 64 8 65
REMARK SMILES IDX 9 66 10 68 11 69 12 70 27 71 13 72 26 73 14 74 15 75 16 76
REMARK SMILES IDX 17 77 25 78 18 79 24 80 19 81 23 82 20 83 22 84 21 85
REMARK H PARENT 3 7 75 25 49 36 8 67
REMARK Flexibility Score: inf
ROOT
ATOM      1  C   UNL     1       4.703  -3.889  -0.923  1.00  0.00     0.023 C 
ENDROOT
BRANCH   1   2
ATOM      2  C   UNL     1       5.164  -2.789   0.033  1.00  0.00     0.023 C 
BRANCH   2   3
ATOM      3  C   UNL     1       4.880  -1.352  -0.397  1.00  0.00     0.116 C 
BRANCH   3   4
ATOM      4  N   UNL     1       3.467  -1.066  -0.570  1.00  0.00    -0.352 N 
ATOM      5  O   UNL     1       1.437  -0.199  -0.150  1.00  0.00    -0.269 OA
ATOM      6  C   UNL     1       2.645  -0.174   0.077  1.00  0.00     0.251 C 
ATOM      7  H   UNL     1       3.023  -1.600  -1.268  1.00  0.00     0.163 HD
BRANCH   6   8
ATOM      8  C   UNL     1       3.178   0.804   1.057  1.00  0.00     0.039 A 
ATOM      9  C   UNL     1       2.421   1.080   2.203  1.00  0.00     0.014 A 
ATOM     10  C   UNL     1       4.364   1.507   0.835  1.00  0.00     0.014 A 
ATOM     11  C   UNL     1       2.872   2.020   3.136  1.00  0.00     0.010 A 
ATOM     12  C   UNL     1       4.852   2.388   1.803  1.00  0.00     0.010 A 
ATOM     13  C   UNL     1       4.101   2.673   2.953  1.00  0.00    -0.014 A 
BRANCH  13  14
ATOM     14  C   UNL     1       4.567   3.707   3.916  1.00  0.00     0.031 A 
ATOM     15  C   UNL     1       4.685   5.144   3.481  1.00  0.00     0.074 A 
ATOM     16  C   UNL     1       4.900   3.365   5.176  1.00  0.00     0.049 A 
ATOM     17  N   UNL     1       5.095   6.187   4.160  1.00  0.00    -0.248 NA
ATOM     18  C   UNL     1       4.314   5.445   2.089  1.00  0.00     0.031 C 
ATOM     19  C   UNL     1       4.875   2.009   5.725  1.00  0.00     0.029 A 
ATOM     20  N   UNL     1       5.328   4.141   6.226  1.00  0.00    -0.354 N 
ATOM     21  C   UNL     1       5.039   7.259   3.278  1.00  0.00     0.074 A 
ATOM     22  C   UNL     1       4.615   6.731   1.999  1.00  0.00     0.031 C 
ATOM     23  C   UNL     1       5.245   2.051   7.016  1.00  0.00     0.029 A 
ATOM     24  C   UNL     1       5.553   3.431   7.380  1.00  0.00     0.049 A 
ATOM     25  H   UNL     1       5.461   5.114   6.158  1.00  0.00     0.167 HD
ATOM     26  C   UNL     1       5.284   8.571   3.512  1.00  0.00     0.037 A 
ATOM     27  C   UNL     1       5.954   3.848   8.596  1.00  0.00     0.037 A 
ATOM     28  C   UNL     1       5.682   9.114   4.783  1.00  0.00     0.049 A 
ATOM     29  C   UNL     1       6.204   5.311   8.836  1.00  0.00     0.074 A 
ATOM     30  C   UNL     1       5.942  10.431   5.120  1.00  0.00     0.029 A 
ATOM     31  N   UNL     1       5.867   8.364   5.934  1.00  0.00    -0.354 N 
ATOM     32  N   UNL     1       6.112   6.316   8.000  1.00  0.00    -0.248 NA
ATOM     33  C   UNL     1       6.601   5.698  10.198  1.00  0.00     0.031 C 
ATOM     34  C   UNL     1       6.299  10.477   6.473  1.00  0.00     0.029 A 
ATOM     35  C   UNL     1       6.233   9.191   6.983  1.00  0.00     0.049 A 
ATOM     36  H   UNL     1       5.754   7.388   5.996  1.00  0.00     0.167 HD
ATOM     37  C   UNL     1       6.416   7.453   8.738  1.00  0.00     0.074 A 
ATOM     38  C   UNL     1       6.675   7.017  10.094  1.00  0.00     0.031 C 
ATOM     39  C   UNL     1       6.479   8.743   8.329  1.00  0.00     0.037 A 
BRANCH  26  40
ATOM     40  C   UNL     1       5.104   9.510   2.355  1.00  0.00     0.057 A 
ATOM     41  C   UNL     1       6.207  10.094   1.721  1.00  0.00     0.134 A 
ATOM     42  C   UNL     1       3.830   9.831   1.867  1.00  0.00     0.134 A 
ATOM     43  F   UNL     1       7.454   9.831   2.141  1.00  0.00    -0.206 F 
ATOM     44  C   UNL     1       6.049  10.958   0.636  1.00  0.00     0.040 A 
ATOM     45  C   UNL     1       3.661  10.674   0.768  1.00  0.00     0.040 A 
ATOM     46  F   UNL     1       2.735   9.291   2.421  1.00  0.00    -0.206 F 
ATOM     47  C   UNL     1       4.774  11.243   0.151  1.00  0.00     0.006 A 
ENDBRANCH  26  40
BRANCH  27  48
ATOM     48  C   UNL     1       6.115   2.874   9.704  1.00  0.00     0.057 A 
ATOM     49  C   UNL     1       7.197   1.990   9.747  1.00  0.00     0.134 A 
ATOM     50  C   UNL     1       5.207   2.840  10.770  1.00  0.00     0.134 A 
ATOM     51  F   UNL     1       8.099   1.974   8.755  1.00  0.00    -0.206 F 
ATOM     52  C   UNL     1       7.375   1.107  10.814  1.00  0.00     0.040 A 
ATOM     53  C   UNL     1       5.384   1.978  11.852  1.00  0.00     0.040 A 
ATOM     54  F   UNL     1       4.163   3.681  10.793  1.00  0.00    -0.206 F 
ATOM     55  C   UNL     1       6.471   1.106  11.875  1.00  0.00     0.006 A 
ENDBRANCH  27  48
BRANCH  39  56
ATOM     56  C   UNL     1       6.809   9.770   9.370  1.00  0.00     0.057 A 
ATOM     57  C   UNL     1       5.820  10.631   9.862  1.00  0.00     0.134 A 
ATOM     58  C   UNL     1       8.104   9.908   9.886  1.00  0.00     0.134 A 
ATOM     59  F   UNL     1       4.561  10.554   9.406  1.00  0.00    -0.206 F 
ATOM     60  C   UNL     1       6.107  11.589  10.836  1.00  0.00     0.040 A 
ATOM     61  C   UNL     1       8.398  10.847  10.875  1.00  0.00     0.040 A 
ATOM     62  F   UNL     1       9.092   9.102   9.466  1.00  0.00    -0.206 F 
ATOM     63  C   UNL     1       7.397  11.693  11.351  1.00  0.00     0.006 A 
ENDBRANCH  39  56
ENDBRANCH  13  14
ENDBRANCH   6   8
ENDBRANCH   3   4
ENDBRANCH   2   3
ENDBRANCH   1   2
BRANCH   1  64
ATOM     64  C   UNL     1       5.148  -3.739  -2.373  1.00  0.00     0.116 C 
BRANCH  64  65
ATOM     65  N   UNL     1       6.588  -3.769  -2.566  1.00  0.00    -0.351 N 
ATOM     66  C   UNL     1       7.268  -4.168  -3.707  1.00  0.00     0.261 C 
ATOM     67  H   UNL     1       7.139  -3.476  -1.805  1.00  0.00     0.163 HD
ATOM     68  O   UNL     1       8.473  -4.011  -3.765  1.00  0.00    -0.268 OA
BRANCH  66  69
ATOM     69  C   UNL     1       6.462  -4.716  -4.778  1.00  0.00     0.096 A 
ATOM     70  C   UNL     1       5.799  -4.035  -5.777  1.00  0.00     0.072 A 
ATOM     71  S   UNL     1       6.182  -6.398  -4.859  1.00  0.00    -0.135 S 
ATOM     72  C   UNL     1       4.804  -4.852  -6.386  1.00  0.00     0.131 A 
ATOM     73  C   UNL     1       4.959  -6.177  -6.040  1.00  0.00     0.112 A 
BRANCH  72  74
ATOM     74  O   UNL     1       3.784  -4.502  -7.210  1.00  0.00    -0.489 OA
BRANCH  74  75
ATOM     75  C   UNL     1       3.435  -3.106  -7.252  1.00  0.00     0.275 C 
BRANCH  75  76
ATOM     76  C   UNL     1       2.723  -2.608  -5.972  1.00  0.00     0.215 C 
ATOM     77  C   UNL     1       1.882  -1.331  -6.190  1.00  0.00     0.088 C 
ATOM     78  O   UNL     1       3.718  -2.310  -4.954  1.00  0.00    -0.486 OA
ATOM     79  C   UNL     1       2.753  -0.315  -5.554  1.00  0.00     0.001 A 
ATOM     80  C   UNL     1       3.792  -0.947  -4.900  1.00  0.00     0.123 A 
ATOM     81  C   UNL     1       2.628   1.062  -5.496  1.00  0.00     0.047 A 
ATOM     82  C   UNL     1       4.782  -0.251  -4.230  1.00  0.00     0.050 A 
ATOM     83  C   UNL     1       3.601   1.778  -4.797  1.00  0.00     0.123 A 
ATOM     84  C   UNL     1       4.681   1.138  -4.179  1.00  0.00     0.043 A 
ATOM     85  F   UNL     1       3.502   3.111  -4.712  1.00  0.00    -0.207 F 
ENDBRANCH  75  76
ENDBRANCH  74  75
ENDBRANCH  72  74
ENDBRANCH  66  69
ENDBRANCH  64  65
ENDBRANCH   1  64
TORSDOF 14
