REMARK SMILES Cc1cccc(C(=O)Nc2ccc(C(=O)NNC(=O)c3ccccc3C(=O)NCCCCNC(=O)c3ccc(-c4c5nc(c(-c6c(F)cccc6F)c6ccc([nH]6)c(-c6c(F)cccc6F)c6nc(c(-c7c(F)cccc7F)c7ccc4[nH]7)C=C6)C=C5)cc3)cc2)c1
REMARK SMILES IDX 29 1 28 2 26 3 27 4 25 6 20 7 21 8 22 9 24 10 23 11 18 12
REMARK SMILES IDX 17 13 19 15 16 16 14 17 15 18 13 20 10 21 11 22 91 23 12 24
REMARK SMILES IDX 90 25 9 26 7 27 8 28 6 30 1 31 2 32 3 33 92 34 4 35 5 36
REMARK SMILES IDX 30 37 31 38 32 39 33 40 34 41 35 43 36 44 37 45 89 46 38 47
REMARK SMILES IDX 88 48 39 49 40 50 41 51 82 52 42 53 87 54 81 55 83 56 43 57
REMARK SMILES IDX 86 58 80 59 79 60 44 62 70 63 53 64 69 65 54 66 57 67 68 68
REMARK SMILES IDX 84 69 55 70 56 71 67 73 85 74 58 75 45 76 46 77 51 78 47 79
REMARK SMILES IDX 48 80 50 81 52 82 49 83 71 84 72 85 77 86 73 87 74 88 76 89
REMARK SMILES IDX 78 90 75 91 59 92 60 93 65 94 61 95 62 96 64 97 66 98 63 99
REMARK H PARENT 28 5 17 14 16 19 9 29 33 42 83 61 57 72
REMARK Flexibility Score: inf
ROOT
ATOM      1  C   UNL     1       4.174   0.857  -2.535  1.00  0.00     0.116 C 
ENDROOT
BRANCH   1   2
ATOM      2  N   UNL     1       4.169   0.720  -1.082  1.00  0.00    -0.352 N 
ATOM      3  C   UNL     1       5.231   0.539  -0.213  1.00  0.00     0.252 C 
ATOM      4  O   UNL     1       5.054   0.577   1.000  1.00  0.00    -0.269 OA
ATOM      5  H   UNL     1       3.282   0.762  -0.658  1.00  0.00     0.163 HD
BRANCH   3   6
ATOM      6  C   UNL     1       6.578   0.201  -0.723  1.00  0.00     0.052 A 
ATOM      7  C   UNL     1       7.263   0.991  -1.653  1.00  0.00     0.054 A 
ATOM      8  C   UNL     1       8.321   0.427  -2.374  1.00  0.00     0.015 A 
ATOM      9  C   UNL     1       8.789  -0.851  -2.041  1.00  0.00     0.001 A 
ATOM     10  C   UNL     1       7.115  -1.028  -0.314  1.00  0.00     0.014 A 
ATOM     11  C   UNL     1       8.229  -1.548  -0.970  1.00  0.00     0.001 A 
BRANCH   7  12
ATOM     12  C   UNL     1       6.824   2.380  -1.925  1.00  0.00     0.270 C 
ATOM     13  N   UNL     1       6.627   3.167  -0.803  1.00  0.00    -0.263 N 
ATOM     14  H   UNL     1       7.193   3.062  -0.005  1.00  0.00     0.191 HD
ATOM     15  O   UNL     1       6.564   2.732  -3.071  1.00  0.00    -0.267 OA
BRANCH  13  16
ATOM     16  N   UNL     1       5.589   4.125  -0.837  1.00  0.00    -0.263 N 
ATOM     17  C   UNL     1       5.036   4.473   0.389  1.00  0.00     0.269 C 
ATOM     18  O   UNL     1       5.699   4.578   1.417  1.00  0.00    -0.267 OA
ATOM     19  H   UNL     1       5.276   4.524  -1.681  1.00  0.00     0.191 HD
BRANCH  17  20
ATOM     20  C   UNL     1       3.549   4.536   0.468  1.00  0.00     0.041 A 
ATOM     21  C   UNL     1       0.797   4.138   0.989  1.00  0.00     0.041 A 
ATOM     22  C   UNL     1       1.434   3.451  -0.030  1.00  0.00     0.027 A 
ATOM     23  C   UNL     1       1.522   5.118   1.678  1.00  0.00     0.027 A 
ATOM     24  C   UNL     1       2.792   3.651  -0.293  1.00  0.00     0.016 A 
ATOM     25  C   UNL     1       2.900   5.294   1.444  1.00  0.00     0.016 A 
BRANCH  21  26
ATOM     26  N   UNL     1      -0.545   3.907   1.335  1.00  0.00    -0.322 N 
ATOM     27  C   UNL     1      -1.413   2.854   1.096  1.00  0.00     0.255 C 
ATOM     28  O   UNL     1      -2.621   3.063   1.223  1.00  0.00    -0.269 OA
ATOM     29  H   UNL     1      -0.951   4.641   1.851  1.00  0.00     0.170 HD
BRANCH  27  30
ATOM     30  C   UNL     1      -0.973   1.461   0.772  1.00  0.00     0.040 A 
ATOM     31  C   UNL     1       2.004  -0.893   1.164  1.00  0.00     0.044 C 
ATOM     32  C   UNL     1       0.642  -0.369   0.817  1.00  0.00    -0.050 A 
ATOM     33  C   UNL     1      -0.253  -1.175   0.106  1.00  0.00     0.003 A 
ATOM     34  C   UNL     1       0.250   0.925   1.197  1.00  0.00     0.017 A 
ATOM     35  C   UNL     1      -1.511  -0.687  -0.242  1.00  0.00     0.001 A 
ATOM     36  C   UNL     1      -1.864   0.628   0.078  1.00  0.00     0.014 A 
ENDBRANCH  27  30
ENDBRANCH  21  26
ENDBRANCH  17  20
ENDBRANCH  13  16
ENDBRANCH   7  12
ENDBRANCH   3   6
ENDBRANCH   1   2
BRANCH   1  37
ATOM     37  C   UNL     1       2.930   0.350  -3.267  1.00  0.00     0.023 C 
BRANCH  37  38
ATOM     38  C   UNL     1       1.631   1.164  -3.164  1.00  0.00     0.023 C 
BRANCH  38  39
ATOM     39  C   UNL     1       1.709   2.641  -3.579  1.00  0.00     0.116 C 
BRANCH  39  40
ATOM     40  N   UNL     1       0.640   3.077  -4.474  1.00  0.00    -0.352 N 
ATOM     41  C   UNL     1       0.228   4.347  -4.840  1.00  0.00     0.251 C 
ATOM     42  H   UNL     1       0.125   2.345  -4.885  1.00  0.00     0.163 HD
ATOM     43  O   UNL     1      -0.642   4.467  -5.705  1.00  0.00    -0.269 OA
BRANCH  41  44
ATOM     44  C   UNL     1       0.911   5.564  -4.328  1.00  0.00     0.039 A 
ATOM     45  C   UNL     1       1.196   6.594  -5.232  1.00  0.00     0.014 A 
ATOM     46  C   UNL     1       1.401   5.649  -3.031  1.00  0.00     0.014 A 
ATOM     47  C   UNL     1       2.203   7.513  -4.938  1.00  0.00     0.010 A 
ATOM     48  C   UNL     1       2.453   6.505  -2.757  1.00  0.00     0.010 A 
ATOM     49  C   UNL     1       2.916   7.369  -3.750  1.00  0.00    -0.014 A 
BRANCH  49  50
ATOM     50  C   UNL     1       4.228   7.969  -3.535  1.00  0.00     0.031 A 
ATOM     51  C   UNL     1       4.380   9.229  -2.785  1.00  0.00     0.074 A 
ATOM     52  C   UNL     1       5.321   7.332  -4.016  1.00  0.00     0.049 A 
ATOM     53  N   UNL     1       5.355  10.056  -2.956  1.00  0.00    -0.248 NA
ATOM     54  C   UNL     1       3.410   9.678  -1.796  1.00  0.00     0.031 C 
ATOM     55  C   UNL     1       6.721   7.638  -3.738  1.00  0.00     0.029 A 
ATOM     56  N   UNL     1       5.370   6.401  -5.065  1.00  0.00    -0.354 N 
ATOM     57  C   UNL     1       5.299  10.991  -1.947  1.00  0.00     0.074 A 
ATOM     58  C   UNL     1       4.032  10.751  -1.293  1.00  0.00     0.031 C 
ATOM     59  C   UNL     1       7.471   7.178  -4.751  1.00  0.00     0.029 A 
ATOM     60  C   UNL     1       6.561   6.683  -5.769  1.00  0.00     0.049 A 
ATOM     61  H   UNL     1       4.711   5.697  -5.268  1.00  0.00     0.167 HD
ATOM     62  C   UNL     1       6.391  11.773  -1.702  1.00  0.00     0.037 A 
ATOM     63  C   UNL     1       6.558   7.070  -7.076  1.00  0.00     0.037 A 
ATOM     64  C   UNL     1       7.462  11.495  -2.655  1.00  0.00     0.049 A 
ATOM     65  C   UNL     1       7.250   8.387  -7.321  1.00  0.00     0.074 A 
ATOM     66  C   UNL     1       8.581  10.679  -2.587  1.00  0.00     0.029 A 
ATOM     67  N   UNL     1       7.313  11.851  -3.989  1.00  0.00    -0.354 N 
ATOM     68  N   UNL     1       7.426   9.294  -6.402  1.00  0.00    -0.248 NA
ATOM     69  C   UNL     1       7.787   8.791  -8.616  1.00  0.00     0.031 C 
ATOM     70  C   UNL     1       9.090  10.521  -3.897  1.00  0.00     0.029 A 
ATOM     71  C   UNL     1       8.291  11.253  -4.758  1.00  0.00     0.049 A 
ATOM     72  H   UNL     1       6.609  12.445  -4.337  1.00  0.00     0.167 HD
ATOM     73  C   UNL     1       8.072  10.377  -6.945  1.00  0.00     0.074 A 
ATOM     74  C   UNL     1       8.290  10.005  -8.330  1.00  0.00     0.031 C 
ATOM     75  C   UNL     1       8.366  11.481  -6.194  1.00  0.00     0.037 A 
BRANCH  62  76
ATOM     76  C   UNL     1       6.607  12.572  -0.434  1.00  0.00     0.057 A 
ATOM     77  C   UNL     1       7.906  12.793   0.072  1.00  0.00     0.134 A 
ATOM     78  C   UNL     1       5.583  13.112   0.360  1.00  0.00     0.134 A 
ATOM     79  F   UNL     1       9.003  12.447  -0.615  1.00  0.00    -0.206 F 
ATOM     80  C   UNL     1       8.154  13.385   1.318  1.00  0.00     0.040 A 
ATOM     81  C   UNL     1       5.811  13.664   1.631  1.00  0.00     0.040 A 
ATOM     82  F   UNL     1       4.321  13.183  -0.080  1.00  0.00    -0.206 F 
ATOM     83  C   UNL     1       7.102  13.787   2.123  1.00  0.00     0.006 A 
ENDBRANCH  62  76
BRANCH  63  84
ATOM     84  C   UNL     1       5.392   6.559  -7.840  1.00  0.00     0.057 A 
ATOM     85  C   UNL     1       5.275   5.171  -8.036  1.00  0.00     0.134 A 
ATOM     86  C   UNL     1       4.239   7.327  -8.019  1.00  0.00     0.134 A 
ATOM     87  F   UNL     1       6.348   4.378  -7.889  1.00  0.00    -0.206 F 
ATOM     88  C   UNL     1       4.041   4.560  -8.269  1.00  0.00     0.040 A 
ATOM     89  C   UNL     1       3.001   6.726  -8.274  1.00  0.00     0.040 A 
ATOM     90  F   UNL     1       4.266   8.654  -7.832  1.00  0.00    -0.206 F 
ATOM     91  C   UNL     1       2.891   5.338  -8.352  1.00  0.00     0.006 A 
ENDBRANCH  63  84
BRANCH  75  92
ATOM     92  C   UNL     1       8.843  12.832  -6.688  1.00  0.00     0.057 A 
ATOM     93  C   UNL     1       8.670  13.315  -7.992  1.00  0.00     0.134 A 
ATOM     94  C   UNL     1       9.387  13.776  -5.780  1.00  0.00     0.134 A 
ATOM     95  F   UNL     1       8.066  12.589  -8.941  1.00  0.00    -0.206 F 
ATOM     96  C   UNL     1       9.058  14.608  -8.379  1.00  0.00     0.040 A 
ATOM     97  C   UNL     1       9.723  15.084  -6.141  1.00  0.00     0.040 A 
ATOM     98  F   UNL     1       9.592  13.482  -4.488  1.00  0.00    -0.206 F 
ATOM     99  C   UNL     1       9.573  15.502  -7.451  1.00  0.00     0.006 A 
ENDBRANCH  75  92
ENDBRANCH  49  50
ENDBRANCH  41  44
ENDBRANCH  39  40
ENDBRANCH  38  39
ENDBRANCH  37  38
ENDBRANCH   1  37
TORSDOF 16
