REMARK SMILES C[C@@H](C[C@H]([NH3+])C(=O)NCCCCNC(=O)c1ccc(-c2c3nc(c(-c4c(F)cccc4F)c4ccc([nH]4)c(-c4c(F)cccc4F)c4nc(c(-c5c(F)cccc5F)c5ccc2[nH]5)C=C4)C=C3)cc1)C1CCOCC1
REMARK SMILES IDX 10 1 9 2 8 3 6 4 7 5 4 7 3 8 2 9 1 10 70 11 71 12 75 13
REMARK SMILES IDX 72 14 74 15 73 16 5 17 11 21 12 22 13 23 14 24 15 26 16 27
REMARK SMILES IDX 17 28 69 29 18 30 68 31 19 32 20 33 21 34 62 35 22 36 67 37
REMARK SMILES IDX 61 38 63 39 23 40 66 41 60 42 59 43 24 45 50 46 33 47 49 48
REMARK SMILES IDX 34 49 37 50 48 51 64 52 35 53 36 54 47 56 65 57 38 58 25 59
REMARK SMILES IDX 26 60 31 61 27 62 28 63 30 64 32 65 29 66 51 67 52 68 57 69
REMARK SMILES IDX 53 70 54 71 56 72 58 73 55 74 39 75 40 76 45 77 41 78 42 79
REMARK SMILES IDX 44 80 46 81 43 82
REMARK H PARENT 8 6 5 18 5 19 5 20 13 25 63 44 37 55
REMARK Flexibility Score: inf
ROOT
ATOM      1  C   UNL     1       1.050  -5.684   2.295  1.00  0.00     0.023 C 
ENDROOT
BRANCH   1   2
ATOM      2  C   UNL     1       0.199  -4.700   3.088  1.00  0.00     0.116 C 
BRANCH   2   3
ATOM      3  N   UNL     1       0.949  -3.730   3.848  1.00  0.00    -0.351 N 
ATOM      4  C   UNL     1       1.127  -2.404   3.550  1.00  0.00     0.278 C 
ATOM      5  O   UNL     1       1.707  -1.694   4.375  1.00  0.00    -0.268 OA
ATOM      6  H   UNL     1       1.379  -4.056   4.671  1.00  0.00     0.163 HD
BRANCH   4   7
ATOM      7  C   UNL     1       0.655  -1.822   2.180  1.00  0.00     0.271 C 
BRANCH   7   8
ATOM      8  C   UNL     1      -0.891  -1.715   2.076  1.00  0.00     0.079 C 
BRANCH   8   9
ATOM      9  C   UNL     1      -1.638  -2.029   0.742  1.00  0.00    -0.005 C 
ATOM     10  C   UNL     1      -1.762  -3.530   0.449  1.00  0.00     0.008 C 
BRANCH   9  11
ATOM     11  C   UNL     1      -1.141  -1.167  -0.456  1.00  0.00    -0.004 C 
ATOM     12  C   UNL     1      -2.125  -0.016  -0.730  1.00  0.00     0.032 C 
ATOM     13  C   UNL     1      -0.909  -1.939  -1.768  1.00  0.00     0.032 C 
ATOM     14  C   UNL     1      -1.659   0.823  -1.913  1.00  0.00     0.160 C 
ATOM     15  C   UNL     1      -0.509  -0.998  -2.896  1.00  0.00     0.160 C 
ATOM     16  O   UNL     1      -1.496   0.015  -3.077  1.00  0.00    -0.381 OA
ENDBRANCH   9  11
ENDBRANCH   8   9
ENDBRANCH   7   8
BRANCH   7  17
ATOM     17  N   UNL     1       1.355  -2.548   1.103  1.00  0.00    -0.347 N 
ATOM     18  H   UNL     1       1.122  -3.540   1.154  1.00  0.00     0.345 HD
ATOM     19  H   UNL     1       2.362  -2.430   1.212  1.00  0.00     0.345 HD
ATOM     20  H   UNL     1       1.065  -2.177   0.198  1.00  0.00     0.345 HD
ENDBRANCH   7  17
ENDBRANCH   4   7
ENDBRANCH   2   3
ENDBRANCH   1   2
BRANCH   1  21
ATOM     21  C   UNL     1       1.457  -6.933   3.067  1.00  0.00     0.023 C 
BRANCH  21  22
ATOM     22  C   UNL     1       0.310  -7.707   3.706  1.00  0.00     0.116 C 
BRANCH  22  23
ATOM     23  N   UNL     1      -0.727  -8.122   2.774  1.00  0.00    -0.352 N 
ATOM     24  C   UNL     1      -1.500  -9.264   2.812  1.00  0.00     0.251 C 
ATOM     25  H   UNL     1      -0.900  -7.510   2.022  1.00  0.00     0.163 HD
ATOM     26  O   UNL     1      -2.279  -9.520   1.909  1.00  0.00    -0.269 OA
BRANCH  24  27
ATOM     27  C   UNL     1      -1.334 -10.204   3.944  1.00  0.00     0.039 A 
ATOM     28  C   UNL     1      -1.164 -11.562   3.668  1.00  0.00     0.014 A 
ATOM     29  C   UNL     1      -1.290  -9.741   5.261  1.00  0.00     0.014 A 
ATOM     30  C   UNL     1      -0.878 -12.444   4.710  1.00  0.00     0.010 A 
ATOM     31  C   UNL     1      -0.914 -10.604   6.285  1.00  0.00     0.010 A 
ATOM     32  C   UNL     1      -0.710 -11.966   6.023  1.00  0.00    -0.014 A 
BRANCH  32  33
ATOM     33  C   UNL     1      -0.317 -12.887   7.118  1.00  0.00     0.031 A 
ATOM     34  C   UNL     1      -1.242 -13.126   8.283  1.00  0.00     0.074 A 
ATOM     35  C   UNL     1       0.890 -13.485   7.085  1.00  0.00     0.049 A 
ATOM     36  N   UNL     1      -1.084 -13.921   9.311  1.00  0.00    -0.248 NA
ATOM     37  C   UNL     1      -2.490 -12.350   8.311  1.00  0.00     0.031 C 
ATOM     38  C   UNL     1       1.908 -13.276   6.053  1.00  0.00     0.029 A 
ATOM     39  N   UNL     1       1.462 -14.393   7.937  1.00  0.00    -0.354 N 
ATOM     40  C   UNL     1      -2.209 -13.737  10.105  1.00  0.00     0.074 A 
ATOM     41  C   UNL     1      -3.005 -12.706   9.478  1.00  0.00     0.031 C 
ATOM     42  C   UNL     1       2.961 -14.070   6.308  1.00  0.00     0.029 A 
ATOM     43  C   UNL     1       2.705 -14.822   7.531  1.00  0.00     0.049 A 
ATOM     44  H   UNL     1       1.025 -14.709   8.761  1.00  0.00     0.167 HD
ATOM     45  C   UNL     1      -2.564 -14.390  11.238  1.00  0.00     0.037 A 
ATOM     46  C   UNL     1       3.535 -15.732   8.077  1.00  0.00     0.037 A 
ATOM     47  C   UNL     1      -1.779 -15.430  11.850  1.00  0.00     0.049 A 
ATOM     48  C   UNL     1       3.106 -16.462   9.318  1.00  0.00     0.074 A 
ATOM     49  C   UNL     1      -2.076 -16.191  12.967  1.00  0.00     0.029 A 
ATOM     50  N   UNL     1      -0.539 -15.854  11.396  1.00  0.00    -0.354 N 
ATOM     51  N   UNL     1       2.000 -16.340  10.011  1.00  0.00    -0.248 NA
ATOM     52  C   UNL     1       4.036 -17.472   9.842  1.00  0.00     0.031 C 
ATOM     53  C   UNL     1      -0.997 -17.048  13.212  1.00  0.00     0.029 A 
ATOM     54  C   UNL     1      -0.051 -16.856  12.218  1.00  0.00     0.049 A 
ATOM     55  H   UNL     1      -0.075 -15.495  10.605  1.00  0.00     0.167 HD
ATOM     56  C   UNL     1       2.086 -17.277  11.033  1.00  0.00     0.074 A 
ATOM     57  C   UNL     1       3.345 -17.971  10.857  1.00  0.00     0.031 C 
ATOM     58  C   UNL     1       1.202 -17.541  12.027  1.00  0.00     0.037 A 
BRANCH  45  59
ATOM     59  C   UNL     1      -3.866 -14.002  11.878  1.00  0.00     0.057 A 
ATOM     60  C   UNL     1      -5.099 -14.294  11.278  1.00  0.00     0.134 A 
ATOM     61  C   UNL     1      -3.891 -13.350  13.117  1.00  0.00     0.134 A 
ATOM     62  F   UNL     1      -5.146 -14.904  10.084  1.00  0.00    -0.206 F 
ATOM     63  C   UNL     1      -6.307 -13.926  11.872  1.00  0.00     0.040 A 
ATOM     64  C   UNL     1      -5.094 -13.003  13.735  1.00  0.00     0.040 A 
ATOM     65  F   UNL     1      -2.748 -13.044  13.749  1.00  0.00    -0.206 F 
ATOM     66  C   UNL     1      -6.306 -13.284  13.108  1.00  0.00     0.006 A 
ENDBRANCH  45  59
BRANCH  46  67
ATOM     67  C   UNL     1       4.830 -16.043   7.421  1.00  0.00     0.057 A 
ATOM     68  C   UNL     1       5.042 -17.274   6.789  1.00  0.00     0.134 A 
ATOM     69  C   UNL     1       5.888 -15.126   7.418  1.00  0.00     0.134 A 
ATOM     70  F   UNL     1       4.071 -18.200   6.774  1.00  0.00    -0.206 F 
ATOM     71  C   UNL     1       6.265 -17.593   6.197  1.00  0.00     0.040 A 
ATOM     72  C   UNL     1       7.108 -15.421   6.807  1.00  0.00     0.040 A 
ATOM     73  F   UNL     1       5.745 -13.925   7.997  1.00  0.00    -0.206 F 
ATOM     74  C   UNL     1       7.301 -16.661   6.201  1.00  0.00     0.006 A 
ENDBRANCH  46  67
BRANCH  58  75
ATOM     75  C   UNL     1       1.551 -18.653  12.972  1.00  0.00     0.057 A 
ATOM     76  C   UNL     1       2.585 -18.535  13.910  1.00  0.00     0.134 A 
ATOM     77  C   UNL     1       0.833 -19.856  12.950  1.00  0.00     0.134 A 
ATOM     78  F   UNL     1       3.319 -17.414  13.975  1.00  0.00    -0.206 F 
ATOM     79  C   UNL     1       2.916 -19.587  14.766  1.00  0.00     0.040 A 
ATOM     80  C   UNL     1       1.135 -20.903  13.822  1.00  0.00     0.040 A 
ATOM     81  F   UNL     1      -0.177 -20.031  12.085  1.00  0.00    -0.206 F 
ATOM     82  C   UNL     1       2.187 -20.773  14.726  1.00  0.00     0.006 A 
ENDBRANCH  58  75
ENDBRANCH  32  33
ENDBRANCH  24  27
ENDBRANCH  22  23
ENDBRANCH  21  22
ENDBRANCH   1  21
TORSDOF 15
