REMARK SMILES C[NH+]1CCC(C(=O)N2C[C@@H](C(=O)NCCCCNC(=O)c3ccc(-c4c5nc(c(-c6c(F)cccc6F)c6ccc([nH]6)c(-c6c(F)cccc6F)c6nc(c(-c7c(F)cccc7F)c7ccc4[nH]7)C=C6)C=C5)cc3)[C@H](c3ccc4c(c3)OCO4)C2)CC1
REMARK SMILES IDX 15 1 14 2 13 3 11 4 12 5 10 7 8 8 9 9 85 10 75 11 6 12 7 13
REMARK SMILES IDX 5 14 1 15 2 16 3 17 87 18 4 20 86 21 76 22 77 23 81 24 78 25
REMARK SMILES IDX 80 26 79 27 82 28 84 29 83 30 16 31 17 32 18 33 19 34 20 36
REMARK SMILES IDX 21 37 22 38 74 39 23 40 73 41 24 42 25 43 26 44 67 45 27 46
REMARK SMILES IDX 72 47 66 48 68 49 28 50 71 51 65 52 64 53 29 55 55 56 38 57
REMARK SMILES IDX 54 58 39 59 42 60 53 61 69 62 40 63 41 64 52 66 70 67 43 68
REMARK SMILES IDX 30 69 31 70 36 71 32 72 33 73 35 74 37 75 34 76 56 77 57 78
REMARK SMILES IDX 62 79 58 80 59 81 61 82 63 83 60 84 44 85 45 86 50 87 46 88
REMARK SMILES IDX 47 89 49 90 51 91 48 92
REMARK H PARENT 13 6 2 19 18 35 68 54 42 65
REMARK Flexibility Score: inf
ROOT
ATOM      1  C   UNL     1       0.128   0.757   6.814  1.00  0.00     0.023 C 
ENDROOT
BRANCH   1   2
ATOM      2  C   UNL     1       1.566   0.830   6.313  1.00  0.00     0.116 C 
BRANCH   2   3
ATOM      3  N   UNL     1       2.176  -0.476   6.122  1.00  0.00    -0.356 N 
ATOM      4  C   UNL     1       2.936  -0.936   5.085  1.00  0.00     0.225 C 
ATOM      5  O   UNL     1       3.478  -2.035   5.201  1.00  0.00    -0.275 OA
ATOM      6  H   UNL     1       2.018  -1.123   6.847  1.00  0.00     0.163 HD
BRANCH   4   7
ATOM      7  C   UNL     1       3.092  -0.097   3.836  1.00  0.00     0.107 C 
ATOM      8  N   UNL     1       3.613  -0.059   1.590  1.00  0.00    -0.341 N 
ATOM      9  C   UNL     1       3.120  -0.971   2.600  1.00  0.00     0.133 C 
ATOM     10  C   UNL     1       4.631   0.803   2.189  1.00  0.00     0.128 C 
ATOM     11  C   UNL     1       4.444   0.646   3.722  1.00  0.00     0.053 C 
BRANCH   8  12
ATOM     12  C   UNL     1       3.282   0.070   0.266  1.00  0.00     0.226 C 
ATOM     13  O   UNL     1       4.106   0.545  -0.526  1.00  0.00    -0.275 OA
BRANCH  12  14
ATOM     14  C   UNL     1       1.828  -0.073  -0.207  1.00  0.00     0.090 C 
ATOM     15  C   UNL     1      -2.471   0.009  -0.296  1.00  0.00     0.332 C 
ATOM     16  N   UNL     1      -1.067  -0.051   0.108  1.00  0.00    -0.337 N 
ATOM     17  C   UNL     1      -0.369   1.185  -0.265  1.00  0.00     0.262 C 
ATOM     18  C   UNL     1      -0.401  -1.223  -0.481  1.00  0.00     0.262 C 
ATOM     19  H   UNL     1      -1.033  -0.146   1.123  1.00  0.00     0.347 HD
ATOM     20  C   UNL     1       1.060   1.169   0.269  1.00  0.00     0.075 C 
ATOM     21  C   UNL     1       1.024  -1.341   0.074  1.00  0.00     0.075 C 
ENDBRANCH  12  14
ENDBRANCH   8  12
BRANCH  11  22
ATOM     22  C   UNL     1       4.424   1.894   4.585  1.00  0.00    -0.038 A 
ATOM     23  C   UNL     1       3.828   3.104   4.162  1.00  0.00     0.008 A 
ATOM     24  C   UNL     1       4.845   1.772   5.925  1.00  0.00     0.054 A 
ATOM     25  C   UNL     1       3.610   4.156   5.061  1.00  0.00     0.051 A 
ATOM     26  C   UNL     1       4.576   2.807   6.796  1.00  0.00     0.166 A 
ATOM     27  C   UNL     1       3.965   3.962   6.377  1.00  0.00     0.165 A 
ATOM     28  O   UNL     1       4.769   2.780   8.143  1.00  0.00    -0.454 OA
ATOM     29  O   UNL     1       3.712   4.815   7.405  1.00  0.00    -0.454 OA
ATOM     30  C   UNL     1       4.108   4.004   8.531  1.00  0.00     0.468 C 
ENDBRANCH  11  22
ENDBRANCH   4   7
ENDBRANCH   2   3
ENDBRANCH   1   2
BRANCH   1  31
ATOM     31  C   UNL     1      -0.051   0.167   8.214  1.00  0.00     0.023 C 
BRANCH  31  32
ATOM     32  C   UNL     1       0.820   0.764   9.319  1.00  0.00     0.116 C 
BRANCH  32  33
ATOM     33  N   UNL     1       0.680   2.202   9.473  1.00  0.00    -0.352 N 
ATOM     34  C   UNL     1       0.706   2.961  10.621  1.00  0.00     0.251 C 
ATOM     35  H   UNL     1       0.549   2.706   8.637  1.00  0.00     0.163 HD
ATOM     36  O   UNL     1       0.557   4.175  10.557  1.00  0.00    -0.269 OA
BRANCH  34  37
ATOM     37  C   UNL     1       0.871   2.311  11.941  1.00  0.00     0.039 A 
ATOM     38  C   UNL     1      -0.020   2.652  12.964  1.00  0.00     0.014 A 
ATOM     39  C   UNL     1       1.872   1.364  12.171  1.00  0.00     0.014 A 
ATOM     40  C   UNL     1       0.033   1.977  14.186  1.00  0.00     0.010 A 
ATOM     41  C   UNL     1       1.891   0.654  13.371  1.00  0.00     0.010 A 
ATOM     42  C   UNL     1       0.959   0.940  14.381  1.00  0.00    -0.014 A 
BRANCH  42  43
ATOM     43  C   UNL     1       0.919   0.103  15.607  1.00  0.00     0.031 A 
ATOM     44  C   UNL     1       2.046   0.132  16.597  1.00  0.00     0.074 A 
ATOM     45  C   UNL     1      -0.108  -0.752  15.784  1.00  0.00     0.049 A 
ATOM     46  N   UNL     1       2.204  -0.573  17.689  1.00  0.00    -0.248 NA
ATOM     47  C   UNL     1       3.153   1.057  16.310  1.00  0.00     0.031 C 
ATOM     48  C   UNL     1      -1.234  -0.922  14.864  1.00  0.00     0.029 A 
ATOM     49  N   UNL     1      -0.360  -1.652  16.789  1.00  0.00    -0.354 N 
ATOM     50  C   UNL     1       3.432  -0.191  18.211  1.00  0.00     0.074 A 
ATOM     51  C   UNL     1       3.994   0.782  17.297  1.00  0.00     0.031 C 
ATOM     52  C   UNL     1      -2.059  -1.864  15.349  1.00  0.00     0.029 A 
ATOM     53  C   UNL     1      -1.509  -2.382  16.598  1.00  0.00     0.049 A 
ATOM     54  H   UNL     1       0.225  -1.765  17.572  1.00  0.00     0.167 HD
ATOM     55  C   UNL     1       4.029  -0.602  19.356  1.00  0.00     0.037 A 
ATOM     56  C   UNL     1      -2.055  -3.364  17.338  1.00  0.00     0.037 A 
ATOM     57  C   UNL     1       3.460  -1.552  20.276  1.00  0.00     0.049 A 
ATOM     58  C   UNL     1      -1.386  -3.786  18.615  1.00  0.00     0.074 A 
ATOM     59  C   UNL     1       3.952  -1.966  21.502  1.00  0.00     0.029 A 
ATOM     60  N   UNL     1       2.276  -2.242  20.067  1.00  0.00    -0.354 N 
ATOM     61  N   UNL     1      -0.269  -3.350  19.143  1.00  0.00    -0.248 NA
ATOM     62  C   UNL     1      -2.058  -4.828  19.404  1.00  0.00     0.031 C 
ATOM     63  C   UNL     1       3.084  -2.936  22.017  1.00  0.00     0.029 A 
ATOM     64  C   UNL     1       2.033  -3.097  21.130  1.00  0.00     0.049 A 
ATOM     65  H   UNL     1       1.694  -2.139  19.280  1.00  0.00     0.167 HD
ATOM     66  C   UNL     1      -0.112  -4.050  20.332  1.00  0.00     0.074 A 
ATOM     67  C   UNL     1      -1.257  -4.928  20.455  1.00  0.00     0.031 C 
ATOM     68  C   UNL     1       0.891  -3.969  21.240  1.00  0.00     0.037 A 
BRANCH  55  69
ATOM     69  C   UNL     1       5.376  -0.023  19.675  1.00  0.00     0.057 A 
ATOM     70  C   UNL     1       5.529   1.307  20.087  1.00  0.00     0.134 A 
ATOM     71  C   UNL     1       6.530  -0.813  19.596  1.00  0.00     0.134 A 
ATOM     72  F   UNL     1       4.464   2.119  20.173  1.00  0.00    -0.206 F 
ATOM     73  C   UNL     1       6.785   1.839  20.383  1.00  0.00     0.040 A 
ATOM     74  C   UNL     1       7.789  -0.298  19.912  1.00  0.00     0.040 A 
ATOM     75  F   UNL     1       6.452  -2.097  19.215  1.00  0.00    -0.206 F 
ATOM     76  C   UNL     1       7.919   1.034  20.300  1.00  0.00     0.006 A 
ENDBRANCH  55  69
BRANCH  56  77
ATOM     77  C   UNL     1      -3.318  -4.002  16.895  1.00  0.00     0.057 A 
ATOM     78  C   UNL     1      -4.528  -3.736  17.545  1.00  0.00     0.134 A 
ATOM     79  C   UNL     1      -3.347  -4.879  15.805  1.00  0.00     0.134 A 
ATOM     80  F   UNL     1      -4.558  -2.917  18.606  1.00  0.00    -0.206 F 
ATOM     81  C   UNL     1      -5.723  -4.328  17.134  1.00  0.00     0.040 A 
ATOM     82  C   UNL     1      -4.538  -5.463  15.370  1.00  0.00     0.040 A 
ATOM     83  F   UNL     1      -2.220  -5.167  15.136  1.00  0.00    -0.206 F 
ATOM     84  C   UNL     1      -5.730  -5.191  16.038  1.00  0.00     0.006 A 
ENDBRANCH  56  77
BRANCH  68  85
ATOM     85  C   UNL     1       0.785  -4.841  22.455  1.00  0.00     0.057 A 
ATOM     86  C   UNL     1       1.022  -6.220  22.395  1.00  0.00     0.134 A 
ATOM     87  C   UNL     1       0.479  -4.289  23.705  1.00  0.00     0.134 A 
ATOM     88  F   UNL     1       1.305  -6.810  21.224  1.00  0.00    -0.206 F 
ATOM     89  C   UNL     1       0.941  -7.023  23.533  1.00  0.00     0.040 A 
ATOM     90  C   UNL     1       0.417  -5.078  24.855  1.00  0.00     0.040 A 
ATOM     91  F   UNL     1       0.247  -2.974  23.831  1.00  0.00    -0.206 F 
ATOM     92  C   UNL     1       0.644  -6.450  24.769  1.00  0.00     0.006 A 
ENDBRANCH  68  85
ENDBRANCH  42  43
ENDBRANCH  34  37
ENDBRANCH  32  33
ENDBRANCH  31  32
ENDBRANCH   1  31
TORSDOF 14
