REMARK SMILES CCOc1cccc(C(=O)Nc2ccc(Cl)c(C(=O)NCCCCNC(=O)c3ccc(-c4c5nc(c(-c6c(F)cccc6F)c6ccc([nH]6)c(-c6c(F)cccc6F)c6nc(c(-c7c(F)cccc7F)c7ccc4[nH]7)C=C6)C=C5)cc3)c2)c1
REMARK SMILES IDX 21 1 20 2 18 3 19 4 17 6 12 7 13 8 82 9 14 10 15 11 16 12
REMARK SMILES IDX 11 13 9 14 10 15 8 17 4 18 5 19 83 20 6 21 7 22 3 23 2 24
REMARK SMILES IDX 1 25 22 26 23 27 24 28 25 29 26 30 27 32 28 33 29 34 81 35
REMARK SMILES IDX 30 36 80 37 31 38 32 39 33 40 74 41 34 42 79 43 73 44 75 45
REMARK SMILES IDX 35 46 78 47 72 48 71 49 36 51 62 52 45 53 61 54 46 55 49 56
REMARK SMILES IDX 60 57 76 58 47 59 48 60 59 62 77 63 50 64 37 65 38 66 43 67
REMARK SMILES IDX 39 68 40 69 42 70 44 71 41 72 63 73 64 74 69 75 65 76 66 77
REMARK SMILES IDX 68 78 70 79 67 80 51 81 52 82 57 83 53 84 54 85 56 86 58 87
REMARK SMILES IDX 55 88
REMARK H PARENT 20 5 11 16 25 31 75 50 49 61
REMARK Flexibility Score: inf
ROOT
ATOM      1  C   UNL     1       1.501  -3.308  -1.755  1.00  0.00     0.116 C 
ENDROOT
BRANCH   1   2
ATOM      2  N   UNL     1       0.400  -3.305  -0.817  1.00  0.00    -0.352 N 
ATOM      3  C   UNL     1       0.266  -2.889   0.485  1.00  0.00     0.252 C 
ATOM      4  O   UNL     1      -0.777  -3.236   1.038  1.00  0.00    -0.269 OA
ATOM      5  H   UNL     1      -0.429  -3.682  -1.191  1.00  0.00     0.163 HD
BRANCH   3   6
ATOM      6  C   UNL     1       1.277  -2.060   1.222  1.00  0.00     0.060 A 
ATOM      7  C   UNL     1       3.558  -1.215   1.524  1.00  0.00     0.042 A 
ATOM      8  C   UNL     1       3.160  -0.480   2.634  1.00  0.00     0.028 A 
ATOM      9  C   UNL     1       2.646  -2.073   0.898  1.00  0.00     0.041 A 
ATOM     10  C   UNL     1       1.820  -0.477   3.006  1.00  0.00     0.023 A 
ATOM     11  C   UNL     1       0.874  -1.226   2.287  1.00  0.00     0.053 A 
ATOM     12  Cl  UNL     1      -0.771  -0.966   2.765  1.00  0.00    -0.083 Cl
BRANCH   7  13
ATOM     13  N   UNL     1       4.871  -1.036   1.068  1.00  0.00    -0.322 N 
ATOM     14  C   UNL     1       5.400  -1.001  -0.209  1.00  0.00     0.255 C 
ATOM     15  O   UNL     1       6.622  -1.094  -0.334  1.00  0.00    -0.269 OA
ATOM     16  H   UNL     1       5.536  -0.914   1.784  1.00  0.00     0.170 HD
BRANCH  14  17
ATOM     17  C   UNL     1       4.578  -0.746  -1.434  1.00  0.00     0.043 A 
ATOM     18  C   UNL     1       2.579   0.021  -2.581  1.00  0.00     0.120 A 
ATOM     19  C   UNL     1       3.097  -0.434  -3.793  1.00  0.00     0.046 A 
ATOM     20  C   UNL     1       3.344  -0.078  -1.416  1.00  0.00     0.060 A 
ATOM     21  C   UNL     1       4.373  -0.989  -3.846  1.00  0.00     0.005 A 
ATOM     22  C   UNL     1       5.103  -1.160  -2.668  1.00  0.00     0.014 A 
BRANCH  18  23
ATOM     23  O   UNL     1       1.254   0.357  -2.595  1.00  0.00    -0.494 OA
BRANCH  23  24
ATOM     24  C   UNL     1       0.866   1.540  -1.899  1.00  0.00     0.226 C 
ATOM     25  C   UNL     1       0.341   1.244  -0.504  1.00  0.00     0.049 C 
ENDBRANCH  23  24
ENDBRANCH  18  23
ENDBRANCH  14  17
ENDBRANCH   7  13
ENDBRANCH   3   6
ENDBRANCH   1   2
BRANCH   1  26
ATOM     26  C   UNL     1       2.301  -4.606  -1.629  1.00  0.00     0.023 C 
BRANCH  26  27
ATOM     27  C   UNL     1       1.721  -5.747  -2.464  1.00  0.00     0.023 C 
BRANCH  27  28
ATOM     28  C   UNL     1       1.853  -5.542  -3.968  1.00  0.00     0.116 C 
BRANCH  28  29
ATOM     29  N   UNL     1       3.236  -5.465  -4.417  1.00  0.00    -0.352 N 
ATOM     30  C   UNL     1       3.768  -5.947  -5.589  1.00  0.00     0.251 C 
ATOM     31  H   UNL     1       3.865  -5.014  -3.808  1.00  0.00     0.163 HD
ATOM     32  O   UNL     1       4.973  -5.898  -5.806  1.00  0.00    -0.269 OA
BRANCH  30  33
ATOM     33  C   UNL     1       2.855  -6.562  -6.570  1.00  0.00     0.039 A 
ATOM     34  C   UNL     1       3.090  -7.873  -6.986  1.00  0.00     0.014 A 
ATOM     35  C   UNL     1       1.725  -5.864  -7.001  1.00  0.00     0.014 A 
ATOM     36  C   UNL     1       2.145  -8.516  -7.788  1.00  0.00     0.010 A 
ATOM     37  C   UNL     1       0.755  -6.527  -7.743  1.00  0.00     0.010 A 
ATOM     38  C   UNL     1       0.955  -7.859  -8.140  1.00  0.00    -0.014 A 
BRANCH  38  39
ATOM     39  C   UNL     1      -0.102  -8.537  -8.929  1.00  0.00     0.031 A 
ATOM     40  C   UNL     1      -0.454  -8.020 -10.296  1.00  0.00     0.074 A 
ATOM     41  C   UNL     1      -0.805  -9.549  -8.383  1.00  0.00     0.049 A 
ATOM     42  N   UNL     1      -1.429  -8.379 -11.090  1.00  0.00    -0.248 NA
ATOM     43  C   UNL     1       0.383  -6.930 -10.825  1.00  0.00     0.031 C 
ATOM     44  C   UNL     1      -0.590 -10.110  -7.048  1.00  0.00     0.029 A 
ATOM     45  N   UNL     1      -1.860 -10.272  -8.880  1.00  0.00    -0.354 N 
ATOM     46  C   UNL     1      -1.343  -7.540 -12.193  1.00  0.00     0.074 A 
ATOM     47  C   UNL     1      -0.244  -6.631 -11.954  1.00  0.00     0.031 C 
ATOM     48  C   UNL     1      -1.477 -11.097  -6.837  1.00  0.00     0.029 A 
ATOM     49  C   UNL     1      -2.346 -11.213  -8.004  1.00  0.00     0.049 A 
ATOM     50  H   UNL     1      -2.234 -10.130  -9.779  1.00  0.00     0.167 HD
ATOM     51  C   UNL     1      -2.102  -7.540 -13.313  1.00  0.00     0.037 A 
ATOM     52  C   UNL     1      -3.383 -12.063  -8.126  1.00  0.00     0.037 A 
ATOM     53  C   UNL     1      -3.157  -8.482 -13.574  1.00  0.00     0.049 A 
ATOM     54  C   UNL     1      -4.196 -12.053  -9.392  1.00  0.00     0.074 A 
ATOM     55  C   UNL     1      -3.924  -8.620 -14.717  1.00  0.00     0.029 A 
ATOM     56  N   UNL     1      -3.588  -9.449 -12.680  1.00  0.00    -0.354 N 
ATOM     57  N   UNL     1      -4.056 -11.304 -10.459  1.00  0.00    -0.248 NA
ATOM     58  C   UNL     1      -5.311 -13.009  -9.473  1.00  0.00     0.031 C 
ATOM     59  C   UNL     1      -4.843  -9.650 -14.503  1.00  0.00     0.029 A 
ATOM     60  C   UNL     1      -4.623 -10.178 -13.241  1.00  0.00     0.049 A 
ATOM     61  H   UNL     1      -3.215  -9.596 -11.781  1.00  0.00     0.167 HD
ATOM     62  C   UNL     1      -5.036 -11.723 -11.348  1.00  0.00     0.074 A 
ATOM     63  C   UNL     1      -5.762 -12.795 -10.700  1.00  0.00     0.031 C 
ATOM     64  C   UNL     1      -5.312 -11.261 -12.592  1.00  0.00     0.037 A 
BRANCH  51  65
ATOM     65  C   UNL     1      -1.816  -6.497 -14.351  1.00  0.00     0.057 A 
ATOM     66  C   UNL     1      -0.679  -6.558 -15.165  1.00  0.00     0.134 A 
ATOM     67  C   UNL     1      -2.721  -5.452 -14.578  1.00  0.00     0.134 A 
ATOM     68  F   UNL     1       0.232  -7.527 -14.988  1.00  0.00    -0.206 F 
ATOM     69  C   UNL     1      -0.443  -5.608 -16.160  1.00  0.00     0.040 A 
ATOM     70  C   UNL     1      -2.508  -4.510 -15.585  1.00  0.00     0.040 A 
ATOM     71  F   UNL     1      -3.832  -5.339 -13.835  1.00  0.00    -0.206 F 
ATOM     72  C   UNL     1      -1.365  -4.586 -16.378  1.00  0.00     0.006 A 
ENDBRANCH  51  65
BRANCH  52  73
ATOM     73  C   UNL     1      -3.715 -13.010  -7.031  1.00  0.00     0.057 A 
ATOM     74  C   UNL     1      -3.514 -14.387  -7.186  1.00  0.00     0.134 A 
ATOM     75  C   UNL     1      -4.277 -12.571  -5.827  1.00  0.00     0.134 A 
ATOM     76  F   UNL     1      -2.998 -14.869  -8.326  1.00  0.00    -0.206 F 
ATOM     77  C   UNL     1      -3.886 -15.296  -6.195  1.00  0.00     0.040 A 
ATOM     78  C   UNL     1      -4.631 -13.468  -4.817  1.00  0.00     0.040 A 
ATOM     79  F   UNL     1      -4.490 -11.264  -5.614  1.00  0.00    -0.206 F 
ATOM     80  C   UNL     1      -4.445 -14.836  -5.005  1.00  0.00     0.006 A 
ENDBRANCH  52  73
BRANCH  64  81
ATOM     81  C   UNL     1      -6.404 -11.946 -13.355  1.00  0.00     0.057 A 
ATOM     82  C   UNL     1      -7.756 -11.745 -13.053  1.00  0.00     0.134 A 
ATOM     83  C   UNL     1      -6.096 -12.774 -14.443  1.00  0.00     0.134 A 
ATOM     84  F   UNL     1      -8.113 -10.973 -12.016  1.00  0.00    -0.206 F 
ATOM     85  C   UNL     1      -8.765 -12.356 -13.798  1.00  0.00     0.040 A 
ATOM     86  C   UNL     1      -7.097 -13.371 -15.209  1.00  0.00     0.040 A 
ATOM     87  F   UNL     1      -4.820 -12.999 -14.788  1.00  0.00    -0.206 F 
ATOM     88  C   UNL     1      -8.437 -13.165 -14.885  1.00  0.00     0.006 A 
ENDBRANCH  64  81
ENDBRANCH  38  39
ENDBRANCH  30  33
ENDBRANCH  28  29
ENDBRANCH  27  28
ENDBRANCH  26  27
ENDBRANCH   1  26
TORSDOF 15
