REMARK SMILES Cc1ccccc1[C@@H]1[NH2+][C@@H](C(=O)NCCCCNC(=O)c2ccc(-c3c4nc(c(-c5c(F)cccc5F)c5ccc([nH]5)c(-c5c(F)cccc5F)c5nc(c(-c6c(F)cccc6F)c6ccc3[nH]6)C=C5)C=C4)cc2)CC2=c3ccccc3=N[C@@H]21
REMARK SMILES IDX 16 1 15 2 14 3 13 4 11 5 12 6 10 8 8 9 9 10 84 11 76 14
REMARK SMILES IDX 83 15 75 16 77 17 82 18 78 19 81 20 79 21 80 22 7 23 1 24
REMARK SMILES IDX 2 25 3 26 4 27 6 28 5 29 17 30 18 31 19 32 20 34 21 35 22 36
REMARK SMILES IDX 74 37 23 38 73 39 24 40 25 41 26 42 67 43 27 44 72 45 66 46
REMARK SMILES IDX 68 47 28 48 71 49 65 50 64 51 29 53 55 54 38 55 54 56 39 57
REMARK SMILES IDX 42 58 53 59 69 60 40 61 41 62 52 64 70 65 43 66 30 67 31 68
REMARK SMILES IDX 36 69 32 70 33 71 35 72 37 73 34 74 56 75 57 76 62 77 58 78
REMARK SMILES IDX 59 79 61 80 63 81 60 82 44 83 45 84 50 85 46 86 47 87 49 88
REMARK SMILES IDX 51 89 48 90
REMARK H PARENT 13 7 9 12 9 13 18 33 68 52 42 63
REMARK Flexibility Score: inf
ROOT
ATOM      1  C   UNL     1       3.435   2.820  -1.816  1.00  0.00     0.023 C 
ENDROOT
BRANCH   1   2
ATOM      2  C   UNL     1       3.780   4.264  -1.363  1.00  0.00     0.023 C 
BRANCH   2   3
ATOM      3  C   UNL     1       2.962   5.519  -1.805  1.00  0.00     0.116 C 
BRANCH   3   4
ATOM      4  N   UNL     1       1.683   6.037  -1.265  1.00  0.00    -0.351 N 
ATOM      5  C   UNL     1       1.120   6.064   0.005  1.00  0.00     0.278 C 
ATOM      6  O   UNL     1       0.254   6.883   0.301  1.00  0.00    -0.268 OA
ATOM      7  H   UNL     1       1.111   6.449  -1.952  1.00  0.00     0.163 HD
BRANCH   5   8
ATOM      8  C   UNL     1       1.591   4.973   0.939  1.00  0.00     0.277 C 
ATOM      9  C   UNL     1       0.330   2.842   0.718  1.00  0.00     0.243 C 
ATOM     10  N   UNL     1       1.348   3.747   0.167  1.00  0.00    -0.327 N 
ATOM     11  C   UNL     1       1.143   2.234   1.958  1.00  0.00     0.196 C 
ATOM     12  H   UNL     1       1.052   4.019  -0.770  1.00  0.00     0.347 HD
ATOM     13  H   UNL     1       2.225   3.226   0.187  1.00  0.00     0.347 HD
ATOM     14  C   UNL     1       1.700   3.442   2.775  1.00  0.00    -0.024 C 
ATOM     15  N   UNL     1       2.414   1.540   1.520  1.00  0.00    -0.270 NA
ATOM     16  C   UNL     1       1.125   4.819   2.404  1.00  0.00     0.109 C 
ATOM     17  C   UNL     1       3.022   3.333   2.989  1.00  0.00     0.002 A 
ATOM     18  C   UNL     1       3.376   2.200   2.103  1.00  0.00     0.066 A 
ATOM     19  C   UNL     1       3.998   4.348   3.302  1.00  0.00     0.010 A 
ATOM     20  C   UNL     1       4.828   2.048   1.799  1.00  0.00     0.028 A 
ATOM     21  C   UNL     1       5.263   4.211   2.875  1.00  0.00     0.001 A 
ATOM     22  C   UNL     1       5.683   3.023   2.157  1.00  0.00     0.002 A 
BRANCH   9  23
ATOM     23  C   UNL     1      -0.358   2.157  -0.487  1.00  0.00     0.015 A 
ATOM     24  C   UNL     1      -1.751   0.509   0.882  1.00  0.00     0.045 C 
ATOM     25  C   UNL     1      -1.327   1.143  -0.408  1.00  0.00    -0.042 A 
ATOM     26  C   UNL     1      -2.073   0.790  -1.567  1.00  0.00     0.004 A 
ATOM     27  C   UNL     1      -1.882   1.413  -2.801  1.00  0.00     0.000 A 
ATOM     28  C   UNL     1      -0.232   2.787  -1.768  1.00  0.00     0.010 A 
ATOM     29  C   UNL     1      -0.951   2.420  -2.904  1.00  0.00     0.001 A 
ENDBRANCH   9  23
ENDBRANCH   5   8
ENDBRANCH   3   4
ENDBRANCH   2   3
ENDBRANCH   1   2
BRANCH   1  30
ATOM     30  C   UNL     1       3.677   2.536  -3.287  1.00  0.00     0.116 C 
BRANCH  30  31
ATOM     31  N   UNL     1       4.719   1.563  -3.558  1.00  0.00    -0.352 N 
ATOM     32  C   UNL     1       5.529   1.482  -4.717  1.00  0.00     0.251 C 
ATOM     33  H   UNL     1       4.880   0.886  -2.862  1.00  0.00     0.163 HD
ATOM     34  O   UNL     1       6.364   0.625  -4.851  1.00  0.00    -0.269 OA
BRANCH  32  35
ATOM     35  C   UNL     1       5.377   2.583  -5.684  1.00  0.00     0.039 A 
ATOM     36  C   UNL     1       6.436   3.495  -5.745  1.00  0.00     0.014 A 
ATOM     37  C   UNL     1       4.099   2.928  -6.124  1.00  0.00     0.014 A 
ATOM     38  C   UNL     1       6.149   4.838  -5.967  1.00  0.00     0.010 A 
ATOM     39  C   UNL     1       3.799   4.275  -6.257  1.00  0.00     0.010 A 
ATOM     40  C   UNL     1       4.810   5.230  -6.092  1.00  0.00    -0.014 A 
BRANCH  40  41
ATOM     41  C   UNL     1       4.416   6.630  -5.948  1.00  0.00     0.031 A 
ATOM     42  C   UNL     1       4.106   7.408  -7.156  1.00  0.00     0.074 A 
ATOM     43  C   UNL     1       4.481   7.294  -4.771  1.00  0.00     0.049 A 
ATOM     44  N   UNL     1       4.578   8.589  -7.384  1.00  0.00    -0.248 NA
ATOM     45  C   UNL     1       3.280   6.876  -8.228  1.00  0.00     0.031 C 
ATOM     46  C   UNL     1       4.072   8.674  -4.516  1.00  0.00     0.029 A 
ATOM     47  N   UNL     1       5.154   6.921  -3.612  1.00  0.00    -0.354 N 
ATOM     48  C   UNL     1       3.924   9.071  -8.490  1.00  0.00     0.074 A 
ATOM     49  C   UNL     1       3.189   7.943  -9.025  1.00  0.00     0.031 C 
ATOM     50  C   UNL     1       4.746   9.129  -3.447  1.00  0.00     0.029 A 
ATOM     51  C   UNL     1       5.663   8.085  -3.020  1.00  0.00     0.049 A 
ATOM     52  H   UNL     1       5.255   6.003  -3.269  1.00  0.00     0.167 HD
ATOM     53  C   UNL     1       3.929  10.404  -8.773  1.00  0.00     0.037 A 
ATOM     54  C   UNL     1       6.957   8.251  -2.630  1.00  0.00     0.037 A 
ATOM     55  C   UNL     1       4.629  11.180  -7.756  1.00  0.00     0.049 A 
ATOM     56  C   UNL     1       7.621   9.427  -3.303  1.00  0.00     0.074 A 
ATOM     57  C   UNL     1       4.164  11.872  -6.648  1.00  0.00     0.029 A 
ATOM     58  N   UNL     1       6.007  11.074  -7.600  1.00  0.00    -0.354 N 
ATOM     59  N   UNL     1       7.097  10.072  -4.306  1.00  0.00    -0.248 NA
ATOM     60  C   UNL     1       8.966   9.896  -2.976  1.00  0.00     0.031 C 
ATOM     61  C   UNL     1       5.263  12.162  -5.811  1.00  0.00     0.029 A 
ATOM     62  C   UNL     1       6.401  11.646  -6.403  1.00  0.00     0.049 A 
ATOM     63  H   UNL     1       6.615  10.652  -8.248  1.00  0.00     0.167 HD
ATOM     64  C   UNL     1       8.026  10.938  -4.821  1.00  0.00     0.074 A 
ATOM     65  C   UNL     1       9.162  10.826  -3.926  1.00  0.00     0.031 C 
ATOM     66  C   UNL     1       7.791  11.634  -5.970  1.00  0.00     0.037 A 
BRANCH  53  67
ATOM     67  C   UNL     1       2.969  10.979  -9.783  1.00  0.00     0.057 A 
ATOM     68  C   UNL     1       2.287  12.186  -9.550  1.00  0.00     0.134 A 
ATOM     69  C   UNL     1       2.626  10.329 -10.981  1.00  0.00     0.134 A 
ATOM     70  F   UNL     1       2.590  12.983  -8.519  1.00  0.00    -0.206 F 
ATOM     71  C   UNL     1       1.239  12.630 -10.365  1.00  0.00     0.040 A 
ATOM     72  C   UNL     1       1.545  10.730 -11.776  1.00  0.00     0.040 A 
ATOM     73  F   UNL     1       3.333   9.278 -11.423  1.00  0.00    -0.206 F 
ATOM     74  C   UNL     1       0.832  11.877 -11.456  1.00  0.00     0.006 A 
ENDBRANCH  53  67
BRANCH  54  75
ATOM     75  C   UNL     1       7.654   6.983  -2.303  1.00  0.00     0.057 A 
ATOM     76  C   UNL     1       7.232   6.256  -1.178  1.00  0.00     0.134 A 
ATOM     77  C   UNL     1       8.395   6.300  -3.272  1.00  0.00     0.134 A 
ATOM     78  F   UNL     1       6.514   6.853  -0.214  1.00  0.00    -0.206 F 
ATOM     79  C   UNL     1       7.415   4.875  -1.094  1.00  0.00     0.040 A 
ATOM     80  C   UNL     1       8.587   4.918  -3.192  1.00  0.00     0.040 A 
ATOM     81  F   UNL     1       8.805   6.926  -4.383  1.00  0.00    -0.206 F 
ATOM     82  C   UNL     1       8.053   4.195  -2.127  1.00  0.00     0.006 A 
ENDBRANCH  54  75
BRANCH  66  83
ATOM     83  C   UNL     1       8.817  12.438  -6.722  1.00  0.00     0.057 A 
ATOM     84  C   UNL     1      10.181  12.116  -6.777  1.00  0.00     0.134 A 
ATOM     85  C   UNL     1       8.421  13.524  -7.532  1.00  0.00     0.134 A 
ATOM     86  F   UNL     1      10.671  11.037  -6.152  1.00  0.00    -0.206 F 
ATOM     87  C   UNL     1      11.100  12.865  -7.525  1.00  0.00     0.040 A 
ATOM     88  C   UNL     1       9.319  14.248  -8.320  1.00  0.00     0.040 A 
ATOM     89  F   UNL     1       7.139  13.914  -7.603  1.00  0.00    -0.206 F 
ATOM     90  C   UNL     1      10.669  13.931  -8.305  1.00  0.00     0.006 A 
ENDBRANCH  66  83
ENDBRANCH  40  41
ENDBRANCH  32  35
ENDBRANCH  30  31
ENDBRANCH   1  30
TORSDOF 12
