REMARK SMILES O=C(C[C@@H]([NH2+]Cc1ccccc1)C(=O)NCCCCNC(=O)c1ccc(-c2c3nc(c(-c4c(F)cccc4F)c4ccc([nH]4)c(-c4c(F)cccc4F)c4nc(c(-c5c(F)cccc5F)c5ccc2[nH]5)C=C4)C=C3)cc1)Nc1cccc(Cl)c1Cl
REMARK SMILES IDX 17 1 16 2 15 3 13 4 14 5 4 7 3 8 2 9 1 10 77 11 78 13 79 14
REMARK SMILES IDX 84 15 80 16 82 17 85 18 81 19 83 20 5 21 6 24 7 25 8 26
REMARK SMILES IDX 12 27 9 28 11 29 10 30 18 31 19 32 20 33 21 34 22 36 23 37
REMARK SMILES IDX 24 38 76 39 25 40 75 41 26 42 27 43 28 44 69 45 29 46 74 47
REMARK SMILES IDX 68 48 70 49 30 50 73 51 67 52 66 53 31 55 57 56 40 57 56 58
REMARK SMILES IDX 41 59 44 60 55 61 71 62 42 63 43 64 54 66 72 67 45 68 32 69
REMARK SMILES IDX 33 70 38 71 34 72 35 73 37 74 39 75 36 76 58 77 59 78 64 79
REMARK SMILES IDX 60 80 61 81 63 82 65 83 62 84 46 85 47 86 52 87 48 88 49 89
REMARK SMILES IDX 51 90 53 91 50 92
REMARK H PARENT 15 6 77 12 5 22 5 23 20 35 70 54 44 65
REMARK Flexibility Score: inf
ROOT
ATOM      1  C   UNL     1       5.336  -0.170  -3.466  1.00  0.00     0.023 C 
ENDROOT
BRANCH   1   2
ATOM      2  C   UNL     1       5.868   0.535  -2.217  1.00  0.00     0.116 C 
BRANCH   2   3
ATOM      3  N   UNL     1       5.498   1.938  -2.198  1.00  0.00    -0.351 N 
ATOM      4  C   UNL     1       4.620   2.610  -1.398  1.00  0.00     0.278 C 
ATOM      5  O   UNL     1       4.509   3.826  -1.579  1.00  0.00    -0.268 OA
ATOM      6  H   UNL     1       5.953   2.494  -2.871  1.00  0.00     0.163 HD
BRANCH   4   7
ATOM      7  C   UNL     1       3.810   1.898  -0.294  1.00  0.00     0.282 C 
BRANCH   7   8
ATOM      8  C   UNL     1       2.822   0.914  -0.937  1.00  0.00     0.175 C 
BRANCH   8   9
ATOM      9  C   UNL     1       1.982   0.170   0.071  1.00  0.00     0.230 C 
ATOM     10  O   UNL     1       0.825   0.491   0.317  1.00  0.00    -0.274 OA
ATOM     11  N   UNL     1       2.688  -0.843   0.705  1.00  0.00    -0.325 N 
ATOM     12  H   UNL     1       3.647  -0.937   0.504  1.00  0.00     0.169 HD
BRANCH  11  13
ATOM     13  C   UNL     1       2.110  -1.746   1.622  1.00  0.00     0.061 A 
ATOM     14  C   UNL     1       2.798  -1.924   2.831  1.00  0.00     0.028 A 
ATOM     15  C   UNL     1       0.933  -2.481   1.370  1.00  0.00     0.083 A 
ATOM     16  C   UNL     1       2.281  -2.756   3.822  1.00  0.00     0.004 A 
ATOM     17  C   UNL     1       0.432  -3.332   2.369  1.00  0.00     0.061 A 
ATOM     18  Cl  UNL     1       0.222  -2.500  -0.218  1.00  0.00    -0.080 Cl
ATOM     19  C   UNL     1       1.096  -3.452   3.595  1.00  0.00     0.022 A 
ATOM     20  Cl  UNL     1      -0.984  -4.302   2.146  1.00  0.00    -0.083 Cl
ENDBRANCH  11  13
ENDBRANCH   8   9
ENDBRANCH   7   8
BRANCH   7  21
ATOM     21  N   UNL     1       4.700   1.256   0.725  1.00  0.00    -0.332 N 
ATOM     22  H   UNL     1       5.235   0.517   0.270  1.00  0.00     0.347 HD
ATOM     23  H   UNL     1       4.102   0.891   1.466  1.00  0.00     0.347 HD
BRANCH  21  24
ATOM     24  C   UNL     1       5.644   2.210   1.344  1.00  0.00     0.297 C 
BRANCH  24  25
ATOM     25  C   UNL     1       4.967   3.211   2.251  1.00  0.00     0.006 A 
ATOM     26  C   UNL     1       5.062   4.584   1.985  1.00  0.00     0.009 A 
ATOM     27  C   UNL     1       4.220   2.787   3.362  1.00  0.00     0.009 A 
ATOM     28  C   UNL     1       4.411   5.509   2.803  1.00  0.00     0.001 A 
ATOM     29  C   UNL     1       3.556   3.713   4.167  1.00  0.00     0.001 A 
ATOM     30  C   UNL     1       3.652   5.073   3.887  1.00  0.00     0.000 A 
ENDBRANCH  24  25
ENDBRANCH  21  24
ENDBRANCH   7  21
ENDBRANCH   4   7
ENDBRANCH   2   3
ENDBRANCH   1   2
BRANCH   1  31
ATOM     31  C   UNL     1       5.967   0.291  -4.780  1.00  0.00     0.023 C 
BRANCH  31  32
ATOM     32  C   UNL     1       7.480   0.133  -4.860  1.00  0.00     0.116 C 
BRANCH  32  33
ATOM     33  N   UNL     1       7.920  -1.246  -4.711  1.00  0.00    -0.352 N 
ATOM     34  C   UNL     1       8.936  -1.887  -5.379  1.00  0.00     0.251 C 
ATOM     35  H   UNL     1       7.430  -1.787  -4.050  1.00  0.00     0.163 HD
ATOM     36  O   UNL     1       9.132  -3.088  -5.227  1.00  0.00    -0.269 OA
BRANCH  34  37
ATOM     37  C   UNL     1       9.771  -1.109  -6.315  1.00  0.00     0.039 A 
ATOM     38  C   UNL     1       9.905  -1.548  -7.634  1.00  0.00     0.014 A 
ATOM     39  C   UNL     1      10.361   0.086  -5.896  1.00  0.00     0.014 A 
ATOM     40  C   UNL     1      10.576  -0.747  -8.560  1.00  0.00     0.010 A 
ATOM     41  C   UNL     1      10.974   0.909  -6.833  1.00  0.00     0.010 A 
ATOM     42  C   UNL     1      11.082   0.503  -8.173  1.00  0.00    -0.014 A 
BRANCH  42  43
ATOM     43  C   UNL     1      11.745   1.416  -9.136  1.00  0.00     0.031 A 
ATOM     44  C   UNL     1      13.194   1.759  -8.946  1.00  0.00     0.074 A 
ATOM     45  C   UNL     1      11.025   2.018 -10.102  1.00  0.00     0.049 A 
ATOM     46  N   UNL     1      13.913   2.678  -9.537  1.00  0.00    -0.248 NA
ATOM     47  C   UNL     1      13.921   0.986  -7.927  1.00  0.00     0.031 C 
ATOM     48  C   UNL     1       9.604   1.789 -10.372  1.00  0.00     0.029 A 
ATOM     49  N   UNL     1      11.388   2.972 -11.019  1.00  0.00    -0.354 N 
ATOM     50  C   UNL     1      15.164   2.617  -8.938  1.00  0.00     0.074 A 
ATOM     51  C   UNL     1      15.097   1.595  -7.916  1.00  0.00     0.031 C 
ATOM     52  C   UNL     1       9.218   2.577 -11.388  1.00  0.00     0.029 A 
ATOM     53  C   UNL     1      10.349   3.397 -11.811  1.00  0.00     0.049 A 
ATOM     54  H   UNL     1      12.306   3.318 -11.102  1.00  0.00     0.167 HD
ATOM     55  C   UNL     1      16.271   3.341  -9.223  1.00  0.00     0.037 A 
ATOM     56  C   UNL     1      10.310   4.357 -12.755  1.00  0.00     0.037 A 
ATOM     57  C   UNL     1      16.344   4.327 -10.267  1.00  0.00     0.049 A 
ATOM     58  C   UNL     1      11.556   5.141 -13.061  1.00  0.00     0.074 A 
ATOM     59  C   UNL     1      17.435   5.077 -10.670  1.00  0.00     0.029 A 
ATOM     60  N   UNL     1      15.282   4.692 -11.081  1.00  0.00    -0.354 N 
ATOM     61  N   UNL     1      12.742   5.053 -12.511  1.00  0.00    -0.248 NA
ATOM     62  C   UNL     1      11.458   6.159 -14.118  1.00  0.00     0.031 C 
ATOM     63  C   UNL     1      17.025   5.917 -11.711  1.00  0.00     0.029 A 
ATOM     64  C   UNL     1      15.690   5.662 -11.979  1.00  0.00     0.049 A 
ATOM     65  H   UNL     1      14.374   4.317 -11.026  1.00  0.00     0.167 HD
ATOM     66  C   UNL     1      13.540   5.975 -13.176  1.00  0.00     0.074 A 
ATOM     67  C   UNL     1      12.703   6.613 -14.170  1.00  0.00     0.031 C 
ATOM     68  C   UNL     1      14.849   6.263 -12.982  1.00  0.00     0.037 A 
BRANCH  55  69
ATOM     69  C   UNL     1      17.492   3.089  -8.391  1.00  0.00     0.057 A 
ATOM     70  C   UNL     1      18.240   1.911  -8.515  1.00  0.00     0.134 A 
ATOM     71  C   UNL     1      17.938   4.045  -7.470  1.00  0.00     0.134 A 
ATOM     72  F   UNL     1      17.857   0.949  -9.368  1.00  0.00    -0.206 F 
ATOM     73  C   UNL     1      19.374   1.682  -7.734  1.00  0.00     0.040 A 
ATOM     74  C   UNL     1      19.085   3.838  -6.702  1.00  0.00     0.040 A 
ATOM     75  F   UNL     1      17.270   5.197  -7.306  1.00  0.00    -0.206 F 
ATOM     76  C   UNL     1      19.802   2.650  -6.828  1.00  0.00     0.006 A 
ENDBRANCH  55  69
BRANCH  56  77
ATOM     77  C   UNL     1       9.050   4.621 -13.493  1.00  0.00     0.057 A 
ATOM     78  C   UNL     1       8.912   4.248 -14.835  1.00  0.00     0.134 A 
ATOM     79  C   UNL     1       7.960   5.252 -12.883  1.00  0.00     0.134 A 
ATOM     80  F   UNL     1       9.930   3.657 -15.478  1.00  0.00    -0.206 F 
ATOM     81  C   UNL     1       7.742   4.506 -15.550  1.00  0.00     0.040 A 
ATOM     82  C   UNL     1       6.775   5.498 -13.579  1.00  0.00     0.040 A 
ATOM     83  F   UNL     1       8.027   5.628 -11.597  1.00  0.00    -0.206 F 
ATOM     84  C   UNL     1       6.666   5.130 -14.919  1.00  0.00     0.006 A 
ENDBRANCH  56  77
BRANCH  68  85
ATOM     85  C   UNL     1      15.479   7.269 -13.897  1.00  0.00     0.057 A 
ATOM     86  C   UNL     1      15.260   8.643 -13.748  1.00  0.00     0.134 A 
ATOM     87  C   UNL     1      16.372   6.855 -14.894  1.00  0.00     0.134 A 
ATOM     88  F   UNL     1      14.407   9.099 -12.819  1.00  0.00    -0.206 F 
ATOM     89  C   UNL     1      15.904   9.572 -14.566  1.00  0.00     0.040 A 
ATOM     90  C   UNL     1      17.036   7.775 -15.704  1.00  0.00     0.040 A 
ATOM     91  F   UNL     1      16.628   5.551 -15.080  1.00  0.00    -0.206 F 
ATOM     92  C   UNL     1      16.802   9.139 -15.541  1.00  0.00     0.006 A 
ENDBRANCH  68  85
ENDBRANCH  42  43
ENDBRANCH  34  37
ENDBRANCH  32  33
ENDBRANCH  31  32
ENDBRANCH   1  31
TORSDOF 17
