REMARK SMILES O=C(NCCCCNC(=O)[C@H]1COc2c(O)cccc2C1)c1ccc(-c2c3nc(c(-c4c(F)cccc4F)c4ccc([nH]4)c(-c4c(F)cccc4F)c4nc(c(-c5c(F)cccc5F)c5ccc2[nH]5)C=C4)C=C3)cc1
REMARK SMILES IDX 5 1 4 2 3 3 1 4 2 5 22 7 23 8 75 9 24 10 74 11 25 12 26 13
REMARK SMILES IDX 27 14 68 15 28 16 73 17 67 18 69 19 29 20 72 21 66 22 65 23
REMARK SMILES IDX 30 25 56 26 39 27 55 28 40 29 43 30 54 31 70 32 41 33 42 34
REMARK SMILES IDX 53 36 71 37 44 38 31 39 32 40 37 41 33 42 34 43 36 44 38 45
REMARK SMILES IDX 35 46 57 47 58 48 63 49 59 50 60 51 62 52 64 53 61 54 45 55
REMARK SMILES IDX 46 56 51 57 47 58 48 59 50 60 52 61 49 62 6 63 7 64 8 65
REMARK SMILES IDX 9 66 10 68 11 69 12 70 21 71 13 72 20 73 14 74 19 75 15 76
REMARK SMILES IDX 18 77 17 78 16 79
REMARK H PARENT 3 6 69 24 43 35 8 67 16 80
REMARK Flexibility Score: inf
ROOT
ATOM      1  C   UNL     1       4.939   8.111   0.648  1.00  0.00     0.023 C 
ENDROOT
BRANCH   1   2
ATOM      2  C   UNL     1       4.425   9.418   1.243  1.00  0.00     0.116 C 
BRANCH   2   3
ATOM      3  N   UNL     1       5.414  10.486   1.194  1.00  0.00    -0.352 N 
ATOM      4  O   UNL     1       6.320  12.441   0.521  1.00  0.00    -0.269 OA
ATOM      5  C   UNL     1       5.337  11.717   0.590  1.00  0.00     0.251 C 
ATOM      6  H   UNL     1       6.260  10.298   1.662  1.00  0.00     0.163 HD
BRANCH   5   7
ATOM      7  C   UNL     1       4.055  12.148  -0.001  1.00  0.00     0.039 A 
ATOM      8  C   UNL     1       2.878  12.098   0.750  1.00  0.00     0.014 A 
ATOM      9  C   UNL     1       4.037  12.585  -1.327  1.00  0.00     0.014 A 
ATOM     10  C   UNL     1       1.659  12.369   0.137  1.00  0.00     0.010 A 
ATOM     11  C   UNL     1       2.820  12.909  -1.926  1.00  0.00     0.010 A 
ATOM     12  C   UNL     1       1.621  12.771  -1.207  1.00  0.00    -0.014 A 
BRANCH  12  13
ATOM     13  C   UNL     1       0.322  13.075  -1.849  1.00  0.00     0.031 A 
ATOM     14  C   UNL     1      -0.240  12.168  -2.905  1.00  0.00     0.074 A 
ATOM     15  C   UNL     1      -0.342  14.184  -1.476  1.00  0.00     0.049 A 
ATOM     16  N   UNL     1      -1.339  12.297  -3.603  1.00  0.00    -0.248 NA
ATOM     17  C   UNL     1       0.534  10.957  -3.223  1.00  0.00     0.031 C 
ATOM     18  C   UNL     1       0.112  15.136  -0.459  1.00  0.00     0.029 A 
ATOM     19  N   UNL     1      -1.532  14.703  -1.913  1.00  0.00    -0.354 N 
ATOM     20  C   UNL     1      -1.387  11.195  -4.447  1.00  0.00     0.074 A 
ATOM     21  C   UNL     1      -0.194  10.416  -4.191  1.00  0.00     0.031 C 
ATOM     22  C   UNL     1      -0.790  16.124  -0.352  1.00  0.00     0.029 A 
ATOM     23  C   UNL     1      -1.856  15.899  -1.322  1.00  0.00     0.049 A 
ATOM     24  H   UNL     1      -2.099  14.261  -2.586  1.00  0.00     0.167 HD
ATOM     25  C   UNL     1      -2.345  10.864  -5.345  1.00  0.00     0.037 A 
ATOM     26  C   UNL     1      -2.881  16.736  -1.561  1.00  0.00     0.037 A 
ATOM     27  C   UNL     1      -3.535  11.640  -5.583  1.00  0.00     0.049 A 
ATOM     28  C   UNL     1      -3.887  16.377  -2.616  1.00  0.00     0.074 A 
ATOM     29  C   UNL     1      -4.602  11.350  -6.415  1.00  0.00     0.029 A 
ATOM     30  N   UNL     1      -3.804  12.868  -5.000  1.00  0.00    -0.354 N 
ATOM     31  N   UNL     1      -3.956  15.299  -3.359  1.00  0.00    -0.248 NA
ATOM     32  C   UNL     1      -4.951  17.357  -2.873  1.00  0.00     0.031 C 
ATOM     33  C   UNL     1      -5.493  12.429  -6.376  1.00  0.00     0.029 A 
ATOM     34  C   UNL     1      -4.999  13.372  -5.489  1.00  0.00     0.049 A 
ATOM     35  H   UNL     1      -3.232  13.317  -4.336  1.00  0.00     0.167 HD
ATOM     36  C   UNL     1      -5.072  15.467  -4.166  1.00  0.00     0.074 A 
ATOM     37  C   UNL     1      -5.665  16.738  -3.803  1.00  0.00     0.031 C 
ATOM     38  C   UNL     1      -5.561  14.646  -5.127  1.00  0.00     0.037 A 
BRANCH  25  39
ATOM     39  C   UNL     1      -2.145   9.617  -6.154  1.00  0.00     0.057 A 
ATOM     40  C   UNL     1      -1.842   9.696  -7.519  1.00  0.00     0.134 A 
ATOM     41  C   UNL     1      -2.314   8.342  -5.602  1.00  0.00     0.134 A 
ATOM     42  F   UNL     1      -1.673  10.888  -8.111  1.00  0.00    -0.206 F 
ATOM     43  C   UNL     1      -1.721   8.551  -8.308  1.00  0.00     0.040 A 
ATOM     44  C   UNL     1      -2.176   7.188  -6.376  1.00  0.00     0.040 A 
ATOM     45  F   UNL     1      -2.595   8.197  -4.298  1.00  0.00    -0.206 F 
ATOM     46  C   UNL     1      -1.886   7.292  -7.736  1.00  0.00     0.006 A 
ENDBRANCH  25  39
BRANCH  26  47
ATOM     47  C   UNL     1      -2.982  18.018  -0.822  1.00  0.00     0.057 A 
ATOM     48  C   UNL     1      -2.074  19.059  -1.048  1.00  0.00     0.134 A 
ATOM     49  C   UNL     1      -4.006  18.242   0.103  1.00  0.00     0.134 A 
ATOM     50  F   UNL     1      -1.069  18.904  -1.923  1.00  0.00    -0.206 F 
ATOM     51  C   UNL     1      -2.177  20.277  -0.376  1.00  0.00     0.040 A 
ATOM     52  C   UNL     1      -4.136  19.464   0.764  1.00  0.00     0.040 A 
ATOM     53  F   UNL     1      -4.918  17.289   0.345  1.00  0.00    -0.206 F 
ATOM     54  C   UNL     1      -3.217  20.485   0.527  1.00  0.00     0.006 A 
ENDBRANCH  26  47
BRANCH  38  55
ATOM     55  C   UNL     1      -6.791  15.109  -5.847  1.00  0.00     0.057 A 
ATOM     56  C   UNL     1      -8.035  14.515  -5.602  1.00  0.00     0.134 A 
ATOM     57  C   UNL     1      -6.738  16.138  -6.796  1.00  0.00     0.134 A 
ATOM     58  F   UNL     1      -8.151  13.521  -4.708  1.00  0.00    -0.206 F 
ATOM     59  C   UNL     1      -9.184  14.928  -6.277  1.00  0.00     0.040 A 
ATOM     60  C   UNL     1      -7.885  16.576  -7.459  1.00  0.00     0.040 A 
ATOM     61  F   UNL     1      -5.579  16.759  -7.060  1.00  0.00    -0.206 F 
ATOM     62  C   UNL     1      -9.112  15.966  -7.204  1.00  0.00     0.006 A 
ENDBRANCH  38  55
ENDBRANCH  12  13
ENDBRANCH   5   7
ENDBRANCH   2   3
ENDBRANCH   1   2
BRANCH   1  63
ATOM     63  C   UNL     1       6.224   7.573   1.274  1.00  0.00     0.023 C 
BRANCH  63  64
ATOM     64  C   UNL     1       6.183   7.377   2.786  1.00  0.00     0.116 C 
BRANCH  64  65
ATOM     65  N   UNL     1       5.286   6.311   3.176  1.00  0.00    -0.356 N 
ATOM     66  C   UNL     1       5.381   5.286   4.056  1.00  0.00     0.226 C 
ATOM     67  H   UNL     1       4.425   6.335   2.700  1.00  0.00     0.163 HD
ATOM     68  O   UNL     1       4.364   4.582   4.132  1.00  0.00    -0.275 OA
BRANCH  66  69
ATOM     69  C   UNL     1       6.647   4.888   4.831  1.00  0.00     0.120 C 
ATOM     70  C   UNL     1       7.652   5.954   5.235  1.00  0.00     0.243 C 
ATOM     71  C   UNL     1       6.222   4.242   6.166  1.00  0.00     0.056 C 
ATOM     72  O   UNL     1       7.023   7.052   5.899  1.00  0.00    -0.489 OA
ATOM     73  C   UNL     1       5.855   5.315   7.164  1.00  0.00    -0.001 A 
ATOM     74  C   UNL     1       6.252   6.645   6.963  1.00  0.00     0.164 A 
ATOM     75  C   UNL     1       5.114   4.995   8.309  1.00  0.00     0.008 A 
ATOM     76  C   UNL     1       5.841   7.640   7.850  1.00  0.00     0.157 A 
ATOM     77  C   UNL     1       4.737   5.997   9.210  1.00  0.00     0.004 A 
ATOM     78  C   UNL     1       5.090   7.326   8.973  1.00  0.00     0.050 A 
BRANCH  76  79
ATOM     79  O   UNL     1       6.174   8.946   7.627  1.00  0.00    -0.504 OA
ATOM     80  H   UNL     1       6.681   9.178   6.874  1.00  0.00     0.293 HD
ENDBRANCH  76  79
ENDBRANCH  66  69
ENDBRANCH  64  65
ENDBRANCH  63  64
ENDBRANCH   1  63
TORSDOF 12
