REMARK SMILES O=C(NCCCCNC(=O)c1ccc([C@@H]2CC(O)=Nc3c2ncn3-c2cccc(Cl)c2)cc1)c1ccc(-c2c3nc(c(-c4c(F)cccc4F)c4ccc([nH]4)c(-c4c(F)cccc4F)c4nc(c(-c5c(F)cccc5F)c5ccc2[nH]5)C=C4)C=C3)cc1
REMARK SMILES IDX 5 1 4 2 3 3 1 4 2 5 34 7 35 8 87 9 36 10 86 11 37 12 38 13
REMARK SMILES IDX 39 14 80 15 40 16 85 17 79 18 81 19 41 20 84 21 78 22 77 23
REMARK SMILES IDX 42 25 68 26 51 27 67 28 52 29 55 30 66 31 82 32 53 33 54 34
REMARK SMILES IDX 65 36 83 37 56 38 43 39 44 40 49 41 45 42 46 43 48 44 50 45
REMARK SMILES IDX 47 46 69 47 70 48 75 49 71 50 72 51 74 52 76 53 73 54 57 55
REMARK SMILES IDX 58 56 63 57 59 58 60 59 62 60 64 61 61 62 6 63 7 64 8 65
REMARK SMILES IDX 9 66 10 68 11 69 12 70 33 71 13 72 32 73 14 74 15 75 16 76
REMARK SMILES IDX 21 77 17 78 20 79 22 80 19 81 24 82 23 83 18 84 25 86 26 87
REMARK SMILES IDX 31 88 27 89 29 90 28 91 30 92
REMARK H PARENT 3 6 81 24 55 35 8 67 18 85
REMARK Flexibility Score: inf
ROOT
ATOM      1  C   UNL     1       4.963   1.901   1.111  1.00  0.00     0.023 C 
ENDROOT
BRANCH   1   2
ATOM      2  C   UNL     1       4.636   0.453   0.752  1.00  0.00     0.116 C 
BRANCH   2   3
ATOM      3  N   UNL     1       3.223   0.134   0.746  1.00  0.00    -0.352 N 
ATOM      4  O   UNL     1       1.152  -0.326   0.146  1.00  0.00    -0.269 OA
ATOM      5  C   UNL     1       2.207   0.235  -0.165  1.00  0.00     0.251 C 
ATOM      6  H   UNL     1       2.921  -0.247   1.602  1.00  0.00     0.163 HD
BRANCH   5   7
ATOM      7  C   UNL     1       2.252   1.000  -1.444  1.00  0.00     0.039 A 
ATOM      8  C   UNL     1       3.394   1.503  -2.065  1.00  0.00     0.014 A 
ATOM      9  C   UNL     1       1.004   1.224  -2.064  1.00  0.00     0.014 A 
ATOM     10  C   UNL     1       3.285   2.255  -3.239  1.00  0.00     0.010 A 
ATOM     11  C   UNL     1       0.890   1.970  -3.236  1.00  0.00     0.010 A 
ATOM     12  C   UNL     1       2.033   2.505  -3.817  1.00  0.00    -0.014 A 
BRANCH  12  13
ATOM     13  C   UNL     1       1.989   3.139  -5.138  1.00  0.00     0.031 A 
ATOM     14  C   UNL     1       2.604   2.318  -6.223  1.00  0.00     0.074 A 
ATOM     15  C   UNL     1       1.331   4.277  -5.447  1.00  0.00     0.049 A 
ATOM     16  N   UNL     1       3.633   2.604  -6.952  1.00  0.00    -0.248 NA
ATOM     17  C   UNL     1       2.067   0.968  -6.453  1.00  0.00     0.031 C 
ATOM     18  C   UNL     1       0.415   5.044  -4.603  1.00  0.00     0.029 A 
ATOM     19  N   UNL     1       1.282   4.948  -6.639  1.00  0.00    -0.354 N 
ATOM     20  C   UNL     1       3.770   1.552  -7.858  1.00  0.00     0.074 A 
ATOM     21  C   UNL     1       2.875   0.518  -7.414  1.00  0.00     0.031 C 
ATOM     22  C   UNL     1      -0.249   5.945  -5.365  1.00  0.00     0.029 A 
ATOM     23  C   UNL     1       0.283   5.913  -6.718  1.00  0.00     0.049 A 
ATOM     24  H   UNL     1       1.903   4.762  -7.380  1.00  0.00     0.167 HD
ATOM     25  C   UNL     1       4.456   1.708  -9.025  1.00  0.00     0.037 A 
ATOM     26  C   UNL     1      -0.106   6.606  -7.821  1.00  0.00     0.037 A 
ATOM     27  C   UNL     1       5.335   2.848  -8.962  1.00  0.00     0.049 A 
ATOM     28  C   UNL     1       0.983   6.521  -8.821  1.00  0.00     0.074 A 
ATOM     29  C   UNL     1       6.391   3.230  -8.158  1.00  0.00     0.029 A 
ATOM     30  N   UNL     1       4.959   3.981  -9.638  1.00  0.00    -0.354 N 
ATOM     31  N   UNL     1       2.126   7.133  -8.717  1.00  0.00    -0.248 NA
ATOM     32  C   UNL     1       0.943   5.427  -9.778  1.00  0.00     0.031 C 
ATOM     33  C   UNL     1       6.263   4.644  -8.027  1.00  0.00     0.029 A 
ATOM     34  C   UNL     1       5.177   5.043  -8.806  1.00  0.00     0.049 A 
ATOM     35  H   UNL     1       4.599   4.021 -10.554  1.00  0.00     0.167 HD
ATOM     36  C   UNL     1       3.046   6.234  -9.229  1.00  0.00     0.074 A 
ATOM     37  C   UNL     1       2.252   5.256  -9.969  1.00  0.00     0.031 C 
ATOM     38  C   UNL     1       4.329   6.209  -8.766  1.00  0.00     0.037 A 
BRANCH  25  39
ATOM     39  C   UNL     1       4.051   1.087 -10.347  1.00  0.00     0.057 A 
ATOM     40  C   UNL     1       4.857   1.314 -11.481  1.00  0.00     0.134 A 
ATOM     41  C   UNL     1       2.772   0.567 -10.626  1.00  0.00     0.134 A 
ATOM     42  F   UNL     1       6.102   1.800 -11.358  1.00  0.00    -0.206 F 
ATOM     43  C   UNL     1       4.383   1.151 -12.789  1.00  0.00     0.040 A 
ATOM     44  C   UNL     1       2.307   0.352 -11.927  1.00  0.00     0.040 A 
ATOM     45  F   UNL     1       1.864   0.331  -9.672  1.00  0.00    -0.206 F 
ATOM     46  C   UNL     1       3.097   0.683 -13.015  1.00  0.00     0.006 A 
ENDBRANCH  25  39
BRANCH  26  47
ATOM     47  C   UNL     1      -1.434   7.148  -8.198  1.00  0.00     0.057 A 
ATOM     48  C   UNL     1      -1.571   8.091  -9.231  1.00  0.00     0.134 A 
ATOM     49  C   UNL     1      -2.622   6.534  -7.768  1.00  0.00     0.134 A 
ATOM     50  F   UNL     1      -0.495   8.708  -9.740  1.00  0.00    -0.206 F 
ATOM     51  C   UNL     1      -2.808   8.377  -9.826  1.00  0.00     0.040 A 
ATOM     52  C   UNL     1      -3.864   6.816  -8.348  1.00  0.00     0.040 A 
ATOM     53  F   UNL     1      -2.602   5.571  -6.835  1.00  0.00    -0.206 F 
ATOM     54  C   UNL     1      -3.958   7.727  -9.393  1.00  0.00     0.006 A 
ENDBRANCH  26  47
BRANCH  38  55
ATOM     55  C   UNL     1       4.810   7.372  -7.948  1.00  0.00     0.057 A 
ATOM     56  C   UNL     1       4.256   7.769  -6.722  1.00  0.00     0.134 A 
ATOM     57  C   UNL     1       5.973   8.033  -8.361  1.00  0.00     0.134 A 
ATOM     58  F   UNL     1       3.202   7.133  -6.193  1.00  0.00    -0.206 F 
ATOM     59  C   UNL     1       4.810   8.809  -5.968  1.00  0.00     0.040 A 
ATOM     60  C   UNL     1       6.558   9.045  -7.599  1.00  0.00     0.040 A 
ATOM     61  F   UNL     1       6.588   7.673  -9.499  1.00  0.00    -0.206 F 
ATOM     62  C   UNL     1       5.970   9.445  -6.403  1.00  0.00     0.006 A 
ENDBRANCH  38  55
ENDBRANCH  12  13
ENDBRANCH   5   7
ENDBRANCH   2   3
ENDBRANCH   1   2
BRANCH   1  63
ATOM     63  C   UNL     1       4.459   2.376   2.479  1.00  0.00     0.023 C 
BRANCH  63  64
ATOM     64  C   UNL     1       4.881   1.539   3.686  1.00  0.00     0.116 C 
BRANCH  64  65
ATOM     65  N   UNL     1       6.321   1.489   3.869  1.00  0.00    -0.352 N 
ATOM     66  C   UNL     1       7.080   1.801   4.975  1.00  0.00     0.251 C 
ATOM     67  H   UNL     1       6.832   1.185   3.084  1.00  0.00     0.163 HD
ATOM     68  O   UNL     1       8.299   1.811   4.894  1.00  0.00    -0.269 OA
BRANCH  66  69
ATOM     69  C   UNL     1       6.429   2.149   6.259  1.00  0.00     0.039 A 
ATOM     70  C   UNL     1       6.866   3.289   6.936  1.00  0.00     0.014 A 
ATOM     71  C   UNL     1       5.431   1.345   6.817  1.00  0.00     0.014 A 
ATOM     72  C   UNL     1       6.254   3.663   8.134  1.00  0.00     0.005 A 
ATOM     73  C   UNL     1       4.811   1.726   8.009  1.00  0.00     0.005 A 
ATOM     74  C   UNL     1       5.207   2.897   8.679  1.00  0.00    -0.038 A 
BRANCH  74  75
ATOM     75  C   UNL     1       4.569   3.339   9.986  1.00  0.00     0.081 C 
ATOM     76  C   UNL     1       4.675   2.263  11.090  1.00  0.00     0.111 C 
ATOM     77  C   UNL     1       3.154   3.675   9.685  1.00  0.00     0.093 A 
ATOM     78  C   UNL     1       3.361   1.606  11.479  1.00  0.00     0.188 C 
ATOM     79  C   UNL     1       2.113   3.033  10.318  1.00  0.00     0.164 A 
ATOM     80  N   UNL     1       2.702   4.588   8.771  1.00  0.00    -0.238 NA
ATOM     81  N   UNL     1       2.162   1.985  11.174  1.00  0.00    -0.198 NA
ATOM     82  N   UNL     1       0.965   3.585   9.784  1.00  0.00    -0.283 N 
ATOM     83  C   UNL     1       1.389   4.476   8.818  1.00  0.00     0.206 A 
BRANCH  78  84
ATOM     84  O   UNL     1       3.501   0.526  12.274  1.00  0.00    -0.496 OA
ATOM     85  H   UNL     1       4.357   0.228  12.512  1.00  0.00     0.294 HD
ENDBRANCH  78  84
BRANCH  82  86
ATOM     86  C   UNL     1      -0.371   3.301  10.149  1.00  0.00     0.050 A 
ATOM     87  C   UNL     1      -1.364   3.198   9.169  1.00  0.00     0.027 A 
ATOM     88  C   UNL     1      -0.688   3.119  11.502  1.00  0.00     0.047 A 
ATOM     89  C   UNL     1      -2.668   2.864   9.545  1.00  0.00     0.004 A 
ATOM     90  C   UNL     1      -2.002   2.838  11.867  1.00  0.00     0.043 A 
ATOM     91  C   UNL     1      -2.989   2.693  10.893  1.00  0.00     0.020 A 
ATOM     92  Cl  UNL     1      -2.414   2.687  13.531  1.00  0.00    -0.084 Cl
ENDBRANCH  82  86
ENDBRANCH  74  75
ENDBRANCH  66  69
ENDBRANCH  64  65
ENDBRANCH  63  64
ENDBRANCH   1  63
TORSDOF 14
