REMARK SMILES C[C@@H](Nc1cccc(C(=O)NCCCCNC(=O)c2ccc(-c3c4nc(c(-c5c(F)cccc5F)c5ccc([nH]5)c(-c5c(F)cccc5F)c5nc(c(-c6c(F)cccc6F)c6ccc3[nH]6)C=C5)C=C4)cc2)c1)C1CC[NH+](C)CC1
REMARK SMILES IDX 13 1 12 2 11 3 9 4 10 5 8 7 4 8 5 9 73 10 6 11 7 12 3 13
REMARK SMILES IDX 2 15 1 16 74 17 75 18 80 19 76 20 79 21 77 22 78 23 14 25
REMARK SMILES IDX 15 26 16 27 17 28 18 30 19 31 20 32 72 33 21 34 71 35 22 36
REMARK SMILES IDX 23 37 24 38 65 39 25 40 70 41 64 42 66 43 26 44 69 45 63 46
REMARK SMILES IDX 62 47 27 49 53 50 36 51 52 52 37 53 40 54 51 55 67 56 38 57
REMARK SMILES IDX 39 58 50 60 68 61 41 62 28 63 29 64 34 65 30 66 31 67 33 68
REMARK SMILES IDX 35 69 32 70 54 71 55 72 60 73 56 74 57 75 59 76 61 77 58 78
REMARK SMILES IDX 42 79 43 80 48 81 44 82 45 83 47 84 49 85 46 86
REMARK H PARENT 11 6 3 14 77 24 16 29 66 48 40 59
REMARK Flexibility Score: inf
ROOT
ATOM      1  C   UNL     1      -1.793   5.400   1.457  1.00  0.00     0.023 C 
ENDROOT
BRANCH   1   2
ATOM      2  C   UNL     1      -2.791   4.687   0.543  1.00  0.00     0.116 C 
BRANCH   2   3
ATOM      3  N   UNL     1      -3.087   5.499  -0.616  1.00  0.00    -0.352 N 
ATOM      4  C   UNL     1      -2.573   5.524  -1.887  1.00  0.00     0.251 C 
ATOM      5  O   UNL     1      -3.059   6.355  -2.658  1.00  0.00    -0.269 OA
ATOM      6  H   UNL     1      -3.795   6.165  -0.462  1.00  0.00     0.163 HD
BRANCH   4   7
ATOM      7  C   UNL     1      -1.530   4.583  -2.403  1.00  0.00     0.041 A 
ATOM      8  C   UNL     1       0.226   2.892  -2.180  1.00  0.00     0.035 A 
ATOM      9  C   UNL     1       0.241   2.761  -3.574  1.00  0.00     0.026 A 
ATOM     10  C   UNL     1      -0.611   3.869  -1.622  1.00  0.00     0.039 A 
ATOM     11  C   UNL     1      -0.602   3.518  -4.381  1.00  0.00     0.003 A 
ATOM     12  C   UNL     1      -1.501   4.403  -3.795  1.00  0.00     0.014 A 
BRANCH   8  13
ATOM     13  N   UNL     1       0.928   1.959  -1.441  1.00  0.00    -0.382 N 
ATOM     14  H   UNL     1       1.680   1.525  -1.904  1.00  0.00     0.160 HD
BRANCH  13  15
ATOM     15  C   UNL     1       0.698   1.531  -0.054  1.00  0.00     0.079 C 
ATOM     16  C   UNL     1       1.676   0.378   0.208  1.00  0.00     0.031 C 
BRANCH  15  17
ATOM     17  C   UNL     1      -0.802   1.180   0.223  1.00  0.00     0.022 C 
ATOM     18  C   UNL     1      -1.220   1.524   1.663  1.00  0.00     0.067 C 
ATOM     19  C   UNL     1      -1.284  -0.233  -0.137  1.00  0.00     0.067 C 
ATOM     20  C   UNL     1      -0.895   0.434   2.673  1.00  0.00     0.262 C 
ATOM     21  C   UNL     1      -1.059  -1.283   0.953  1.00  0.00     0.262 C 
ATOM     22  N   UNL     1      -1.506  -0.835   2.277  1.00  0.00    -0.337 N 
ATOM     23  C   UNL     1      -1.224  -1.860   3.284  1.00  0.00     0.332 C 
ATOM     24  H   UNL     1      -2.513  -0.683   2.215  1.00  0.00     0.347 HD
ENDBRANCH  15  17
ENDBRANCH  13  15
ENDBRANCH   8  13
ENDBRANCH   4   7
ENDBRANCH   2   3
ENDBRANCH   1   2
BRANCH   1  25
ATOM     25  C   UNL     1      -2.447   6.367   2.447  1.00  0.00     0.023 C 
BRANCH  25  26
ATOM     26  C   UNL     1      -3.339   5.703   3.494  1.00  0.00     0.116 C 
BRANCH  26  27
ATOM     27  N   UNL     1      -2.635   4.743   4.333  1.00  0.00    -0.352 N 
ATOM     28  C   UNL     1      -2.866   4.432   5.652  1.00  0.00     0.251 C 
ATOM     29  H   UNL     1      -1.900   4.253   3.900  1.00  0.00     0.163 HD
ATOM     30  O   UNL     1      -2.118   3.663   6.248  1.00  0.00    -0.269 OA
BRANCH  28  31
ATOM     31  C   UNL     1      -3.993   5.074   6.360  1.00  0.00     0.039 A 
ATOM     32  C   UNL     1      -3.750   5.690   7.590  1.00  0.00     0.014 A 
ATOM     33  C   UNL     1      -5.269   5.110   5.791  1.00  0.00     0.014 A 
ATOM     34  C   UNL     1      -4.771   6.412   8.211  1.00  0.00     0.010 A 
ATOM     35  C   UNL     1      -6.264   5.886   6.377  1.00  0.00     0.010 A 
ATOM     36  C   UNL     1      -6.022   6.552   7.589  1.00  0.00    -0.014 A 
BRANCH  36  37
ATOM     37  C   UNL     1      -7.077   7.414   8.179  1.00  0.00     0.031 A 
ATOM     38  C   UNL     1      -8.370   6.818   8.657  1.00  0.00     0.074 A 
ATOM     39  C   UNL     1      -6.892   8.748   8.225  1.00  0.00     0.049 A 
ATOM     40  N   UNL     1      -9.417   7.417   9.166  1.00  0.00    -0.248 NA
ATOM     41  C   UNL     1      -8.519   5.361   8.519  1.00  0.00     0.031 C 
ATOM     42  C   UNL     1      -5.708   9.456   7.733  1.00  0.00     0.029 A 
ATOM     43  N   UNL     1      -7.703   9.748   8.700  1.00  0.00    -0.354 N 
ATOM     44  C   UNL     1     -10.350   6.415   9.398  1.00  0.00     0.074 A 
ATOM     45  C   UNL     1      -9.767   5.177   8.926  1.00  0.00     0.031 C 
ATOM     46  C   UNL     1      -5.858  10.771   7.957  1.00  0.00     0.029 A 
ATOM     47  C   UNL     1      -7.158  11.003   8.577  1.00  0.00     0.049 A 
ATOM     48  H   UNL     1      -8.590   9.581   9.092  1.00  0.00     0.167 HD
ATOM     49  C   UNL     1     -11.572   6.512   9.974  1.00  0.00     0.037 A 
ATOM     50  C   UNL     1      -7.652  12.206   8.927  1.00  0.00     0.037 A 
ATOM     51  C   UNL     1     -12.141   7.740  10.465  1.00  0.00     0.049 A 
ATOM     52  C   UNL     1      -9.004  12.286   9.577  1.00  0.00     0.074 A 
ATOM     53  C   UNL     1     -13.341   7.929  11.129  1.00  0.00     0.029 A 
ATOM     54  N   UNL     1     -11.550   8.988  10.344  1.00  0.00    -0.354 N 
ATOM     55  N   UNL     1      -9.841  11.319   9.866  1.00  0.00    -0.248 NA
ATOM     56  C   UNL     1      -9.477  13.624   9.957  1.00  0.00     0.031 C 
ATOM     57  C   UNL     1     -13.495   9.298  11.373  1.00  0.00     0.029 A 
ATOM     58  C   UNL     1     -12.371   9.956  10.900  1.00  0.00     0.049 A 
ATOM     59  H   UNL     1     -10.677   9.161   9.924  1.00  0.00     0.167 HD
ATOM     60  C   UNL     1     -10.928  11.927  10.479  1.00  0.00     0.074 A 
ATOM     61  C   UNL     1     -10.635  13.345  10.539  1.00  0.00     0.031 C 
ATOM     62  C   UNL     1     -12.066  11.363  10.950  1.00  0.00     0.037 A 
BRANCH  49  63
ATOM     63  C   UNL     1     -12.373   5.250  10.111  1.00  0.00     0.057 A 
ATOM     64  C   UNL     1     -12.014   4.245  11.019  1.00  0.00     0.134 A 
ATOM     65  C   UNL     1     -13.530   5.050   9.349  1.00  0.00     0.134 A 
ATOM     66  F   UNL     1     -10.909   4.370  11.770  1.00  0.00    -0.206 F 
ATOM     67  C   UNL     1     -12.764   3.074  11.146  1.00  0.00     0.040 A 
ATOM     68  C   UNL     1     -14.302   3.895   9.486  1.00  0.00     0.040 A 
ATOM     69  F   UNL     1     -13.933   5.974   8.465  1.00  0.00    -0.206 F 
ATOM     70  C   UNL     1     -13.915   2.900  10.382  1.00  0.00     0.006 A 
ENDBRANCH  49  63
BRANCH  50  71
ATOM     71  C   UNL     1      -6.849  13.433   8.697  1.00  0.00     0.057 A 
ATOM     72  C   UNL     1      -6.279  14.131   9.768  1.00  0.00     0.134 A 
ATOM     73  C   UNL     1      -6.637  13.940   7.410  1.00  0.00     0.134 A 
ATOM     74  F   UNL     1      -6.463  13.704  11.026  1.00  0.00    -0.206 F 
ATOM     75  C   UNL     1      -5.543  15.300   9.570  1.00  0.00     0.040 A 
ATOM     76  C   UNL     1      -5.884  15.095   7.195  1.00  0.00     0.040 A 
ATOM     77  F   UNL     1      -7.151  13.312   6.342  1.00  0.00    -0.206 F 
ATOM     78  C   UNL     1      -5.341  15.783   8.279  1.00  0.00     0.006 A 
ENDBRANCH  50  71
BRANCH  62  79
ATOM     79  C   UNL     1     -13.068  12.279  11.589  1.00  0.00     0.057 A 
ATOM     80  C   UNL     1     -13.844  13.166  10.832  1.00  0.00     0.134 A 
ATOM     81  C   UNL     1     -13.275  12.257  12.974  1.00  0.00     0.134 A 
ATOM     82  F   UNL     1     -13.684  13.246   9.503  1.00  0.00    -0.206 F 
ATOM     83  C   UNL     1     -14.773  14.016  11.434  1.00  0.00     0.040 A 
ATOM     84  C   UNL     1     -14.219  13.084  13.584  1.00  0.00     0.040 A 
ATOM     85  F   UNL     1     -12.569  11.425  13.755  1.00  0.00    -0.206 F 
ATOM     86  C   UNL     1     -14.966  13.972  12.813  1.00  0.00     0.006 A 
ENDBRANCH  62  79
ENDBRANCH  36  37
ENDBRANCH  28  31
ENDBRANCH  26  27
ENDBRANCH  25  26
ENDBRANCH   1  25
TORSDOF 14
