REMARK SMILES C[C@]1(CCC(=O)NCCCCNC(=O)c2ccc(-c3c4nc(c(-c5c(F)cccc5F)c5ccc([nH]5)c(-c5c(F)cccc5F)c5nc(c(-c6c(F)cccc6F)c6ccc3[nH]6)C=C5)C=C4)cc2)CCCCC1=O
REMARK SMILES IDX 9 1 8 2 7 3 5 4 6 5 4 7 3 8 2 9 1 10 69 11 73 12 70 13 72 14
REMARK SMILES IDX 74 15 71 16 10 17 11 18 12 19 13 20 14 22 15 23 16 24 68 25
REMARK SMILES IDX 17 26 67 27 18 28 19 29 20 30 61 31 21 32 66 33 60 34 62 35
REMARK SMILES IDX 22 36 65 37 59 38 58 39 23 41 49 42 32 43 48 44 33 45 36 46
REMARK SMILES IDX 47 47 63 48 34 49 35 50 46 52 64 53 37 54 24 55 25 56 30 57
REMARK SMILES IDX 26 58 27 59 29 60 31 61 28 62 50 63 51 64 56 65 52 66 53 67
REMARK SMILES IDX 55 68 57 69 54 70 38 71 39 72 44 73 40 74 41 75 43 76 45 77
REMARK SMILES IDX 42 78
REMARK H PARENT 7 6 12 21 62 40 36 51
REMARK Flexibility Score: inf
ROOT
ATOM      1  C   UNL     1      -1.090  -0.520   3.305  1.00  0.00     0.023 C 
ENDROOT
BRANCH   1   2
ATOM      2  C   UNL     1      -0.698  -1.911   2.805  1.00  0.00     0.116 C 
BRANCH   2   3
ATOM      3  N   UNL     1      -1.003  -2.144   1.403  1.00  0.00    -0.356 N 
ATOM      4  C   UNL     1      -0.263  -1.964   0.268  1.00  0.00     0.220 C 
ATOM      5  O   UNL     1      -0.772  -2.261  -0.816  1.00  0.00    -0.275 OA
ATOM      6  H   UNL     1      -1.908  -2.497   1.242  1.00  0.00     0.163 HD
BRANCH   4   7
ATOM      7  C   UNL     1       1.176  -1.469   0.319  1.00  0.00     0.101 C 
BRANCH   7   8
ATOM      8  C   UNL     1       1.453  -0.082  -0.329  1.00  0.00     0.024 C 
BRANCH   8   9
ATOM      9  C   UNL     1       1.005   1.207   0.439  1.00  0.00     0.027 C 
ATOM     10  C   UNL     1       1.337   1.067   1.941  1.00  0.00     0.019 C 
ATOM     11  C   UNL     1       1.850   2.462   0.029  1.00  0.00     0.014 C 
ATOM     12  C   UNL     1      -0.514   1.405   0.154  1.00  0.00     0.138 C 
ATOM     13  C   UNL     1       1.246   3.458  -0.944  1.00  0.00     0.001 C 
ATOM     14  C   UNL     1      -0.988   2.498  -0.767  1.00  0.00     0.076 C 
ATOM     15  O   UNL     1      -1.370   0.606   0.536  1.00  0.00    -0.299 OA
ATOM     16  C   UNL     1      -0.191   3.758  -0.570  1.00  0.00     0.008 C 
ENDBRANCH   8   9
ENDBRANCH   7   8
ENDBRANCH   4   7
ENDBRANCH   2   3
ENDBRANCH   1   2
BRANCH   1  17
ATOM     17  C   UNL     1      -2.556  -0.297   3.638  1.00  0.00     0.023 C 
BRANCH  17  18
ATOM     18  C   UNL     1      -2.810  -0.437   5.125  1.00  0.00     0.116 C 
BRANCH  18  19
ATOM     19  N   UNL     1      -2.111   0.571   5.931  1.00  0.00    -0.352 N 
ATOM     20  C   UNL     1      -2.512   1.135   7.118  1.00  0.00     0.251 C 
ATOM     21  H   UNL     1      -1.247   0.881   5.578  1.00  0.00     0.163 HD
ATOM     22  O   UNL     1      -1.854   2.012   7.667  1.00  0.00    -0.269 OA
BRANCH  20  23
ATOM     23  C   UNL     1      -3.804   0.702   7.675  1.00  0.00     0.039 A 
ATOM     24  C   UNL     1      -4.795   1.659   7.898  1.00  0.00     0.014 A 
ATOM     25  C   UNL     1      -4.080  -0.662   7.779  1.00  0.00     0.014 A 
ATOM     26  C   UNL     1      -6.104   1.238   8.117  1.00  0.00     0.010 A 
ATOM     27  C   UNL     1      -5.397  -1.073   7.883  1.00  0.00     0.010 A 
ATOM     28  C   UNL     1      -6.423  -0.127   8.044  1.00  0.00    -0.014 A 
BRANCH  28  29
ATOM     29  C   UNL     1      -7.821  -0.610   8.122  1.00  0.00     0.031 A 
ATOM     30  C   UNL     1      -8.203  -1.572   9.210  1.00  0.00     0.074 A 
ATOM     31  C   UNL     1      -8.702  -0.279   7.157  1.00  0.00     0.049 A 
ATOM     32  N   UNL     1      -9.314  -2.243   9.368  1.00  0.00    -0.248 NA
ATOM     33  C   UNL     1      -7.178  -1.857  10.228  1.00  0.00     0.031 C 
ATOM     34  C   UNL     1      -8.425   0.590   6.010  1.00  0.00     0.029 A 
ATOM     35  N   UNL     1     -10.009  -0.653   6.978  1.00  0.00    -0.354 N 
ATOM     36  C   UNL     1      -9.104  -3.054  10.474  1.00  0.00     0.074 A 
ATOM     37  C   UNL     1      -7.745  -2.836  10.915  1.00  0.00     0.031 C 
ATOM     38  C   UNL     1      -9.536   0.702   5.263  1.00  0.00     0.029 A 
ATOM     39  C   UNL     1     -10.588  -0.118   5.853  1.00  0.00     0.049 A 
ATOM     40  H   UNL     1     -10.488  -1.250   7.598  1.00  0.00     0.167 HD
ATOM     41  C   UNL     1      -9.977  -3.884  11.087  1.00  0.00     0.037 A 
ATOM     42  C   UNL     1     -11.827  -0.281   5.351  1.00  0.00     0.037 A 
ATOM     43  C   UNL     1     -11.346  -4.045  10.683  1.00  0.00     0.049 A 
ATOM     44  C   UNL     1     -12.791  -1.181   6.071  1.00  0.00     0.074 A 
ATOM     45  C   UNL     1     -12.345  -4.778  11.295  1.00  0.00     0.029 A 
ATOM     46  N   UNL     1     -11.909  -3.450   9.563  1.00  0.00    -0.354 N 
ATOM     47  N   UNL     1     -12.605  -1.885   7.162  1.00  0.00    -0.248 NA
ATOM     48  C   UNL     1     -14.134  -1.314   5.491  1.00  0.00     0.031 C 
ATOM     49  C   UNL     1     -13.508  -4.652  10.527  1.00  0.00     0.029 A 
ATOM     50  C   UNL     1     -13.239  -3.816   9.455  1.00  0.00     0.049 A 
ATOM     51  H   UNL     1     -11.432  -2.857   8.938  1.00  0.00     0.167 HD
ATOM     52  C   UNL     1     -13.808  -2.531   7.408  1.00  0.00     0.074 A 
ATOM     53  C   UNL     1     -14.724  -2.122   6.362  1.00  0.00     0.031 C 
ATOM     54  C   UNL     1     -14.128  -3.390   8.406  1.00  0.00     0.037 A 
BRANCH  41  55
ATOM     55  C   UNL     1      -9.477  -4.660  12.268  1.00  0.00     0.057 A 
ATOM     56  C   UNL     1      -9.188  -4.038  13.490  1.00  0.00     0.134 A 
ATOM     57  C   UNL     1      -9.292  -6.045  12.187  1.00  0.00     0.134 A 
ATOM     58  F   UNL     1      -9.326  -2.711  13.627  1.00  0.00    -0.206 F 
ATOM     59  C   UNL     1      -8.704  -4.762  14.580  1.00  0.00     0.040 A 
ATOM     60  C   UNL     1      -8.835  -6.784  13.279  1.00  0.00     0.040 A 
ATOM     61  F   UNL     1      -9.552  -6.702  11.046  1.00  0.00    -0.206 F 
ATOM     62  C   UNL     1      -8.532  -6.141  14.478  1.00  0.00     0.006 A 
ENDBRANCH  41  55
BRANCH  42  63
ATOM     63  C   UNL     1     -12.233   0.436   4.117  1.00  0.00     0.057 A 
ATOM     64  C   UNL     1     -13.139   1.503   4.172  1.00  0.00     0.134 A 
ATOM     65  C   UNL     1     -11.736   0.076   2.859  1.00  0.00     0.134 A 
ATOM     66  F   UNL     1     -13.663   1.882   5.347  1.00  0.00    -0.206 F 
ATOM     67  C   UNL     1     -13.549   2.175   3.020  1.00  0.00     0.040 A 
ATOM     68  C   UNL     1     -12.122   0.754   1.701  1.00  0.00     0.040 A 
ATOM     69  F   UNL     1     -10.861  -0.933   2.740  1.00  0.00    -0.206 F 
ATOM     70  C   UNL     1     -13.036   1.803   1.779  1.00  0.00     0.006 A 
ENDBRANCH  42  63
BRANCH  54  71
ATOM     71  C   UNL     1     -15.524  -3.931   8.422  1.00  0.00     0.057 A 
ATOM     72  C   UNL     1     -15.929  -4.933   7.533  1.00  0.00     0.134 A 
ATOM     73  C   UNL     1     -16.450  -3.489   9.374  1.00  0.00     0.134 A 
ATOM     74  F   UNL     1     -15.089  -5.387   6.590  1.00  0.00    -0.206 F 
ATOM     75  C   UNL     1     -17.215  -5.472   7.584  1.00  0.00     0.040 A 
ATOM     76  C   UNL     1     -17.731  -4.035   9.449  1.00  0.00     0.040 A 
ATOM     77  F   UNL     1     -16.118  -2.536  10.258  1.00  0.00    -0.206 F 
ATOM     78  C   UNL     1     -18.117  -5.029   8.550  1.00  0.00     0.006 A 
ENDBRANCH  54  71
ENDBRANCH  28  29
ENDBRANCH  20  23
ENDBRANCH  18  19
ENDBRANCH  17  18
ENDBRANCH   1  17
TORSDOF 13
