REMARK SMILES Cc1cc(C)cc(N(C)S(=O)(=O)c2ccc(F)c(C(=O)NCCCCNC(=O)c3ccc(-c4c5nc(c(-c6c(F)cccc6F)c6ccc([nH]6)c(-c6c(F)cccc6F)c6nc(c(-c7c(F)cccc7F)c7ccc4[nH]7)C=C6)C=C5)cc3)c2)c1
REMARK SMILES IDX 23 1 22 2 21 3 19 4 20 5 18 7 13 8 14 9 83 10 15 11 16 12
REMARK SMILES IDX 17 13 10 14 11 15 12 16 8 17 9 18 7 19 1 20 2 21 3 22 84 23
REMARK SMILES IDX 4 24 5 25 6 26 24 27 25 28 26 29 27 30 28 32 29 33 30 34
REMARK SMILES IDX 82 35 31 36 81 37 32 38 33 39 34 40 75 41 35 42 80 43 74 44
REMARK SMILES IDX 76 45 36 46 79 47 73 48 72 49 37 51 63 52 46 53 62 54 47 55
REMARK SMILES IDX 50 56 61 57 77 58 48 59 49 60 60 62 78 63 51 64 38 65 39 66
REMARK SMILES IDX 44 67 40 68 41 69 43 70 45 71 42 72 64 73 65 74 70 75 66 76
REMARK SMILES IDX 67 77 69 78 71 79 68 80 52 81 53 82 58 83 54 84 55 85 57 86
REMARK SMILES IDX 59 87 56 88
REMARK H PARENT 21 6 26 31 76 50 50 61
REMARK Flexibility Score: inf
ROOT
ATOM      1  C   UNL     1      -1.210 -11.574   1.655  1.00  0.00     0.023 C 
ENDROOT
BRANCH   1   2
ATOM      2  C   UNL     1      -0.679 -10.851   0.423  1.00  0.00     0.116 C 
BRANCH   2   3
ATOM      3  N   UNL     1      -1.554  -9.796  -0.051  1.00  0.00    -0.352 N 
ATOM      4  C   UNL     1      -1.310  -8.481  -0.349  1.00  0.00     0.254 C 
ATOM      5  O   UNL     1      -2.260  -7.786  -0.715  1.00  0.00    -0.269 OA
ATOM      6  H   UNL     1      -2.490 -10.074  -0.181  1.00  0.00     0.163 HD
BRANCH   4   7
ATOM      7  C   UNL     1       0.015  -7.828  -0.215  1.00  0.00     0.076 A 
ATOM      8  C   UNL     1       1.192  -5.720   0.092  1.00  0.00     0.089 A 
ATOM      9  C   UNL     1       2.410  -6.392  -0.115  1.00  0.00     0.025 A 
ATOM     10  C   UNL     1       0.010  -6.455   0.121  1.00  0.00     0.039 A 
ATOM     11  C   UNL     1       2.426  -7.750  -0.425  1.00  0.00     0.041 A 
ATOM     12  C   UNL     1       1.225  -8.440  -0.545  1.00  0.00     0.136 A 
ATOM     13  F   UNL     1       1.276  -9.681  -1.050  1.00  0.00    -0.206 F 
BRANCH   8  14
ATOM     14  S   UNL     1       1.319  -3.935   0.045  1.00  0.00     0.264 S 
ATOM     15  O   UNL     1       1.680  -3.650  -1.332  1.00  0.00    -0.201 OA
ATOM     16  O   UNL     1       2.234  -3.618   1.126  1.00  0.00    -0.201 OA
BRANCH  14  17
ATOM     17  N   UNL     1      -0.169  -3.100   0.355  1.00  0.00    -0.269 N 
ATOM     18  C   UNL     1      -1.363  -3.650  -0.348  1.00  0.00     0.164 C 
BRANCH  17  19
ATOM     19  C   UNL     1      -0.067  -1.609   0.271  1.00  0.00     0.052 A 
ATOM     20  C   UNL     1       2.535   1.196  -0.012  1.00  0.00     0.044 C 
ATOM     21  C   UNL     1       1.213   0.487   0.067  1.00  0.00    -0.049 A 
ATOM     22  C   UNL     1       0.028   1.220   0.017  1.00  0.00     0.007 A 
ATOM     23  C   UNL     1       1.153  -0.912   0.200  1.00  0.00     0.030 A 
ATOM     24  C   UNL     1      -1.202   0.574   0.147  1.00  0.00    -0.049 A 
ATOM     25  C   UNL     1      -2.468   1.377   0.081  1.00  0.00     0.044 C 
ATOM     26  C   UNL     1      -1.232  -0.821   0.333  1.00  0.00     0.030 A 
ENDBRANCH  17  19
ENDBRANCH  14  17
ENDBRANCH   8  14
ENDBRANCH   4   7
ENDBRANCH   2   3
ENDBRANCH   1   2
BRANCH   1  27
ATOM     27  C   UNL     1      -2.545 -12.297   1.503  1.00  0.00     0.023 C 
BRANCH  27  28
ATOM     28  C   UNL     1      -2.689 -13.212   0.293  1.00  0.00     0.116 C 
BRANCH  28  29
ATOM     29  N   UNL     1      -1.617 -14.185   0.153  1.00  0.00    -0.352 N 
ATOM     30  C   UNL     1      -1.684 -15.538  -0.102  1.00  0.00     0.251 C 
ATOM     31  H   UNL     1      -0.708 -13.823   0.255  1.00  0.00     0.163 HD
ATOM     32  O   UNL     1      -0.668 -16.211  -0.136  1.00  0.00    -0.269 OA
BRANCH  30  33
ATOM     33  C   UNL     1      -3.005 -16.180  -0.282  1.00  0.00     0.039 A 
ATOM     34  C   UNL     1      -3.291 -17.332   0.456  1.00  0.00     0.014 A 
ATOM     35  C   UNL     1      -3.964 -15.631  -1.135  1.00  0.00     0.014 A 
ATOM     36  C   UNL     1      -4.575 -17.878   0.410  1.00  0.00     0.010 A 
ATOM     37  C   UNL     1      -5.263 -16.131  -1.122  1.00  0.00     0.010 A 
ATOM     38  C   UNL     1      -5.584 -17.252  -0.340  1.00  0.00    -0.014 A 
BRANCH  38  39
ATOM     39  C   UNL     1      -6.985 -17.742  -0.305  1.00  0.00     0.031 A 
ATOM     40  C   UNL     1      -7.631 -18.269  -1.554  1.00  0.00     0.074 A 
ATOM     41  C   UNL     1      -7.696 -17.648   0.837  1.00  0.00     0.049 A 
ATOM     42  N   UNL     1      -8.866 -18.658  -1.743  1.00  0.00    -0.248 NA
ATOM     43  C   UNL     1      -6.786 -18.345  -2.757  1.00  0.00     0.031 C 
ATOM     44  C   UNL     1      -7.195 -17.113   2.105  1.00  0.00     0.029 A 
ATOM     45  N   UNL     1      -8.995 -17.993   1.114  1.00  0.00    -0.354 N 
ATOM     46  C   UNL     1      -8.949 -19.009  -3.084  1.00  0.00     0.074 A 
ATOM     47  C   UNL     1      -7.656 -18.743  -3.675  1.00  0.00     0.031 C 
ATOM     48  C   UNL     1      -8.165 -17.194   3.030  1.00  0.00     0.029 A 
ATOM     49  C   UNL     1      -9.367 -17.748   2.414  1.00  0.00     0.049 A 
ATOM     50  H   UNL     1      -9.604 -18.379   0.444  1.00  0.00     0.167 HD
ATOM     51  C   UNL     1     -10.002 -19.532  -3.755  1.00  0.00     0.037 A 
ATOM     52  C   UNL     1     -10.543 -17.946   3.039  1.00  0.00     0.037 A 
ATOM     53  C   UNL     1     -11.275 -19.832  -3.157  1.00  0.00     0.049 A 
ATOM     54  C   UNL     1     -11.696 -18.529   2.270  1.00  0.00     0.074 A 
ATOM     55  C   UNL     1     -12.384 -20.414  -3.745  1.00  0.00     0.029 A 
ATOM     56  N   UNL     1     -11.605 -19.583  -1.834  1.00  0.00    -0.354 N 
ATOM     57  N   UNL     1     -11.745 -18.898   1.014  1.00  0.00    -0.248 NA
ATOM     58  C   UNL     1     -12.956 -18.723   3.003  1.00  0.00     0.031 C 
ATOM     59  C   UNL     1     -13.398 -20.487  -2.787  1.00  0.00     0.029 A 
ATOM     60  C   UNL     1     -12.906 -19.988  -1.591  1.00  0.00     0.049 A 
ATOM     61  H   UNL     1     -11.004 -19.178  -1.168  1.00  0.00     0.167 HD
ATOM     62  C   UNL     1     -13.028 -19.390   0.812  1.00  0.00     0.074 A 
ATOM     63  C   UNL     1     -13.723 -19.283   2.077  1.00  0.00     0.031 C 
ATOM     64  C   UNL     1     -13.579 -19.886  -0.322  1.00  0.00     0.037 A 
BRANCH  51  65
ATOM     65  C   UNL     1      -9.819 -19.838  -5.211  1.00  0.00     0.057 A 
ATOM     66  C   UNL     1     -10.481 -19.089  -6.191  1.00  0.00     0.134 A 
ATOM     67  C   UNL     1      -9.041 -20.922  -5.639  1.00  0.00     0.134 A 
ATOM     68  F   UNL     1     -11.246 -18.041  -5.847  1.00  0.00    -0.206 F 
ATOM     69  C   UNL     1     -10.388 -19.415  -7.545  1.00  0.00     0.040 A 
ATOM     70  C   UNL     1      -8.921 -21.244  -6.992  1.00  0.00     0.040 A 
ATOM     71  F   UNL     1      -8.372 -21.671  -4.750  1.00  0.00    -0.206 F 
ATOM     72  C   UNL     1      -9.605 -20.495  -7.948  1.00  0.00     0.006 A 
ENDBRANCH  51  65
BRANCH  52  73
ATOM     73  C   UNL     1     -10.680 -17.620   4.481  1.00  0.00     0.057 A 
ATOM     74  C   UNL     1     -10.700 -16.297   4.938  1.00  0.00     0.134 A 
ATOM     75  C   UNL     1     -10.786 -18.635   5.439  1.00  0.00     0.134 A 
ATOM     76  F   UNL     1     -10.596 -15.279   4.071  1.00  0.00    -0.206 F 
ATOM     77  C   UNL     1     -10.810 -15.995   6.296  1.00  0.00     0.040 A 
ATOM     78  C   UNL     1     -10.919 -18.347   6.798  1.00  0.00     0.040 A 
ATOM     79  F   UNL     1     -10.792 -19.921   5.060  1.00  0.00    -0.206 F 
ATOM     80  C   UNL     1     -10.926 -17.023   7.231  1.00  0.00     0.006 A 
ENDBRANCH  52  73
BRANCH  64  81
ATOM     81  C   UNL     1     -14.993 -20.377  -0.251  1.00  0.00     0.057 A 
ATOM     82  C   UNL     1     -15.275 -21.748  -0.321  1.00  0.00     0.134 A 
ATOM     83  C   UNL     1     -16.076 -19.493  -0.200  1.00  0.00     0.134 A 
ATOM     84  F   UNL     1     -14.280 -22.646  -0.383  1.00  0.00    -0.206 F 
ATOM     85  C   UNL     1     -16.587 -22.221  -0.359  1.00  0.00     0.040 A 
ATOM     86  C   UNL     1     -17.393 -19.955  -0.214  1.00  0.00     0.040 A 
ATOM     87  F   UNL     1     -15.871 -18.170  -0.121  1.00  0.00    -0.206 F 
ATOM     88  C   UNL     1     -17.650 -21.322  -0.305  1.00  0.00     0.006 A 
ENDBRANCH  64  81
ENDBRANCH  38  39
ENDBRANCH  30  33
ENDBRANCH  28  29
ENDBRANCH  27  28
ENDBRANCH   1  27
TORSDOF 14
