REMARK SMILES CC1(C)[C@H](C(=O)N(Cc2ccccc2)Cc2ccccc2)CC[C@@]1(C)C(=O)NCCCCNC(=O)c1ccc(-c2c3nc(c(-c4c(F)cccc4F)c4ccc([nH]4)c(-c4c(F)cccc4F)c4nc(c(-c5c(F)cccc5F)c5ccc2[nH]5)C=C4)C=C3)cc1
REMARK SMILES IDX 30 1 29 2 28 3 26 4 27 5 24 7 1 8 2 9 3 10 4 11 22 12 23 13
REMARK SMILES IDX 25 14 5 15 6 16 7 17 8 18 9 19 10 20 14 21 11 22 13 23 12 24
REMARK SMILES IDX 15 25 16 26 17 27 21 28 18 29 20 30 19 31 31 32 32 33 33 34
REMARK SMILES IDX 34 35 35 37 36 38 37 39 89 40 38 41 88 42 39 43 40 44 41 45
REMARK SMILES IDX 82 46 42 47 87 48 81 49 83 50 43 51 86 52 80 53 79 54 44 56
REMARK SMILES IDX 70 57 53 58 69 59 54 60 57 61 68 62 84 63 55 64 56 65 67 67
REMARK SMILES IDX 85 68 58 69 45 70 46 71 51 72 47 73 48 74 50 75 52 76 49 77
REMARK SMILES IDX 71 78 72 79 77 80 73 81 74 82 76 83 78 84 75 85 59 86 60 87
REMARK SMILES IDX 65 88 61 89 62 90 64 91 66 92 63 93
REMARK H PARENT 28 6 33 36 83 55 57 66
REMARK Flexibility Score: inf
ROOT
ATOM      1  C   UNL     1       2.656   5.825  -2.005  1.00  0.00     0.023 C 
ENDROOT
BRANCH   1   2
ATOM      2  C   UNL     1       1.532   4.941  -2.542  1.00  0.00     0.116 C 
BRANCH   2   3
ATOM      3  N   UNL     1       1.937   3.551  -2.580  1.00  0.00    -0.356 N 
ATOM      4  C   UNL     1       1.614   2.472  -1.813  1.00  0.00     0.226 C 
ATOM      5  O   UNL     1       2.188   1.433  -2.141  1.00  0.00    -0.274 OA
ATOM      6  H   UNL     1       2.572   3.344  -3.304  1.00  0.00     0.163 HD
BRANCH   4   7
ATOM      7  C   UNL     1       0.499   2.536  -0.728  1.00  0.00     0.052 C 
ATOM      8  C   UNL     1       1.410   0.112   0.030  1.00  0.00     0.013 C 
ATOM      9  C   UNL     1       0.455   1.299   0.314  1.00  0.00    -0.010 C 
ATOM     10  C   UNL     1      -0.928   0.644   0.344  1.00  0.00     0.013 C 
ATOM     11  C   UNL     1       0.909   1.941   1.660  1.00  0.00     0.085 C 
ATOM     12  C   UNL     1       0.518   3.400   1.629  1.00  0.00     0.015 C 
ATOM     13  C   UNL     1       0.685   3.788   0.178  1.00  0.00     0.018 C 
ATOM     14  C   UNL     1      -0.812   2.683  -1.546  1.00  0.00     0.022 C 
BRANCH  11  15
ATOM     15  C   UNL     1       0.774   1.280   3.048  1.00  0.00     0.226 C 
ATOM     16  O   UNL     1       1.853   1.025   3.605  1.00  0.00    -0.275 OA
ATOM     17  N   UNL     1      -0.421   1.056   3.724  1.00  0.00    -0.334 N 
BRANCH  17  18
ATOM     18  C   UNL     1      -1.730   1.599   3.353  1.00  0.00     0.155 C 
BRANCH  18  19
ATOM     19  C   UNL     1      -2.852   0.630   3.038  1.00  0.00    -0.029 A 
ATOM     20  C   UNL     1      -4.142   1.150   2.835  1.00  0.00     0.005 A 
ATOM     21  C   UNL     1      -2.651  -0.731   2.788  1.00  0.00     0.005 A 
ATOM     22  C   UNL     1      -5.188   0.330   2.402  1.00  0.00     0.000 A 
ATOM     23  C   UNL     1      -3.695  -1.556   2.367  1.00  0.00     0.000 A 
ATOM     24  C   UNL     1      -4.963  -1.024   2.171  1.00  0.00     0.000 A 
ENDBRANCH  18  19
ENDBRANCH  17  18
BRANCH  17  25
ATOM     25  C   UNL     1      -0.319   0.543   5.110  1.00  0.00     0.155 C 
BRANCH  25  26
ATOM     26  C   UNL     1       0.031  -0.926   5.229  1.00  0.00    -0.029 A 
ATOM     27  C   UNL     1      -0.970  -1.903   5.303  1.00  0.00     0.005 A 
ATOM     28  C   UNL     1       1.369  -1.348   5.247  1.00  0.00     0.005 A 
ATOM     29  C   UNL     1      -0.646  -3.262   5.284  1.00  0.00     0.000 A 
ATOM     30  C   UNL     1       1.696  -2.704   5.243  1.00  0.00     0.000 A 
ATOM     31  C   UNL     1       0.687  -3.661   5.239  1.00  0.00     0.000 A 
ENDBRANCH  25  26
ENDBRANCH  17  25
ENDBRANCH  11  15
ENDBRANCH   4   7
ENDBRANCH   2   3
ENDBRANCH   1   2
BRANCH   1  32
ATOM     32  C   UNL     1       3.876   5.896  -2.921  1.00  0.00     0.023 C 
BRANCH  32  33
ATOM     33  C   UNL     1       3.561   6.298  -4.355  1.00  0.00     0.116 C 
BRANCH  33  34
ATOM     34  N   UNL     1       2.819   7.547  -4.439  1.00  0.00    -0.352 N 
ATOM     35  C   UNL     1       2.977   8.574  -5.339  1.00  0.00     0.251 C 
ATOM     36  H   UNL     1       2.113   7.673  -3.765  1.00  0.00     0.163 HD
ATOM     37  O   UNL     1       2.369   9.621  -5.210  1.00  0.00    -0.269 OA
BRANCH  35  38
ATOM     38  C   UNL     1       3.932   8.387  -6.448  1.00  0.00     0.039 A 
ATOM     39  C   UNL     1       4.922   9.349  -6.651  1.00  0.00     0.014 A 
ATOM     40  C   UNL     1       3.882   7.231  -7.230  1.00  0.00     0.014 A 
ATOM     41  C   UNL     1       5.907   9.120  -7.610  1.00  0.00     0.010 A 
ATOM     42  C   UNL     1       4.908   6.969  -8.129  1.00  0.00     0.010 A 
ATOM     43  C   UNL     1       5.926   7.913  -8.329  1.00  0.00    -0.014 A 
BRANCH  43  44
ATOM     44  C   UNL     1       7.001   7.622  -9.307  1.00  0.00     0.031 A 
ATOM     45  C   UNL     1       6.664   7.465 -10.762  1.00  0.00     0.074 A 
ATOM     46  C   UNL     1       8.262   7.433  -8.874  1.00  0.00     0.049 A 
ATOM     47  N   UNL     1       7.445   7.144 -11.761  1.00  0.00    -0.248 NA
ATOM     48  C   UNL     1       5.256   7.668 -11.141  1.00  0.00     0.031 C 
ATOM     49  C   UNL     1       8.700   7.504  -7.478  1.00  0.00     0.029 A 
ATOM     50  N   UNL     1       9.407   7.130  -9.566  1.00  0.00    -0.354 N 
ATOM     51  C   UNL     1       6.622   7.091 -12.879  1.00  0.00     0.074 A 
ATOM     52  C   UNL     1       5.274   7.357 -12.428  1.00  0.00     0.031 C 
ATOM     53  C   UNL     1      10.022   7.276  -7.421  1.00  0.00     0.029 A 
ATOM     54  C   UNL     1      10.517   7.008  -8.767  1.00  0.00     0.049 A 
ATOM     55  H   UNL     1       9.431   7.013 -10.543  1.00  0.00     0.167 HD
ATOM     56  C   UNL     1       6.964   6.866 -14.169  1.00  0.00     0.037 A 
ATOM     57  C   UNL     1      11.790   6.707  -9.087  1.00  0.00     0.037 A 
ATOM     58  C   UNL     1       8.311   6.631 -14.615  1.00  0.00     0.049 A 
ATOM     59  C   UNL     1      12.145   6.466 -10.528  1.00  0.00     0.074 A 
ATOM     60  C   UNL     1       8.773   6.455 -15.908  1.00  0.00     0.029 A 
ATOM     61  N   UNL     1       9.414   6.539 -13.779  1.00  0.00    -0.354 N 
ATOM     62  N   UNL     1      11.370   6.491 -11.585  1.00  0.00    -0.248 NA
ATOM     63  C   UNL     1      13.552   6.162 -10.821  1.00  0.00     0.031 C 
ATOM     64  C   UNL     1      10.149   6.217 -15.850  1.00  0.00     0.029 A 
ATOM     65  C   UNL     1      10.553   6.290 -14.526  1.00  0.00     0.049 A 
ATOM     66  H   UNL     1       9.390   6.636 -12.800  1.00  0.00     0.167 HD
ATOM     67  C   UNL     1      12.198   6.234 -12.670  1.00  0.00     0.074 A 
ATOM     68  C   UNL     1      13.537   6.071 -12.144  1.00  0.00     0.031 C 
ATOM     69  C   UNL     1      11.879   6.142 -13.984  1.00  0.00     0.037 A 
BRANCH  56  70
ATOM     70  C   UNL     1       5.863   6.873 -15.187  1.00  0.00     0.057 A 
ATOM     71  C   UNL     1       5.202   8.053 -15.551  1.00  0.00     0.134 A 
ATOM     72  C   UNL     1       5.478   5.692 -15.834  1.00  0.00     0.134 A 
ATOM     73  F   UNL     1       5.512   9.217 -14.959  1.00  0.00    -0.206 F 
ATOM     74  C   UNL     1       4.180   8.055 -16.502  1.00  0.00     0.040 A 
ATOM     75  C   UNL     1       4.477   5.686 -16.807  1.00  0.00     0.040 A 
ATOM     76  F   UNL     1       6.072   4.527 -15.536  1.00  0.00    -0.206 F 
ATOM     77  C   UNL     1       3.821   6.869 -17.139  1.00  0.00     0.006 A 
ENDBRANCH  56  70
BRANCH  57  78
ATOM     78  C   UNL     1      12.829   6.642  -8.029  1.00  0.00     0.057 A 
ATOM     79  C   UNL     1      13.835   7.612  -7.945  1.00  0.00     0.134 A 
ATOM     80  C   UNL     1      12.851   5.607  -7.086  1.00  0.00     0.134 A 
ATOM     81  F   UNL     1      13.877   8.618  -8.831  1.00  0.00    -0.206 F 
ATOM     82  C   UNL     1      14.838   7.544  -6.976  1.00  0.00     0.040 A 
ATOM     83  C   UNL     1      13.833   5.541  -6.097  1.00  0.00     0.040 A 
ATOM     84  F   UNL     1      11.910   4.652  -7.107  1.00  0.00    -0.206 F 
ATOM     85  C   UNL     1      14.836   6.507  -6.046  1.00  0.00     0.006 A 
ENDBRANCH  57  78
BRANCH  69  86
ATOM     86  C   UNL     1      13.002   5.888 -14.945  1.00  0.00     0.057 A 
ATOM     87  C   UNL     1      13.627   4.639 -15.039  1.00  0.00     0.134 A 
ATOM     88  C   UNL     1      13.433   6.897 -15.817  1.00  0.00     0.134 A 
ATOM     89  F   UNL     1      13.268   3.636 -14.224  1.00  0.00    -0.206 F 
ATOM     90  C   UNL     1      14.658   4.408 -15.951  1.00  0.00     0.040 A 
ATOM     91  C   UNL     1      14.444   6.670 -16.751  1.00  0.00     0.040 A 
ATOM     92  F   UNL     1      12.869   8.113 -15.784  1.00  0.00    -0.206 F 
ATOM     93  C   UNL     1      15.064   5.423 -16.816  1.00  0.00     0.006 A 
ENDBRANCH  69  86
ENDBRANCH  43  44
ENDBRANCH  35  38
ENDBRANCH  33  34
ENDBRANCH  32  33
ENDBRANCH   1  32
TORSDOF 16
