REMARK SMILES NS(=O)(=O)c1ccc(-n2nc(C(=O)NCCCC(=O)NCCCCNC(=O)c3ccc(-c4c5nc(c(-c6c(F)cccc6F)c6ccc([nH]6)c(-c6c(F)cccc6F)c6nc(c(-c7c(F)cccc7F)c7ccc4[nH]7)C=C6)C=C5)cc3)cc2-c2ccccc2)cc1
REMARK SMILES IDX 18 1 19 2 20 3 17 5 16 6 15 7 14 8 12 9 13 10 11 12 9 13
REMARK SMILES IDX 10 14 83 15 82 16 8 17 5 18 6 19 91 20 7 21 90 22 2 23 3 24
REMARK SMILES IDX 4 25 1 26 84 29 85 30 89 31 86 32 88 33 87 34 21 35 22 36
REMARK SMILES IDX 23 37 24 38 25 39 26 40 27 42 28 43 29 44 81 45 30 46 80 47
REMARK SMILES IDX 31 48 32 49 33 50 74 51 34 52 79 53 73 54 75 55 35 56 78 57
REMARK SMILES IDX 72 58 71 59 36 61 62 62 45 63 61 64 46 65 49 66 60 67 76 68
REMARK SMILES IDX 47 69 48 70 59 72 77 73 50 74 37 75 38 76 43 77 39 78 40 79
REMARK SMILES IDX 42 80 44 81 41 82 63 83 64 84 69 85 65 86 66 87 68 88 70 89
REMARK SMILES IDX 67 90 51 91 52 92 57 93 53 94 54 95 56 96 58 97 55 98
REMARK H PARENT 20 4 14 11 1 27 1 28 25 41 75 60 49 71
REMARK Flexibility Score: inf
ROOT
ATOM      1  C   UNL     1       5.346  13.799  -0.016  1.00  0.00     0.220 C 
ATOM      2  O   UNL     1       6.292  14.441  -0.477  1.00  0.00    -0.275 OA
ATOM      3  N   UNL     1       5.523  13.172   1.179  1.00  0.00    -0.356 N 
ATOM      4  H   UNL     1       6.387  13.357   1.613  1.00  0.00     0.163 HD
ENDROOT
BRANCH   1   5
ATOM      5  C   UNL     1       4.025  13.735  -0.756  1.00  0.00     0.102 C 
BRANCH   5   6
ATOM      6  C   UNL     1       3.970  12.672  -1.856  1.00  0.00     0.031 C 
BRANCH   6   7
ATOM      7  C   UNL     1       3.658  11.255  -1.386  1.00  0.00     0.116 C 
BRANCH   7   8
ATOM      8  N   UNL     1       2.445  11.153  -0.598  1.00  0.00    -0.351 N 
ATOM      9  C   UNL     1       1.792  10.043  -0.104  1.00  0.00     0.271 C 
ATOM     10  O   UNL     1       0.753  10.249   0.527  1.00  0.00    -0.267 OA
ATOM     11  H   UNL     1       2.020  12.014  -0.381  1.00  0.00     0.163 HD
BRANCH   9  12
ATOM     12  C   UNL     1       2.323   8.690  -0.349  1.00  0.00     0.151 A 
ATOM     13  N   UNL     1       2.294   6.570  -0.688  1.00  0.00    -0.232 N 
ATOM     14  N   UNL     1       1.490   7.648  -0.539  1.00  0.00    -0.162 NA
ATOM     15  C   UNL     1       3.621   6.945  -0.851  1.00  0.00     0.075 A 
ATOM     16  C   UNL     1       3.669   8.265  -0.460  1.00  0.00     0.065 A 
BRANCH  13  17
ATOM     17  C   UNL     1       1.766   5.251  -0.725  1.00  0.00     0.065 A 
ATOM     18  C   UNL     1       0.897   2.634  -1.089  1.00  0.00     0.082 A 
ATOM     19  C   UNL     1       2.119   2.868  -0.459  1.00  0.00     0.024 A 
ATOM     20  C   UNL     1       0.068   3.698  -1.465  1.00  0.00     0.024 A 
ATOM     21  C   UNL     1       2.552   4.177  -0.277  1.00  0.00     0.030 A 
ATOM     22  C   UNL     1       0.495   5.016  -1.265  1.00  0.00     0.030 A 
BRANCH  18  23
ATOM     23  S   UNL     1       0.404   0.975  -1.447  1.00  0.00     0.238 S 
ATOM     24  O   UNL     1       1.160   0.527  -2.605  1.00  0.00    -0.207 OA
ATOM     25  O   UNL     1      -1.023   0.872  -1.360  1.00  0.00    -0.207 OA
BRANCH  23  26
ATOM     26  N   UNL     1       1.002   0.092  -0.147  1.00  0.00    -0.225 NA
ATOM     27  H   UNL     1       0.763  -0.893  -0.266  1.00  0.00     0.137 HD
ATOM     28  H   UNL     1       0.589   0.439   0.719  1.00  0.00     0.137 HD
ENDBRANCH  23  26
ENDBRANCH  18  23
ENDBRANCH  13  17
BRANCH  15  29
ATOM     29  C   UNL     1       4.670   6.141  -1.479  1.00  0.00     0.000 A 
ATOM     30  C   UNL     1       4.425   5.522  -2.716  1.00  0.00     0.010 A 
ATOM     31  C   UNL     1       5.934   6.018  -0.895  1.00  0.00     0.010 A 
ATOM     32  C   UNL     1       5.415   4.767  -3.342  1.00  0.00     0.001 A 
ATOM     33  C   UNL     1       6.927   5.264  -1.527  1.00  0.00     0.001 A 
ATOM     34  C   UNL     1       6.666   4.638  -2.746  1.00  0.00     0.000 A 
ENDBRANCH  15  29
ENDBRANCH   9  12
ENDBRANCH   7   8
ENDBRANCH   6   7
ENDBRANCH   5   6
ENDBRANCH   1   5
BRANCH   3  35
ATOM     35  C   UNL     1       4.655  12.276   1.922  1.00  0.00     0.116 C 
BRANCH  35  36
ATOM     36  C   UNL     1       5.202  10.843   1.924  1.00  0.00     0.023 C 
BRANCH  36  37
ATOM     37  C   UNL     1       6.375  10.570   2.872  1.00  0.00     0.023 C 
BRANCH  37  38
ATOM     38  C   UNL     1       6.005  10.519   4.348  1.00  0.00     0.116 C 
BRANCH  38  39
ATOM     39  N   UNL     1       5.080   9.433   4.670  1.00  0.00    -0.352 N 
ATOM     40  C   UNL     1       4.293   9.305   5.798  1.00  0.00     0.251 C 
ATOM     41  H   UNL     1       5.009   8.710   4.005  1.00  0.00     0.163 HD
ATOM     42  O   UNL     1       3.852   8.220   6.153  1.00  0.00    -0.269 OA
BRANCH  40  43
ATOM     43  C   UNL     1       4.007  10.520   6.575  1.00  0.00     0.039 A 
ATOM     44  C   UNL     1       4.263  10.575   7.946  1.00  0.00     0.014 A 
ATOM     45  C   UNL     1       3.597  11.648   5.869  1.00  0.00     0.014 A 
ATOM     46  C   UNL     1       4.212  11.810   8.590  1.00  0.00     0.010 A 
ATOM     47  C   UNL     1       3.673  12.878   6.479  1.00  0.00     0.010 A 
ATOM     48  C   UNL     1       3.951  12.971   7.846  1.00  0.00    -0.014 A 
BRANCH  48  49
ATOM     49  C   UNL     1       4.086  14.294   8.464  1.00  0.00     0.031 A 
ATOM     50  C   UNL     1       5.381  14.588   9.157  1.00  0.00     0.074 A 
ATOM     51  C   UNL     1       3.224  15.303   8.214  1.00  0.00     0.049 A 
ATOM     52  N   UNL     1       5.567  14.972  10.379  1.00  0.00    -0.248 NA
ATOM     53  C   UNL     1       6.632  14.390   8.406  1.00  0.00     0.031 C 
ATOM     54  C   UNL     1       2.070  15.312   7.305  1.00  0.00     0.029 A 
ATOM     55  N   UNL     1       3.290  16.600   8.625  1.00  0.00    -0.354 N 
ATOM     56  C   UNL     1       6.933  15.224  10.515  1.00  0.00     0.074 A 
ATOM     57  C   UNL     1       7.553  14.736   9.310  1.00  0.00     0.031 C 
ATOM     58  C   UNL     1       1.719  16.587   7.037  1.00  0.00     0.029 A 
ATOM     59  C   UNL     1       2.493  17.467   7.891  1.00  0.00     0.049 A 
ATOM     60  H   UNL     1       3.853  16.896   9.376  1.00  0.00     0.167 HD
ATOM     61  C   UNL     1       7.432  15.986  11.531  1.00  0.00     0.037 A 
ATOM     62  C   UNL     1       2.491  18.819   7.952  1.00  0.00     0.037 A 
ATOM     63  C   UNL     1       6.480  16.130  12.601  1.00  0.00     0.049 A 
ATOM     64  C   UNL     1       3.094  19.206   9.249  1.00  0.00     0.074 A 
ATOM     65  C   UNL     1       5.806  15.258  13.434  1.00  0.00     0.029 A 
ATOM     66  N   UNL     1       5.830  17.332  12.734  1.00  0.00    -0.354 N 
ATOM     67  N   UNL     1       2.542  18.979  10.408  1.00  0.00    -0.248 NA
ATOM     68  C   UNL     1       4.521  19.484   9.281  1.00  0.00     0.031 C 
ATOM     69  C   UNL     1       4.511  15.834  13.594  1.00  0.00     0.029 A 
ATOM     70  C   UNL     1       4.501  17.040  12.893  1.00  0.00     0.049 A 
ATOM     71  H   UNL     1       6.239  18.228  12.718  1.00  0.00     0.167 HD
ATOM     72  C   UNL     1       3.599  18.658  11.245  1.00  0.00     0.074 A 
ATOM     73  C   UNL     1       4.795  19.098  10.529  1.00  0.00     0.031 C 
ATOM     74  C   UNL     1       3.433  17.814  12.306  1.00  0.00     0.037 A 
BRANCH  61  75
ATOM     75  C   UNL     1       8.649  16.877  11.433  1.00  0.00     0.057 A 
ATOM     76  C   UNL     1       9.155  17.495  12.595  1.00  0.00     0.134 A 
ATOM     77  C   UNL     1       9.154  17.389  10.221  1.00  0.00     0.134 A 
ATOM     78  F   UNL     1       8.747  17.110  13.813  1.00  0.00    -0.206 F 
ATOM     79  C   UNL     1      10.030  18.588  12.549  1.00  0.00     0.040 A 
ATOM     80  C   UNL     1      10.068  18.446  10.165  1.00  0.00     0.040 A 
ATOM     81  F   UNL     1       8.716  16.964   9.030  1.00  0.00    -0.206 F 
ATOM     82  C   UNL     1      10.483  19.073  11.329  1.00  0.00     0.006 A 
ENDBRANCH  61  75
BRANCH  62  83
ATOM     83  C   UNL     1       2.241  19.786   6.861  1.00  0.00     0.057 A 
ATOM     84  C   UNL     1       1.982  21.134   7.139  1.00  0.00     0.134 A 
ATOM     85  C   UNL     1       2.510  19.472   5.516  1.00  0.00     0.134 A 
ATOM     86  F   UNL     1       1.750  21.538   8.396  1.00  0.00    -0.206 F 
ATOM     87  C   UNL     1       2.019  22.120   6.144  1.00  0.00     0.040 A 
ATOM     88  C   UNL     1       2.539  20.444   4.511  1.00  0.00     0.040 A 
ATOM     89  F   UNL     1       2.841  18.227   5.144  1.00  0.00    -0.206 F 
ATOM     90  C   UNL     1       2.310  21.777   4.827  1.00  0.00     0.006 A 
ENDBRANCH  62  83
BRANCH  74  91
ATOM     91  C   UNL     1       2.032  17.446  12.711  1.00  0.00     0.057 A 
ATOM     92  C   UNL     1       1.138  16.741  11.892  1.00  0.00     0.134 A 
ATOM     93  C   UNL     1       1.631  17.671  14.032  1.00  0.00     0.134 A 
ATOM     94  F   UNL     1       1.470  16.383  10.647  1.00  0.00    -0.206 F 
ATOM     95  C   UNL     1      -0.115  16.323  12.351  1.00  0.00     0.040 A 
ATOM     96  C   UNL     1       0.396  17.229  14.514  1.00  0.00     0.040 A 
ATOM     97  F   UNL     1       2.457  18.284  14.895  1.00  0.00    -0.206 F 
ATOM     98  C   UNL     1      -0.486  16.561  13.669  1.00  0.00     0.006 A 
ENDBRANCH  74  91
ENDBRANCH  48  49
ENDBRANCH  40  43
ENDBRANCH  38  39
ENDBRANCH  37  38
ENDBRANCH  36  37
ENDBRANCH  35  36
ENDBRANCH   3  35
TORSDOF 19
