REMARK SMILES O=C(NCCCCNC(=O)[C@H]1CCCN(c2cc(-c3ccccn3)nc(-c3ccccc3F)n2)C1)c1ccc(-c2c3nc(c(-c4c(F)cccc4F)c4ccc([nH]4)c(-c4c(F)cccc4F)c4nc(c(-c5c(F)cccc5F)c5ccc2[nH]5)C=C4)C=C3)cc1
REMARK SMILES IDX 5 1 4 2 3 3 1 4 2 5 36 7 37 8 89 9 38 10 88 11 39 12 40 13
REMARK SMILES IDX 41 14 82 15 42 16 87 17 81 18 83 19 43 20 86 21 80 22 79 23
REMARK SMILES IDX 44 25 70 26 53 27 69 28 54 29 57 30 68 31 84 32 55 33 56 34
REMARK SMILES IDX 67 36 85 37 58 38 45 39 46 40 51 41 47 42 48 43 50 44 52 45
REMARK SMILES IDX 49 46 71 47 72 48 77 49 73 50 74 51 76 52 78 53 75 54 59 55
REMARK SMILES IDX 60 56 65 57 61 58 62 59 64 60 66 61 63 62 6 63 7 64 8 65
REMARK SMILES IDX 9 66 10 68 11 69 12 70 35 71 13 72 15 73 14 74 16 75 17 76
REMARK SMILES IDX 34 77 18 78 26 79 25 80 19 81 20 82 24 83 21 84 23 85 22 86
REMARK SMILES IDX 27 87 28 88 32 89 29 90 31 91 33 92 30 93
REMARK H PARENT 3 6 83 24 57 35 8 67
REMARK Flexibility Score: inf
ROOT
ATOM      1  C   UNL     1       2.794  -7.462   5.022  1.00  0.00     0.023 C 
ENDROOT
BRANCH   1   2
ATOM      2  C   UNL     1       2.156  -6.399   5.913  1.00  0.00     0.116 C 
BRANCH   2   3
ATOM      3  N   UNL     1       0.932  -5.838   5.364  1.00  0.00    -0.352 N 
ATOM      4  O   UNL     1      -1.208  -5.124   5.364  1.00  0.00    -0.269 OA
ATOM      5  C   UNL     1      -0.237  -5.509   6.009  1.00  0.00     0.251 C 
ATOM      6  H   UNL     1       0.941  -5.670   4.394  1.00  0.00     0.163 HD
BRANCH   5   7
ATOM      7  C   UNL     1      -0.337  -5.656   7.477  1.00  0.00     0.039 A 
ATOM      8  C   UNL     1       0.669  -5.178   8.319  1.00  0.00     0.014 A 
ATOM      9  C   UNL     1      -1.463  -6.288   8.014  1.00  0.00     0.014 A 
ATOM     10  C   UNL     1       0.613  -5.448   9.683  1.00  0.00     0.010 A 
ATOM     11  C   UNL     1      -1.550  -6.499   9.392  1.00  0.00     0.010 A 
ATOM     12  C   UNL     1      -0.496  -6.109  10.233  1.00  0.00    -0.014 A 
BRANCH  12  13
ATOM     13  C   UNL     1      -0.559  -6.352  11.696  1.00  0.00     0.031 A 
ATOM     14  C   UNL     1      -0.505  -7.748  12.250  1.00  0.00     0.074 A 
ATOM     15  C   UNL     1      -0.648  -5.298  12.528  1.00  0.00     0.049 A 
ATOM     16  N   UNL     1      -0.564  -8.140  13.498  1.00  0.00    -0.248 NA
ATOM     17  C   UNL     1      -0.370  -8.846  11.281  1.00  0.00     0.031 C 
ATOM     18  C   UNL     1      -0.703  -3.897  12.106  1.00  0.00     0.029 A 
ATOM     19  N   UNL     1      -0.694  -5.236  13.897  1.00  0.00    -0.354 N 
ATOM     20  C   UNL     1      -0.490  -9.527  13.465  1.00  0.00     0.074 A 
ATOM     21  C   UNL     1      -0.404  -9.911  12.072  1.00  0.00     0.031 C 
ATOM     22  C   UNL     1      -0.737  -3.113  13.193  1.00  0.00     0.029 A 
ATOM     23  C   UNL     1      -0.764  -3.955  14.385  1.00  0.00     0.049 A 
ATOM     24  H   UNL     1      -0.678  -6.034  14.474  1.00  0.00     0.167 HD
ATOM     25  C   UNL     1      -0.485 -10.396  14.503  1.00  0.00     0.037 A 
ATOM     26  C   UNL     1      -0.856  -3.504  15.649  1.00  0.00     0.037 A 
ATOM     27  C   UNL     1      -0.553 -10.007  15.889  1.00  0.00     0.049 A 
ATOM     28  C   UNL     1      -0.885  -4.489  16.780  1.00  0.00     0.074 A 
ATOM     29  C   UNL     1      -0.526 -10.815  17.012  1.00  0.00     0.029 A 
ATOM     30  N   UNL     1      -0.663  -8.700  16.339  1.00  0.00    -0.354 N 
ATOM     31  N   UNL     1      -0.805  -5.796  16.734  1.00  0.00    -0.248 NA
ATOM     32  C   UNL     1      -1.026  -3.940  18.136  1.00  0.00     0.031 C 
ATOM     33  C   UNL     1      -0.661 -10.001  18.141  1.00  0.00     0.029 A 
ATOM     34  C   UNL     1      -0.726  -8.682  17.723  1.00  0.00     0.049 A 
ATOM     35  H   UNL     1      -0.692  -7.903  15.762  1.00  0.00     0.167 HD
ATOM     36  C   UNL     1      -0.873  -6.228  18.051  1.00  0.00     0.074 A 
ATOM     37  C   UNL     1      -0.988  -5.041  18.875  1.00  0.00     0.031 C 
ATOM     38  C   UNL     1      -0.842  -7.494  18.530  1.00  0.00     0.037 A 
BRANCH  25  39
ATOM     39  C   UNL     1      -0.413 -11.861  14.190  1.00  0.00     0.057 A 
ATOM     40  C   UNL     1      -1.523 -12.691  14.398  1.00  0.00     0.134 A 
ATOM     41  C   UNL     1       0.771 -12.465  13.749  1.00  0.00     0.134 A 
ATOM     42  F   UNL     1      -2.686 -12.178  14.827  1.00  0.00    -0.206 F 
ATOM     43  C   UNL     1      -1.454 -14.069  14.190  1.00  0.00     0.040 A 
ATOM     44  C   UNL     1       0.846 -13.840  13.516  1.00  0.00     0.040 A 
ATOM     45  F   UNL     1       1.867 -11.726  13.520  1.00  0.00    -0.206 F 
ATOM     46  C   UNL     1      -0.267 -14.647  13.745  1.00  0.00     0.006 A 
ENDBRANCH  25  39
BRANCH  26  47
ATOM     47  C   UNL     1      -0.919  -2.043  15.894  1.00  0.00     0.057 A 
ATOM     48  C   UNL     1      -2.048  -1.294  15.543  1.00  0.00     0.134 A 
ATOM     49  C   UNL     1       0.175  -1.355  16.429  1.00  0.00     0.134 A 
ATOM     50  F   UNL     1      -3.124  -1.897  15.016  1.00  0.00    -0.206 F 
ATOM     51  C   UNL     1      -2.078   0.093  15.689  1.00  0.00     0.040 A 
ATOM     52  C   UNL     1       0.150   0.029  16.602  1.00  0.00     0.040 A 
ATOM     53  F   UNL     1       1.278  -2.023  16.797  1.00  0.00    -0.206 F 
ATOM     54  C   UNL     1      -0.975   0.758  16.221  1.00  0.00     0.006 A 
ENDBRANCH  26  47
BRANCH  38  55
ATOM     55  C   UNL     1      -0.917  -7.671  20.017  1.00  0.00     0.057 A 
ATOM     56  C   UNL     1       0.212  -8.067  20.745  1.00  0.00     0.134 A 
ATOM     57  C   UNL     1      -2.122  -7.524  20.714  1.00  0.00     0.134 A 
ATOM     58  F   UNL     1       1.394  -8.234  20.133  1.00  0.00    -0.206 F 
ATOM     59  C   UNL     1       0.141  -8.325  22.115  1.00  0.00     0.040 A 
ATOM     60  C   UNL     1      -2.200  -7.758  22.087  1.00  0.00     0.040 A 
ATOM     61  F   UNL     1      -3.235  -7.136  20.073  1.00  0.00    -0.206 F 
ATOM     62  C   UNL     1      -1.068  -8.169  22.790  1.00  0.00     0.006 A 
ENDBRANCH  38  55
ENDBRANCH  12  13
ENDBRANCH   5   7
ENDBRANCH   2   3
ENDBRANCH   1   2
BRANCH   1  63
ATOM     63  C   UNL     1       3.110  -7.032   3.585  1.00  0.00     0.023 C 
BRANCH  63  64
ATOM     64  C   UNL     1       3.924  -5.747   3.463  1.00  0.00     0.116 C 
BRANCH  64  65
ATOM     65  N   UNL     1       5.274  -5.874   3.973  1.00  0.00    -0.356 N 
ATOM     66  C   UNL     1       6.482  -6.119   3.412  1.00  0.00     0.224 C 
ATOM     67  H   UNL     1       5.325  -5.755   4.949  1.00  0.00     0.163 HD
ATOM     68  O   UNL     1       7.444  -6.035   4.189  1.00  0.00    -0.275 OA
BRANCH  66  69
ATOM     69  C   UNL     1       6.730  -6.596   1.985  1.00  0.00     0.098 C 
ATOM     70  C   UNL     1       6.682  -8.130   1.919  1.00  0.00     0.017 C 
ATOM     71  C   UNL     1       5.903  -5.975   0.870  1.00  0.00     0.131 C 
ATOM     72  C   UNL     1       7.088  -8.629   0.528  1.00  0.00     0.022 C 
ATOM     73  N   UNL     1       6.288  -6.544  -0.419  1.00  0.00    -0.356 N 
ATOM     74  C   UNL     1       6.242  -7.988  -0.573  1.00  0.00     0.118 C 
BRANCH  73  75
ATOM     75  C   UNL     1       6.508  -5.706  -1.486  1.00  0.00     0.133 A 
ATOM     76  C   UNL     1       5.831  -5.874  -2.674  1.00  0.00     0.077 A 
ATOM     77  N   UNL     1       7.420  -4.735  -1.339  1.00  0.00    -0.211 NA
ATOM     78  C   UNL     1       6.117  -4.998  -3.703  1.00  0.00     0.095 A 
ATOM     79  C   UNL     1       7.675  -3.951  -2.405  1.00  0.00     0.165 A 
ATOM     80  N   UNL     1       7.044  -4.027  -3.585  1.00  0.00    -0.226 NA
BRANCH  78  81
ATOM     81  C   UNL     1       5.416  -5.098  -4.988  1.00  0.00     0.089 A 
ATOM     82  C   UNL     1       4.077  -4.729  -5.116  1.00  0.00     0.030 A 
ATOM     83  N   UNL     1       6.122  -5.632  -6.019  1.00  0.00    -0.255 NA
ATOM     84  C   UNL     1       3.442  -4.904  -6.343  1.00  0.00     0.004 A 
ATOM     85  C   UNL     1       5.485  -5.774  -7.201  1.00  0.00     0.112 A 
ATOM     86  C   UNL     1       4.159  -5.434  -7.409  1.00  0.00     0.020 A 
ENDBRANCH  78  81
BRANCH  79  87
ATOM     87  C   UNL     1       8.827  -3.058  -2.313  1.00  0.00     0.055 A 
ATOM     88  C   UNL     1      10.084  -3.550  -1.909  1.00  0.00     0.015 A 
ATOM     89  C   UNL     1       8.739  -1.705  -2.650  1.00  0.00     0.134 A 
ATOM     90  C   UNL     1      11.208  -2.718  -1.864  1.00  0.00     0.001 A 
ATOM     91  C   UNL     1       9.854  -0.866  -2.599  1.00  0.00     0.040 A 
ATOM     92  F   UNL     1       7.563  -1.167  -3.010  1.00  0.00    -0.206 F 
ATOM     93  C   UNL     1      11.092  -1.375  -2.211  1.00  0.00     0.003 A 
ENDBRANCH  79  87
ENDBRANCH  73  75
ENDBRANCH  66  69
ENDBRANCH  64  65
ENDBRANCH  63  64
ENDBRANCH   1  63
TORSDOF 14
