REMARK SMILES CC(C)(C)OC(=O)N1CCC[C@H]1C(=O)N[C@@H](Cc1ccccc1)C(=O)NCCCCNC(=O)c1ccc(-c2c3nc(c(-c4c(F)cccc4F)c4ccc([nH]4)c(-c4c(F)cccc4F)c4nc(c(-c5c(F)cccc5F)c5ccc2[nH]5)C=C4)C=C3)cc1
REMARK SMILES IDX 27 1 26 2 24 3 25 4 16 6 15 7 13 8 14 9 12 11 8 12 9 13
REMARK SMILES IDX 10 14 11 15 6 16 7 17 5 18 2 19 1 20 3 21 4 22 17 23 18 24
REMARK SMILES IDX 19 25 23 26 20 27 22 28 21 29 28 30 29 31 30 32 31 33 32 34
REMARK SMILES IDX 33 36 34 37 35 38 87 39 36 40 86 41 37 42 38 43 39 44 80 45
REMARK SMILES IDX 40 46 85 47 79 48 81 49 41 50 84 51 78 52 77 53 42 55 68 56
REMARK SMILES IDX 51 57 67 58 52 59 55 60 66 61 82 62 53 63 54 64 65 66 83 67
REMARK SMILES IDX 56 68 43 69 44 70 49 71 45 72 46 73 48 74 50 75 47 76 69 77
REMARK SMILES IDX 70 78 75 79 71 80 72 81 74 82 76 83 73 84 57 85 58 86 63 87
REMARK SMILES IDX 59 88 60 89 62 90 64 91 61 92
REMARK H PARENT 26 5 15 10 31 35 81 54 55 65
REMARK Flexibility Score: inf
ROOT
ATOM      1  C   UNL     1      -1.777   0.193  11.019  1.00  0.00     0.116 C 
ENDROOT
BRANCH   1   2
ATOM      2  N   UNL     1      -2.231  -1.023  10.392  1.00  0.00    -0.354 N 
ATOM      3  C   UNL     1      -1.532  -1.871   9.585  1.00  0.00     0.242 C 
ATOM      4  O   UNL     1      -1.985  -3.014   9.452  1.00  0.00    -0.273 OA
ATOM      5  H   UNL     1      -3.167  -1.273  10.570  1.00  0.00     0.163 HD
BRANCH   3   6
ATOM      6  C   UNL     1      -0.181  -1.500   8.921  1.00  0.00     0.175 C 
BRANCH   6   7
ATOM      7  N   UNL     1      -0.161  -0.235   8.180  1.00  0.00    -0.342 N 
ATOM      8  C   UNL     1       0.257   0.060   6.914  1.00  0.00     0.243 C 
ATOM      9  O   UNL     1       0.381   1.262   6.659  1.00  0.00    -0.273 OA
ATOM     10  H   UNL     1      -0.508   0.537   8.684  1.00  0.00     0.164 HD
BRANCH   8  11
ATOM     11  C   UNL     1       0.486  -1.052   5.856  1.00  0.00     0.178 C 
ATOM     12  N   UNL     1       1.041  -0.515   4.609  1.00  0.00    -0.296 N 
ATOM     13  C   UNL     1       2.413  -0.929   4.415  1.00  0.00     0.124 C 
ATOM     14  C   UNL     1       2.428  -2.297   5.056  1.00  0.00     0.024 C 
ATOM     15  C   UNL     1       1.531  -2.102   6.272  1.00  0.00     0.037 C 
BRANCH  12  16
ATOM     16  C   UNL     1       0.265   0.133   3.678  1.00  0.00     0.410 C 
ATOM     17  O   UNL     1      -0.892   0.462   3.871  1.00  0.00    -0.224 OA
BRANCH  16  18
ATOM     18  O   UNL     1       0.939   0.271   2.510  1.00  0.00    -0.444 OA
BRANCH  18  19
ATOM     19  C   UNL     1       0.397   0.882   1.311  1.00  0.00     0.106 C 
ATOM     20  C   UNL     1       1.105   0.154   0.158  1.00  0.00     0.056 C 
ATOM     21  C   UNL     1       0.806   2.355   1.314  1.00  0.00     0.056 C 
ATOM     22  C   UNL     1      -1.115   0.727   1.121  1.00  0.00     0.056 C 
ENDBRANCH  18  19
ENDBRANCH  16  18
ENDBRANCH  12  16
ENDBRANCH   8  11
ENDBRANCH   6   7
BRANCH   6  23
ATOM     23  C   UNL     1       1.058  -1.699   9.841  1.00  0.00     0.070 C 
BRANCH  23  24
ATOM     24  C   UNL     1       1.294  -0.772  11.017  1.00  0.00    -0.045 A 
ATOM     25  C   UNL     1       1.498   0.607  10.851  1.00  0.00     0.004 A 
ATOM     26  C   UNL     1       1.349  -1.298  12.317  1.00  0.00     0.004 A 
ATOM     27  C   UNL     1       1.617   1.451  11.961  1.00  0.00     0.000 A 
ATOM     28  C   UNL     1       1.514  -0.459  13.423  1.00  0.00     0.000 A 
ATOM     29  C   UNL     1       1.616   0.918  13.247  1.00  0.00     0.000 A 
ENDBRANCH  23  24
ENDBRANCH   6  23
ENDBRANCH   3   6
ENDBRANCH   1   2
BRANCH   1  30
ATOM     30  C   UNL     1      -2.793   1.319  11.035  1.00  0.00     0.023 C 
BRANCH  30  31
ATOM     31  C   UNL     1      -3.889   1.188  12.082  1.00  0.00     0.023 C 
BRANCH  31  32
ATOM     32  C   UNL     1      -3.419   0.887  13.501  1.00  0.00     0.116 C 
BRANCH  32  33
ATOM     33  N   UNL     1      -2.425   1.819  14.024  1.00  0.00    -0.352 N 
ATOM     34  C   UNL     1      -2.388   2.423  15.262  1.00  0.00     0.251 C 
ATOM     35  H   UNL     1      -1.685   2.044  13.414  1.00  0.00     0.163 HD
ATOM     36  O   UNL     1      -1.503   3.217  15.557  1.00  0.00    -0.269 OA
BRANCH  34  37
ATOM     37  C   UNL     1      -3.474   2.125  16.217  1.00  0.00     0.039 A 
ATOM     38  C   UNL     1      -4.260   3.173  16.698  1.00  0.00     0.014 A 
ATOM     39  C   UNL     1      -3.793   0.798  16.512  1.00  0.00     0.014 A 
ATOM     40  C   UNL     1      -5.441   2.882  17.385  1.00  0.00     0.010 A 
ATOM     41  C   UNL     1      -5.010   0.511  17.116  1.00  0.00     0.010 A 
ATOM     42  C   UNL     1      -5.856   1.549  17.541  1.00  0.00    -0.014 A 
BRANCH  42  43
ATOM     43  C   UNL     1      -7.182   1.206  18.118  1.00  0.00     0.031 A 
ATOM     44  C   UNL     1      -7.260   0.377  19.369  1.00  0.00     0.074 A 
ATOM     45  C   UNL     1      -8.310   1.549  17.464  1.00  0.00     0.049 A 
ATOM     46  N   UNL     1      -8.309  -0.143  19.953  1.00  0.00    -0.248 NA
ATOM     47  C   UNL     1      -5.984   0.060  20.030  1.00  0.00     0.031 C 
ATOM     48  C   UNL     1      -8.372   2.306  16.212  1.00  0.00     0.029 A 
ATOM     49  N   UNL     1      -9.627   1.288  17.756  1.00  0.00    -0.354 N 
ATOM     50  C   UNL     1      -7.817  -0.865  21.032  1.00  0.00     0.074 A 
ATOM     51  C   UNL     1      -6.375  -0.762  20.991  1.00  0.00     0.031 C 
ATOM     52  C   UNL     1      -9.658   2.467  15.857  1.00  0.00     0.029 A 
ATOM     53  C   UNL     1     -10.509   1.791  16.830  1.00  0.00     0.049 A 
ATOM     54  H   UNL     1      -9.912   0.787  18.555  1.00  0.00     0.167 HD
ATOM     55  C   UNL     1      -8.506  -1.534  21.987  1.00  0.00     0.037 A 
ATOM     56  C   UNL     1     -11.852   1.707  16.768  1.00  0.00     0.037 A 
ATOM     57  C   UNL     1      -9.941  -1.605  22.050  1.00  0.00     0.049 A 
ATOM     58  C   UNL     1     -12.594   0.963  17.843  1.00  0.00     0.074 A 
ATOM     59  C   UNL     1     -10.732  -2.204  23.013  1.00  0.00     0.029 A 
ATOM     60  N   UNL     1     -10.799  -1.052  21.111  1.00  0.00    -0.354 N 
ATOM     61  N   UNL     1     -12.119   0.335  18.891  1.00  0.00    -0.248 NA
ATOM     62  C   UNL     1     -14.059   0.915  17.727  1.00  0.00     0.031 C 
ATOM     63  C   UNL     1     -12.071  -2.043  22.640  1.00  0.00     0.029 A 
ATOM     64  C   UNL     1     -12.112  -1.309  21.465  1.00  0.00     0.049 A 
ATOM     65  H   UNL     1     -10.516  -0.552  20.312  1.00  0.00     0.167 HD
ATOM     66  C   UNL     1     -13.224  -0.154  19.574  1.00  0.00     0.074 A 
ATOM     67  C   UNL     1     -14.395   0.255  18.827  1.00  0.00     0.031 C 
ATOM     68  C   UNL     1     -13.266  -0.878  20.719  1.00  0.00     0.037 A 
BRANCH  55  69
ATOM     69  C   UNL     1      -7.708  -2.230  23.049  1.00  0.00     0.057 A 
ATOM     70  C   UNL     1      -7.011  -1.516  24.033  1.00  0.00     0.134 A 
ATOM     71  C   UNL     1      -7.652  -3.628  23.102  1.00  0.00     0.134 A 
ATOM     72  F   UNL     1      -7.012  -0.175  24.028  1.00  0.00    -0.206 F 
ATOM     73  C   UNL     1      -6.264  -2.167  25.015  1.00  0.00     0.040 A 
ATOM     74  C   UNL     1      -6.931  -4.291  24.096  1.00  0.00     0.040 A 
ATOM     75  F   UNL     1      -8.300  -4.372  22.193  1.00  0.00    -0.206 F 
ATOM     76  C   UNL     1      -6.228  -3.560  25.052  1.00  0.00     0.006 A 
ENDBRANCH  55  69
BRANCH  56  77
ATOM     77  C   UNL     1     -12.590   2.365  15.660  1.00  0.00     0.057 A 
ATOM     78  C   UNL     1     -13.373   3.502  15.895  1.00  0.00     0.134 A 
ATOM     79  C   UNL     1     -12.547   1.871  14.352  1.00  0.00     0.134 A 
ATOM     80  F   UNL     1     -13.470   4.010  17.132  1.00  0.00    -0.206 F 
ATOM     81  C   UNL     1     -14.101   4.113  14.873  1.00  0.00     0.040 A 
ATOM     82  C   UNL     1     -13.253   2.485  13.315  1.00  0.00     0.040 A 
ATOM     83  F   UNL     1     -11.812   0.788  14.060  1.00  0.00    -0.206 F 
ATOM     84  C   UNL     1     -14.039   3.606  13.576  1.00  0.00     0.006 A 
ENDBRANCH  56  77
BRANCH  68  85
ATOM     85  C   UNL     1     -14.617  -1.239  21.258  1.00  0.00     0.057 A 
ATOM     86  C   UNL     1     -15.401  -2.241  20.674  1.00  0.00     0.134 A 
ATOM     87  C   UNL     1     -15.113  -0.614  22.409  1.00  0.00     0.134 A 
ATOM     88  F   UNL     1     -14.987  -2.867  19.562  1.00  0.00    -0.206 F 
ATOM     89  C   UNL     1     -16.640  -2.599  21.209  1.00  0.00     0.040 A 
ATOM     90  C   UNL     1     -16.338  -0.979  22.966  1.00  0.00     0.040 A 
ATOM     91  F   UNL     1     -14.405   0.349  23.020  1.00  0.00    -0.206 F 
ATOM     92  C   UNL     1     -17.107  -1.973  22.364  1.00  0.00     0.006 A 
ENDBRANCH  68  85
ENDBRANCH  42  43
ENDBRANCH  34  37
ENDBRANCH  32  33
ENDBRANCH  31  32
ENDBRANCH  30  31
ENDBRANCH   1  30
TORSDOF 18
