REMARK SMILES CCC[C@H]1CC[C@H](C(=O)NCCCCNC(=O)c2ccc(-c3c4nc(c(-c5c(F)cccc5F)c5ccc([nH]5)c(-c5c(F)cccc5F)c5nc(c(-c6c(F)cccc6F)c6ccc3[nH]6)C=C5)C=C4)cc2)[C@H](Sc2ccncc2)C1
REMARK SMILES IDX 12 1 11 2 10 3 8 4 9 5 7 7 4 8 5 9 80 10 6 11 72 12 3 13
REMARK SMILES IDX 2 14 1 15 73 16 74 17 75 18 79 19 76 20 78 21 77 22 13 23
REMARK SMILES IDX 14 24 15 25 16 26 17 28 18 29 19 30 71 31 20 32 70 33 21 34
REMARK SMILES IDX 22 35 23 36 64 37 24 38 69 39 63 40 65 41 25 42 68 43 62 44
REMARK SMILES IDX 61 45 26 47 52 48 35 49 51 50 36 51 39 52 50 53 66 54 37 55
REMARK SMILES IDX 38 56 49 58 67 59 40 60 27 61 28 62 33 63 29 64 30 65 32 66
REMARK SMILES IDX 34 67 31 68 53 69 54 70 59 71 55 72 56 73 58 74 60 75 57 76
REMARK SMILES IDX 41 77 42 78 47 79 43 80 44 81 46 82 48 83 45 84
REMARK H PARENT 10 6 15 27 65 46 39 57
REMARK Flexibility Score: inf
ROOT
ATOM      1  C   UNL     1      -1.923   3.865   0.677  1.00  0.00     0.023 C 
ENDROOT
BRANCH   1   2
ATOM      2  C   UNL     1      -2.212   2.612  -0.145  1.00  0.00     0.116 C 
BRANCH   2   3
ATOM      3  N   UNL     1      -3.174   2.839  -1.194  1.00  0.00    -0.356 N 
ATOM      4  C   UNL     1      -3.137   2.682  -2.537  1.00  0.00     0.224 C 
ATOM      5  O   UNL     1      -4.212   2.901  -3.116  1.00  0.00    -0.275 OA
ATOM      6  H   UNL     1      -4.037   3.180  -0.865  1.00  0.00     0.163 HD
BRANCH   4   7
ATOM      7  C   UNL     1      -1.906   2.332  -3.384  1.00  0.00     0.092 C 
ATOM      8  C   UNL     1       0.860   2.087  -2.132  1.00  0.00    -0.010 C 
ATOM      9  C   UNL     1       0.180   3.457  -2.381  1.00  0.00     0.004 C 
ATOM     10  C   UNL     1      -0.099   0.870  -2.208  1.00  0.00     0.019 C 
ATOM     11  C   UNL     1      -0.898   3.482  -3.454  1.00  0.00     0.015 C 
ATOM     12  C   UNL     1      -1.178   0.986  -3.284  1.00  0.00     0.064 C 
BRANCH   8  13
ATOM     13  C   UNL     1       2.089   1.952  -3.062  1.00  0.00     0.003 C 
BRANCH  13  14
ATOM     14  C   UNL     1       3.180   0.988  -2.573  1.00  0.00    -0.003 C 
ATOM     15  C   UNL     1       2.960  -0.471  -2.935  1.00  0.00     0.004 C 
ENDBRANCH  13  14
ENDBRANCH   8  13
BRANCH  12  16
ATOM     16  S   UNL     1      -2.176  -0.555  -3.508  1.00  0.00    -0.122 SA
BRANCH  16  17
ATOM     17  C   UNL     1      -3.224  -0.636  -2.077  1.00  0.00     0.011 A 
ATOM     18  C   UNL     1      -4.524  -0.141  -2.143  1.00  0.00     0.035 A 
ATOM     19  C   UNL     1      -2.825  -1.326  -0.935  1.00  0.00     0.035 A 
ATOM     20  C   UNL     1      -5.342  -0.278  -1.036  1.00  0.00     0.112 A 
ATOM     21  C   UNL     1      -3.726  -1.436   0.113  1.00  0.00     0.112 A 
ATOM     22  N   UNL     1      -4.965  -0.902   0.099  1.00  0.00    -0.265 NA
ENDBRANCH  16  17
ENDBRANCH  12  16
ENDBRANCH   4   7
ENDBRANCH   2   3
ENDBRANCH   1   2
BRANCH   1  23
ATOM     23  C   UNL     1      -2.634   3.904   2.024  1.00  0.00     0.023 C 
BRANCH  23  24
ATOM     24  C   UNL     1      -2.298   2.751   2.964  1.00  0.00     0.116 C 
BRANCH  24  25
ATOM     25  N   UNL     1      -0.882   2.632   3.291  1.00  0.00    -0.352 N 
ATOM     26  C   UNL     1      -0.322   2.294   4.506  1.00  0.00     0.251 C 
ATOM     27  H   UNL     1      -0.251   2.814   2.557  1.00  0.00     0.163 HD
ATOM     28  O   UNL     1       0.887   2.274   4.667  1.00  0.00    -0.269 OA
BRANCH  26  29
ATOM     29  C   UNL     1      -1.237   2.008   5.629  1.00  0.00     0.039 A 
ATOM     30  C   UNL     1      -1.163   2.798   6.777  1.00  0.00     0.014 A 
ATOM     31  C   UNL     1      -2.252   1.061   5.473  1.00  0.00     0.014 A 
ATOM     32  C   UNL     1      -2.174   2.706   7.734  1.00  0.00     0.010 A 
ATOM     33  C   UNL     1      -3.299   1.032   6.386  1.00  0.00     0.010 A 
ATOM     34  C   UNL     1      -3.276   1.862   7.518  1.00  0.00    -0.014 A 
BRANCH  34  35
ATOM     35  C   UNL     1      -4.427   1.837   8.454  1.00  0.00     0.031 A 
ATOM     36  C   UNL     1      -4.763   0.572   9.190  1.00  0.00     0.074 A 
ATOM     37  C   UNL     1      -5.218   2.921   8.576  1.00  0.00     0.049 A 
ATOM     38  N   UNL     1      -5.776   0.316   9.977  1.00  0.00    -0.248 NA
ATOM     39  C   UNL     1      -3.858  -0.570   8.983  1.00  0.00     0.031 C 
ATOM     40  C   UNL     1      -5.037   4.191   7.868  1.00  0.00     0.029 A 
ATOM     41  N   UNL     1      -6.344   3.124   9.334  1.00  0.00    -0.354 N 
ATOM     42  C   UNL     1      -5.645  -1.019  10.334  1.00  0.00     0.074 A 
ATOM     43  C   UNL     1      -4.486  -1.534   9.638  1.00  0.00     0.031 C 
ATOM     44  C   UNL     1      -5.997   5.049   8.250  1.00  0.00     0.029 A 
ATOM     45  C   UNL     1      -6.880   4.382   9.202  1.00  0.00     0.049 A 
ATOM     46  H   UNL     1      -6.731   2.433   9.919  1.00  0.00     0.167 HD
ATOM     47  C   UNL     1      -6.404  -1.746  11.187  1.00  0.00     0.037 A 
ATOM     48  C   UNL     1      -7.961   4.933   9.785  1.00  0.00     0.037 A 
ATOM     49  C   UNL     1      -7.529  -1.221  11.913  1.00  0.00     0.049 A 
ATOM     50  C   UNL     1      -8.773   4.115  10.750  1.00  0.00     0.074 A 
ATOM     51  C   UNL     1      -8.319  -1.854  12.857  1.00  0.00     0.029 A 
ATOM     52  N   UNL     1      -8.019   0.069  11.779  1.00  0.00    -0.354 N 
ATOM     53  N   UNL     1      -8.597   2.874  11.133  1.00  0.00    -0.248 NA
ATOM     54  C   UNL     1      -9.931   4.777  11.368  1.00  0.00     0.031 C 
ATOM     55  C   UNL     1      -9.304  -0.954  13.275  1.00  0.00     0.029 A 
ATOM     56  C   UNL     1      -9.107   0.249  12.616  1.00  0.00     0.049 A 
ATOM     57  H   UNL     1      -7.648   0.755  11.178  1.00  0.00     0.167 HD
ATOM     58  C   UNL     1      -9.601   2.615  12.055  1.00  0.00     0.074 A 
ATOM     59  C   UNL     1     -10.378   3.830  12.181  1.00  0.00     0.031 C 
ATOM     60  C   UNL     1      -9.858   1.472  12.736  1.00  0.00     0.037 A 
BRANCH  47  61
ATOM     61  C   UNL     1      -6.025  -3.183  11.384  1.00  0.00     0.057 A 
ATOM     62  C   UNL     1      -4.866  -3.549  12.082  1.00  0.00     0.134 A 
ATOM     63  C   UNL     1      -6.825  -4.211  10.874  1.00  0.00     0.134 A 
ATOM     64  F   UNL     1      -4.048  -2.610  12.581  1.00  0.00    -0.206 F 
ATOM     65  C   UNL     1      -4.499  -4.886  12.236  1.00  0.00     0.040 A 
ATOM     66  C   UNL     1      -6.482  -5.554  11.044  1.00  0.00     0.040 A 
ATOM     67  F   UNL     1      -7.950  -3.929  10.199  1.00  0.00    -0.206 F 
ATOM     68  C   UNL     1      -5.311  -5.894  11.719  1.00  0.00     0.006 A 
ENDBRANCH  47  61
BRANCH  48  69
ATOM     69  C   UNL     1      -8.317   6.347   9.509  1.00  0.00     0.057 A 
ATOM     70  C   UNL     1      -8.118   7.337  10.479  1.00  0.00     0.134 A 
ATOM     71  C   UNL     1      -8.870   6.743   8.286  1.00  0.00     0.134 A 
ATOM     72  F   UNL     1      -7.610   7.014  11.677  1.00  0.00    -0.206 F 
ATOM     73  C   UNL     1      -8.472   8.667  10.250  1.00  0.00     0.040 A 
ATOM     74  C   UNL     1      -9.210   8.074   8.036  1.00  0.00     0.040 A 
ATOM     75  F   UNL     1      -9.079   5.843   7.314  1.00  0.00    -0.206 F 
ATOM     76  C   UNL     1      -9.017   9.039   9.023  1.00  0.00     0.006 A 
ENDBRANCH  48  69
BRANCH  60  77
ATOM     77  C   UNL     1     -11.001   1.495  13.705  1.00  0.00     0.057 A 
ATOM     78  C   UNL     1     -12.333   1.458  13.274  1.00  0.00     0.134 A 
ATOM     79  C   UNL     1     -10.764   1.514  15.085  1.00  0.00     0.134 A 
ATOM     80  F   UNL     1     -12.623   1.453  11.964  1.00  0.00    -0.206 F 
ATOM     81  C   UNL     1     -13.391   1.454  14.183  1.00  0.00     0.040 A 
ATOM     82  C   UNL     1     -11.813   1.489  16.004  1.00  0.00     0.040 A 
ATOM     83  F   UNL     1      -9.510   1.544  15.560  1.00  0.00    -0.206 F 
ATOM     84  C   UNL     1     -13.132   1.463  15.553  1.00  0.00     0.006 A 
ENDBRANCH  60  77
ENDBRANCH  34  35
ENDBRANCH  26  29
ENDBRANCH  24  25
ENDBRANCH  23  24
ENDBRANCH   1  23
TORSDOF 15
