REMARK SMILES Cc1cc(C(=O)N[C@H]2C=C[C@H](C(=O)NCCCCNC(=O)c3ccc(-c4c5nc(c(-c6c(F)cccc6F)c6ccc([nH]6)c(-c6c(F)cccc6F)c6nc(c(-c7c(F)cccc7F)c7ccc4[nH]7)C=C6)C=C5)cc3)C2)ccc1F
REMARK SMILES IDX 16 1 15 2 14 3 12 4 13 5 11 7 8 8 9 9 76 10 10 11 7 12 5 13
REMARK SMILES IDX 6 14 4 16 1 17 2 18 3 19 79 20 78 21 80 22 77 23 17 24 18 25
REMARK SMILES IDX 19 26 20 27 21 29 22 30 23 31 75 32 24 33 74 34 25 35 26 36
REMARK SMILES IDX 27 37 68 38 28 39 73 40 67 41 69 42 29 43 72 44 66 45 65 46
REMARK SMILES IDX 30 48 56 49 39 50 55 51 40 52 43 53 54 54 70 55 41 56 42 57
REMARK SMILES IDX 53 59 71 60 44 61 31 62 32 63 37 64 33 65 34 66 36 67 38 68
REMARK SMILES IDX 35 69 57 70 58 71 63 72 59 73 60 74 62 75 64 76 61 77 45 78
REMARK SMILES IDX 46 79 51 80 47 81 48 82 50 83 52 84 49 85
REMARK H PARENT 14 6 7 15 19 28 69 47 43 58
REMARK Flexibility Score: inf
ROOT
ATOM      1  C   UNL     1       0.470   8.109   2.294  1.00  0.00     0.023 C 
ENDROOT
BRANCH   1   2
ATOM      2  C   UNL     1      -0.040   7.285   1.116  1.00  0.00     0.116 C 
BRANCH   2   3
ATOM      3  N   UNL     1       0.473   5.935   1.153  1.00  0.00    -0.356 N 
ATOM      4  C   UNL     1      -0.083   4.763   1.544  1.00  0.00     0.227 C 
ATOM      5  O   UNL     1       0.679   3.789   1.525  1.00  0.00    -0.274 OA
ATOM      6  H   UNL     1       1.401   5.851   0.833  1.00  0.00     0.163 HD
BRANCH   4   7
ATOM      7  C   UNL     1      -1.542   4.617   2.044  1.00  0.00     0.103 C 
ATOM      8  C   UNL     1      -2.541   3.349   0.262  1.00  0.00     0.106 C 
ATOM      9  C   UNL     1      -3.210   4.680   0.371  1.00  0.00    -0.006 C 
ATOM     10  C   UNL     1      -2.018   3.190   1.694  1.00  0.00     0.047 C 
ATOM     11  C   UNL     1      -2.636   5.391   1.352  1.00  0.00    -0.016 C 
BRANCH   8  12
ATOM     12  N   UNL     1      -3.447   2.324  -0.169  1.00  0.00    -0.346 N 
ATOM     13  C   UNL     1      -3.206   1.006  -0.483  1.00  0.00     0.251 C 
ATOM     14  O   UNL     1      -4.162   0.306  -0.815  1.00  0.00    -0.269 OA
ATOM     15  H   UNL     1      -4.387   2.607  -0.253  1.00  0.00     0.164 HD
BRANCH  13  16
ATOM     16  C   UNL     1      -1.856   0.376  -0.364  1.00  0.00     0.040 A 
ATOM     17  C   UNL     1       1.866   1.200  -0.439  1.00  0.00     0.047 C 
ATOM     18  C   UNL     1       0.586   0.424  -0.340  1.00  0.00    -0.015 A 
ATOM     19  C   UNL     1      -0.646   1.039  -0.606  1.00  0.00     0.020 A 
ATOM     20  C   UNL     1       0.597  -0.914   0.046  1.00  0.00     0.126 A 
ATOM     21  C   UNL     1      -0.588  -1.625   0.197  1.00  0.00     0.040 A 
ATOM     22  F   UNL     1       1.763  -1.534   0.275  1.00  0.00    -0.207 F 
ATOM     23  C   UNL     1      -1.812  -0.978   0.008  1.00  0.00     0.017 A 
ENDBRANCH  13  16
ENDBRANCH   8  12
ENDBRANCH   4   7
ENDBRANCH   2   3
ENDBRANCH   1   2
BRANCH   1  24
ATOM     24  C   UNL     1       1.958   8.482   2.229  1.00  0.00     0.023 C 
BRANCH  24  25
ATOM     25  C   UNL     1       2.353   9.280   0.991  1.00  0.00     0.116 C 
BRANCH  25  26
ATOM     26  N   UNL     1       1.573  10.505   0.843  1.00  0.00    -0.352 N 
ATOM     27  C   UNL     1       1.707  11.495  -0.105  1.00  0.00     0.251 C 
ATOM     28  H   UNL     1       0.859  10.641   1.507  1.00  0.00     0.163 HD
ATOM     29  O   UNL     1       1.147  12.574   0.020  1.00  0.00    -0.269 OA
BRANCH  27  30
ATOM     30  C   UNL     1       2.534  11.228  -1.292  1.00  0.00     0.039 A 
ATOM     31  C   UNL     1       3.485  12.162  -1.730  1.00  0.00     0.014 A 
ATOM     32  C   UNL     1       2.326  10.036  -1.977  1.00  0.00     0.014 A 
ATOM     33  C   UNL     1       4.283  11.864  -2.836  1.00  0.00     0.010 A 
ATOM     34  C   UNL     1       3.160   9.709  -3.014  1.00  0.00     0.010 A 
ATOM     35  C   UNL     1       4.120  10.629  -3.463  1.00  0.00    -0.014 A 
BRANCH  35  36
ATOM     36  C   UNL     1       4.852  10.173  -4.633  1.00  0.00     0.031 A 
ATOM     37  C   UNL     1       6.233   9.668  -4.553  1.00  0.00     0.074 A 
ATOM     38  C   UNL     1       4.100   9.967  -5.734  1.00  0.00     0.049 A 
ATOM     39  N   UNL     1       6.955   9.418  -5.590  1.00  0.00    -0.248 NA
ATOM     40  C   UNL     1       6.926   9.399  -3.298  1.00  0.00     0.031 C 
ATOM     41  C   UNL     1       4.356   9.092  -6.868  1.00  0.00     0.029 A 
ATOM     42  N   UNL     1       2.934  10.655  -6.084  1.00  0.00    -0.354 N 
ATOM     43  C   UNL     1       8.048   8.691  -5.180  1.00  0.00     0.074 A 
ATOM     44  C   UNL     1       8.033   8.783  -3.737  1.00  0.00     0.031 C 
ATOM     45  C   UNL     1       3.561   9.464  -7.886  1.00  0.00     0.029 A 
ATOM     46  C   UNL     1       2.929  10.711  -7.487  1.00  0.00     0.049 A 
ATOM     47  H   UNL     1       2.257  11.025  -5.472  1.00  0.00     0.167 HD
ATOM     48  C   UNL     1       8.750   7.981  -6.109  1.00  0.00     0.037 A 
ATOM     49  C   UNL     1       3.115  11.910  -8.117  1.00  0.00     0.037 A 
ATOM     50  C   UNL     1       8.183   8.168  -7.442  1.00  0.00     0.049 A 
ATOM     51  C   UNL     1       4.322  11.929  -9.020  1.00  0.00     0.074 A 
ATOM     52  C   UNL     1       7.309   7.413  -8.209  1.00  0.00     0.029 A 
ATOM     53  N   UNL     1       8.245   9.420  -8.037  1.00  0.00    -0.354 N 
ATOM     54  N   UNL     1       5.361  11.153  -8.880  1.00  0.00    -0.248 NA
ATOM     55  C   UNL     1       4.428  12.799 -10.182  1.00  0.00     0.031 C 
ATOM     56  C   UNL     1       6.843   8.224  -9.275  1.00  0.00     0.029 A 
ATOM     57  C   UNL     1       7.446   9.465  -9.163  1.00  0.00     0.049 A 
ATOM     58  H   UNL     1       8.784  10.173  -7.703  1.00  0.00     0.167 HD
ATOM     59  C   UNL     1       6.247  11.368  -9.910  1.00  0.00     0.074 A 
ATOM     60  C   UNL     1       5.604  12.403 -10.700  1.00  0.00     0.031 C 
ATOM     61  C   UNL     1       7.418  10.660  -9.999  1.00  0.00     0.037 A 
BRANCH  48  62
ATOM     62  C   UNL     1       9.784   6.923  -5.797  1.00  0.00     0.057 A 
ATOM     63  C   UNL     1       9.980   5.819  -6.656  1.00  0.00     0.134 A 
ATOM     64  C   UNL     1      10.618   6.930  -4.667  1.00  0.00     0.134 A 
ATOM     65  F   UNL     1       9.320   5.696  -7.814  1.00  0.00    -0.206 F 
ATOM     66  C   UNL     1      10.867   4.772  -6.371  1.00  0.00     0.040 A 
ATOM     67  C   UNL     1      11.481   5.868  -4.348  1.00  0.00     0.040 A 
ATOM     68  F   UNL     1      10.673   7.988  -3.848  1.00  0.00    -0.206 F 
ATOM     69  C   UNL     1      11.602   4.778  -5.198  1.00  0.00     0.006 A 
ENDBRANCH  48  62
BRANCH  49  70
ATOM     70  C   UNL     1       2.613  13.058  -7.305  1.00  0.00     0.057 A 
ATOM     71  C   UNL     1       1.230  13.129  -7.048  1.00  0.00     0.134 A 
ATOM     72  C   UNL     1       3.458  13.744  -6.423  1.00  0.00     0.134 A 
ATOM     73  F   UNL     1       0.365  12.488  -7.851  1.00  0.00    -0.206 F 
ATOM     74  C   UNL     1       0.722  13.727  -5.891  1.00  0.00     0.040 A 
ATOM     75  C   UNL     1       2.958  14.353  -5.264  1.00  0.00     0.040 A 
ATOM     76  F   UNL     1       4.787  13.722  -6.595  1.00  0.00    -0.206 F 
ATOM     77  C   UNL     1       1.594  14.307  -4.974  1.00  0.00     0.006 A 
ENDBRANCH  49  70
BRANCH  61  78
ATOM     78  C   UNL     1       8.641  10.930 -10.871  1.00  0.00     0.057 A 
ATOM     79  C   UNL     1       8.848  12.062 -11.670  1.00  0.00     0.134 A 
ATOM     80  C   UNL     1       9.764  10.056 -10.822  1.00  0.00     0.134 A 
ATOM     81  F   UNL     1       7.932  13.023 -11.800  1.00  0.00    -0.206 F 
ATOM     82  C   UNL     1      10.048  12.303 -12.360  1.00  0.00     0.040 A 
ATOM     83  C   UNL     1      10.983  10.316 -11.457  1.00  0.00     0.040 A 
ATOM     84  F   UNL     1       9.753   8.908 -10.131  1.00  0.00    -0.206 F 
ATOM     85  C   UNL     1      11.129  11.444 -12.237  1.00  0.00     0.006 A 
ENDBRANCH  61  78
ENDBRANCH  35  36
ENDBRANCH  27  30
ENDBRANCH  25  26
ENDBRANCH  24  25
ENDBRANCH   1  24
TORSDOF 13
