REMARK SMILES CC(C)Cc1ccc([C@@H](C)C(=O)NCCCCNC(=O)c2ccc(-c3c4nc(c(-c5c(F)cccc5F)c5ccc([nH]5)c(-c5c(F)cccc5F)c5nc(c(-c6c(F)cccc6F)c6ccc3[nH]6)C=C5)C=C4)cc2)cc1
REMARK SMILES IDX 15 1 14 2 13 3 11 4 12 5 9 7 10 8 8 9 5 10 6 11 76 12 7 13
REMARK SMILES IDX 75 14 4 15 2 16 1 17 3 18 16 19 17 20 18 21 19 22 20 24
REMARK SMILES IDX 21 25 22 26 74 27 23 28 73 29 24 30 25 31 26 32 67 33 27 34
REMARK SMILES IDX 72 35 66 36 68 37 28 38 71 39 65 40 64 41 29 43 55 44 38 45
REMARK SMILES IDX 54 46 39 47 42 48 53 49 69 50 40 51 41 52 52 54 70 55 43 56
REMARK SMILES IDX 30 57 31 58 36 59 32 60 33 61 35 62 37 63 34 64 56 65 57 66
REMARK SMILES IDX 62 67 58 68 59 69 61 70 63 71 60 72 44 73 45 74 50 75 46 76
REMARK SMILES IDX 47 77 49 78 51 79 48 80
REMARK H PARENT 13 6 18 23 68 42 42 53
REMARK Flexibility Score: inf
ROOT
ATOM      1  C   UNL     1      -0.303   4.463  -3.440  1.00  0.00     0.023 C 
ENDROOT
BRANCH   1   2
ATOM      2  C   UNL     1      -0.863   5.710  -2.751  1.00  0.00     0.116 C 
BRANCH   2   3
ATOM      3  N   UNL     1      -2.308   5.778  -2.828  1.00  0.00    -0.356 N 
ATOM      4  C   UNL     1      -3.286   5.372  -1.971  1.00  0.00     0.227 C 
ATOM      5  O   UNL     1      -4.450   5.530  -2.363  1.00  0.00    -0.274 OA
ATOM      6  H   UNL     1      -2.646   6.196  -3.652  1.00  0.00     0.163 HD
BRANCH   4   7
ATOM      7  C   UNL     1      -3.026   4.766  -0.582  1.00  0.00     0.105 C 
ATOM      8  C   UNL     1      -2.313   5.713   0.384  1.00  0.00     0.023 C 
BRANCH   7   9
ATOM      9  C   UNL     1      -2.478   3.349  -0.630  1.00  0.00    -0.036 A 
ATOM     10  C   UNL     1      -1.496   0.695  -0.918  1.00  0.00    -0.048 A 
ATOM     11  C   UNL     1      -0.632   1.789  -0.893  1.00  0.00     0.004 A 
ATOM     12  C   UNL     1      -2.870   0.946  -0.792  1.00  0.00     0.004 A 
ATOM     13  C   UNL     1      -1.110   3.083  -0.683  1.00  0.00     0.005 A 
ATOM     14  C   UNL     1      -3.356   2.255  -0.672  1.00  0.00     0.005 A 
BRANCH  10  15
ATOM     15  C   UNL     1      -1.020  -0.732  -1.096  1.00  0.00     0.038 C 
BRANCH  15  16
ATOM     16  C   UNL     1       0.504  -0.995  -1.085  1.00  0.00    -0.013 C 
ATOM     17  C   UNL     1       1.148  -0.709   0.278  1.00  0.00     0.008 C 
ATOM     18  C   UNL     1       0.787  -2.452  -1.462  1.00  0.00     0.008 C 
ENDBRANCH  15  16
ENDBRANCH  10  15
ENDBRANCH   7   9
ENDBRANCH   4   7
ENDBRANCH   2   3
ENDBRANCH   1   2
BRANCH   1  19
ATOM     19  C   UNL     1       0.012   4.623  -4.924  1.00  0.00     0.023 C 
BRANCH  19  20
ATOM     20  C   UNL     1       1.101   5.636  -5.250  1.00  0.00     0.116 C 
BRANCH  20  21
ATOM     21  N   UNL     1       2.388   5.356  -4.626  1.00  0.00    -0.352 N 
ATOM     22  C   UNL     1       3.648   5.602  -5.128  1.00  0.00     0.251 C 
ATOM     23  H   UNL     1       2.353   4.939  -3.735  1.00  0.00     0.163 HD
ATOM     24  O   UNL     1       4.648   5.256  -4.517  1.00  0.00    -0.269 OA
BRANCH  22  25
ATOM     25  C   UNL     1       3.767   6.248  -6.453  1.00  0.00     0.039 A 
ATOM     26  C   UNL     1       4.534   5.625  -7.440  1.00  0.00     0.014 A 
ATOM     27  C   UNL     1       3.046   7.409  -6.740  1.00  0.00     0.014 A 
ATOM     28  C   UNL     1       4.498   6.114  -8.747  1.00  0.00     0.010 A 
ATOM     29  C   UNL     1       2.949   7.846  -8.055  1.00  0.00     0.010 A 
ATOM     30  C   UNL     1       3.664   7.195  -9.073  1.00  0.00    -0.014 A 
BRANCH  30  31
ATOM     31  C   UNL     1       3.498   7.656 -10.474  1.00  0.00     0.031 A 
ATOM     32  C   UNL     1       3.907   9.050 -10.855  1.00  0.00     0.074 A 
ATOM     33  C   UNL     1       2.882   6.862 -11.370  1.00  0.00     0.049 A 
ATOM     34  N   UNL     1       3.727   9.684 -11.985  1.00  0.00    -0.248 NA
ATOM     35  C   UNL     1       4.574   9.850  -9.815  1.00  0.00     0.031 C 
ATOM     36  C   UNL     1       2.380   5.511 -11.105  1.00  0.00     0.029 A 
ATOM     37  N   UNL     1       2.550   7.086 -12.683  1.00  0.00    -0.354 N 
ATOM     38  C   UNL     1       4.231  10.962 -11.783  1.00  0.00     0.074 A 
ATOM     39  C   UNL     1       4.681  11.028 -10.409  1.00  0.00     0.031 C 
ATOM     40  C   UNL     1       1.816   5.024 -12.222  1.00  0.00     0.029 A 
ATOM     41  C   UNL     1       1.882   6.038 -13.270  1.00  0.00     0.049 A 
ATOM     42  H   UNL     1       2.770   7.918 -13.160  1.00  0.00     0.167 HD
ATOM     43  C   UNL     1       4.328  11.982 -12.668  1.00  0.00     0.037 A 
ATOM     44  C   UNL     1       1.368   5.914 -14.508  1.00  0.00     0.037 A 
ATOM     45  C   UNL     1       3.920  11.898 -14.044  1.00  0.00     0.049 A 
ATOM     46  C   UNL     1       1.506   7.053 -15.479  1.00  0.00     0.074 A 
ATOM     47  C   UNL     1       4.069  12.840 -15.046  1.00  0.00     0.029 A 
ATOM     48  N   UNL     1       3.280  10.806 -14.611  1.00  0.00    -0.354 N 
ATOM     49  N   UNL     1       2.060   8.227 -15.300  1.00  0.00    -0.248 NA
ATOM     50  C   UNL     1       0.947   6.851 -16.824  1.00  0.00     0.031 C 
ATOM     51  C   UNL     1       3.484  12.333 -16.211  1.00  0.00     0.029 A 
ATOM     52  C   UNL     1       3.004  11.061 -15.944  1.00  0.00     0.049 A 
ATOM     53  H   UNL     1       3.056   9.973 -14.137  1.00  0.00     0.167 HD
ATOM     54  C   UNL     1       1.933   8.897 -16.509  1.00  0.00     0.074 A 
ATOM     55  C   UNL     1       1.262   7.992 -17.420  1.00  0.00     0.031 C 
ATOM     56  C   UNL     1       2.334  10.149 -16.835  1.00  0.00     0.037 A 
BRANCH  43  57
ATOM     57  C   UNL     1       4.905  13.273 -12.170  1.00  0.00     0.057 A 
ATOM     58  C   UNL     1       6.265  13.405 -11.863  1.00  0.00     0.134 A 
ATOM     59  C   UNL     1       4.094  14.405 -12.017  1.00  0.00     0.134 A 
ATOM     60  F   UNL     1       7.092  12.355 -11.975  1.00  0.00    -0.206 F 
ATOM     61  C   UNL     1       6.793  14.608 -11.393  1.00  0.00     0.040 A 
ATOM     62  C   UNL     1       4.616  15.620 -11.572  1.00  0.00     0.040 A 
ATOM     63  F   UNL     1       2.783  14.348 -12.298  1.00  0.00    -0.206 F 
ATOM     64  C   UNL     1       5.968  15.722 -11.252  1.00  0.00     0.006 A 
ENDBRANCH  43  57
BRANCH  44  65
ATOM     65  C   UNL     1       0.684   4.658 -14.903  1.00  0.00     0.057 A 
ATOM     66  C   UNL     1       1.283   3.763 -15.796  1.00  0.00     0.134 A 
ATOM     67  C   UNL     1      -0.576   4.320 -14.397  1.00  0.00     0.134 A 
ATOM     68  F   UNL     1       2.482   4.042 -16.329  1.00  0.00    -0.206 F 
ATOM     69  C   UNL     1       0.648   2.581 -16.183  1.00  0.00     0.040 A 
ATOM     70  C   UNL     1      -1.214   3.132 -14.758  1.00  0.00     0.040 A 
ATOM     71  F   UNL     1      -1.199   5.134 -13.532  1.00  0.00    -0.206 F 
ATOM     72  C   UNL     1      -0.603   2.261 -15.659  1.00  0.00     0.006 A 
ENDBRANCH  44  65
BRANCH  56  73
ATOM     73  C   UNL     1       2.071  10.612 -18.236  1.00  0.00     0.057 A 
ATOM     74  C   UNL     1       0.789  10.985 -18.656  1.00  0.00     0.134 A 
ATOM     75  C   UNL     1       3.120  10.739 -19.155  1.00  0.00     0.134 A 
ATOM     76  F   UNL     1      -0.258  10.872 -17.825  1.00  0.00    -0.206 F 
ATOM     77  C   UNL     1       0.556  11.459 -19.948  1.00  0.00     0.040 A 
ATOM     78  C   UNL     1       2.903  11.232 -20.442  1.00  0.00     0.040 A 
ATOM     79  F   UNL     1       4.372  10.405 -18.811  1.00  0.00    -0.206 F 
ATOM     80  C   UNL     1       1.617  11.591 -20.842  1.00  0.00     0.006 A 
ENDBRANCH  56  73
ENDBRANCH  30  31
ENDBRANCH  22  25
ENDBRANCH  20  21
ENDBRANCH  19  20
ENDBRANCH   1  19
TORSDOF 14
