REMARK SMILES COc1cc(S(=O)(=O)Nc2cccc(C(=O)NCCCCNC(=O)c3ccc(-c4c5nc(c(-c6c(F)cccc6F)c6ccc([nH]6)c(-c6c(F)cccc6F)c6nc(c(-c7c(F)cccc7F)c7ccc4[nH]7)C=C6)C=C5)cc3)c2)c(OC)cc1C
REMARK SMILES IDX 18 1 17 2 15 3 16 4 14 6 10 7 11 8 79 9 12 10 13 11 9 12
REMARK SMILES IDX 6 14 7 15 8 16 5 17 3 18 4 19 84 20 83 21 85 22 80 23 2 24
REMARK SMILES IDX 1 25 81 26 82 27 19 28 20 29 21 30 22 31 23 32 24 34 25 35
REMARK SMILES IDX 26 36 78 37 27 38 77 39 28 40 29 41 30 42 71 43 31 44 76 45
REMARK SMILES IDX 70 46 72 47 32 48 75 49 69 50 68 51 33 53 59 54 42 55 58 56
REMARK SMILES IDX 43 57 46 58 57 59 73 60 44 61 45 62 56 64 74 65 47 66 34 67
REMARK SMILES IDX 35 68 40 69 36 70 37 71 39 72 41 73 38 74 60 75 61 76 66 77
REMARK SMILES IDX 62 78 63 79 65 80 67 81 64 82 48 83 49 84 54 85 50 86 51 87
REMARK SMILES IDX 53 88 55 89 52 90
REMARK H PARENT 17 5 9 13 22 33 72 52 46 63
REMARK Flexibility Score: inf
ROOT
ATOM      1  C   UNL     1       5.473   2.765   8.698  1.00  0.00     0.116 C 
ENDROOT
BRANCH   1   2
ATOM      2  N   UNL     1       4.312   2.635   9.562  1.00  0.00    -0.352 N 
ATOM      3  C   UNL     1       3.014   3.054   9.439  1.00  0.00     0.251 C 
ATOM      4  O   UNL     1       2.223   2.744  10.330  1.00  0.00    -0.269 OA
ATOM      5  H   UNL     1       4.495   2.150  10.399  1.00  0.00     0.163 HD
BRANCH   3   6
ATOM      6  C   UNL     1       2.504   3.775   8.246  1.00  0.00     0.041 A 
ATOM      7  C   UNL     1       0.714   3.917   6.605  1.00  0.00     0.050 A 
ATOM      8  C   UNL     1       1.414   4.907   5.921  1.00  0.00     0.027 A 
ATOM      9  C   UNL     1       1.228   3.410   7.803  1.00  0.00     0.040 A 
ATOM     10  C   UNL     1       2.661   5.323   6.391  1.00  0.00     0.003 A 
ATOM     11  C   UNL     1       3.207   4.753   7.544  1.00  0.00     0.014 A 
BRANCH   7  12
ATOM     12  N   UNL     1      -0.488   3.323   6.140  1.00  0.00    -0.279 N 
ATOM     13  H   UNL     1      -1.114   2.977   6.817  1.00  0.00     0.180 HD
BRANCH  12  14
ATOM     14  S   UNL     1      -0.925   3.164   4.538  1.00  0.00     0.265 S 
ATOM     15  O   UNL     1      -1.059   4.486   3.980  1.00  0.00    -0.201 OA
ATOM     16  O   UNL     1      -2.070   2.258   4.557  1.00  0.00    -0.201 OA
BRANCH  14  17
ATOM     17  C   UNL     1       0.327   2.337   3.580  1.00  0.00     0.133 A 
ATOM     18  C   UNL     1       0.979   1.785   1.305  1.00  0.00     0.123 A 
ATOM     19  C   UNL     1       0.035   2.268   2.206  1.00  0.00     0.073 A 
ATOM     20  C   UNL     1       2.275   1.506   1.732  1.00  0.00    -0.005 A 
ATOM     21  C   UNL     1       2.529   1.491   3.111  1.00  0.00     0.055 A 
ATOM     22  C   UNL     1       3.387   1.182   0.779  1.00  0.00     0.048 C 
ATOM     23  C   UNL     1       1.544   1.838   4.052  1.00  0.00     0.139 A 
BRANCH  18  24
ATOM     24  O   UNL     1       0.588   1.647   0.001  1.00  0.00    -0.496 OA
ATOM     25  C   UNL     1       0.521   0.263  -0.360  1.00  0.00     0.278 C 
ENDBRANCH  18  24
BRANCH  23  26
ATOM     26  O   UNL     1       1.718   1.645   5.389  1.00  0.00    -0.495 OA
ATOM     27  C   UNL     1       2.983   1.171   5.842  1.00  0.00     0.278 C 
ENDBRANCH  23  26
ENDBRANCH  14  17
ENDBRANCH  12  14
ENDBRANCH   7  12
ENDBRANCH   3   6
ENDBRANCH   1   2
BRANCH   1  28
ATOM     28  C   UNL     1       6.367   3.942   9.109  1.00  0.00     0.023 C 
BRANCH  28  29
ATOM     29  C   UNL     1       6.921   3.858  10.532  1.00  0.00     0.023 C 
BRANCH  29  30
ATOM     30  C   UNL     1       8.075   2.882  10.684  1.00  0.00     0.116 C 
BRANCH  30  31
ATOM     31  N   UNL     1       9.374   3.430  10.314  1.00  0.00    -0.352 N 
ATOM     32  C   UNL     1      10.609   2.811  10.229  1.00  0.00     0.251 C 
ATOM     33  H   UNL     1       9.373   4.389  10.090  1.00  0.00     0.163 HD
ATOM     34  O   UNL     1      11.601   3.476   9.945  1.00  0.00    -0.269 OA
BRANCH  32  35
ATOM     35  C   UNL     1      10.713   1.331  10.319  1.00  0.00     0.039 A 
ATOM     36  C   UNL     1      11.562   0.682   9.412  1.00  0.00     0.014 A 
ATOM     37  C   UNL     1       9.827   0.587  11.088  1.00  0.00     0.014 A 
ATOM     38  C   UNL     1      11.312  -0.644   9.071  1.00  0.00     0.010 A 
ATOM     39  C   UNL     1       9.494  -0.682  10.667  1.00  0.00     0.010 A 
ATOM     40  C   UNL     1      10.188  -1.267   9.606  1.00  0.00    -0.014 A 
BRANCH  40  41
ATOM     41  C   UNL     1       9.567  -2.445   9.018  1.00  0.00     0.031 A 
ATOM     42  C   UNL     1       9.594  -3.744   9.717  1.00  0.00     0.074 A 
ATOM     43  C   UNL     1       8.839  -2.300   7.888  1.00  0.00     0.049 A 
ATOM     44  N   UNL     1       9.433  -4.879   9.127  1.00  0.00    -0.248 NA
ATOM     45  C   UNL     1       9.830  -3.868  11.151  1.00  0.00     0.031 C 
ATOM     46  C   UNL     1       7.878  -3.242   7.321  1.00  0.00     0.029 A 
ATOM     47  N   UNL     1       8.970  -1.307   6.908  1.00  0.00    -0.354 N 
ATOM     48  C   UNL     1       9.265  -5.835  10.101  1.00  0.00     0.074 A 
ATOM     49  C   UNL     1       9.576  -5.167  11.344  1.00  0.00     0.031 C 
ATOM     50  C   UNL     1       7.707  -2.959   6.020  1.00  0.00     0.029 A 
ATOM     51  C   UNL     1       8.665  -1.923   5.677  1.00  0.00     0.049 A 
ATOM     52  H   UNL     1       9.224  -0.367   7.051  1.00  0.00     0.167 HD
ATOM     53  C   UNL     1       8.747  -7.050   9.765  1.00  0.00     0.037 A 
ATOM     54  C   UNL     1       9.598  -2.026   4.686  1.00  0.00     0.037 A 
ATOM     55  C   UNL     1       8.480  -7.135   8.333  1.00  0.00     0.049 A 
ATOM     56  C   UNL     1       9.917  -3.450   4.293  1.00  0.00     0.074 A 
ATOM     57  C   UNL     1       7.330  -6.939   7.586  1.00  0.00     0.029 A 
ATOM     58  N   UNL     1       9.539  -7.133   7.433  1.00  0.00    -0.354 N 
ATOM     59  N   UNL     1       9.659  -4.484   5.044  1.00  0.00    -0.248 NA
ATOM     60  C   UNL     1      10.566  -3.822   3.039  1.00  0.00     0.031 C 
ATOM     61  C   UNL     1       7.705  -6.778   6.232  1.00  0.00     0.029 A 
ATOM     62  C   UNL     1       9.081  -6.892   6.152  1.00  0.00     0.049 A 
ATOM     63  H   UNL     1      10.482  -7.283   7.674  1.00  0.00     0.167 HD
ATOM     64  C   UNL     1      10.107  -5.625   4.427  1.00  0.00     0.074 A 
ATOM     65  C   UNL     1      10.646  -5.159   3.164  1.00  0.00     0.031 C 
ATOM     66  C   UNL     1       9.999  -6.850   5.023  1.00  0.00     0.037 A 
BRANCH  53  67
ATOM     67  C   UNL     1       8.210  -8.026  10.782  1.00  0.00     0.057 A 
ATOM     68  C   UNL     1       7.079  -8.819  10.506  1.00  0.00     0.134 A 
ATOM     69  C   UNL     1       8.741  -8.197  12.072  1.00  0.00     0.134 A 
ATOM     70  F   UNL     1       6.515  -8.849   9.292  1.00  0.00    -0.206 F 
ATOM     71  C   UNL     1       6.458  -9.623  11.470  1.00  0.00     0.040 A 
ATOM     72  C   UNL     1       8.101  -8.956  13.063  1.00  0.00     0.040 A 
ATOM     73  F   UNL     1       9.923  -7.666  12.413  1.00  0.00    -0.206 F 
ATOM     74  C   UNL     1       6.944  -9.663  12.767  1.00  0.00     0.006 A 
ENDBRANCH  53  67
BRANCH  54  75
ATOM     75  C   UNL     1      10.566  -0.897   4.680  1.00  0.00     0.057 A 
ATOM     76  C   UNL     1      10.086   0.394   4.393  1.00  0.00     0.134 A 
ATOM     77  C   UNL     1      11.804  -0.988   5.321  1.00  0.00     0.134 A 
ATOM     78  F   UNL     1       8.899   0.550   3.783  1.00  0.00    -0.206 F 
ATOM     79  C   UNL     1      10.746   1.542   4.835  1.00  0.00     0.040 A 
ATOM     80  C   UNL     1      12.482   0.158   5.757  1.00  0.00     0.040 A 
ATOM     81  F   UNL     1      12.317  -2.183   5.649  1.00  0.00    -0.206 F 
ATOM     82  C   UNL     1      11.932   1.423   5.551  1.00  0.00     0.006 A 
ENDBRANCH  54  75
BRANCH  66  83
ATOM     83  C   UNL     1      10.651  -8.140   4.577  1.00  0.00     0.057 A 
ATOM     84  C   UNL     1      11.825  -8.216   3.814  1.00  0.00     0.134 A 
ATOM     85  C   UNL     1      10.173  -9.386   5.053  1.00  0.00     0.134 A 
ATOM     86  F   UNL     1      12.458  -7.117   3.386  1.00  0.00    -0.206 F 
ATOM     87  C   UNL     1      12.446  -9.435   3.504  1.00  0.00     0.040 A 
ATOM     88  C   UNL     1      10.815 -10.601   4.798  1.00  0.00     0.040 A 
ATOM     89  F   UNL     1       9.071  -9.478   5.812  1.00  0.00    -0.206 F 
ATOM     90  C   UNL     1      11.951 -10.631   4.008  1.00  0.00     0.006 A 
ENDBRANCH  66  83
ENDBRANCH  40  41
ENDBRANCH  32  35
ENDBRANCH  30  31
ENDBRANCH  29  30
ENDBRANCH  28  29
ENDBRANCH   1  28
TORSDOF 16
