REMARK SMILES O=C(NCCCCNC(=O)[C@@H]1[C@H](C(=O)Nc2ccccc2OC(F)F)[C@@H]2C=C[C@H]1C2)c1ccc(-c2c3nc(c(-c4c(F)cccc4F)c4ccc([nH]4)c(-c4c(F)cccc4F)c4nc(c(-c5c(F)cccc5F)c5ccc2[nH]5)C=C4)C=C3)cc1
REMARK SMILES IDX 6 1 5 2 4 3 3 4 1 5 2 6 31 8 32 9 84 10 33 11 83 12 34 13
REMARK SMILES IDX 35 14 36 15 77 16 37 17 82 18 76 19 78 20 38 21 81 22 75 23
REMARK SMILES IDX 74 24 39 26 65 27 48 28 64 29 49 30 52 31 63 32 79 33 50 34
REMARK SMILES IDX 51 35 62 37 80 38 53 39 40 40 41 41 46 42 42 43 43 44 45 45
REMARK SMILES IDX 47 46 44 47 66 48 67 49 72 50 68 51 69 52 71 53 73 54 70 55
REMARK SMILES IDX 54 56 55 57 60 58 56 59 57 60 59 61 61 62 58 63 7 64 8 65
REMARK SMILES IDX 9 66 10 68 11 69 12 70 29 71 26 72 28 73 30 74 27 75 13 76
REMARK SMILES IDX 14 77 15 78 16 80 17 81 21 82 18 83 20 84 19 85 22 86 23 87
REMARK SMILES IDX 24 88 25 89
REMARK H PARENT 3 7 78 25 52 36 8 67 15 79
REMARK Flexibility Score: inf
ROOT
ATOM      1  C   UNL     1       3.852  -0.010   3.783  1.00  0.00     0.023 C 
ENDROOT
BRANCH   1   2
ATOM      2  C   UNL     1       4.390   0.458   2.428  1.00  0.00     0.023 C 
BRANCH   2   3
ATOM      3  C   UNL     1       3.958  -0.314   1.198  1.00  0.00     0.116 C 
BRANCH   3   4
ATOM      4  N   UNL     1       2.539  -0.256   0.910  1.00  0.00    -0.352 N 
ATOM      5  O   UNL     1       0.687  -0.175  -0.378  1.00  0.00    -0.269 OA
ATOM      6  C   UNL     1       1.912  -0.257  -0.317  1.00  0.00     0.251 C 
ATOM      7  H   UNL     1       1.945  -0.210   1.694  1.00  0.00     0.163 HD
BRANCH   6   8
ATOM      8  C   UNL     1       2.710  -0.308  -1.567  1.00  0.00     0.039 A 
ATOM      9  C   UNL     1       3.840  -1.119  -1.675  1.00  0.00     0.014 A 
ATOM     10  C   UNL     1       2.317   0.478  -2.657  1.00  0.00     0.014 A 
ATOM     11  C   UNL     1       4.657  -1.030  -2.793  1.00  0.00     0.010 A 
ATOM     12  C   UNL     1       3.077   0.478  -3.832  1.00  0.00     0.010 A 
ATOM     13  C   UNL     1       4.263  -0.266  -3.902  1.00  0.00    -0.014 A 
BRANCH  13  14
ATOM     14  C   UNL     1       5.047  -0.371  -5.158  1.00  0.00     0.031 A 
ATOM     15  C   UNL     1       5.742   0.818  -5.753  1.00  0.00     0.074 A 
ATOM     16  C   UNL     1       5.141  -1.583  -5.740  1.00  0.00     0.049 A 
ATOM     17  N   UNL     1       6.437   0.894  -6.859  1.00  0.00    -0.248 NA
ATOM     18  C   UNL     1       5.639   2.090  -5.021  1.00  0.00     0.031 C 
ATOM     19  C   UNL     1       4.498  -2.805  -5.242  1.00  0.00     0.029 A 
ATOM     20  N   UNL     1       5.824  -2.003  -6.850  1.00  0.00    -0.354 N 
ATOM     21  C   UNL     1       6.831   2.221  -6.973  1.00  0.00     0.074 A 
ATOM     22  C   UNL     1       6.285   2.921  -5.829  1.00  0.00     0.031 C 
ATOM     23  C   UNL     1       4.874  -3.843  -5.999  1.00  0.00     0.029 A 
ATOM     24  C   UNL     1       5.703  -3.350  -7.090  1.00  0.00     0.049 A 
ATOM     25  H   UNL     1       6.352  -1.398  -7.421  1.00  0.00     0.167 HD
ATOM     26  C   UNL     1       7.578   2.795  -7.948  1.00  0.00     0.037 A 
ATOM     27  C   UNL     1       6.178  -4.106  -8.095  1.00  0.00     0.037 A 
ATOM     28  C   UNL     1       8.121   2.075  -9.074  1.00  0.00     0.049 A 
ATOM     29  C   UNL     1       6.977  -3.438  -9.171  1.00  0.00     0.074 A 
ATOM     30  C   UNL     1       8.898   2.555 -10.114  1.00  0.00     0.029 A 
ATOM     31  N   UNL     1       7.943   0.717  -9.304  1.00  0.00    -0.354 N 
ATOM     32  N   UNL     1       7.331  -2.180  -9.272  1.00  0.00    -0.248 NA
ATOM     33  C   UNL     1       7.425  -4.285 -10.282  1.00  0.00     0.031 C 
ATOM     34  C   UNL     1       9.155   1.498 -10.993  1.00  0.00     0.029 A 
ATOM     35  C   UNL     1       8.580   0.347 -10.478  1.00  0.00     0.049 A 
ATOM     36  H   UNL     1       7.438   0.107  -8.719  1.00  0.00     0.167 HD
ATOM     37  C   UNL     1       8.052  -2.083 -10.452  1.00  0.00     0.074 A 
ATOM     38  C   UNL     1       8.104  -3.417 -11.018  1.00  0.00     0.031 C 
ATOM     39  C   UNL     1       8.613  -0.988 -11.020  1.00  0.00     0.037 A 
BRANCH  26  40
ATOM     40  C   UNL     1       7.827   4.274  -7.859  1.00  0.00     0.057 A 
ATOM     41  C   UNL     1       8.689   4.828  -6.904  1.00  0.00     0.134 A 
ATOM     42  C   UNL     1       7.227   5.155  -8.769  1.00  0.00     0.134 A 
ATOM     43  F   UNL     1       9.290   4.045  -5.995  1.00  0.00    -0.206 F 
ATOM     44  C   UNL     1       8.929   6.203  -6.844  1.00  0.00     0.040 A 
ATOM     45  C   UNL     1       7.477   6.529  -8.735  1.00  0.00     0.040 A 
ATOM     46  F   UNL     1       6.395   4.694  -9.716  1.00  0.00    -0.206 F 
ATOM     47  C   UNL     1       8.327   7.057  -7.766  1.00  0.00     0.006 A 
ENDBRANCH  26  40
BRANCH  27  48
ATOM     48  C   UNL     1       5.885  -5.560  -8.127  1.00  0.00     0.057 A 
ATOM     49  C   UNL     1       6.895  -6.507  -7.930  1.00  0.00     0.134 A 
ATOM     50  C   UNL     1       4.581  -6.038  -8.317  1.00  0.00     0.134 A 
ATOM     51  F   UNL     1       8.165  -6.114  -7.757  1.00  0.00    -0.206 F 
ATOM     52  C   UNL     1       6.622  -7.876  -7.924  1.00  0.00     0.040 A 
ATOM     53  C   UNL     1       4.289  -7.402  -8.283  1.00  0.00     0.040 A 
ATOM     54  F   UNL     1       3.566  -5.181  -8.501  1.00  0.00    -0.206 F 
ATOM     55  C   UNL     1       5.313  -8.326  -8.091  1.00  0.00     0.006 A 
ENDBRANCH  27  48
BRANCH  39  56
ATOM     56  C   UNL     1       9.351  -1.206 -12.306  1.00  0.00     0.057 A 
ATOM     57  C   UNL     1       8.678  -1.457 -13.508  1.00  0.00     0.134 A 
ATOM     58  C   UNL     1      10.749  -1.152 -12.341  1.00  0.00     0.134 A 
ATOM     59  F   UNL     1       7.339  -1.540 -13.534  1.00  0.00    -0.206 F 
ATOM     60  C   UNL     1       9.374  -1.672 -14.699  1.00  0.00     0.040 A 
ATOM     61  C   UNL     1      11.454  -1.339 -13.530  1.00  0.00     0.040 A 
ATOM     62  F   UNL     1      11.451  -0.911 -11.223  1.00  0.00    -0.206 F 
ATOM     63  C   UNL     1      10.766  -1.607 -14.712  1.00  0.00     0.006 A 
ENDBRANCH  39  56
ENDBRANCH  13  14
ENDBRANCH   6   8
ENDBRANCH   3   4
ENDBRANCH   2   3
ENDBRANCH   1   2
BRANCH   1  64
ATOM     64  C   UNL     1       4.753  -0.950   4.586  1.00  0.00     0.116 C 
BRANCH  64  65
ATOM     65  N   UNL     1       6.085  -0.446   4.894  1.00  0.00    -0.356 N 
ATOM     66  C   UNL     1       6.640   0.074   6.027  1.00  0.00     0.224 C 
ATOM     67  H   UNL     1       6.709  -0.488   4.133  1.00  0.00     0.163 HD
ATOM     68  O   UNL     1       7.852  -0.121   6.165  1.00  0.00    -0.275 OA
BRANCH  66  69
ATOM     69  C   UNL     1       5.831   0.747   7.119  1.00  0.00     0.098 C 
ATOM     70  C   UNL     1       4.957   2.037   7.023  1.00  0.00     0.099 C 
ATOM     71  C   UNL     1       6.690   1.061   8.391  1.00  0.00     0.025 C 
ATOM     72  C   UNL     1       5.258   2.777   8.369  1.00  0.00     0.025 C 
ATOM     73  C   UNL     1       7.490   2.342   8.249  1.00  0.00    -0.027 C 
ATOM     74  C   UNL     1       5.593   1.613   9.312  1.00  0.00     0.017 C 
ATOM     75  C   UNL     1       6.632   3.370   8.297  1.00  0.00    -0.027 C 
BRANCH  70  76
ATOM     76  C   UNL     1       4.694   3.007   5.856  1.00  0.00     0.229 C 
ATOM     77  O   UNL     1       3.548   2.982   5.367  1.00  0.00    -0.274 OA
ATOM     78  N   UNL     1       5.438   4.041   5.387  1.00  0.00    -0.323 N 
ATOM     79  H   UNL     1       4.860   4.746   5.014  1.00  0.00     0.170 HD
BRANCH  78  80
ATOM     80  C   UNL     1       6.796   4.399   5.279  1.00  0.00     0.084 A 
ATOM     81  C   UNL     1       7.097   5.752   5.076  1.00  0.00     0.030 A 
ATOM     82  C   UNL     1       7.855   3.505   5.155  1.00  0.00     0.149 A 
ATOM     83  C   UNL     1       8.420   6.178   4.878  1.00  0.00     0.002 A 
ATOM     84  C   UNL     1       9.188   3.920   5.071  1.00  0.00     0.049 A 
ATOM     85  C   UNL     1       9.471   5.266   4.917  1.00  0.00     0.004 A 
BRANCH  82  86
ATOM     86  O   UNL     1       7.673   2.203   4.825  1.00  0.00    -0.433 OA
BRANCH  86  87
ATOM     87  C   UNL     1       7.062   2.096   3.544  1.00  0.00     0.542 C 
ATOM     88  F   UNL     1       7.351   3.143   2.733  1.00  0.00    -0.167 F 
ATOM     89  F   UNL     1       7.571   0.992   2.941  1.00  0.00    -0.167 F 
ENDBRANCH  86  87
ENDBRANCH  82  86
ENDBRANCH  78  80
ENDBRANCH  70  76
ENDBRANCH  66  69
ENDBRANCH  64  65
ENDBRANCH   1  64
TORSDOF 15
