REMARK SMILES CS(=O)(=O)c1ccc(/C=C(/C(=O)NCCCCNC(=O)c2ccc(-c3c4nc(c(-c5c(F)cccc5F)c5ccc([nH]5)c(-c5c(F)cccc5F)c5nc(c(-c6c(F)cccc6F)c6ccc3[nH]6)C=C5)C=C4)cc2)c2ccc(-c3ccc(F)cc3F)cc2)cc1
REMARK SMILES IDX 15 1 14 2 13 3 11 4 12 5 10 7 9 8 8 9 5 10 6 11 90 12 7 13
REMARK SMILES IDX 89 14 2 15 1 16 3 17 4 18 75 19 76 20 88 21 77 22 87 23
REMARK SMILES IDX 78 24 79 25 80 26 85 27 81 28 84 29 86 30 82 31 83 32 16 33
REMARK SMILES IDX 17 34 18 35 19 36 20 38 21 39 22 40 74 41 23 42 73 43 24 44
REMARK SMILES IDX 25 45 26 46 67 47 27 48 72 49 66 50 68 51 28 52 71 53 65 54
REMARK SMILES IDX 64 55 29 57 55 58 38 59 54 60 39 61 42 62 53 63 69 64 40 65
REMARK SMILES IDX 41 66 52 68 70 69 43 70 30 71 31 72 36 73 32 74 33 75 35 76
REMARK SMILES IDX 37 77 34 78 56 79 57 80 62 81 58 82 59 83 61 84 63 85 60 86
REMARK SMILES IDX 44 87 45 88 50 89 46 90 47 91 49 92 51 93 48 94
REMARK H PARENT 13 6 18 37 68 56 42 67
REMARK Flexibility Score: inf
ROOT
ATOM      1  C   UNL     1       2.108   1.372   9.763  1.00  0.00     0.023 C 
ENDROOT
BRANCH   1   2
ATOM      2  C   UNL     1       3.182   0.483   9.129  1.00  0.00     0.116 C 
BRANCH   2   3
ATOM      3  N   UNL     1       2.859  -0.915   9.324  1.00  0.00    -0.352 N 
ATOM      4  C   UNL     1       2.262  -1.852   8.539  1.00  0.00     0.251 C 
ATOM      5  O   UNL     1       2.100  -2.964   9.048  1.00  0.00    -0.269 OA
ATOM      6  H   UNL     1       3.127  -1.258  10.207  1.00  0.00     0.163 HD
BRANCH   4   7
ATOM      7  C   UNL     1       1.875  -1.607   7.099  1.00  0.00     0.047 C 
ATOM      8  C   UNL     1       1.417  -0.411   6.661  1.00  0.00     0.022 C 
BRANCH   8   9
ATOM      9  C   UNL     1       1.069   0.010   5.286  1.00  0.00    -0.025 A 
ATOM     10  C   UNL     1       0.594   0.875   2.661  1.00  0.00     0.067 A 
ATOM     11  C   UNL     1      -0.011  -0.293   3.127  1.00  0.00     0.021 A 
ATOM     12  C   UNL     1       1.387   1.649   3.507  1.00  0.00     0.021 A 
ATOM     13  C   UNL     1       0.214  -0.710   4.442  1.00  0.00     0.009 A 
ATOM     14  C   UNL     1       1.623   1.212   4.814  1.00  0.00     0.009 A 
BRANCH  10  15
ATOM     15  S   UNL     1       0.322   1.386   0.981  1.00  0.00     0.175 S 
ATOM     16  C   UNL     1       1.139   0.139   0.018  1.00  0.00     0.163 C 
ATOM     17  O   UNL     1       1.032   2.631   0.777  1.00  0.00    -0.224 OA
ATOM     18  O   UNL     1      -1.107   1.289   0.737  1.00  0.00    -0.224 OA
ENDBRANCH  10  15
ENDBRANCH   8   9
BRANCH   7  19
ATOM     19  C   UNL     1       1.806  -2.788   6.204  1.00  0.00    -0.013 A 
ATOM     20  C   UNL     1       0.790  -3.728   6.424  1.00  0.00     0.009 A 
ATOM     21  C   UNL     1       2.611  -2.917   5.069  1.00  0.00     0.009 A 
ATOM     22  C   UNL     1       0.515  -4.712   5.476  1.00  0.00     0.009 A 
ATOM     23  C   UNL     1       2.324  -3.901   4.113  1.00  0.00     0.009 A 
ATOM     24  C   UNL     1       1.238  -4.780   4.275  1.00  0.00    -0.015 A 
BRANCH  24  25
ATOM     25  C   UNL     1       0.801  -5.680   3.193  1.00  0.00     0.018 A 
ATOM     26  C   UNL     1      -0.560  -5.722   2.821  1.00  0.00     0.015 A 
ATOM     27  C   UNL     1       1.692  -6.491   2.471  1.00  0.00     0.133 A 
ATOM     28  C   UNL     1      -1.002  -6.540   1.780  1.00  0.00     0.040 A 
ATOM     29  C   UNL     1       1.259  -7.310   1.431  1.00  0.00     0.079 A 
ATOM     30  F   UNL     1       3.000  -6.492   2.772  1.00  0.00    -0.206 F 
ATOM     31  C   UNL     1      -0.086  -7.326   1.095  1.00  0.00     0.126 A 
ATOM     32  F   UNL     1      -0.509  -8.105   0.092  1.00  0.00    -0.207 F 
ENDBRANCH  24  25
ENDBRANCH   7  19
ENDBRANCH   4   7
ENDBRANCH   2   3
ENDBRANCH   1   2
BRANCH   1  33
ATOM     33  C   UNL     1       2.134   1.403  11.296  1.00  0.00     0.023 C 
BRANCH  33  34
ATOM     34  C   UNL     1       3.419   1.947  11.913  1.00  0.00     0.116 C 
BRANCH  34  35
ATOM     35  N   UNL     1       3.748   3.286  11.453  1.00  0.00    -0.352 N 
ATOM     36  C   UNL     1       4.391   4.297  12.122  1.00  0.00     0.251 C 
ATOM     37  H   UNL     1       3.470   3.498  10.532  1.00  0.00     0.163 HD
ATOM     38  O   UNL     1       4.489   5.406  11.608  1.00  0.00    -0.269 OA
BRANCH  36  39
ATOM     39  C   UNL     1       4.931   4.060  13.477  1.00  0.00     0.039 A 
ATOM     40  C   UNL     1       4.680   5.014  14.468  1.00  0.00     0.014 A 
ATOM     41  C   UNL     1       5.681   2.919  13.772  1.00  0.00     0.014 A 
ATOM     42  C   UNL     1       5.134   4.795  15.769  1.00  0.00     0.010 A 
ATOM     43  C   UNL     1       6.082   2.673  15.083  1.00  0.00     0.010 A 
ATOM     44  C   UNL     1       5.813   3.610  16.092  1.00  0.00    -0.014 A 
BRANCH  44  45
ATOM     45  C   UNL     1       6.246   3.337  17.484  1.00  0.00     0.031 A 
ATOM     46  C   UNL     1       7.708   3.282  17.826  1.00  0.00     0.074 A 
ATOM     47  C   UNL     1       5.320   3.086  18.428  1.00  0.00     0.049 A 
ATOM     48  N   UNL     1       8.277   3.021  18.975  1.00  0.00    -0.248 NA
ATOM     49  C   UNL     1       8.655   3.527  16.727  1.00  0.00     0.031 C 
ATOM     50  C   UNL     1       3.872   3.056  18.207  1.00  0.00     0.029 A 
ATOM     51  N   UNL     1       5.458   2.799  19.762  1.00  0.00    -0.354 N 
ATOM     52  C   UNL     1       9.644   3.056  18.736  1.00  0.00     0.074 A 
ATOM     53  C   UNL     1       9.820   3.318  17.323  1.00  0.00     0.031 C 
ATOM     54  C   UNL     1       3.256   2.790  19.370  1.00  0.00     0.029 A 
ATOM     55  C   UNL     1       4.263   2.605  20.410  1.00  0.00     0.049 A 
ATOM     56  H   UNL     1       6.332   2.738  20.212  1.00  0.00     0.167 HD
ATOM     57  C   UNL     1      10.662   2.906  19.617  1.00  0.00     0.037 A 
ATOM     58  C   UNL     1       4.010   2.313  21.699  1.00  0.00     0.037 A 
ATOM     59  C   UNL     1      10.486   2.676  21.027  1.00  0.00     0.049 A 
ATOM     60  C   UNL     1       5.155   2.175  22.661  1.00  0.00     0.074 A 
ATOM     61  C   UNL     1      11.452   2.573  22.012  1.00  0.00     0.029 A 
ATOM     62  N   UNL     1       9.258   2.515  21.652  1.00  0.00    -0.354 N 
ATOM     63  N   UNL     1       6.441   2.280  22.434  1.00  0.00    -0.248 NA
ATOM     64  C   UNL     1       4.812   1.888  24.061  1.00  0.00     0.031 C 
ATOM     65  C   UNL     1      10.810   2.320  23.230  1.00  0.00     0.029 A 
ATOM     66  C   UNL     1       9.443   2.300  23.007  1.00  0.00     0.049 A 
ATOM     67  H   UNL     1       8.385   2.549  21.199  1.00  0.00     0.167 HD
ATOM     68  C   UNL     1       7.060   2.096  23.663  1.00  0.00     0.074 A 
ATOM     69  C   UNL     1       6.007   1.886  24.635  1.00  0.00     0.031 C 
ATOM     70  C   UNL     1       8.382   2.100  23.960  1.00  0.00     0.037 A 
BRANCH  57  71
ATOM     71  C   UNL     1      12.058   2.996  19.078  1.00  0.00     0.057 A 
ATOM     72  C   UNL     1      12.610   4.215  18.662  1.00  0.00     0.134 A 
ATOM     73  C   UNL     1      12.870   1.858  18.998  1.00  0.00     0.134 A 
ATOM     74  F   UNL     1      11.879   5.340  18.701  1.00  0.00    -0.206 F 
ATOM     75  C   UNL     1      13.911   4.295  18.163  1.00  0.00     0.040 A 
ATOM     76  C   UNL     1      14.181   1.930  18.524  1.00  0.00     0.040 A 
ATOM     77  F   UNL     1      12.405   0.661  19.384  1.00  0.00    -0.206 F 
ATOM     78  C   UNL     1      14.702   3.151  18.099  1.00  0.00     0.006 A 
ENDBRANCH  57  71
BRANCH  58  79
ATOM     79  C   UNL     1       2.608   2.170  22.163  1.00  0.00     0.057 A 
ATOM     80  C   UNL     1       2.013   3.150  22.965  1.00  0.00     0.134 A 
ATOM     81  C   UNL     1       1.834   1.056  21.820  1.00  0.00     0.134 A 
ATOM     82  F   UNL     1       2.712   4.231  23.339  1.00  0.00    -0.206 F 
ATOM     83  C   UNL     1       0.702   3.020  23.424  1.00  0.00     0.040 A 
ATOM     84  C   UNL     1       0.515   0.923  22.255  1.00  0.00     0.040 A 
ATOM     85  F   UNL     1       2.347   0.087  21.047  1.00  0.00    -0.206 F 
ATOM     86  C   UNL     1      -0.053   1.905  23.065  1.00  0.00     0.006 A 
ENDBRANCH  58  79
BRANCH  70  87
ATOM     87  C   UNL     1       8.759   1.900  25.398  1.00  0.00     0.057 A 
ATOM     88  C   UNL     1       8.676   0.645  26.013  1.00  0.00     0.134 A 
ATOM     89  C   UNL     1       9.239   2.969  26.164  1.00  0.00     0.134 A 
ATOM     90  F   UNL     1       8.210  -0.415  25.336  1.00  0.00    -0.206 F 
ATOM     91  C   UNL     1       9.039   0.465  27.349  1.00  0.00     0.040 A 
ATOM     92  C   UNL     1       9.626   2.797  27.493  1.00  0.00     0.040 A 
ATOM     93  F   UNL     1       9.348   4.195  25.630  1.00  0.00    -0.206 F 
ATOM     94  C   UNL     1       9.521   1.542  28.090  1.00  0.00     0.006 A 
ENDBRANCH  70  87
ENDBRANCH  44  45
ENDBRANCH  36  39
ENDBRANCH  34  35
ENDBRANCH  33  34
ENDBRANCH   1  33
TORSDOF 15
