REMARK SMILES CCCN(CC(=O)NCCCCNC(=O)c1ccc(-c2c3nc(c(-c4c(F)cccc4F)c4ccc([nH]4)c(-c4c(F)cccc4F)c4nc(c(-c5c(F)cccc5F)c5ccc2[nH]5)C=C4)C=C3)cc1)C(=O)C[C@@H]1CSCC[NH2+]1
REMARK SMILES IDX 9 1 8 2 6 3 7 4 5 6 4 7 3 8 2 9 1 10 70 11 71 12 72 13 73 14
REMARK SMILES IDX 74 15 78 16 75 17 77 18 76 21 10 22 11 23 12 24 13 25 14 26
REMARK SMILES IDX 15 28 16 29 17 30 69 31 18 32 68 33 19 34 20 35 21 36 62 37
REMARK SMILES IDX 22 38 67 39 61 40 63 41 23 42 66 43 60 44 59 45 24 47 50 48
REMARK SMILES IDX 33 49 49 50 34 51 37 52 48 53 64 54 35 55 36 56 47 58 65 59
REMARK SMILES IDX 38 60 25 61 26 62 31 63 27 64 28 65 30 66 32 67 29 68 51 69
REMARK SMILES IDX 52 70 57 71 53 72 54 73 56 74 58 75 55 76 39 77 40 78 45 79
REMARK SMILES IDX 41 80 42 81 44 82 46 83 43 84
REMARK H PARENT 8 5 78 19 78 20 13 27 63 46 37 57
REMARK Flexibility Score: inf
ROOT
ATOM      1  C   UNL     1       2.421   3.983  -3.212  1.00  0.00     0.116 C 
ENDROOT
BRANCH   1   2
ATOM      2  N   UNL     1       1.446   3.666  -4.230  1.00  0.00    -0.355 N 
ATOM      3  C   UNL     1       0.162   3.239  -4.051  1.00  0.00     0.239 C 
ATOM      4  O   UNL     1      -0.636   3.397  -4.978  1.00  0.00    -0.273 OA
ATOM      5  H   UNL     1       1.742   3.772  -5.162  1.00  0.00     0.163 HD
BRANCH   3   6
ATOM      6  C   UNL     1      -0.311   2.666  -2.704  1.00  0.00     0.219 C 
BRANCH   6   7
ATOM      7  N   UNL     1       0.549   1.629  -2.125  1.00  0.00    -0.333 N 
BRANCH   7   8
ATOM      8  C   UNL     1       1.089   1.884  -0.783  1.00  0.00     0.120 C 
BRANCH   8   9
ATOM      9  C   UNL     1       0.271   1.287   0.364  1.00  0.00     0.018 C 
ATOM     10  C   UNL     1       0.595  -0.172   0.647  1.00  0.00     0.006 C 
ENDBRANCH   8   9
ENDBRANCH   7   8
BRANCH   7  11
ATOM     11  C   UNL     1       0.788   0.392  -2.717  1.00  0.00     0.229 C 
ATOM     12  O   UNL     1       1.515  -0.445  -2.172  1.00  0.00    -0.275 OA
BRANCH  11  13
ATOM     13  C   UNL     1       0.238   0.076  -4.106  1.00  0.00     0.166 C 
BRANCH  13  14
ATOM     14  C   UNL     1      -1.272  -0.251  -4.169  1.00  0.00     0.201 C 
ATOM     15  C   UNL     1      -1.538  -1.688  -4.685  1.00  0.00     0.135 C 
ATOM     16  N   UNL     1      -2.086   0.713  -4.949  1.00  0.00    -0.342 N 
ATOM     17  S   UNL     1      -1.075  -1.938  -6.438  1.00  0.00    -0.150 SA
ATOM     18  C   UNL     1      -1.748   0.763  -6.380  1.00  0.00     0.271 C 
ATOM     19  H   UNL     1      -1.947   1.643  -4.555  1.00  0.00     0.346 HD
ATOM     20  H   UNL     1      -3.054   0.400  -4.886  1.00  0.00     0.346 HD
ATOM     21  C   UNL     1      -2.003  -0.537  -7.138  1.00  0.00     0.131 C 
ENDBRANCH  13  14
ENDBRANCH  11  13
ENDBRANCH   7  11
ENDBRANCH   6   7
ENDBRANCH   3   6
ENDBRANCH   1   2
BRANCH   1  22
ATOM     22  C   UNL     1       3.583   2.997  -3.143  1.00  0.00     0.023 C 
BRANCH  22  23
ATOM     23  C   UNL     1       4.548   3.043  -4.328  1.00  0.00     0.023 C 
BRANCH  23  24
ATOM     24  C   UNL     1       5.043   4.429  -4.724  1.00  0.00     0.116 C 
BRANCH  24  25
ATOM     25  N   UNL     1       5.620   5.179  -3.618  1.00  0.00    -0.352 N 
ATOM     26  C   UNL     1       6.711   6.017  -3.619  1.00  0.00     0.251 C 
ATOM     27  H   UNL     1       5.168   5.071  -2.751  1.00  0.00     0.163 HD
ATOM     28  O   UNL     1       7.114   6.511  -2.576  1.00  0.00    -0.269 OA
BRANCH  26  29
ATOM     29  C   UNL     1       7.418   6.278  -4.889  1.00  0.00     0.039 A 
ATOM     30  C   UNL     1       8.805   6.121  -4.928  1.00  0.00     0.014 A 
ATOM     31  C   UNL     1       6.712   6.632  -6.042  1.00  0.00     0.014 A 
ATOM     32  C   UNL     1       9.478   6.248  -6.144  1.00  0.00     0.010 A 
ATOM     33  C   UNL     1       7.374   6.686  -7.264  1.00  0.00     0.010 A 
ATOM     34  C   UNL     1       8.762   6.491  -7.327  1.00  0.00    -0.014 A 
BRANCH  34  35
ATOM     35  C   UNL     1       9.446   6.537  -8.643  1.00  0.00     0.031 A 
ATOM     36  C   UNL     1       9.458   7.808  -9.443  1.00  0.00     0.074 A 
ATOM     37  C   UNL     1       9.993   5.414  -9.149  1.00  0.00     0.049 A 
ATOM     38  N   UNL     1       9.937   8.027 -10.642  1.00  0.00    -0.248 NA
ATOM     39  C   UNL     1       8.823   8.984  -8.826  1.00  0.00     0.031 C 
ATOM     40  C   UNL     1      10.000   4.105  -8.493  1.00  0.00     0.029 A 
ATOM     41  N   UNL     1      10.638   5.191 -10.339  1.00  0.00    -0.354 N 
ATOM     42  C   UNL     1       9.646   9.354 -10.927  1.00  0.00     0.074 A 
ATOM     43  C   UNL     1       8.905   9.877  -9.801  1.00  0.00     0.031 C 
ATOM     44  C   UNL     1      10.637   3.222  -9.279  1.00  0.00     0.029 A 
ATOM     45  C   UNL     1      11.049   3.891 -10.508  1.00  0.00     0.049 A 
ATOM     46  H   UNL     1      10.791   5.896 -11.009  1.00  0.00     0.167 HD
ATOM     47  C   UNL     1       9.987  10.078 -12.020  1.00  0.00     0.037 A 
ATOM     48  C   UNL     1      11.682   3.304 -11.542  1.00  0.00     0.037 A 
ATOM     49  C   UNL     1      10.748   9.562 -13.126  1.00  0.00     0.049 A 
ATOM     50  C   UNL     1      12.050   4.129 -12.743  1.00  0.00     0.074 A 
ATOM     51  C   UNL     1      11.201  10.233 -14.248  1.00  0.00     0.029 A 
ATOM     52  N   UNL     1      11.167   8.245 -13.251  1.00  0.00    -0.354 N 
ATOM     53  N   UNL     1      11.832   5.402 -12.969  1.00  0.00    -0.248 NA
ATOM     54  C   UNL     1      12.756   3.438 -13.831  1.00  0.00     0.031 C 
ATOM     55  C   UNL     1      11.856   9.313 -15.073  1.00  0.00     0.029 A 
ATOM     56  C   UNL     1      11.854   8.079 -14.442  1.00  0.00     0.049 A 
ATOM     57  H   UNL     1      11.000   7.535 -12.590  1.00  0.00     0.167 HD
ATOM     58  C   UNL     1      12.398   5.671 -14.208  1.00  0.00     0.074 A 
ATOM     59  C   UNL     1      12.980   4.432 -14.680  1.00  0.00     0.031 C 
ATOM     60  C   UNL     1      12.433   6.840 -14.894  1.00  0.00     0.037 A 
BRANCH  47  61
ATOM     61  C   UNL     1       9.541  11.511 -12.067  1.00  0.00     0.057 A 
ATOM     62  C   UNL     1      10.094  12.486 -11.226  1.00  0.00     0.134 A 
ATOM     63  C   UNL     1       8.569  11.927 -12.986  1.00  0.00     0.134 A 
ATOM     64  F   UNL     1      11.020  12.151 -10.314  1.00  0.00    -0.206 F 
ATOM     65  C   UNL     1       9.678  13.817 -11.279  1.00  0.00     0.040 A 
ATOM     66  C   UNL     1       8.166  13.261 -13.068  1.00  0.00     0.040 A 
ATOM     67  F   UNL     1       8.002  11.046 -13.824  1.00  0.00    -0.206 F 
ATOM     68  C   UNL     1       8.716  14.209 -12.208  1.00  0.00     0.006 A 
ENDBRANCH  47  61
BRANCH  48  69
ATOM     69  C   UNL     1      12.029   1.861 -11.478  1.00  0.00     0.057 A 
ATOM     70  C   UNL     1      13.360   1.445 -11.352  1.00  0.00     0.134 A 
ATOM     71  C   UNL     1      11.046   0.867 -11.546  1.00  0.00     0.134 A 
ATOM     72  F   UNL     1      14.348   2.350 -11.300  1.00  0.00    -0.206 F 
ATOM     73  C   UNL     1      13.703   0.093 -11.316  1.00  0.00     0.040 A 
ATOM     74  C   UNL     1      11.372  -0.488 -11.486  1.00  0.00     0.040 A 
ATOM     75  F   UNL     1       9.752   1.201 -11.659  1.00  0.00    -0.206 F 
ATOM     76  C   UNL     1      12.706  -0.879 -11.379  1.00  0.00     0.006 A 
ENDBRANCH  48  69
BRANCH  60  77
ATOM     77  C   UNL     1      13.153   6.843 -16.210  1.00  0.00     0.057 A 
ATOM     78  C   UNL     1      12.620   6.222 -17.347  1.00  0.00     0.134 A 
ATOM     79  C   UNL     1      14.376   7.512 -16.351  1.00  0.00     0.134 A 
ATOM     80  F   UNL     1      11.459   5.553 -17.275  1.00  0.00    -0.206 F 
ATOM     81  C   UNL     1      13.288   6.248 -18.572  1.00  0.00     0.040 A 
ATOM     82  C   UNL     1      15.039   7.569 -17.577  1.00  0.00     0.040 A 
ATOM     83  F   UNL     1      14.936   8.135 -15.303  1.00  0.00    -0.206 F 
ATOM     84  C   UNL     1      14.498   6.930 -18.691  1.00  0.00     0.006 A 
ENDBRANCH  60  77
ENDBRANCH  34  35
ENDBRANCH  26  29
ENDBRANCH  24  25
ENDBRANCH  23  24
ENDBRANCH  22  23
ENDBRANCH   1  22
TORSDOF 17
