REMARK SMILES O=C(NCCCCNC(=O)c1cc(-c2cncnc2)cc(S(=O)(=O)N2CCCC2)c1)c1ccc(-c2c3nc(c(-c4c(F)cccc4F)c4ccc([nH]4)c(-c4c(F)cccc4F)c4nc(c(-c5c(F)cccc5F)c5ccc2[nH]5)C=C4)C=C3)cc1
REMARK SMILES IDX 5 1 4 2 3 3 1 4 2 5 31 7 32 8 84 9 33 10 83 11 34 12 35 13
REMARK SMILES IDX 36 14 77 15 37 16 82 17 76 18 78 19 38 20 81 21 75 22 74 23
REMARK SMILES IDX 39 25 65 26 48 27 64 28 49 29 52 30 63 31 79 32 50 33 51 34
REMARK SMILES IDX 62 36 80 37 53 38 40 39 41 40 46 41 42 42 43 43 45 44 47 45
REMARK SMILES IDX 44 46 66 47 67 48 72 49 68 50 69 51 71 52 73 53 70 54 54 55
REMARK SMILES IDX 55 56 60 57 56 58 57 59 59 60 61 61 58 62 6 63 7 64 8 65
REMARK SMILES IDX 9 66 10 68 11 69 12 70 30 71 13 72 21 73 20 74 14 75 15 76
REMARK SMILES IDX 19 77 16 78 18 79 17 80 22 81 23 82 24 83 25 84 26 85 29 86
REMARK SMILES IDX 27 87 28 88
REMARK H PARENT 3 6 78 24 52 35 8 67
REMARK Flexibility Score: inf
ROOT
ATOM      1  C   UNL     1       5.039  -2.269  -1.252  1.00  0.00     0.023 C 
ENDROOT
BRANCH   1   2
ATOM      2  C   UNL     1       4.723  -0.784  -1.114  1.00  0.00     0.116 C 
BRANCH   2   3
ATOM      3  N   UNL     1       3.295  -0.504  -1.076  1.00  0.00    -0.352 N 
ATOM      4  O   UNL     1       1.303   0.057  -0.178  1.00  0.00    -0.269 OA
ATOM      5  C   UNL     1       2.524   0.013  -0.061  1.00  0.00     0.251 C 
ATOM      6  H   UNL     1       2.806  -0.716  -1.904  1.00  0.00     0.163 HD
BRANCH   5   7
ATOM      7  C   UNL     1       3.163   0.481   1.187  1.00  0.00     0.039 A 
ATOM      8  C   UNL     1       4.294   1.296   1.143  1.00  0.00     0.014 A 
ATOM      9  C   UNL     1       2.634   0.081   2.418  1.00  0.00     0.014 A 
ATOM     10  C   UNL     1       5.002   1.553   2.311  1.00  0.00     0.010 A 
ATOM     11  C   UNL     1       3.295   0.422   3.602  1.00  0.00     0.010 A 
ATOM     12  C   UNL     1       4.512   1.119   3.555  1.00  0.00    -0.014 A 
BRANCH  12  13
ATOM     13  C   UNL     1       5.283   1.434   4.785  1.00  0.00     0.031 A 
ATOM     14  C   UNL     1       5.896   0.344   5.622  1.00  0.00     0.074 A 
ATOM     15  C   UNL     1       5.478   2.725   5.114  1.00  0.00     0.049 A 
ATOM     16  N   UNL     1       6.642   0.450   6.694  1.00  0.00    -0.248 NA
ATOM     17  C   UNL     1       5.635  -1.044   5.211  1.00  0.00     0.031 C 
ATOM     18  C   UNL     1       4.929   3.871   4.384  1.00  0.00     0.029 A 
ATOM     19  N   UNL     1       6.210   3.294   6.123  1.00  0.00    -0.354 N 
ATOM     20  C   UNL     1       6.919  -0.850   7.098  1.00  0.00     0.074 A 
ATOM     21  C   UNL     1       6.243  -1.731   6.169  1.00  0.00     0.031 C 
ATOM     22  C   UNL     1       5.394   5.003   4.931  1.00  0.00     0.029 A 
ATOM     23  C   UNL     1       6.221   4.667   6.084  1.00  0.00     0.049 A 
ATOM     24  H   UNL     1       6.684   2.770   6.809  1.00  0.00     0.167 HD
ATOM     25  C   UNL     1       7.673  -1.270   8.142  1.00  0.00     0.037 A 
ATOM     26  C   UNL     1       6.823   5.560   6.890  1.00  0.00     0.037 A 
ATOM     27  C   UNL     1       8.365  -0.392   9.052  1.00  0.00     0.049 A 
ATOM     28  C   UNL     1       7.640   5.067   8.046  1.00  0.00     0.074 A 
ATOM     29  C   UNL     1       9.186  -0.724  10.116  1.00  0.00     0.029 A 
ATOM     30  N   UNL     1       8.316   0.993   9.004  1.00  0.00    -0.354 N 
ATOM     31  N   UNL     1       7.913   3.834   8.397  1.00  0.00    -0.248 NA
ATOM     32  C   UNL     1       8.225   6.089   8.923  1.00  0.00     0.031 C 
ATOM     33  C   UNL     1       9.601   0.460  10.737  1.00  0.00     0.029 A 
ATOM     34  C   UNL     1       9.073   1.530  10.033  1.00  0.00     0.049 A 
ATOM     35  H   UNL     1       7.816   1.518   8.337  1.00  0.00     0.167 HD
ATOM     36  C   UNL     1       8.713   3.931   9.527  1.00  0.00     0.074 A 
ATOM     37  C   UNL     1       8.897   5.344   9.789  1.00  0.00     0.031 C 
ATOM     38  C   UNL     1       9.244   2.938  10.281  1.00  0.00     0.037 A 
BRANCH  25  39
ATOM     39  C   UNL     1       7.778  -2.751   8.374  1.00  0.00     0.057 A 
ATOM     40  C   UNL     1       8.540  -3.580   7.542  1.00  0.00     0.134 A 
ATOM     41  C   UNL     1       7.142  -3.346   9.471  1.00  0.00     0.134 A 
ATOM     42  F   UNL     1       9.165  -3.075   6.467  1.00  0.00    -0.206 F 
ATOM     43  C   UNL     1       8.650  -4.952   7.780  1.00  0.00     0.040 A 
ATOM     44  C   UNL     1       7.263  -4.712   9.733  1.00  0.00     0.040 A 
ATOM     45  F   UNL     1       6.403  -2.608  10.313  1.00  0.00    -0.206 F 
ATOM     46  C   UNL     1       8.015  -5.520   8.883  1.00  0.00     0.006 A 
ENDBRANCH  25  39
BRANCH  26  47
ATOM     47  C   UNL     1       6.674   7.011   6.621  1.00  0.00     0.057 A 
ATOM     48  C   UNL     1       7.752   7.772   6.158  1.00  0.00     0.134 A 
ATOM     49  C   UNL     1       5.449   7.664   6.801  1.00  0.00     0.134 A 
ATOM     50  F   UNL     1       8.954   7.204   5.981  1.00  0.00    -0.206 F 
ATOM     51  C   UNL     1       7.620   9.136   5.891  1.00  0.00     0.040 A 
ATOM     52  C   UNL     1       5.296   9.020   6.515  1.00  0.00     0.040 A 
ATOM     53  F   UNL     1       4.377   6.985   7.235  1.00  0.00    -0.206 F 
ATOM     54  C   UNL     1       6.386   9.761   6.064  1.00  0.00     0.006 A 
ENDBRANCH  26  47
BRANCH  38  55
ATOM     55  C   UNL     1      10.091   3.354  11.446  1.00  0.00     0.057 A 
ATOM     56  C   UNL     1       9.530   3.894  12.610  1.00  0.00     0.134 A 
ATOM     57  C   UNL     1      11.483   3.203  11.406  1.00  0.00     0.134 A 
ATOM     58  F   UNL     1       8.204   4.079  12.702  1.00  0.00    -0.206 F 
ATOM     59  C   UNL     1      10.326   4.293  13.685  1.00  0.00     0.040 A 
ATOM     60  C   UNL     1      12.287   3.577  12.484  1.00  0.00     0.040 A 
ATOM     61  F   UNL     1      12.082   2.688  10.322  1.00  0.00    -0.206 F 
ATOM     62  C   UNL     1      11.709   4.130  13.624  1.00  0.00     0.006 A 
ENDBRANCH  38  55
ENDBRANCH  12  13
ENDBRANCH   5   7
ENDBRANCH   2   3
ENDBRANCH   1   2
BRANCH   1  63
ATOM     63  C   UNL     1       4.538  -2.929  -2.535  1.00  0.00     0.023 C 
BRANCH  63  64
ATOM     64  C   UNL     1       4.927  -2.225  -3.831  1.00  0.00     0.116 C 
BRANCH  64  65
ATOM     65  N   UNL     1       6.365  -2.125  -4.013  1.00  0.00    -0.352 N 
ATOM     66  C   UNL     1       7.112  -2.277  -5.154  1.00  0.00     0.251 C 
ATOM     67  H   UNL     1       6.878  -1.918  -3.200  1.00  0.00     0.163 HD
ATOM     68  O   UNL     1       8.337  -2.286  -5.087  1.00  0.00    -0.269 OA
BRANCH  66  69
ATOM     69  C   UNL     1       6.458  -2.424  -6.474  1.00  0.00     0.041 A 
ATOM     70  C   UNL     1       6.969  -3.355  -7.382  1.00  0.00     0.022 A 
ATOM     71  C   UNL     1       5.407  -1.591  -6.847  1.00  0.00     0.035 A 
ATOM     72  C   UNL     1       6.411  -3.495  -8.665  1.00  0.00    -0.013 A 
ATOM     73  C   UNL     1       4.833  -1.715  -8.107  1.00  0.00     0.084 A 
ATOM     74  C   UNL     1       5.332  -2.661  -9.015  1.00  0.00     0.030 A 
BRANCH  72  75
ATOM     75  C   UNL     1       6.966  -4.471  -9.607  1.00  0.00     0.018 A 
ATOM     76  C   UNL     1       7.354  -4.148 -10.897  1.00  0.00     0.123 A 
ATOM     77  C   UNL     1       7.191  -5.799  -9.276  1.00  0.00     0.123 A 
ATOM     78  N   UNL     1       7.910  -5.015 -11.770  1.00  0.00    -0.244 NA
ATOM     79  N   UNL     1       7.742  -6.715 -10.102  1.00  0.00    -0.244 NA
ATOM     80  C   UNL     1       8.081  -6.266 -11.318  1.00  0.00     0.221 A 
ENDBRANCH  72  75
BRANCH  73  81
ATOM     81  S   UNL     1       3.473  -0.679  -8.618  1.00  0.00     0.243 S 
ATOM     82  O   UNL     1       3.774  -0.269  -9.976  1.00  0.00    -0.207 OA
ATOM     83  O   UNL     1       2.272  -1.408  -8.287  1.00  0.00    -0.207 OA
BRANCH  81  84
ATOM     84  N   UNL     1       3.526   0.699  -7.663  1.00  0.00    -0.198 NA
ATOM     85  C   UNL     1       4.606   1.685  -7.796  1.00  0.00     0.102 C 
ATOM     86  C   UNL     1       2.957   0.718  -6.307  1.00  0.00     0.102 C 
ATOM     87  C   UNL     1       5.055   1.941  -6.366  1.00  0.00     0.018 C 
ATOM     88  C   UNL     1       3.799   1.732  -5.534  1.00  0.00     0.018 C 
ENDBRANCH  81  84
ENDBRANCH  73  81
ENDBRANCH  66  69
ENDBRANCH  64  65
ENDBRANCH  63  64
ENDBRANCH   1  63
TORSDOF 14
