REMARK SMILES O=C(NCCCCNC(=O)c1ccc(-c2c3nc(c(-c4c(F)cccc4F)c4ccc([nH]4)c(-c4c(F)cccc4F)c4nc(c(-c5c(F)cccc5F)c5ccc2[nH]5)C=C4)C=C3)cc1)C1=Cc2cc(Cl)cc(C#Cc3ccccc3)c2O[C@@H]1C(F)(F)F
REMARK SMILES IDX 5 1 4 2 3 3 1 4 2 5 65 7 66 8 83 9 67 10 82 11 68 12 81 13
REMARK SMILES IDX 69 14 72 15 70 16 71 17 84 18 85 19 86 20 87 21 73 22 74 23
REMARK SMILES IDX 75 24 76 25 80 26 77 27 79 28 78 29 6 30 7 31 8 32 9 33
REMARK SMILES IDX 10 35 11 36 12 37 64 38 13 39 63 40 14 41 15 42 16 43 57 44
REMARK SMILES IDX 17 45 62 46 56 47 58 48 18 49 61 50 55 51 54 52 19 54 45 55
REMARK SMILES IDX 28 56 44 57 29 58 32 59 43 60 59 61 30 62 31 63 42 65 60 66
REMARK SMILES IDX 33 67 20 68 21 69 26 70 22 71 23 72 25 73 27 74 24 75 46 76
REMARK SMILES IDX 47 77 52 78 48 79 49 80 51 81 53 82 50 83 34 84 35 85 40 86
REMARK SMILES IDX 36 87 37 88 39 89 41 90 38 91
REMARK H PARENT 3 6 8 34 58 53 32 64
REMARK Flexibility Score: inf
ROOT
ATOM      1  C   UNL     1       4.338  -0.369  -3.272  1.00  0.00     0.023 C 
ENDROOT
BRANCH   1   2
ATOM      2  C   UNL     1       3.898   0.073  -1.886  1.00  0.00     0.116 C 
BRANCH   2   3
ATOM      3  N   UNL     1       2.634  -0.441  -1.404  1.00  0.00    -0.352 N 
ATOM      4  O   UNL     1       1.050  -0.913   0.110  1.00  0.00    -0.270 OA
ATOM      5  C   UNL     1       2.242  -0.702  -0.118  1.00  0.00     0.251 C 
ATOM      6  H   UNL     1       1.962  -0.629  -2.098  1.00  0.00     0.163 HD
BRANCH   5   7
ATOM      7  C   UNL     1       3.180  -0.653   1.050  1.00  0.00     0.067 C 
ATOM      8  C   UNL     1       4.444  -1.116   1.023  1.00  0.00     0.025 C 
ATOM      9  C   UNL     1       2.901   0.533   1.946  1.00  0.00     0.314 C 
ATOM     10  C   UNL     1       5.426   0.010   0.919  1.00  0.00     0.020 A 
ATOM     11  O   UNL     1       3.741   1.657   1.556  1.00  0.00    -0.474 OA
ATOM     12  C   UNL     1       6.670  -0.283   0.342  1.00  0.00     0.032 A 
ATOM     13  C   UNL     1       4.960   1.341   0.992  1.00  0.00     0.143 A 
ATOM     14  C   UNL     1       7.387   0.737  -0.279  1.00  0.00     0.043 A 
ATOM     15  C   UNL     1       5.666   2.344   0.310  1.00  0.00     0.069 A 
ATOM     16  Cl  UNL     1       8.795   0.347  -1.186  1.00  0.00    -0.084 Cl
ATOM     17  C   UNL     1       6.883   2.036  -0.317  1.00  0.00     0.041 A 
BRANCH   9  18
ATOM     18  C   UNL     1       3.019   0.169   3.439  1.00  0.00     0.429 C 
ATOM     19  F   UNL     1       2.628   1.189   4.236  1.00  0.00    -0.167 F 
ATOM     20  F   UNL     1       2.235  -0.894   3.747  1.00  0.00    -0.167 F 
ATOM     21  F   UNL     1       4.283  -0.160   3.799  1.00  0.00    -0.167 F 
ENDBRANCH   9  18
BRANCH  15  22
ATOM     22  C   UNL     1       5.070   3.610  -0.016  1.00  0.00    -0.058 C 
ATOM     23  C   UNL     1       4.630   4.633  -0.466  1.00  0.00    -0.062 C 
BRANCH  23  24
ATOM     24  C   UNL     1       4.202   5.857  -1.077  1.00  0.00     0.025 A 
ATOM     25  C   UNL     1       5.117   6.905  -1.217  1.00  0.00     0.017 A 
ATOM     26  C   UNL     1       2.893   6.017  -1.541  1.00  0.00     0.017 A 
ATOM     27  C   UNL     1       4.717   8.119  -1.778  1.00  0.00     0.001 A 
ATOM     28  C   UNL     1       2.494   7.234  -2.104  1.00  0.00     0.001 A 
ATOM     29  C   UNL     1       3.404   8.287  -2.212  1.00  0.00     0.000 A 
ENDBRANCH  23  24
ENDBRANCH  15  22
ENDBRANCH   5   7
ENDBRANCH   2   3
ENDBRANCH   1   2
BRANCH   1  30
ATOM     30  C   UNL     1       4.154   0.663  -4.374  1.00  0.00     0.023 C 
BRANCH  30  31
ATOM     31  C   UNL     1       4.777   2.038  -4.139  1.00  0.00     0.116 C 
BRANCH  31  32
ATOM     32  N   UNL     1       6.226   2.059  -3.979  1.00  0.00    -0.352 N 
ATOM     33  C   UNL     1       7.129   2.941  -4.542  1.00  0.00     0.251 C 
ATOM     34  H   UNL     1       6.608   1.360  -3.400  1.00  0.00     0.163 HD
ATOM     35  O   UNL     1       8.324   2.886  -4.276  1.00  0.00    -0.269 OA
BRANCH  33  36
ATOM     36  C   UNL     1       6.637   3.903  -5.550  1.00  0.00     0.039 A 
ATOM     37  C   UNL     1       7.117   3.790  -6.856  1.00  0.00     0.014 A 
ATOM     38  C   UNL     1       5.585   4.771  -5.247  1.00  0.00     0.014 A 
ATOM     39  C   UNL     1       6.447   4.446  -7.889  1.00  0.00     0.010 A 
ATOM     40  C   UNL     1       4.867   5.352  -6.288  1.00  0.00     0.010 A 
ATOM     41  C   UNL     1       5.271   5.166  -7.622  1.00  0.00    -0.014 A 
BRANCH  41  42
ATOM     42  C   UNL     1       4.420   5.667  -8.733  1.00  0.00     0.031 A 
ATOM     43  C   UNL     1       4.175   7.138  -8.896  1.00  0.00     0.074 A 
ATOM     44  C   UNL     1       3.810   4.788  -9.554  1.00  0.00     0.049 A 
ATOM     45  N   UNL     1       3.425   7.758  -9.770  1.00  0.00    -0.248 NA
ATOM     46  C   UNL     1       4.844   8.027  -7.936  1.00  0.00     0.031 C 
ATOM     47  C   UNL     1       3.923   3.330  -9.468  1.00  0.00     0.029 A 
ATOM     48  N   UNL     1       2.964   4.989 -10.618  1.00  0.00    -0.354 N 
ATOM     49  C   UNL     1       3.528   9.108  -9.463  1.00  0.00     0.074 A 
ATOM     50  C   UNL     1       4.363   9.210  -8.286  1.00  0.00     0.031 C 
ATOM     51  C   UNL     1       3.192   2.771 -10.445  1.00  0.00     0.029 A 
ATOM     52  C   UNL     1       2.520   3.825 -11.199  1.00  0.00     0.049 A 
ATOM     53  H   UNL     1       2.699   5.883 -10.934  1.00  0.00     0.167 HD
ATOM     54  C   UNL     1       2.993  10.167 -10.116  1.00  0.00     0.037 A 
ATOM     55  C   UNL     1       1.655   3.624 -12.213  1.00  0.00     0.037 A 
ATOM     56  C   UNL     1       2.159  10.059 -11.284  1.00  0.00     0.049 A 
ATOM     57  C   UNL     1       1.044   4.813 -12.901  1.00  0.00     0.074 A 
ATOM     58  C   UNL     1       1.614  11.074 -12.050  1.00  0.00     0.029 A 
ATOM     59  N   UNL     1       1.734   8.862 -11.845  1.00  0.00    -0.354 N 
ATOM     60  N   UNL     1       1.219   6.089 -12.654  1.00  0.00    -0.248 NA
ATOM     61  C   UNL     1       0.118   4.538 -14.009  1.00  0.00     0.031 C 
ATOM     62  C   UNL     1       0.803  10.493 -13.031  1.00  0.00     0.029 A 
ATOM     63  C   UNL     1       0.898   9.115 -12.921  1.00  0.00     0.049 A 
ATOM     64  H   UNL     1       1.988   7.967 -11.526  1.00  0.00     0.167 HD
ATOM     65  C   UNL     1       0.443   6.769 -13.584  1.00  0.00     0.074 A 
ATOM     66  C   UNL     1      -0.189   5.763 -14.414  1.00  0.00     0.031 C 
ATOM     67  C   UNL     1       0.269   8.105 -13.736  1.00  0.00     0.037 A 
BRANCH  54  68
ATOM     68  C   UNL     1       3.284  11.533  -9.562  1.00  0.00     0.057 A 
ATOM     69  C   UNL     1       4.572  12.087  -9.586  1.00  0.00     0.134 A 
ATOM     70  C   UNL     1       2.261  12.309  -9.003  1.00  0.00     0.134 A 
ATOM     71  F   UNL     1       5.601  11.394 -10.097  1.00  0.00    -0.206 F 
ATOM     72  C   UNL     1       4.839  13.343  -9.038  1.00  0.00     0.040 A 
ATOM     73  C   UNL     1       2.509  13.581  -8.483  1.00  0.00     0.040 A 
ATOM     74  F   UNL     1       1.003  11.846  -8.953  1.00  0.00    -0.206 F 
ATOM     75  C   UNL     1       3.803  14.096  -8.489  1.00  0.00     0.006 A 
ENDBRANCH  54  68
BRANCH  55  76
ATOM     76  C   UNL     1       1.312   2.239 -12.631  1.00  0.00     0.057 A 
ATOM     77  C   UNL     1       1.716   1.728 -13.870  1.00  0.00     0.134 A 
ATOM     78  C   UNL     1       0.572   1.390 -11.797  1.00  0.00     0.134 A 
ATOM     79  F   UNL     1       2.409   2.497 -14.723  1.00  0.00    -0.206 F 
ATOM     80  C   UNL     1       1.387   0.432 -14.271  1.00  0.00     0.040 A 
ATOM     81  C   UNL     1       0.260   0.082 -12.172  1.00  0.00     0.040 A 
ATOM     82  F   UNL     1       0.159   1.814 -10.594  1.00  0.00    -0.206 F 
ATOM     83  C   UNL     1       0.662  -0.398 -13.417  1.00  0.00     0.006 A 
ENDBRANCH  55  76
BRANCH  67  84
ATOM     84  C   UNL     1      -0.626   8.563 -14.853  1.00  0.00     0.057 A 
ATOM     85  C   UNL     1      -2.015   8.390 -14.808  1.00  0.00     0.134 A 
ATOM     86  C   UNL     1      -0.095   9.237 -15.961  1.00  0.00     0.134 A 
ATOM     87  F   UNL     1      -2.587   7.742 -13.781  1.00  0.00    -0.206 F 
ATOM     88  C   UNL     1      -2.842   8.853 -15.833  1.00  0.00     0.040 A 
ATOM     89  C   UNL     1      -0.914   9.732 -16.977  1.00  0.00     0.040 A 
ATOM     90  F   UNL     1       1.226   9.445 -16.064  1.00  0.00    -0.206 F 
ATOM     91  C   UNL     1      -2.292   9.535 -16.917  1.00  0.00     0.006 A 
ENDBRANCH  67  84
ENDBRANCH  41  42
ENDBRANCH  33  36
ENDBRANCH  31  32
ENDBRANCH  30  31
ENDBRANCH   1  30
TORSDOF 14
