REMARK SMILES O=C(Cn1c(O)c(/N=N/C(=O)c2ccc(Cl)cc2Cl)c2ccccc21)NCCCCNC(=O)c1ccc(-c2c3nc(c(-c4c(F)cccc4F)c4ccc([nH]4)c(-c4c(F)cccc4F)c4nc(c(-c5c(F)cccc5F)c5ccc2[nH]5)C=C4)C=C3)cc1
REMARK SMILES IDX 27 1 26 2 1 3 2 4 3 6 4 7 5 8 25 9 7 10 20 11 24 12 21 13
REMARK SMILES IDX 23 14 22 15 6 16 8 18 9 19 10 20 11 21 12 22 13 23 18 24
REMARK SMILES IDX 14 25 17 26 19 27 15 28 16 29 28 30 29 31 30 32 31 33 32 34
REMARK SMILES IDX 33 36 34 37 35 38 87 39 36 40 86 41 37 42 38 43 39 44 80 45
REMARK SMILES IDX 40 46 85 47 79 48 81 49 41 50 84 51 78 52 77 53 42 55 68 56
REMARK SMILES IDX 51 57 67 58 52 59 55 60 66 61 82 62 53 63 54 64 65 66 83 67
REMARK SMILES IDX 56 68 43 69 44 70 49 71 45 72 46 73 48 74 50 75 47 76 69 77
REMARK SMILES IDX 70 78 75 79 71 80 72 81 74 82 76 83 73 84 57 85 58 86 63 87
REMARK SMILES IDX 59 88 60 89 62 90 64 91 61 92
REMARK H PARENT 26 5 6 17 31 35 81 54 55 65
REMARK Flexibility Score: inf
ROOT
ATOM      1  C   UNL     1       2.120  -0.607   2.204  1.00  0.00     0.116 C 
ENDROOT
BRANCH   1   2
ATOM      2  N   UNL     1       2.837  -0.310   0.980  1.00  0.00    -0.355 N 
ATOM      3  O   UNL     1       0.985   0.234  -0.279  1.00  0.00    -0.273 OA
ATOM      4  C   UNL     1       2.199   0.077  -0.178  1.00  0.00     0.240 C 
ATOM      5  H   UNL     1       3.818  -0.387   0.975  1.00  0.00     0.163 HD
BRANCH   4   6
ATOM      6  C   UNL     1       3.116   0.325  -1.355  1.00  0.00     0.225 C 
BRANCH   6   7
ATOM      7  N   UNL     1       3.871   1.552  -1.169  1.00  0.00    -0.301 N 
ATOM      8  C   UNL     1       3.340   2.826  -1.245  1.00  0.00     0.221 A 
ATOM      9  C   UNL     1       5.223   1.599  -0.871  1.00  0.00     0.054 A 
ATOM     10  C   UNL     1       4.392   3.700  -1.035  1.00  0.00     0.155 A 
ATOM     11  C   UNL     1       5.572   2.950  -0.785  1.00  0.00     0.031 A 
ATOM     12  C   UNL     1       6.171   0.579  -0.670  1.00  0.00     0.027 A 
ATOM     13  C   UNL     1       6.908   3.294  -0.489  1.00  0.00     0.013 A 
ATOM     14  C   UNL     1       7.488   0.947  -0.375  1.00  0.00     0.002 A 
ATOM     15  C   UNL     1       7.854   2.285  -0.285  1.00  0.00     0.001 A 
BRANCH   8  16
ATOM     16  O   UNL     1       2.050   3.073  -1.479  1.00  0.00    -0.493 OA
ATOM     17  H   UNL     1       1.451   2.362  -1.602  1.00  0.00     0.295 HD
ENDBRANCH   8  16
BRANCH  10  18
ATOM     18  N   UNL     1       4.389   5.105  -1.009  1.00  0.00    -0.141 NA
ATOM     19  N   UNL     1       3.288   5.617  -1.289  1.00  0.00    -0.106 NA
BRANCH  19  20
ATOM     20  C   UNL     1       3.308   6.989  -1.236  1.00  0.00     0.296 C 
ATOM     21  O   UNL     1       4.248   7.708  -0.874  1.00  0.00    -0.265 OA
BRANCH  20  22
ATOM     22  C   UNL     1       2.020   7.620  -1.614  1.00  0.00     0.062 A 
ATOM     23  C   UNL     1       0.834   7.075  -1.088  1.00  0.00     0.017 A 
ATOM     24  C   UNL     1       1.952   8.728  -2.468  1.00  0.00     0.055 A 
ATOM     25  C   UNL     1      -0.403   7.638  -1.409  1.00  0.00     0.021 A 
ATOM     26  C   UNL     1       0.709   9.288  -2.787  1.00  0.00     0.041 A 
ATOM     27  Cl  UNL     1       3.341   9.421  -3.226  1.00  0.00    -0.083 Cl
ATOM     28  C   UNL     1      -0.459   8.742  -2.256  1.00  0.00     0.042 A 
ATOM     29  Cl  UNL     1      -1.982   9.430  -2.660  1.00  0.00    -0.084 Cl
ENDBRANCH  20  22
ENDBRANCH  19  20
ENDBRANCH  10  18
ENDBRANCH   6   7
ENDBRANCH   4   6
ENDBRANCH   1   2
BRANCH   1  30
ATOM     30  C   UNL     1       2.644  -1.875   2.874  1.00  0.00     0.023 C 
BRANCH  30  31
ATOM     31  C   UNL     1       4.129  -1.845   3.262  1.00  0.00     0.023 C 
BRANCH  31  32
ATOM     32  C   UNL     1       4.563  -0.611   4.056  1.00  0.00     0.116 C 
BRANCH  32  33
ATOM     33  N   UNL     1       3.878  -0.449   5.321  1.00  0.00    -0.352 N 
ATOM     34  C   UNL     1       4.121  -0.874   6.598  1.00  0.00     0.251 C 
ATOM     35  H   UNL     1       3.055   0.084   5.245  1.00  0.00     0.163 HD
ATOM     36  O   UNL     1       3.420  -0.378   7.484  1.00  0.00    -0.269 OA
BRANCH  34  37
ATOM     37  C   UNL     1       5.078  -1.952   6.965  1.00  0.00     0.039 A 
ATOM     38  C   UNL     1       5.983  -2.557   6.094  1.00  0.00     0.014 A 
ATOM     39  C   UNL     1       4.951  -2.463   8.271  1.00  0.00     0.014 A 
ATOM     40  C   UNL     1       6.599  -3.747   6.444  1.00  0.00     0.010 A 
ATOM     41  C   UNL     1       5.591  -3.636   8.641  1.00  0.00     0.010 A 
ATOM     42  C   UNL     1       6.341  -4.317   7.690  1.00  0.00    -0.014 A 
BRANCH  42  43
ATOM     43  C   UNL     1       6.903  -5.634   7.949  1.00  0.00     0.031 A 
ATOM     44  C   UNL     1       8.392  -5.691   7.952  1.00  0.00     0.074 A 
ATOM     45  C   UNL     1       6.117  -6.695   8.220  1.00  0.00     0.049 A 
ATOM     46  N   UNL     1       9.181  -6.377   7.190  1.00  0.00    -0.248 NA
ATOM     47  C   UNL     1       9.091  -4.756   8.849  1.00  0.00     0.031 C 
ATOM     48  C   UNL     1       4.676  -6.708   8.496  1.00  0.00     0.029 A 
ATOM     49  N   UNL     1       6.470  -7.997   8.397  1.00  0.00    -0.354 N 
ATOM     50  C   UNL     1      10.477  -6.096   7.627  1.00  0.00     0.074 A 
ATOM     51  C   UNL     1      10.366  -4.991   8.541  1.00  0.00     0.031 C 
ATOM     52  C   UNL     1       4.334  -7.902   9.029  1.00  0.00     0.029 A 
ATOM     53  C   UNL     1       5.492  -8.776   8.998  1.00  0.00     0.049 A 
ATOM     54  H   UNL     1       7.345  -8.356   8.122  1.00  0.00     0.167 HD
ATOM     55  C   UNL     1      11.520  -6.932   7.368  1.00  0.00     0.037 A 
ATOM     56  C   UNL     1       5.653 -10.026   9.497  1.00  0.00     0.037 A 
ATOM     57  C   UNL     1      11.230  -7.798   6.256  1.00  0.00     0.049 A 
ATOM     58  C   UNL     1       6.898 -10.584   8.918  1.00  0.00     0.074 A 
ATOM     59  C   UNL     1      11.019  -7.628   4.903  1.00  0.00     0.029 A 
ATOM     60  N   UNL     1      10.819  -9.075   6.541  1.00  0.00    -0.354 N 
ATOM     61  N   UNL     1       7.035 -10.911   7.664  1.00  0.00    -0.248 NA
ATOM     62  C   UNL     1       8.140 -10.371   9.646  1.00  0.00     0.031 C 
ATOM     63  C   UNL     1      10.075  -8.634   4.545  1.00  0.00     0.029 A 
ATOM     64  C   UNL     1       9.792  -9.380   5.690  1.00  0.00     0.049 A 
ATOM     65  H   UNL     1      11.196  -9.666   7.232  1.00  0.00     0.167 HD
ATOM     66  C   UNL     1       8.333 -10.544   7.340  1.00  0.00     0.074 A 
ATOM     67  C   UNL     1       8.993 -10.309   8.621  1.00  0.00     0.031 C 
ATOM     68  C   UNL     1       8.664 -10.199   6.062  1.00  0.00     0.037 A 
BRANCH  55  69
ATOM     69  C   UNL     1      12.625  -7.248   8.355  1.00  0.00     0.057 A 
ATOM     70  C   UNL     1      12.557  -6.990   9.740  1.00  0.00     0.134 A 
ATOM     71  C   UNL     1      13.649  -8.137   7.970  1.00  0.00     0.134 A 
ATOM     72  F   UNL     1      11.632  -6.193  10.284  1.00  0.00    -0.206 F 
ATOM     73  C   UNL     1      13.387  -7.622  10.671  1.00  0.00     0.040 A 
ATOM     74  C   UNL     1      14.453  -8.810   8.899  1.00  0.00     0.040 A 
ATOM     75  F   UNL     1      13.840  -8.453   6.680  1.00  0.00    -0.206 F 
ATOM     76  C   UNL     1      14.309  -8.568  10.257  1.00  0.00     0.006 A 
ENDBRANCH  55  69
BRANCH  56  77
ATOM     77  C   UNL     1       4.986 -10.633  10.668  1.00  0.00     0.057 A 
ATOM     78  C   UNL     1       4.611  -9.853  11.776  1.00  0.00     0.134 A 
ATOM     79  C   UNL     1       4.938 -12.022  10.845  1.00  0.00     0.134 A 
ATOM     80  F   UNL     1       4.700  -8.516  11.742  1.00  0.00    -0.206 F 
ATOM     81  C   UNL     1       4.217 -10.419  12.992  1.00  0.00     0.040 A 
ATOM     82  C   UNL     1       4.551 -12.603  12.060  1.00  0.00     0.040 A 
ATOM     83  F   UNL     1       5.322 -12.846   9.860  1.00  0.00    -0.206 F 
ATOM     84  C   UNL     1       4.197 -11.800  13.142  1.00  0.00     0.006 A 
ENDBRANCH  56  77
BRANCH  68  85
ATOM     85  C   UNL     1       7.647 -10.471   4.991  1.00  0.00     0.057 A 
ATOM     86  C   UNL     1       7.984 -11.327   3.939  1.00  0.00     0.134 A 
ATOM     87  C   UNL     1       6.416  -9.805   4.902  1.00  0.00     0.134 A 
ATOM     88  F   UNL     1       9.174 -11.949   3.928  1.00  0.00    -0.206 F 
ATOM     89  C   UNL     1       7.132 -11.524   2.850  1.00  0.00     0.040 A 
ATOM     90  C   UNL     1       5.539 -10.018   3.835  1.00  0.00     0.040 A 
ATOM     91  F   UNL     1       6.057  -8.892   5.813  1.00  0.00    -0.206 F 
ATOM     92  C   UNL     1       5.900 -10.876   2.801  1.00  0.00     0.006 A 
ENDBRANCH  68  85
ENDBRANCH  42  43
ENDBRANCH  34  37
ENDBRANCH  32  33
ENDBRANCH  31  32
ENDBRANCH  30  31
ENDBRANCH   1  30
TORSDOF 16
