REMARK SMILES CCCC[C@@H](C(=O)NCCCCNC(=O)c1ccc(-c2c3nc(c(-c4c(F)cccc4F)c4ccc([nH]4)c(-c4c(F)cccc4F)c4nc(c(-c5c(F)cccc5F)c5ccc2[nH]5)C=C4)C=C3)cc1)C1(O)Cc2ccccc2C1
REMARK SMILES IDX 10 1 9 2 8 3 6 4 7 5 5 7 4 8 3 9 2 10 1 11 70 12 72 13 79 14
REMARK SMILES IDX 73 15 78 16 74 17 77 18 75 19 76 20 71 21 11 23 12 24 13 25
REMARK SMILES IDX 14 26 15 28 16 29 17 30 69 31 18 32 68 33 19 34 20 35 21 36
REMARK SMILES IDX 62 37 22 38 67 39 61 40 63 41 23 42 66 43 60 44 59 45 24 47
REMARK SMILES IDX 50 48 33 49 49 50 34 51 37 52 48 53 64 54 35 55 36 56 47 58
REMARK SMILES IDX 65 59 38 60 25 61 26 62 31 63 27 64 28 65 30 66 32 67 29 68
REMARK SMILES IDX 51 69 52 70 57 71 53 72 54 73 56 74 58 75 55 76 39 77 40 78
REMARK SMILES IDX 45 79 41 80 42 81 44 82 46 83 43 84
REMARK H PARENT 8 6 71 22 13 27 63 46 37 57
REMARK Flexibility Score: inf
ROOT
ATOM      1  C   UNL     1       0.503  -1.555   4.231  1.00  0.00     0.023 C 
ENDROOT
BRANCH   1   2
ATOM      2  C   UNL     1      -0.820  -1.384   3.493  1.00  0.00     0.116 C 
BRANCH   2   3
ATOM      3  N   UNL     1      -1.578  -0.279   4.011  1.00  0.00    -0.356 N 
ATOM      4  C   UNL     1      -1.923   0.891   3.431  1.00  0.00     0.226 C 
ATOM      5  O   UNL     1      -3.062   1.251   3.752  1.00  0.00    -0.275 OA
ATOM      6  H   UNL     1      -1.897  -0.393   4.935  1.00  0.00     0.163 HD
BRANCH   4   7
ATOM      7  C   UNL     1      -1.110   1.670   2.361  1.00  0.00     0.111 C 
BRANCH   7   8
ATOM      8  C   UNL     1       0.416   1.403   2.156  1.00  0.00     0.016 C 
BRANCH   8   9
ATOM      9  C   UNL     1       1.075   0.230   1.425  1.00  0.00     0.001 C 
BRANCH   9  10
ATOM     10  C   UNL     1       0.411  -0.352   0.188  1.00  0.00    -0.003 C 
ATOM     11  C   UNL     1       0.944   0.271  -1.089  1.00  0.00     0.004 C 
ENDBRANCH   9  10
ENDBRANCH   8   9
ENDBRANCH   7   8
BRANCH   7  12
ATOM     12  C   UNL     1      -1.263   3.280   2.566  1.00  0.00     0.084 C 
ATOM     13  C   UNL     1      -2.505   3.878   3.326  1.00  0.00     0.072 C 
ATOM     14  C   UNL     1      -0.106   3.896   3.420  1.00  0.00     0.072 C 
ATOM     15  C   UNL     1      -2.042   3.803   4.757  1.00  0.00    -0.042 A 
ATOM     16  C   UNL     1      -0.649   3.685   4.793  1.00  0.00    -0.042 A 
ATOM     17  C   UNL     1      -2.784   3.753   5.921  1.00  0.00     0.004 A 
ATOM     18  C   UNL     1       0.021   3.360   5.956  1.00  0.00     0.004 A 
ATOM     19  C   UNL     1      -2.115   3.459   7.113  1.00  0.00     0.000 A 
ATOM     20  C   UNL     1      -0.729   3.224   7.123  1.00  0.00     0.000 A 
BRANCH  12  21
ATOM     21  O   UNL     1      -1.221   3.874   1.253  1.00  0.00    -0.388 OA
ATOM     22  H   UNL     1      -1.933   3.504   0.707  1.00  0.00     0.211 HD
ENDBRANCH  12  21
ENDBRANCH   7  12
ENDBRANCH   4   7
ENDBRANCH   2   3
ENDBRANCH   1   2
BRANCH   1  23
ATOM     23  C   UNL     1       0.429  -2.395   5.499  1.00  0.00     0.023 C 
BRANCH  23  24
ATOM     24  C   UNL     1      -0.079  -3.815   5.287  1.00  0.00     0.116 C 
BRANCH  24  25
ATOM     25  N   UNL     1       0.595  -4.546   4.222  1.00  0.00    -0.352 N 
ATOM     26  C   UNL     1       0.786  -5.905   4.112  1.00  0.00     0.251 C 
ATOM     27  H   UNL     1       0.960  -3.999   3.489  1.00  0.00     0.163 HD
ATOM     28  O   UNL     1       1.430  -6.377   3.189  1.00  0.00    -0.269 OA
BRANCH  26  29
ATOM     29  C   UNL     1       0.232  -6.779   5.166  1.00  0.00     0.039 A 
ATOM     30  C   UNL     1       1.070  -7.715   5.774  1.00  0.00     0.014 A 
ATOM     31  C   UNL     1      -1.085  -6.613   5.598  1.00  0.00     0.014 A 
ATOM     32  C   UNL     1       0.600  -8.441   6.868  1.00  0.00     0.010 A 
ATOM     33  C   UNL     1      -1.515  -7.260   6.747  1.00  0.00     0.010 A 
ATOM     34  C   UNL     1      -0.683  -8.192   7.383  1.00  0.00    -0.014 A 
BRANCH  34  35
ATOM     35  C   UNL     1      -1.194  -8.929   8.563  1.00  0.00     0.031 A 
ATOM     36  C   UNL     1      -2.402  -9.814   8.420  1.00  0.00     0.074 A 
ATOM     37  C   UNL     1      -0.617  -8.752   9.767  1.00  0.00     0.049 A 
ATOM     38  N   UNL     1      -3.039 -10.500   9.334  1.00  0.00    -0.248 NA
ATOM     39  C   UNL     1      -3.001  -9.907   7.078  1.00  0.00     0.031 C 
ATOM     40  C   UNL     1       0.511  -7.860  10.047  1.00  0.00     0.029 A 
ATOM     41  N   UNL     1      -0.904  -9.315  10.984  1.00  0.00    -0.354 N 
ATOM     42  C   UNL     1      -4.121 -11.078   8.684  1.00  0.00     0.074 A 
ATOM     43  C   UNL     1      -4.095 -10.613   7.316  1.00  0.00     0.031 C 
ATOM     44  C   UNL     1       0.839  -7.961  11.346  1.00  0.00     0.029 A 
ATOM     45  C   UNL     1      -0.066  -8.906  11.992  1.00  0.00     0.049 A 
ATOM     46  H   UNL     1      -1.642  -9.952  11.122  1.00  0.00     0.167 HD
ATOM     47  C   UNL     1      -5.037 -11.946   9.173  1.00  0.00     0.037 A 
ATOM     48  C   UNL     1      -0.028  -9.267  13.289  1.00  0.00     0.037 A 
ATOM     49  C   UNL     1      -5.026 -12.450  10.519  1.00  0.00     0.049 A 
ATOM     50  C   UNL     1      -1.010 -10.290  13.789  1.00  0.00     0.074 A 
ATOM     51  C   UNL     1      -5.864 -13.384  11.100  1.00  0.00     0.029 A 
ATOM     52  N   UNL     1      -4.114 -12.067  11.492  1.00  0.00    -0.354 N 
ATOM     53  N   UNL     1      -1.983 -10.887  13.144  1.00  0.00    -0.248 NA
ATOM     54  C   UNL     1      -0.873 -10.707  15.191  1.00  0.00     0.031 C 
ATOM     55  C   UNL     1      -5.474 -13.550  12.433  1.00  0.00     0.029 A 
ATOM     56  C   UNL     1      -4.369 -12.748  12.669  1.00  0.00     0.049 A 
ATOM     57  H   UNL     1      -3.393 -11.409  11.364  1.00  0.00     0.167 HD
ATOM     58  C   UNL     1      -2.552 -11.773  14.050  1.00  0.00     0.074 A 
ATOM     59  C   UNL     1      -1.805 -11.644  15.284  1.00  0.00     0.031 C 
ATOM     60  C   UNL     1      -3.598 -12.617  13.878  1.00  0.00     0.037 A 
BRANCH  47  61
ATOM     61  C   UNL     1      -6.108 -12.419   8.235  1.00  0.00     0.057 A 
ATOM     62  C   UNL     1      -5.825 -13.281   7.166  1.00  0.00     0.134 A 
ATOM     63  C   UNL     1      -7.439 -12.020   8.407  1.00  0.00     0.134 A 
ATOM     64  F   UNL     1      -4.567 -13.686   6.934  1.00  0.00    -0.206 F 
ATOM     65  C   UNL     1      -6.821 -13.705   6.286  1.00  0.00     0.040 A 
ATOM     66  C   UNL     1      -8.449 -12.460   7.550  1.00  0.00     0.040 A 
ATOM     67  F   UNL     1      -7.779 -11.197   9.410  1.00  0.00    -0.206 F 
ATOM     68  C   UNL     1      -8.140 -13.299   6.481  1.00  0.00     0.006 A 
ENDBRANCH  47  61
BRANCH  48  69
ATOM     69  C   UNL     1       1.006  -8.704  14.192  1.00  0.00     0.057 A 
ATOM     70  C   UNL     1       2.065  -9.495  14.654  1.00  0.00     0.134 A 
ATOM     71  C   UNL     1       0.955  -7.375  14.628  1.00  0.00     0.134 A 
ATOM     72  F   UNL     1       2.159 -10.780  14.283  1.00  0.00    -0.206 F 
ATOM     73  C   UNL     1       3.020  -8.994  15.540  1.00  0.00     0.040 A 
ATOM     74  C   UNL     1       1.917  -6.855  15.495  1.00  0.00     0.040 A 
ATOM     75  F   UNL     1      -0.027  -6.563  14.211  1.00  0.00    -0.206 F 
ATOM     76  C   UNL     1       2.949  -7.668  15.962  1.00  0.00     0.006 A 
ENDBRANCH  48  69
BRANCH  60  77
ATOM     77  C   UNL     1      -3.958 -13.500  15.035  1.00  0.00     0.057 A 
ATOM     78  C   UNL     1      -4.585 -12.999  16.182  1.00  0.00     0.134 A 
ATOM     79  C   UNL     1      -3.695 -14.875  14.986  1.00  0.00     0.134 A 
ATOM     80  F   UNL     1      -4.854 -11.689  16.294  1.00  0.00    -0.206 F 
ATOM     81  C   UNL     1      -4.911 -13.831  17.255  1.00  0.00     0.040 A 
ATOM     82  C   UNL     1      -4.039 -15.720  16.041  1.00  0.00     0.040 A 
ATOM     83  F   UNL     1      -3.105 -15.418  13.910  1.00  0.00    -0.206 F 
ATOM     84  C   UNL     1      -4.642 -15.197  17.183  1.00  0.00     0.006 A 
ENDBRANCH  60  77
ENDBRANCH  34  35
ENDBRANCH  26  29
ENDBRANCH  24  25
ENDBRANCH  23  24
ENDBRANCH   1  23
TORSDOF 16
