REMARK SMILES COC[C@H]1CC[N@@H+](Cc2ccc(C(=O)NCCCCNC(=O)c3ccc(-c4c5nc(c(-c6c(F)cccc6F)c6ccc([nH]6)c(-c6c(F)cccc6F)c6nc(c(-c7c(F)cccc7F)c7ccc4[nH]7)C=C6)C=C5)cc3)cn2)C1
REMARK SMILES IDX 16 1 15 2 13 3 14 4 12 6 9 7 10 8 78 9 11 10 77 11 8 12 7 13
REMARK SMILES IDX 4 14 5 15 79 16 6 17 3 19 2 20 1 21 17 22 18 23 19 24 20 25
REMARK SMILES IDX 21 26 22 28 23 29 24 30 76 31 25 32 75 33 26 34 27 35 28 36
REMARK SMILES IDX 69 37 29 38 74 39 68 40 70 41 30 42 73 43 67 44 66 45 31 47
REMARK SMILES IDX 57 48 40 49 56 50 41 51 44 52 55 53 71 54 42 55 43 56 54 58
REMARK SMILES IDX 72 59 45 60 32 61 33 62 38 63 34 64 35 65 37 66 39 67 36 68
REMARK SMILES IDX 58 69 59 70 64 71 60 72 61 73 63 74 65 75 62 76 46 77 47 78
REMARK SMILES IDX 52 79 48 80 49 81 51 82 53 83 50 84
REMARK H PARENT 15 5 7 18 20 27 70 46 44 57
REMARK Flexibility Score: inf
ROOT
ATOM      1  C   UNL     1      -0.356  -0.466   8.203  1.00  0.00     0.116 C 
ENDROOT
BRANCH   1   2
ATOM      2  N   UNL     1      -0.024  -1.817   8.621  1.00  0.00    -0.352 N 
ATOM      3  C   UNL     1       0.043  -2.976   7.882  1.00  0.00     0.252 C 
ATOM      4  O   UNL     1       0.542  -3.982   8.378  1.00  0.00    -0.269 OA
ATOM      5  H   UNL     1       0.185  -1.919   9.578  1.00  0.00     0.163 HD
BRANCH   3   6
ATOM      6  C   UNL     1      -0.419  -3.014   6.482  1.00  0.00     0.058 A 
ATOM      7  C   UNL     1      -1.004  -2.974   3.785  1.00  0.00     0.095 A 
ATOM      8  C   UNL     1      -1.926  -2.449   4.695  1.00  0.00     0.030 A 
ATOM      9  N   UNL     1       0.140  -3.580   4.197  1.00  0.00    -0.255 NA
ATOM     10  C   UNL     1      -1.634  -2.482   6.060  1.00  0.00     0.017 A 
ATOM     11  C   UNL     1       0.402  -3.598   5.529  1.00  0.00     0.125 A 
BRANCH   7  12
ATOM     12  C   UNL     1      -1.241  -2.830   2.284  1.00  0.00     0.319 C 
BRANCH  12  13
ATOM     13  N   UNL     1      -0.445  -1.818   1.567  1.00  0.00    -0.330 N 
ATOM     14  C   UNL     1       0.817   0.175   1.959  1.00  0.00     0.076 C 
ATOM     15  C   UNL     1       1.760  -1.015   2.055  1.00  0.00     0.073 C 
ATOM     16  C   UNL     1      -0.578  -0.446   2.054  1.00  0.00     0.268 C 
ATOM     17  C   UNL     1       0.975  -2.149   1.417  1.00  0.00     0.263 C 
ATOM     18  H   UNL     1      -0.879  -1.851   0.645  1.00  0.00     0.348 HD
BRANCH  14  19
ATOM     19  C   UNL     1       1.058   1.315   2.957  1.00  0.00     0.169 C 
BRANCH  19  20
ATOM     20  O   UNL     1       1.693   0.936   4.176  1.00  0.00    -0.384 OA
ATOM     21  C   UNL     1       0.858   0.220   5.062  1.00  0.00     0.194 C 
ENDBRANCH  19  20
ENDBRANCH  14  19
ENDBRANCH  12  13
ENDBRANCH   7  12
ENDBRANCH   3   6
ENDBRANCH   1   2
BRANCH   1  22
ATOM     22  C   UNL     1      -1.500   0.134   9.013  1.00  0.00     0.023 C 
BRANCH  22  23
ATOM     23  C   UNL     1      -1.115   0.552  10.432  1.00  0.00     0.023 C 
BRANCH  23  24
ATOM     24  C   UNL     1      -0.060   1.652  10.523  1.00  0.00     0.116 C 
BRANCH  24  25
ATOM     25  N   UNL     1      -0.481   2.907   9.919  1.00  0.00    -0.352 N 
ATOM     26  C   UNL     1      -0.497   4.177  10.454  1.00  0.00     0.251 C 
ATOM     27  H   UNL     1      -0.803   2.839   8.991  1.00  0.00     0.163 HD
ATOM     28  O   UNL     1      -1.005   5.100   9.835  1.00  0.00    -0.269 OA
BRANCH  26  29
ATOM     29  C   UNL     1       0.070   4.411  11.801  1.00  0.00     0.039 A 
ATOM     30  C   UNL     1      -0.674   5.147  12.727  1.00  0.00     0.014 A 
ATOM     31  C   UNL     1       1.313   3.885  12.158  1.00  0.00     0.014 A 
ATOM     32  C   UNL     1      -0.210   5.280  14.038  1.00  0.00     0.010 A 
ATOM     33  C   UNL     1       1.737   3.952  13.482  1.00  0.00     0.010 A 
ATOM     34  C   UNL     1       0.976   4.643  14.438  1.00  0.00    -0.014 A 
BRANCH  34  35
ATOM     35  C   UNL     1       1.428   4.671  15.853  1.00  0.00     0.031 A 
ATOM     36  C   UNL     1       2.733   5.322  16.219  1.00  0.00     0.074 A 
ATOM     37  C   UNL     1       0.705   4.037  16.797  1.00  0.00     0.049 A 
ATOM     38  N   UNL     1       3.335   5.372  17.380  1.00  0.00    -0.248 NA
ATOM     39  C   UNL     1       3.473   5.978  15.130  1.00  0.00     0.031 C 
ATOM     40  C   UNL     1      -0.550   3.319  16.564  1.00  0.00     0.029 A 
ATOM     41  N   UNL     1       0.929   3.883  18.143  1.00  0.00    -0.354 N 
ATOM     42  C   UNL     1       4.529   6.045  17.157  1.00  0.00     0.074 A 
ATOM     43  C   UNL     1       4.590   6.342  15.742  1.00  0.00     0.031 C 
ATOM     44  C   UNL     1      -0.993   2.818  17.729  1.00  0.00     0.029 A 
ATOM     45  C   UNL     1      -0.039   3.146  18.783  1.00  0.00     0.049 A 
ATOM     46  H   UNL     1       1.709   4.265  18.606  1.00  0.00     0.167 HD
ATOM     47  C   UNL     1       5.479   6.404  18.053  1.00  0.00     0.037 A 
ATOM     48  C   UNL     1      -0.142   2.770  20.072  1.00  0.00     0.037 A 
ATOM     49  C   UNL     1       5.404   6.137  19.465  1.00  0.00     0.049 A 
ATOM     50  C   UNL     1       0.921   3.190  21.049  1.00  0.00     0.074 A 
ATOM     51  C   UNL     1       6.281   6.524  20.464  1.00  0.00     0.029 A 
ATOM     52  N   UNL     1       4.392   5.415  20.079  1.00  0.00    -0.354 N 
ATOM     53  N   UNL     1       2.008   3.891  20.836  1.00  0.00    -0.248 NA
ATOM     54  C   UNL     1       0.740   2.771  22.446  1.00  0.00     0.031 C 
ATOM     55  C   UNL     1       5.822   6.000  21.677  1.00  0.00     0.029 A 
ATOM     56  C   UNL     1       4.634   5.327  21.441  1.00  0.00     0.049 A 
ATOM     57  H   UNL     1       3.616   5.023  19.617  1.00  0.00     0.167 HD
ATOM     58  C   UNL     1       2.625   4.021  22.074  1.00  0.00     0.074 A 
ATOM     59  C   UNL     1       1.784   3.337  23.034  1.00  0.00     0.031 C 
ATOM     60  C   UNL     1       3.784   4.650  22.386  1.00  0.00     0.037 A 
BRANCH  47  61
ATOM     61  C   UNL     1       6.683   7.133  17.532  1.00  0.00     0.057 A 
ATOM     62  C   UNL     1       6.604   8.456  17.074  1.00  0.00     0.134 A 
ATOM     63  C   UNL     1       7.941   6.520  17.520  1.00  0.00     0.134 A 
ATOM     64  F   UNL     1       5.426   9.097  17.048  1.00  0.00    -0.206 F 
ATOM     65  C   UNL     1       7.729   9.132  16.599  1.00  0.00     0.040 A 
ATOM     66  C   UNL     1       9.078   7.196  17.073  1.00  0.00     0.040 A 
ATOM     67  F   UNL     1       8.089   5.258  17.950  1.00  0.00    -0.206 F 
ATOM     68  C   UNL     1       8.972   8.504  16.605  1.00  0.00     0.006 A 
ENDBRANCH  47  61
BRANCH  48  69
ATOM     69  C   UNL     1      -1.307   1.968  20.522  1.00  0.00     0.057 A 
ATOM     70  C   UNL     1      -2.293   2.527  21.344  1.00  0.00     0.134 A 
ATOM     71  C   UNL     1      -1.458   0.626  20.154  1.00  0.00     0.134 A 
ATOM     72  F   UNL     1      -2.192   3.803  21.745  1.00  0.00    -0.206 F 
ATOM     73  C   UNL     1      -3.377   1.776  21.800  1.00  0.00     0.040 A 
ATOM     74  C   UNL     1      -2.550  -0.130  20.583  1.00  0.00     0.040 A 
ATOM     75  F   UNL     1      -0.552   0.034  19.362  1.00  0.00    -0.206 F 
ATOM     76  C   UNL     1      -3.510   0.443  21.416  1.00  0.00     0.006 A 
ENDBRANCH  48  69
BRANCH  60  77
ATOM     77  C   UNL     1       4.193   4.660  23.829  1.00  0.00     0.057 A 
ATOM     78  C   UNL     1       4.683   3.513  24.466  1.00  0.00     0.134 A 
ATOM     79  C   UNL     1       4.134   5.842  24.578  1.00  0.00     0.134 A 
ATOM     80  F   UNL     1       4.752   2.346  23.807  1.00  0.00    -0.206 F 
ATOM     81  C   UNL     1       5.080   3.536  25.804  1.00  0.00     0.040 A 
ATOM     82  C   UNL     1       4.552   5.884  25.909  1.00  0.00     0.040 A 
ATOM     83  F   UNL     1       3.683   6.977  24.025  1.00  0.00    -0.206 F 
ATOM     84  C   UNL     1       5.022   4.727  26.527  1.00  0.00     0.006 A 
ENDBRANCH  60  77
ENDBRANCH  34  35
ENDBRANCH  26  29
ENDBRANCH  24  25
ENDBRANCH  23  24
ENDBRANCH  22  23
ENDBRANCH   1  22
TORSDOF 15
