REMARK SMILES Cc1c(Br)c(C(=O)NCCCCNC(=O)c2ccc(-c3c4nc(c(-c5c(F)cccc5F)c5ccc([nH]5)c(-c5c(F)cccc5F)c5nc(c(-c6c(F)cccc6F)c6ccc3[nH]6)C=C5)C=C4)cc2)nn1CC(F)(F)F
REMARK SMILES IDX 10 1 9 2 8 3 6 4 7 5 5 7 1 8 2 9 3 10 71 11 4 12 70 13 72 14
REMARK SMILES IDX 73 15 74 16 75 17 76 18 11 19 12 20 13 21 14 22 15 24 16 25
REMARK SMILES IDX 17 26 69 27 18 28 68 29 19 30 20 31 21 32 62 33 22 34 67 35
REMARK SMILES IDX 61 36 63 37 23 38 66 39 60 40 59 41 24 43 50 44 33 45 49 46
REMARK SMILES IDX 34 47 37 48 48 49 64 50 35 51 36 52 47 54 65 55 38 56 25 57
REMARK SMILES IDX 26 58 31 59 27 60 28 61 30 62 32 63 29 64 51 65 52 66 57 67
REMARK SMILES IDX 53 68 54 69 56 70 58 71 55 72 39 73 40 74 45 75 41 76 42 77
REMARK SMILES IDX 44 78 46 79 43 80
REMARK H PARENT 8 6 13 23 63 42 37 53
REMARK Flexibility Score: inf
ROOT
ATOM      1  C   UNL     1      -1.014  -5.344  -4.491  1.00  0.00     0.023 C 
ENDROOT
BRANCH   1   2
ATOM      2  C   UNL     1      -1.546  -5.263  -3.057  1.00  0.00     0.116 C 
BRANCH   2   3
ATOM      3  N   UNL     1      -0.593  -5.747  -2.068  1.00  0.00    -0.351 N 
ATOM      4  C   UNL     1       0.178  -5.093  -1.122  1.00  0.00     0.272 C 
ATOM      5  O   UNL     1       0.886  -5.813  -0.414  1.00  0.00    -0.267 OA
ATOM      6  H   UNL     1      -0.474  -6.724  -2.072  1.00  0.00     0.163 HD
BRANCH   4   7
ATOM      7  C   UNL     1       0.160  -3.622  -0.979  1.00  0.00     0.164 A 
ATOM      8  C   UNL     1       1.141  -0.207   0.137  1.00  0.00     0.067 C 
ATOM      9  C   UNL     1       0.620  -1.480  -0.423  1.00  0.00     0.051 A 
ATOM     10  C   UNL     1       0.985  -2.790  -0.173  1.00  0.00     0.072 A 
ATOM     11  N   UNL     1      -0.379  -1.580  -1.354  1.00  0.00    -0.259 N 
ATOM     12  Br  UNL     1       2.337  -3.349   1.005  1.00  0.00    -0.046 Br
ATOM     13  N   UNL     1      -0.720  -2.843  -1.629  1.00  0.00    -0.166 NA
BRANCH  11  14
ATOM     14  C   UNL     1      -1.129  -0.546  -2.031  1.00  0.00     0.259 C 
BRANCH  14  15
ATOM     15  C   UNL     1      -0.842  -0.543  -3.512  1.00  0.00     0.408 C 
ATOM     16  F   UNL     1      -1.241  -1.667  -4.143  1.00  0.00    -0.169 F 
ATOM     17  F   UNL     1      -1.501   0.487  -4.101  1.00  0.00    -0.169 F 
ATOM     18  F   UNL     1       0.473  -0.361  -3.768  1.00  0.00    -0.169 F 
ENDBRANCH  14  15
ENDBRANCH  11  14
ENDBRANCH   4   7
ENDBRANCH   2   3
ENDBRANCH   1   2
BRANCH   1  19
ATOM     19  C   UNL     1      -0.954  -6.753  -5.102  1.00  0.00     0.023 C 
BRANCH  19  20
ATOM     20  C   UNL     1      -2.297  -7.469  -5.206  1.00  0.00     0.116 C 
BRANCH  20  21
ATOM     21  N   UNL     1      -3.266  -6.785  -6.064  1.00  0.00    -0.352 N 
ATOM     22  C   UNL     1      -4.595  -7.117  -6.284  1.00  0.00     0.251 C 
ATOM     23  H   UNL     1      -2.933  -5.993  -6.545  1.00  0.00     0.163 HD
ATOM     24  O   UNL     1      -5.191  -6.738  -7.276  1.00  0.00    -0.269 OA
BRANCH  22  25
ATOM     25  C   UNL     1      -5.284  -7.936  -5.269  1.00  0.00     0.039 A 
ATOM     26  C   UNL     1      -6.135  -8.990  -5.617  1.00  0.00     0.014 A 
ATOM     27  C   UNL     1      -5.019  -7.644  -3.937  1.00  0.00     0.014 A 
ATOM     28  C   UNL     1      -6.640  -9.805  -4.605  1.00  0.00     0.010 A 
ATOM     29  C   UNL     1      -5.370  -8.542  -2.966  1.00  0.00     0.010 A 
ATOM     30  C   UNL     1      -6.233  -9.587  -3.280  1.00  0.00    -0.014 A 
BRANCH  30  31
ATOM     31  C   UNL     1      -6.588 -10.512  -2.208  1.00  0.00     0.031 A 
ATOM     32  C   UNL     1      -6.157 -11.916  -2.451  1.00  0.00     0.074 A 
ATOM     33  C   UNL     1      -7.013 -10.080  -0.999  1.00  0.00     0.049 A 
ATOM     34  N   UNL     1      -6.902 -12.950  -2.661  1.00  0.00    -0.248 NA
ATOM     35  C   UNL     1      -4.719 -12.180  -2.638  1.00  0.00     0.031 C 
ATOM     36  C   UNL     1      -7.148  -8.688  -0.541  1.00  0.00     0.029 A 
ATOM     37  N   UNL     1      -7.302 -10.788   0.129  1.00  0.00    -0.354 N 
ATOM     38  C   UNL     1      -6.030 -14.035  -2.763  1.00  0.00     0.074 A 
ATOM     39  C   UNL     1      -4.724 -13.474  -2.966  1.00  0.00     0.031 C 
ATOM     40  C   UNL     1      -7.245  -8.656   0.805  1.00  0.00     0.029 A 
ATOM     41  C   UNL     1      -7.372 -10.017   1.287  1.00  0.00     0.049 A 
ATOM     42  H   UNL     1      -7.449 -11.761   0.126  1.00  0.00     0.167 HD
ATOM     43  C   UNL     1      -6.422 -15.275  -2.353  1.00  0.00     0.037 A 
ATOM     44  C   UNL     1      -7.519 -10.466   2.557  1.00  0.00     0.037 A 
ATOM     45  C   UNL     1      -7.854 -15.302  -2.164  1.00  0.00     0.049 A 
ATOM     46  C   UNL     1      -8.060 -11.838   2.470  1.00  0.00     0.074 A 
ATOM     47  C   UNL     1      -8.977 -15.218  -2.955  1.00  0.00     0.029 A 
ATOM     48  N   UNL     1      -8.247 -15.046  -0.877  1.00  0.00    -0.354 N 
ATOM     49  N   UNL     1      -9.257 -12.117   2.037  1.00  0.00    -0.248 NA
ATOM     50  C   UNL     1      -7.135 -12.960   2.518  1.00  0.00     0.031 C 
ATOM     51  C   UNL     1      -9.981 -14.618  -2.135  1.00  0.00     0.029 A 
ATOM     52  C   UNL     1      -9.453 -14.407  -0.861  1.00  0.00     0.049 A 
ATOM     53  H   UNL     1      -7.732 -15.290  -0.074  1.00  0.00     0.167 HD
ATOM     54  C   UNL     1      -9.106 -13.308   1.352  1.00  0.00     0.074 A 
ATOM     55  C   UNL     1      -7.843 -13.861   1.830  1.00  0.00     0.031 C 
ATOM     56  C   UNL     1      -9.858 -13.562   0.241  1.00  0.00     0.037 A 
BRANCH  43  57
ATOM     57  C   UNL     1      -5.539 -16.272  -1.604  1.00  0.00     0.057 A 
ATOM     58  C   UNL     1      -6.127 -17.478  -1.161  1.00  0.00     0.134 A 
ATOM     59  C   UNL     1      -4.298 -15.976  -1.008  1.00  0.00     0.134 A 
ATOM     60  F   UNL     1      -7.297 -17.901  -1.663  1.00  0.00    -0.206 F 
ATOM     61  C   UNL     1      -5.592 -18.243  -0.116  1.00  0.00     0.040 A 
ATOM     62  C   UNL     1      -3.734 -16.759   0.007  1.00  0.00     0.040 A 
ATOM     63  F   UNL     1      -3.595 -14.877  -1.295  1.00  0.00    -0.206 F 
ATOM     64  C   UNL     1      -4.400 -17.872   0.487  1.00  0.00     0.006 A 
ENDBRANCH  43  57
BRANCH  44  65
ATOM     65  C   UNL     1      -7.026  -9.900   3.831  1.00  0.00     0.057 A 
ATOM     66  C   UNL     1      -7.569 -10.300   5.061  1.00  0.00     0.134 A 
ATOM     67  C   UNL     1      -5.816  -9.189   3.892  1.00  0.00     0.134 A 
ATOM     68  F   UNL     1      -8.707 -11.009   5.104  1.00  0.00    -0.206 F 
ATOM     69  C   UNL     1      -6.923 -10.049   6.279  1.00  0.00     0.040 A 
ATOM     70  C   UNL     1      -5.162  -8.928   5.102  1.00  0.00     0.040 A 
ATOM     71  F   UNL     1      -5.183  -8.809   2.772  1.00  0.00    -0.206 F 
ATOM     72  C   UNL     1      -5.706  -9.376   6.300  1.00  0.00     0.006 A 
ENDBRANCH  44  65
BRANCH  56  73
ATOM     73  C   UNL     1     -11.116 -12.763   0.066  1.00  0.00     0.057 A 
ATOM     74  C   UNL     1     -11.161 -11.386  -0.189  1.00  0.00     0.134 A 
ATOM     75  C   UNL     1     -12.334 -13.450   0.059  1.00  0.00     0.134 A 
ATOM     76  F   UNL     1     -10.041 -10.659  -0.281  1.00  0.00    -0.206 F 
ATOM     77  C   UNL     1     -12.370 -10.717  -0.402  1.00  0.00     0.040 A 
ATOM     78  C   UNL     1     -13.544 -12.801  -0.186  1.00  0.00     0.040 A 
ATOM     79  F   UNL     1     -12.361 -14.778   0.252  1.00  0.00    -0.206 F 
ATOM     80  C   UNL     1     -13.566 -11.427  -0.407  1.00  0.00     0.006 A 
ENDBRANCH  56  73
ENDBRANCH  30  31
ENDBRANCH  22  25
ENDBRANCH  20  21
ENDBRANCH  19  20
ENDBRANCH   1  19
TORSDOF 13
