REMARK SMILES O=C(NCCCCNC(=O)c1ccc(-c2c3nc(c(-c4c(F)cccc4F)c4ccc([nH]4)c(-c4c(F)cccc4F)c4nc(c(-c5c(F)cccc5F)c5ccc2[nH]5)C=C4)C=C3)cc1)C1=Cc2cc(Cl)cc(-c3ccc(Cl)cc3)c2O[C@@H]1C(F)(F)F
REMARK SMILES IDX 6 1 5 2 4 3 3 4 1 5 2 6 65 8 66 9 82 10 67 11 81 12 68 13
REMARK SMILES IDX 80 14 69 15 72 16 70 17 71 18 83 19 84 20 85 21 86 22 73 23
REMARK SMILES IDX 74 24 79 25 75 26 78 27 76 28 77 29 7 30 8 31 9 32 10 34
REMARK SMILES IDX 11 35 12 36 64 37 13 38 63 39 14 40 15 41 16 42 57 43 17 44
REMARK SMILES IDX 62 45 56 46 58 47 18 48 61 49 55 50 54 51 19 53 45 54 28 55
REMARK SMILES IDX 44 56 29 57 32 58 43 59 59 60 30 61 31 62 42 64 60 65 33 66
REMARK SMILES IDX 20 67 21 68 26 69 22 70 23 71 25 72 27 73 24 74 46 75 47 76
REMARK SMILES IDX 52 77 48 78 49 79 51 80 53 81 50 82 34 83 35 84 40 85 36 86
REMARK SMILES IDX 37 87 39 88 41 89 38 90
REMARK H PARENT 3 7 8 33 58 52 32 63
REMARK Flexibility Score: inf
ROOT
ATOM      1  C   UNL     1       4.015   3.933   2.276  1.00  0.00     0.023 C 
ENDROOT
BRANCH   1   2
ATOM      2  C   UNL     1       4.267   3.215   0.954  1.00  0.00     0.023 C 
BRANCH   2   3
ATOM      3  C   UNL     1       3.816   1.759   0.900  1.00  0.00     0.116 C 
BRANCH   3   4
ATOM      4  N   UNL     1       2.596   1.533   0.141  1.00  0.00    -0.352 N 
ATOM      5  O   UNL     1       1.054   0.398  -1.028  1.00  0.00    -0.270 OA
ATOM      6  C   UNL     1       2.227   0.493  -0.669  1.00  0.00     0.251 C 
ATOM      7  H   UNL     1       1.924   2.247   0.223  1.00  0.00     0.163 HD
BRANCH   6   8
ATOM      8  C   UNL     1       3.171  -0.596  -1.054  1.00  0.00     0.067 C 
ATOM      9  C   UNL     1       4.424  -0.325  -1.453  1.00  0.00     0.025 C 
ATOM     10  C   UNL     1       2.918  -1.880  -0.309  1.00  0.00     0.314 C 
ATOM     11  C   UNL     1       5.457  -0.777  -0.492  1.00  0.00     0.019 A 
ATOM     12  O   UNL     1       3.811  -2.002   0.826  1.00  0.00    -0.475 OA
ATOM     13  C   UNL     1       6.719  -0.185  -0.597  1.00  0.00     0.032 A 
ATOM     14  C   UNL     1       5.063  -1.435   0.698  1.00  0.00     0.135 A 
ATOM     15  C   UNL     1       7.553  -0.174   0.512  1.00  0.00     0.042 A 
ATOM     16  C   UNL     1       5.880  -1.371   1.847  1.00  0.00     0.026 A 
ATOM     17  Cl  UNL     1       9.037   0.693   0.447  1.00  0.00    -0.084 Cl
ATOM     18  C   UNL     1       7.140  -0.745   1.717  1.00  0.00     0.033 A 
BRANCH  10  19
ATOM     19  C   UNL     1       2.981  -3.095  -1.257  1.00  0.00     0.429 C 
ATOM     20  F   UNL     1       2.621  -4.237  -0.626  1.00  0.00    -0.167 F 
ATOM     21  F   UNL     1       2.139  -2.945  -2.310  1.00  0.00    -0.167 F 
ATOM     22  F   UNL     1       4.219  -3.294  -1.770  1.00  0.00    -0.167 F 
ENDBRANCH  10  19
BRANCH  16  23
ATOM     23  C   UNL     1       5.408  -1.759   3.199  1.00  0.00    -0.015 A 
ATOM     24  C   UNL     1       5.535  -0.854   4.273  1.00  0.00     0.010 A 
ATOM     25  C   UNL     1       4.819  -3.004   3.469  1.00  0.00     0.010 A 
ATOM     26  C   UNL     1       5.115  -1.182   5.565  1.00  0.00     0.021 A 
ATOM     27  C   UNL     1       4.386  -3.333   4.761  1.00  0.00     0.021 A 
ATOM     28  C   UNL     1       4.541  -2.423   5.804  1.00  0.00     0.041 A 
ATOM     29  Cl  UNL     1       4.027  -2.830   7.394  1.00  0.00    -0.084 Cl
ENDBRANCH  16  23
ENDBRANCH   6   8
ENDBRANCH   3   4
ENDBRANCH   2   3
ENDBRANCH   1   2
BRANCH   1  30
ATOM     30  C   UNL     1       4.564   3.264   3.535  1.00  0.00     0.116 C 
BRANCH  30  31
ATOM     31  N   UNL     1       5.983   2.949   3.503  1.00  0.00    -0.352 N 
ATOM     32  C   UNL     1       6.874   2.877   4.556  1.00  0.00     0.251 C 
ATOM     33  H   UNL     1       6.359   2.761   2.612  1.00  0.00     0.163 HD
ATOM     34  O   UNL     1       8.044   2.592   4.353  1.00  0.00    -0.269 OA
BRANCH  32  35
ATOM     35  C   UNL     1       6.416   3.182   5.933  1.00  0.00     0.039 A 
ATOM     36  C   UNL     1       7.173   4.067   6.707  1.00  0.00     0.014 A 
ATOM     37  C   UNL     1       5.232   2.644   6.443  1.00  0.00     0.014 A 
ATOM     38  C   UNL     1       6.685   4.494   7.944  1.00  0.00     0.010 A 
ATOM     39  C   UNL     1       4.719   3.109   7.650  1.00  0.00     0.010 A 
ATOM     40  C   UNL     1       5.429   4.059   8.396  1.00  0.00    -0.014 A 
BRANCH  40  41
ATOM     41  C   UNL     1       4.796   4.669   9.589  1.00  0.00     0.031 A 
ATOM     42  C   UNL     1       4.584   3.877  10.844  1.00  0.00     0.074 A 
ATOM     43  C   UNL     1       4.332   5.929   9.494  1.00  0.00     0.049 A 
ATOM     44  N   UNL     1       4.077   4.265  11.986  1.00  0.00    -0.248 NA
ATOM     45  C   UNL     1       4.965   2.458  10.803  1.00  0.00     0.031 C 
ATOM     46  C   UNL     1       4.404   6.766   8.293  1.00  0.00     0.029 A 
ATOM     47  N   UNL     1       3.702   6.726  10.415  1.00  0.00    -0.354 N 
ATOM     48  C   UNL     1       4.080   3.142  12.802  1.00  0.00     0.074 A 
ATOM     49  C   UNL     1       4.588   2.045  12.005  1.00  0.00     0.031 C 
ATOM     50  C   UNL     1       3.872   7.968   8.562  1.00  0.00     0.029 A 
ATOM     51  C   UNL     1       3.404   7.981   9.944  1.00  0.00     0.049 A 
ATOM     52  H   UNL     1       3.484   6.426  11.327  1.00  0.00     0.167 HD
ATOM     53  C   UNL     1       3.712   3.043  14.102  1.00  0.00     0.037 A 
ATOM     54  C   UNL     1       2.834   9.030  10.563  1.00  0.00     0.037 A 
ATOM     55  C   UNL     1       3.201   4.143  14.882  1.00  0.00     0.049 A 
ATOM     56  C   UNL     1       2.446   8.899  12.008  1.00  0.00     0.074 A 
ATOM     57  C   UNL     1       2.873   4.171  16.226  1.00  0.00     0.029 A 
ATOM     58  N   UNL     1       2.925   5.406  14.378  1.00  0.00    -0.354 N 
ATOM     59  N   UNL     1       2.568   7.866  12.807  1.00  0.00    -0.248 NA
ATOM     60  C   UNL     1       1.856  10.085  12.641  1.00  0.00     0.031 C 
ATOM     61  C   UNL     1       2.350   5.436  16.523  1.00  0.00     0.029 A 
ATOM     62  C   UNL     1       2.402   6.213  15.377  1.00  0.00     0.049 A 
ATOM     63  H   UNL     1       3.079   5.688  13.447  1.00  0.00     0.167 HD
ATOM     64  C   UNL     1       2.100   8.286  14.045  1.00  0.00     0.074 A 
ATOM     65  C   UNL     1       1.708   9.673  13.891  1.00  0.00     0.031 C 
ATOM     66  C   UNL     1       2.007   7.589  15.204  1.00  0.00     0.037 A 
BRANCH  53  67
ATOM     67  C   UNL     1       3.846   1.697  14.757  1.00  0.00     0.057 A 
ATOM     68  C   UNL     1       5.098   1.124  15.020  1.00  0.00     0.134 A 
ATOM     69  C   UNL     1       2.713   0.972  15.147  1.00  0.00     0.134 A 
ATOM     70  F   UNL     1       6.225   1.760  14.665  1.00  0.00    -0.206 F 
ATOM     71  C   UNL     1       5.218  -0.134  15.614  1.00  0.00     0.040 A 
ATOM     72  C   UNL     1       2.820  -0.274  15.768  1.00  0.00     0.040 A 
ATOM     73  F   UNL     1       1.483   1.463  14.933  1.00  0.00    -0.206 F 
ATOM     74  C   UNL     1       4.075  -0.834  15.995  1.00  0.00     0.006 A 
ENDBRANCH  53  67
BRANCH  54  75
ATOM     75  C   UNL     1       2.666  10.315   9.841  1.00  0.00     0.057 A 
ATOM     76  C   UNL     1       3.459  11.424  10.160  1.00  0.00     0.134 A 
ATOM     77  C   UNL     1       1.726  10.467   8.815  1.00  0.00     0.134 A 
ATOM     78  F   UNL     1       4.368  11.342  11.143  1.00  0.00    -0.206 F 
ATOM     79  C   UNL     1       3.313  12.643   9.497  1.00  0.00     0.040 A 
ATOM     80  C   UNL     1       1.585  11.674   8.128  1.00  0.00     0.040 A 
ATOM     81  F   UNL     1       0.944   9.439   8.454  1.00  0.00    -0.206 F 
ATOM     82  C   UNL     1       2.377  12.768   8.473  1.00  0.00     0.006 A 
ENDBRANCH  54  75
BRANCH  66  83
ATOM     83  C   UNL     1       1.483   8.333  16.399  1.00  0.00     0.057 A 
ATOM     84  C   UNL     1       0.141   8.722  16.501  1.00  0.00     0.134 A 
ATOM     85  C   UNL     1       2.335   8.668  17.459  1.00  0.00     0.134 A 
ATOM     86  F   UNL     1      -0.724   8.446  15.512  1.00  0.00    -0.206 F 
ATOM     87  C   UNL     1      -0.327   9.449  17.596  1.00  0.00     0.040 A 
ATOM     88  C   UNL     1       1.872   9.368  18.574  1.00  0.00     0.040 A 
ATOM     89  F   UNL     1       3.630   8.319  17.430  1.00  0.00    -0.206 F 
ATOM     90  C   UNL     1       0.540   9.771  18.639  1.00  0.00     0.006 A 
ENDBRANCH  66  83
ENDBRANCH  40  41
ENDBRANCH  32  35
ENDBRANCH  30  31
ENDBRANCH   1  30
TORSDOF 13
