REMARK SMILES O=C(NCCCCNC(=O)c1cc(Cl)cc(S(=O)(=O)N[C@@H]2CONC2=O)c1F)c1ccc(-c2c3nc(c(-c4c(F)cccc4F)c4ccc([nH]4)c(-c4c(F)cccc4F)c4nc(c(-c5c(F)cccc5F)c5ccc2[nH]5)C=C4)C=C3)cc1
REMARK SMILES IDX 6 1 5 2 4 3 3 4 1 5 2 6 29 8 30 9 82 10 31 11 81 12 32 13
REMARK SMILES IDX 33 14 34 15 75 16 35 17 80 18 74 19 76 20 36 21 79 22 73 23
REMARK SMILES IDX 72 24 37 26 63 27 46 28 62 29 47 30 50 31 61 32 77 33 48 34
REMARK SMILES IDX 49 35 60 37 78 38 51 39 38 40 39 41 44 42 40 43 41 44 43 45
REMARK SMILES IDX 45 46 42 47 64 48 65 49 70 50 66 51 67 52 69 53 71 54 68 55
REMARK SMILES IDX 52 56 53 57 58 58 54 59 55 60 57 61 59 62 56 63 7 64 8 65
REMARK SMILES IDX 9 66 10 68 11 69 12 70 27 71 13 72 16 73 28 74 14 75 15 76
REMARK SMILES IDX 17 77 18 78 19 79 20 80 21 82 22 83 25 84 23 85 24 86 26 87
REMARK H PARENT 3 7 76 25 50 36 8 67 20 81 24 88
REMARK Flexibility Score: inf
ROOT
ATOM      1  C   UNL     1       4.444  -0.446  -3.869  1.00  0.00     0.023 C 
ENDROOT
BRANCH   1   2
ATOM      2  C   UNL     1       4.920  -0.888  -2.490  1.00  0.00     0.023 C 
BRANCH   2   3
ATOM      3  C   UNL     1       4.592   0.073  -1.356  1.00  0.00     0.116 C 
BRANCH   3   4
ATOM      4  N   UNL     1       3.161   0.218  -1.122  1.00  0.00    -0.352 N 
ATOM      5  O   UNL     1       1.193  -0.049  -0.045  1.00  0.00    -0.269 OA
ATOM      6  C   UNL     1       2.417  -0.115  -0.012  1.00  0.00     0.251 C 
ATOM      7  H   UNL     1       2.651   0.611  -1.867  1.00  0.00     0.163 HD
BRANCH   6   8
ATOM      8  C   UNL     1       3.102  -0.581   1.212  1.00  0.00     0.039 A 
ATOM      9  C   UNL     1       4.234   0.086   1.678  1.00  0.00     0.014 A 
ATOM     10  C   UNL     1       2.629  -1.713   1.882  1.00  0.00     0.014 A 
ATOM     11  C   UNL     1       5.002  -0.487   2.682  1.00  0.00     0.010 A 
ATOM     12  C   UNL     1       3.342  -2.223   2.973  1.00  0.00     0.010 A 
ATOM     13  C   UNL     1       4.558  -1.638   3.356  1.00  0.00    -0.014 A 
BRANCH  13  14
ATOM     14  C   UNL     1       5.368  -2.152   4.490  1.00  0.00     0.031 A 
ATOM     15  C   UNL     1       6.003  -3.515   4.455  1.00  0.00     0.074 A 
ATOM     16  C   UNL     1       5.583  -1.333   5.540  1.00  0.00     0.049 A 
ATOM     17  N   UNL     1       6.789  -4.077   5.340  1.00  0.00    -0.248 NA
ATOM     18  C   UNL     1       5.721  -4.360   3.285  1.00  0.00     0.031 C 
ATOM     19  C   UNL     1       5.004   0.005   5.694  1.00  0.00     0.029 A 
ATOM     20  N   UNL     1       6.365  -1.485   6.655  1.00  0.00    -0.354 N 
ATOM     21  C   UNL     1       7.088  -5.339   4.841  1.00  0.00     0.074 A 
ATOM     22  C   UNL     1       6.371  -5.476   3.591  1.00  0.00     0.031 C 
ATOM     23  C   UNL     1       5.497   0.574   6.802  1.00  0.00     0.029 A 
ATOM     24  C   UNL     1       6.368  -0.382   7.474  1.00  0.00     0.049 A 
ATOM     25  H   UNL     1       6.876  -2.304   6.849  1.00  0.00     0.167 HD
ATOM     26  C   UNL     1       7.896  -6.290   5.372  1.00  0.00     0.037 A 
ATOM     27  C   UNL     1       6.987  -0.165   8.648  1.00  0.00     0.037 A 
ATOM     28  C   UNL     1       8.610  -6.147   6.617  1.00  0.00     0.049 A 
ATOM     29  C   UNL     1       7.858  -1.244   9.219  1.00  0.00     0.074 A 
ATOM     30  C   UNL     1       9.455  -7.053   7.236  1.00  0.00     0.029 A 
ATOM     31  N   UNL     1       8.564  -5.026   7.433  1.00  0.00    -0.354 N 
ATOM     32  N   UNL     1       8.143  -2.423   8.723  1.00  0.00    -0.248 NA
ATOM     33  C   UNL     1       8.491  -0.963  10.514  1.00  0.00     0.031 C 
ATOM     34  C   UNL     1       9.889  -6.496   8.444  1.00  0.00     0.029 A 
ATOM     35  C   UNL     1       9.354  -5.223   8.555  1.00  0.00     0.049 A 
ATOM     36  H   UNL     1       8.046  -4.211   7.243  1.00  0.00     0.167 HD
ATOM     37  C   UNL     1       8.998  -3.021   9.638  1.00  0.00     0.074 A 
ATOM     38  C   UNL     1       9.209  -2.061  10.702  1.00  0.00     0.031 C 
ATOM     39  C   UNL     1       9.551  -4.258   9.606  1.00  0.00     0.037 A 
BRANCH  26  40
ATOM     40  C   UNL     1       8.052  -7.577   4.613  1.00  0.00     0.057 A 
ATOM     41  C   UNL     1       8.788  -7.646   3.422  1.00  0.00     0.134 A 
ATOM     42  C   UNL     1       7.515  -8.773   5.107  1.00  0.00     0.134 A 
ATOM     43  F   UNL     1       9.321  -6.537   2.887  1.00  0.00    -0.206 F 
ATOM     44  C   UNL     1       8.970  -8.853   2.744  1.00  0.00     0.040 A 
ATOM     45  C   UNL     1       7.710  -9.990   4.451  1.00  0.00     0.040 A 
ATOM     46  F   UNL     1       6.806  -8.781   6.247  1.00  0.00    -0.206 F 
ATOM     47  C   UNL     1       8.437 -10.031   3.263  1.00  0.00     0.006 A 
ENDBRANCH  26  40
BRANCH  27  48
ATOM     48  C   UNL     1       6.784   1.118   9.365  1.00  0.00     0.057 A 
ATOM     49  C   UNL     1       7.826   2.037   9.527  1.00  0.00     0.134 A 
ATOM     50  C   UNL     1       5.537   1.454   9.907  1.00  0.00     0.134 A 
ATOM     51  F   UNL     1       9.047   1.767   9.042  1.00  0.00    -0.206 F 
ATOM     52  C   UNL     1       7.642   3.234  10.221  1.00  0.00     0.040 A 
ATOM     53  C   UNL     1       5.330   2.661  10.575  1.00  0.00     0.040 A 
ATOM     54  F   UNL     1       4.494   0.621   9.775  1.00  0.00    -0.206 F 
ATOM     55  C   UNL     1       6.388   3.551  10.742  1.00  0.00     0.006 A 
ENDBRANCH  27  48
BRANCH  39  56
ATOM     56  C   UNL     1      10.454  -4.623  10.747  1.00  0.00     0.057 A 
ATOM     57  C   UNL     1       9.956  -4.872  12.032  1.00  0.00     0.134 A 
ATOM     58  C   UNL     1      11.837  -4.727  10.556  1.00  0.00     0.134 A 
ATOM     59  F   UNL     1       8.642  -4.772  12.283  1.00  0.00    -0.206 F 
ATOM     60  C   UNL     1      10.805  -5.179  13.096  1.00  0.00     0.040 A 
ATOM     61  C   UNL     1      12.694  -5.061  11.606  1.00  0.00     0.040 A 
ATOM     62  F   UNL     1      12.378  -4.507   9.348  1.00  0.00    -0.206 F 
ATOM     63  C   UNL     1      12.179  -5.279  12.882  1.00  0.00     0.006 A 
ENDBRANCH  39  56
ENDBRANCH  13  14
ENDBRANCH   6   8
ENDBRANCH   3   4
ENDBRANCH   2   3
ENDBRANCH   1   2
BRANCH   1  64
ATOM     64  C   UNL     1       4.914   0.939  -4.295  1.00  0.00     0.116 C 
BRANCH  64  65
ATOM     65  N   UNL     1       6.362   1.040  -4.406  1.00  0.00    -0.352 N 
ATOM     66  C   UNL     1       7.109   1.638  -5.392  1.00  0.00     0.254 C 
ATOM     67  H   UNL     1       6.876   0.625  -3.676  1.00  0.00     0.163 HD
ATOM     68  O   UNL     1       8.333   1.565  -5.383  1.00  0.00    -0.269 OA
BRANCH  66  69
ATOM     69  C   UNL     1       6.441   2.366  -6.484  1.00  0.00     0.078 A 
ATOM     70  C   UNL     1       6.786   2.099  -7.809  1.00  0.00     0.037 A 
ATOM     71  C   UNL     1       5.494   3.342  -6.184  1.00  0.00     0.156 A 
ATOM     72  C   UNL     1       6.115   2.771  -8.829  1.00  0.00     0.043 A 
ATOM     73  C   UNL     1       4.819   4.000  -7.197  1.00  0.00     0.120 A 
ATOM     74  F   UNL     1       5.253   3.609  -4.900  1.00  0.00    -0.205 F 
ATOM     75  Cl  UNL     1       6.509   2.435 -10.467  1.00  0.00    -0.084 Cl
ATOM     76  C   UNL     1       5.121   3.709  -8.534  1.00  0.00     0.045 A 
BRANCH  73  77
ATOM     77  S   UNL     1       3.586   5.216  -6.864  1.00  0.00     0.244 S 
ATOM     78  O   UNL     1       4.129   6.481  -7.293  1.00  0.00    -0.207 OA
ATOM     79  O   UNL     1       2.354   4.678  -7.401  1.00  0.00    -0.207 OA
BRANCH  77  80
ATOM     80  N   UNL     1       3.355   5.266  -5.200  1.00  0.00    -0.196 NA
ATOM     81  H   UNL     1       3.392   4.306  -4.858  1.00  0.00     0.142 HD
BRANCH  80  82
ATOM     82  C   UNL     1       4.310   6.057  -4.402  1.00  0.00     0.189 C 
ATOM     83  C   UNL     1       4.466   5.503  -2.987  1.00  0.00     0.224 C 
ATOM     84  C   UNL     1       3.883   7.449  -4.052  1.00  0.00     0.264 C 
ATOM     85  O   UNL     1       4.968   6.594  -2.203  1.00  0.00    -0.271 OA
ATOM     86  N   UNL     1       4.428   7.743  -2.823  1.00  0.00    -0.233 N 
ATOM     87  O   UNL     1       3.183   8.196  -4.714  1.00  0.00    -0.271 OA
ATOM     88  H   UNL     1       4.439   8.644  -2.424  1.00  0.00     0.199 HD
ENDBRANCH  80  82
ENDBRANCH  77  80
ENDBRANCH  73  77
ENDBRANCH  66  69
ENDBRANCH  64  65
ENDBRANCH   1  64
TORSDOF 14
