REMARK SMILES CC(C)(C)N(CC(=O)NCCCCNC(=O)c1ccc(-c2c3nc(c(-c4c(F)cccc4F)c4ccc([nH]4)c(-c4c(F)cccc4F)c4nc(c(-c5c(F)cccc5F)c5ccc2[nH]5)C=C4)C=C3)cc1)C(=O)C1(c2ccccc2)CCC1
REMARK SMILES IDX 10 1 9 2 7 3 8 4 6 6 5 7 2 8 1 9 3 10 4 11 71 12 72 13 73 14
REMARK SMILES IDX 80 15 82 16 81 17 74 18 75 19 79 20 76 21 78 22 77 23 11 24
REMARK SMILES IDX 12 25 13 26 14 27 15 28 16 30 17 31 18 32 70 33 19 34 69 35
REMARK SMILES IDX 20 36 21 37 22 38 63 39 23 40 68 41 62 42 64 43 24 44 67 45
REMARK SMILES IDX 61 46 60 47 25 49 51 50 34 51 50 52 35 53 38 54 49 55 65 56
REMARK SMILES IDX 36 57 37 58 48 60 66 61 39 62 26 63 27 64 32 65 28 66 29 67
REMARK SMILES IDX 31 68 33 69 30 70 52 71 53 72 58 73 54 74 55 75 57 76 59 77
REMARK SMILES IDX 56 78 40 79 41 80 46 81 42 82 43 83 45 84 47 85 44 86
REMARK H PARENT 9 5 14 29 64 48 38 59
REMARK Flexibility Score: inf
ROOT
ATOM      1  C   UNL     1       3.838   1.015  -1.135  1.00  0.00     0.116 C 
ENDROOT
BRANCH   1   2
ATOM      2  N   UNL     1       4.100   1.441   0.222  1.00  0.00    -0.355 N 
ATOM      3  C   UNL     1       3.145   2.247   0.790  1.00  0.00     0.239 C 
ATOM      4  O   UNL     1       3.244   3.462   0.636  1.00  0.00    -0.273 OA
ATOM      5  H   UNL     1       4.912   1.171   0.708  1.00  0.00     0.163 HD
BRANCH   3   6
ATOM      6  C   UNL     1       1.981   1.546   1.488  1.00  0.00     0.220 C 
BRANCH   6   7
ATOM      7  N   UNL     1       0.704   2.149   1.120  1.00  0.00    -0.328 N 
BRANCH   7   8
ATOM      8  C   UNL     1      -0.175   1.441   0.093  1.00  0.00     0.035 C 
ATOM      9  C   UNL     1       0.074  -0.092   0.016  1.00  0.00     0.034 C 
ATOM     10  C   UNL     1       0.046   1.999  -1.326  1.00  0.00     0.034 C 
ATOM     11  C   UNL     1      -1.679   1.560   0.451  1.00  0.00     0.034 C 
ENDBRANCH   7   8
BRANCH   7  12
ATOM     12  C   UNL     1       0.401   3.496   1.503  1.00  0.00     0.234 C 
ATOM     13  O   UNL     1      -0.477   4.071   0.823  1.00  0.00    -0.274 OA
BRANCH  12  14
ATOM     14  C   UNL     1       0.999   4.326   2.784  1.00  0.00     0.074 C 
ATOM     15  C   UNL     1       0.864   5.915   2.536  1.00  0.00     0.022 C 
ATOM     16  C   UNL     1      -0.135   4.583   3.876  1.00  0.00     0.022 C 
ATOM     17  C   UNL     1       0.331   6.046   3.968  1.00  0.00     0.003 C 
BRANCH  14  18
ATOM     18  C   UNL     1       2.450   3.902   3.439  1.00  0.00    -0.032 A 
ATOM     19  C   UNL     1       3.656   4.554   3.083  1.00  0.00     0.005 A 
ATOM     20  C   UNL     1       2.585   2.918   4.443  1.00  0.00     0.005 A 
ATOM     21  C   UNL     1       4.908   4.169   3.577  1.00  0.00     0.000 A 
ATOM     22  C   UNL     1       3.834   2.515   4.937  1.00  0.00     0.000 A 
ATOM     23  C   UNL     1       4.998   3.129   4.489  1.00  0.00     0.000 A 
ENDBRANCH  14  18
ENDBRANCH  12  14
ENDBRANCH   7  12
ENDBRANCH   6   7
ENDBRANCH   3   6
ENDBRANCH   1   2
BRANCH   1  24
ATOM     24  C   UNL     1       3.613   2.208  -2.081  1.00  0.00     0.023 C 
BRANCH  24  25
ATOM     25  C   UNL     1       4.805   3.155  -2.210  1.00  0.00     0.023 C 
BRANCH  25  26
ATOM     26  C   UNL     1       6.098   2.458  -2.580  1.00  0.00     0.116 C 
BRANCH  26  27
ATOM     27  N   UNL     1       5.933   1.543  -3.701  1.00  0.00    -0.352 N 
ATOM     28  C   UNL     1       6.787   1.305  -4.740  1.00  0.00     0.251 C 
ATOM     29  H   UNL     1       5.094   1.028  -3.711  1.00  0.00     0.163 HD
ATOM     30  O   UNL     1       6.457   0.588  -5.678  1.00  0.00    -0.269 OA
BRANCH  28  31
ATOM     31  C   UNL     1       8.100   1.961  -4.718  1.00  0.00     0.039 A 
ATOM     32  C   UNL     1       8.491   2.710  -5.827  1.00  0.00     0.014 A 
ATOM     33  C   UNL     1       8.895   1.890  -3.570  1.00  0.00     0.014 A 
ATOM     34  C   UNL     1       9.677   3.432  -5.769  1.00  0.00     0.010 A 
ATOM     35  C   UNL     1      10.033   2.673  -3.485  1.00  0.00     0.010 A 
ATOM     36  C   UNL     1      10.440   3.434  -4.590  1.00  0.00    -0.014 A 
BRANCH  36  37
ATOM     37  C   UNL     1      11.701   4.196  -4.505  1.00  0.00     0.031 A 
ATOM     38  C   UNL     1      12.995   3.451  -4.359  1.00  0.00     0.074 A 
ATOM     39  C   UNL     1      11.666   5.540  -4.497  1.00  0.00     0.049 A 
ATOM     40  N   UNL     1      14.203   3.921  -4.193  1.00  0.00    -0.248 NA
ATOM     41  C   UNL     1      12.916   1.980  -4.360  1.00  0.00     0.031 C 
ATOM     42  C   UNL     1      10.453   6.358  -4.574  1.00  0.00     0.029 A 
ATOM     43  N   UNL     1      12.681   6.455  -4.411  1.00  0.00    -0.354 N 
ATOM     44  C   UNL     1      15.019   2.808  -4.045  1.00  0.00     0.074 A 
ATOM     45  C   UNL     1      14.166   1.642  -4.087  1.00  0.00     0.031 C 
ATOM     46  C   UNL     1      10.799   7.656  -4.558  1.00  0.00     0.029 A 
ATOM     47  C   UNL     1      12.250   7.758  -4.443  1.00  0.00     0.049 A 
ATOM     48  H   UNL     1      13.630   6.202  -4.334  1.00  0.00     0.167 HD
ATOM     49  C   UNL     1      16.364   2.764  -3.914  1.00  0.00     0.037 A 
ATOM     50  C   UNL     1      12.955   8.902  -4.388  1.00  0.00     0.037 A 
ATOM     51  C   UNL     1      17.205   3.928  -3.925  1.00  0.00     0.049 A 
ATOM     52  C   UNL     1      14.452   8.825  -4.289  1.00  0.00     0.074 A 
ATOM     53  C   UNL     1      18.585   3.998  -3.871  1.00  0.00     0.029 A 
ATOM     54  N   UNL     1      16.737   5.232  -4.005  1.00  0.00    -0.354 N 
ATOM     55  N   UNL     1      15.221   7.764  -4.213  1.00  0.00    -0.248 NA
ATOM     56  C   UNL     1      15.181  10.100  -4.277  1.00  0.00     0.031 C 
ATOM     57  C   UNL     1      18.951   5.349  -3.894  1.00  0.00     0.029 A 
ATOM     58  C   UNL     1      17.801   6.116  -3.993  1.00  0.00     0.049 A 
ATOM     59  H   UNL     1      15.789   5.489  -4.061  1.00  0.00     0.167 HD
ATOM     60  C   UNL     1      16.523   8.242  -4.167  1.00  0.00     0.074 A 
ATOM     61  C   UNL     1      16.440   9.687  -4.237  1.00  0.00     0.031 C 
ATOM     62  C   UNL     1      17.684   7.549  -4.073  1.00  0.00     0.037 A 
BRANCH  49  63
ATOM     63  C   UNL     1      16.995   1.413  -3.762  1.00  0.00     0.057 A 
ATOM     64  C   UNL     1      17.063   0.506  -4.828  1.00  0.00     0.134 A 
ATOM     65  C   UNL     1      17.544   1.013  -2.538  1.00  0.00     0.134 A 
ATOM     66  F   UNL     1      16.537   0.820  -6.022  1.00  0.00    -0.206 F 
ATOM     67  C   UNL     1      17.630  -0.760  -4.675  1.00  0.00     0.040 A 
ATOM     68  C   UNL     1      18.136  -0.241  -2.379  1.00  0.00     0.040 A 
ATOM     69  F   UNL     1      17.510   1.832  -1.476  1.00  0.00    -0.206 F 
ATOM     70  C   UNL     1      18.174  -1.134  -3.448  1.00  0.00     0.006 A 
ENDBRANCH  49  63
BRANCH  50  71
ATOM     71  C   UNL     1      12.258  10.207  -4.468  1.00  0.00     0.057 A 
ATOM     72  C   UNL     1      12.332  10.991  -5.625  1.00  0.00     0.134 A 
ATOM     73  C   UNL     1      11.495  10.697  -3.403  1.00  0.00     0.134 A 
ATOM     74  F   UNL     1      13.060  10.579  -6.673  1.00  0.00    -0.206 F 
ATOM     75  C   UNL     1      11.687  12.226  -5.714  1.00  0.00     0.040 A 
ATOM     76  C   UNL     1      10.828  11.921  -3.485  1.00  0.00     0.040 A 
ATOM     77  F   UNL     1      11.376   9.986  -2.272  1.00  0.00    -0.206 F 
ATOM     78  C   UNL     1      10.928  12.691  -4.642  1.00  0.00     0.006 A 
ENDBRANCH  50  71
BRANCH  62  79
ATOM     79  C   UNL     1      18.951   8.347  -4.066  1.00  0.00     0.057 A 
ATOM     80  C   UNL     1      19.363   9.060  -2.934  1.00  0.00     0.134 A 
ATOM     81  C   UNL     1      19.786   8.365  -5.190  1.00  0.00     0.134 A 
ATOM     82  F   UNL     1      18.598   9.089  -1.833  1.00  0.00    -0.206 F 
ATOM     83  C   UNL     1      20.559   9.779  -2.926  1.00  0.00     0.040 A 
ATOM     84  C   UNL     1      20.994   9.063  -5.186  1.00  0.00     0.040 A 
ATOM     85  F   UNL     1      19.448   7.695  -6.301  1.00  0.00    -0.206 F 
ATOM     86  C   UNL     1      21.380   9.775  -4.052  1.00  0.00     0.006 A 
ENDBRANCH  62  79
ENDBRANCH  36  37
ENDBRANCH  28  31
ENDBRANCH  26  27
ENDBRANCH  25  26
ENDBRANCH  24  25
ENDBRANCH   1  24
TORSDOF 16
