REMARK SMILES Cc1c(NC(=O)c2cccc(-c3cc4ccccc4oc3=O)c2)cccc1C(=O)NCCCCNC(=O)c1ccc(-c2c3nc(c(-c4c(F)cccc4F)c4ccc([nH]4)c(-c4c(F)cccc4F)c4nc(c(-c5c(F)cccc5F)c5ccc2[nH]5)C=C4)C=C3)cc1
REMARK SMILES IDX 32 1 31 2 30 3 28 4 29 5 27 7 1 8 2 9 3 10 24 11 26 12 25 13
REMARK SMILES IDX 4 14 5 15 6 17 7 18 8 19 23 20 9 21 11 22 10 23 12 24 13 25
REMARK SMILES IDX 21 26 14 27 20 28 22 29 15 30 19 31 16 32 18 33 17 34 33 35
REMARK SMILES IDX 34 36 35 37 36 38 37 40 38 41 39 42 91 43 40 44 90 45 41 46
REMARK SMILES IDX 42 47 43 48 84 49 44 50 89 51 83 52 85 53 45 54 88 55 82 56
REMARK SMILES IDX 81 57 46 59 72 60 55 61 71 62 56 63 59 64 70 65 86 66 57 67
REMARK SMILES IDX 58 68 69 70 87 71 60 72 47 73 48 74 53 75 49 76 50 77 52 78
REMARK SMILES IDX 54 79 51 80 73 81 74 82 79 83 75 84 76 85 78 86 80 87 77 88
REMARK SMILES IDX 61 89 62 90 67 91 63 92 64 93 66 94 68 95 65 96
REMARK H PARENT 30 6 4 16 35 39 85 58 59 69
REMARK Flexibility Score: inf
ROOT
ATOM      1  C   UNL     1       4.143   1.374  -0.954  1.00  0.00     0.023 C 
ENDROOT
BRANCH   1   2
ATOM      2  C   UNL     1       3.624   1.861   0.412  1.00  0.00     0.116 C 
BRANCH   2   3
ATOM      3  N   UNL     1       2.329   2.503   0.299  1.00  0.00    -0.352 N 
ATOM      4  C   UNL     1       1.002   2.189   0.399  1.00  0.00     0.251 C 
ATOM      5  O   UNL     1       0.287   3.183   0.191  1.00  0.00    -0.269 OA
ATOM      6  H   UNL     1       2.438   3.458   0.084  1.00  0.00     0.163 HD
BRANCH   4   7
ATOM      7  C   UNL     1       0.290   0.878   0.691  1.00  0.00     0.044 A 
ATOM      8  C   UNL     1       2.140  -0.875   0.373  1.00  0.00     0.047 C 
ATOM      9  C   UNL     1       0.734  -0.469   0.677  1.00  0.00    -0.015 A 
ATOM     10  C   UNL     1      -0.208  -1.529   0.875  1.00  0.00     0.045 A 
ATOM     11  C   UNL     1      -1.562  -1.267   1.079  1.00  0.00     0.026 A 
ATOM     12  C   UNL     1      -1.101   1.081   0.913  1.00  0.00     0.014 A 
ATOM     13  C   UNL     1      -2.011   0.039   1.093  1.00  0.00     0.003 A 
BRANCH  10  14
ATOM     14  N   UNL     1       0.252  -2.860   0.895  1.00  0.00    -0.322 N 
ATOM     15  C   UNL     1      -0.310  -4.041   0.469  1.00  0.00     0.255 C 
ATOM     16  H   UNL     1       1.147  -2.965   1.290  1.00  0.00     0.170 HD
ATOM     17  O   UNL     1       0.207  -5.096   0.842  1.00  0.00    -0.269 OA
BRANCH  15  18
ATOM     18  C   UNL     1      -1.420  -4.106  -0.522  1.00  0.00     0.040 A 
ATOM     19  C   UNL     1      -2.186  -5.277  -0.567  1.00  0.00     0.014 A 
ATOM     20  C   UNL     1      -1.630  -3.120  -1.496  1.00  0.00     0.022 A 
ATOM     21  C   UNL     1      -3.174  -5.438  -1.538  1.00  0.00     0.001 A 
ATOM     22  C   UNL     1      -2.629  -3.263  -2.475  1.00  0.00    -0.010 A 
ATOM     23  C   UNL     1      -3.399  -4.434  -2.479  1.00  0.00     0.009 A 
BRANCH  22  24
ATOM     24  C   UNL     1      -2.828  -2.299  -3.591  1.00  0.00     0.068 A 
ATOM     25  C   UNL     1      -2.683  -0.961  -3.450  1.00  0.00     0.028 A 
ATOM     26  C   UNL     1      -2.232  -2.748  -4.891  1.00  0.00     0.344 A 
ATOM     27  C   UNL     1      -1.269  -0.533  -3.535  1.00  0.00     0.018 A 
ATOM     28  O   UNL     1      -0.880  -2.424  -5.020  1.00  0.00    -0.422 OA
ATOM     29  O   UNL     1      -2.850  -3.418  -5.708  1.00  0.00    -0.246 OA
ATOM     30  C   UNL     1      -0.791   0.604  -2.893  1.00  0.00     0.012 A 
ATOM     31  C   UNL     1      -0.384  -1.349  -4.252  1.00  0.00     0.138 A 
ATOM     32  C   UNL     1       0.578   0.879  -2.932  1.00  0.00     0.001 A 
ATOM     33  C   UNL     1       0.982  -1.110  -4.256  1.00  0.00     0.048 A 
ATOM     34  C   UNL     1       1.462   0.010  -3.582  1.00  0.00     0.004 A 
ENDBRANCH  22  24
ENDBRANCH  15  18
ENDBRANCH  10  14
ENDBRANCH   4   7
ENDBRANCH   2   3
ENDBRANCH   1   2
BRANCH   1  35
ATOM     35  C   UNL     1       4.884   2.407  -1.801  1.00  0.00     0.023 C 
BRANCH  35  36
ATOM     36  C   UNL     1       6.293   2.680  -1.306  1.00  0.00     0.116 C 
BRANCH  36  37
ATOM     37  N   UNL     1       7.308   1.724  -1.740  1.00  0.00    -0.352 N 
ATOM     38  C   UNL     1       8.606   1.549  -1.282  1.00  0.00     0.251 C 
ATOM     39  H   UNL     1       7.031   1.115  -2.462  1.00  0.00     0.163 HD
ATOM     40  O   UNL     1       9.346   0.739  -1.837  1.00  0.00    -0.269 OA
BRANCH  38  41
ATOM     41  C   UNL     1       9.045   2.207  -0.022  1.00  0.00     0.039 A 
ATOM     42  C   UNL     1       9.697   1.406   0.923  1.00  0.00     0.014 A 
ATOM     43  C   UNL     1       8.525   3.438   0.354  1.00  0.00     0.014 A 
ATOM     44  C   UNL     1       9.514   1.672   2.275  1.00  0.00     0.010 A 
ATOM     45  C   UNL     1       8.212   3.622   1.684  1.00  0.00     0.010 A 
ATOM     46  C   UNL     1       8.632   2.686   2.635  1.00  0.00    -0.014 A 
BRANCH  46  47
ATOM     47  C   UNL     1       7.960   2.733   3.930  1.00  0.00     0.031 A 
ATOM     48  C   UNL     1       8.211   3.849   4.862  1.00  0.00     0.074 A 
ATOM     49  C   UNL     1       7.015   1.807   4.215  1.00  0.00     0.049 A 
ATOM     50  N   UNL     1       7.954   3.820   6.125  1.00  0.00    -0.248 NA
ATOM     51  C   UNL     1       8.847   5.088   4.439  1.00  0.00     0.031 C 
ATOM     52  C   UNL     1       6.022   1.851   5.285  1.00  0.00     0.029 A 
ATOM     53  N   UNL     1       6.900   0.512   3.690  1.00  0.00    -0.354 N 
ATOM     54  C   UNL     1       8.104   5.099   6.617  1.00  0.00     0.074 A 
ATOM     55  C   UNL     1       8.756   5.819   5.552  1.00  0.00     0.031 C 
ATOM     56  C   UNL     1       5.595   0.602   5.533  1.00  0.00     0.029 A 
ATOM     57  C   UNL     1       6.410  -0.298   4.736  1.00  0.00     0.049 A 
ATOM     58  H   UNL     1       7.119   0.225   2.773  1.00  0.00     0.167 HD
ATOM     59  C   UNL     1       7.525   5.414   7.814  1.00  0.00     0.037 A 
ATOM     60  C   UNL     1       7.153  -1.325   5.241  1.00  0.00     0.037 A 
ATOM     61  C   UNL     1       7.011   4.207   8.470  1.00  0.00     0.049 A 
ATOM     62  C   UNL     1       7.506  -1.168   6.703  1.00  0.00     0.074 A 
ATOM     63  C   UNL     1       5.741   3.664   8.588  1.00  0.00     0.029 A 
ATOM     64  N   UNL     1       7.899   3.209   8.866  1.00  0.00    -0.354 N 
ATOM     65  N   UNL     1       7.404  -0.044   7.358  1.00  0.00    -0.248 NA
ATOM     66  C   UNL     1       8.034  -2.248   7.534  1.00  0.00     0.031 C 
ATOM     67  C   UNL     1       5.876   2.308   8.980  1.00  0.00     0.029 A 
ATOM     68  C   UNL     1       7.224   2.032   9.127  1.00  0.00     0.049 A 
ATOM     69  H   UNL     1       8.873   3.327   8.949  1.00  0.00     0.167 HD
ATOM     70  C   UNL     1       7.873  -0.211   8.635  1.00  0.00     0.074 A 
ATOM     71  C   UNL     1       8.229  -1.616   8.705  1.00  0.00     0.031 C 
ATOM     72  C   UNL     1       7.947   0.828   9.517  1.00  0.00     0.037 A 
BRANCH  59  73
ATOM     73  C   UNL     1       7.145   6.825   8.246  1.00  0.00     0.057 A 
ATOM     74  C   UNL     1       6.138   7.028   9.215  1.00  0.00     0.134 A 
ATOM     75  C   UNL     1       7.639   8.024   7.699  1.00  0.00     0.134 A 
ATOM     76  F   UNL     1       5.632   6.014   9.930  1.00  0.00    -0.206 F 
ATOM     77  C   UNL     1       5.591   8.287   9.510  1.00  0.00     0.040 A 
ATOM     78  C   UNL     1       7.080   9.285   7.956  1.00  0.00     0.040 A 
ATOM     79  F   UNL     1       8.729   8.063   6.932  1.00  0.00    -0.206 F 
ATOM     80  C   UNL     1       6.036   9.420   8.851  1.00  0.00     0.006 A 
ENDBRANCH  59  73
BRANCH  60  81
ATOM     81  C   UNL     1       8.003  -1.989   4.219  1.00  0.00     0.057 A 
ATOM     82  C   UNL     1       7.371  -2.687   3.175  1.00  0.00     0.134 A 
ATOM     83  C   UNL     1       9.341  -1.634   4.029  1.00  0.00     0.134 A 
ATOM     84  F   UNL     1       6.085  -3.054   3.292  1.00  0.00    -0.206 F 
ATOM     85  C   UNL     1       8.004  -2.918   1.951  1.00  0.00     0.040 A 
ATOM     86  C   UNL     1       9.989  -1.869   2.809  1.00  0.00     0.040 A 
ATOM     87  F   UNL     1      10.004  -0.942   4.966  1.00  0.00    -0.206 F 
ATOM     88  C   UNL     1       9.307  -2.475   1.754  1.00  0.00     0.006 A 
ENDBRANCH  60  81
BRANCH  72  89
ATOM     89  C   UNL     1       8.641   0.797  10.855  1.00  0.00     0.057 A 
ATOM     90  C   UNL     1       9.778   0.025  11.136  1.00  0.00     0.134 A 
ATOM     91  C   UNL     1       8.256   1.693  11.878  1.00  0.00     0.134 A 
ATOM     92  F   UNL     1      10.314  -0.791  10.218  1.00  0.00    -0.206 F 
ATOM     93  C   UNL     1      10.453   0.101  12.362  1.00  0.00     0.040 A 
ATOM     94  C   UNL     1       8.953   1.814  13.084  1.00  0.00     0.040 A 
ATOM     95  F   UNL     1       7.198   2.505  11.738  1.00  0.00    -0.206 F 
ATOM     96  C   UNL     1      10.050   1.007  13.335  1.00  0.00     0.006 A 
ENDBRANCH  72  89
ENDBRANCH  46  47
ENDBRANCH  38  41
ENDBRANCH  36  37
ENDBRANCH  35  36
ENDBRANCH   1  35
TORSDOF 14
