REMARK SMILES Cc1ccc(NC(=O)C[C@H]2C(=O)NCCN2C(=O)CCC(=O)NCCCCNC(=O)c2ccc(-c3c4nc(c(-c5c(F)cccc5F)c5ccc([nH]5)c(-c5c(F)cccc5F)c5nc(c(-c6c(F)cccc6F)c6ccc3[nH]6)C=C5)C=C4)cc2)c(C)c1
REMARK SMILES IDX 21 1 22 2 23 3 20 5 19 6 17 7 18 8 16 9 10 10 11 11 12 12
REMARK SMILES IDX 13 13 15 14 14 15 9 17 7 18 6 19 8 21 5 22 1 23 2 24 3 25
REMARK SMILES IDX 87 26 4 27 85 28 86 29 24 30 25 31 26 32 27 33 28 34 29 35
REMARK SMILES IDX 30 37 31 38 32 39 84 40 33 41 83 42 34 43 35 44 36 45 77 46
REMARK SMILES IDX 37 47 82 48 76 49 78 50 38 51 81 52 75 53 74 54 39 56 65 57
REMARK SMILES IDX 48 58 64 59 49 60 52 61 63 62 79 63 50 64 51 65 62 67 80 68
REMARK SMILES IDX 53 69 40 70 41 71 46 72 42 73 43 74 45 75 47 76 44 77 66 78
REMARK SMILES IDX 67 79 72 80 68 81 69 82 71 83 73 84 70 85 54 86 55 87 60 88
REMARK SMILES IDX 56 89 57 90 59 91 61 92 58 93
REMARK H PARENT 23 4 13 16 6 20 28 36 78 55 52 66
REMARK Flexibility Score: inf
ROOT
ATOM      1  C   UNL     1      -2.842   0.909  -1.204  1.00  0.00     0.220 C 
ATOM      2  O   UNL     1      -2.091   0.012  -1.533  1.00  0.00    -0.275 OA
ATOM      3  N   UNL     1      -2.482   1.757  -0.188  1.00  0.00    -0.356 N 
ATOM      4  H   UNL     1      -1.605   1.534   0.200  1.00  0.00     0.163 HD
ENDROOT
BRANCH   1   5
ATOM      5  C   UNL     1      -4.181   1.078  -1.838  1.00  0.00     0.110 C 
BRANCH   5   6
ATOM      6  C   UNL     1      -5.240   0.511  -0.927  1.00  0.00     0.110 C 
BRANCH   6   7
ATOM      7  C   UNL     1      -5.440   1.340   0.304  1.00  0.00     0.223 C 
ATOM      8  O   UNL     1      -6.224   2.299   0.210  1.00  0.00    -0.275 OA
BRANCH   7   9
ATOM      9  N   UNL     1      -4.769   1.084   1.515  1.00  0.00    -0.328 N 
ATOM     10  C   UNL     1      -3.520   0.182   1.811  1.00  0.00     0.183 C 
ATOM     11  C   UNL     1      -3.835  -0.695   3.069  1.00  0.00     0.243 C 
ATOM     12  O   UNL     1      -3.173  -1.695   3.348  1.00  0.00    -0.273 OA
ATOM     13  N   UNL     1      -4.809  -0.315   3.951  1.00  0.00    -0.353 N 
ATOM     14  C   UNL     1      -5.619   1.596   2.605  1.00  0.00     0.141 C 
ATOM     15  C   UNL     1      -5.513   0.937   3.958  1.00  0.00     0.137 C 
ATOM     16  H   UNL     1      -5.053  -0.964   4.650  1.00  0.00     0.163 HD
BRANCH  10  17
ATOM     17  C   UNL     1      -1.799   0.533   1.875  1.00  0.00     0.135 C 
BRANCH  17  18
ATOM     18  C   UNL     1      -0.455   1.599   1.813  1.00  0.00     0.227 C 
ATOM     19  N   UNL     1       0.014   2.744   1.182  1.00  0.00    -0.326 N 
ATOM     20  H   UNL     1       0.942   2.887   1.478  1.00  0.00     0.169 HD
ATOM     21  O   UNL     1       0.460   1.207   2.588  1.00  0.00    -0.275 OA
BRANCH  19  22
ATOM     22  C   UNL     1      -0.320   3.806   0.265  1.00  0.00     0.044 A 
ATOM     23  C   UNL     1      -3.159   6.267  -1.761  1.00  0.00     0.044 C 
ATOM     24  C   UNL     1      -1.891   5.670  -1.198  1.00  0.00    -0.051 A 
ATOM     25  C   UNL     1      -1.465   5.973   0.098  1.00  0.00     0.005 A 
ATOM     26  C   UNL     1      -1.257   4.600  -1.847  1.00  0.00     0.009 A 
ATOM     27  C   UNL     1      -0.603   5.086   0.792  1.00  0.00     0.026 A 
ATOM     28  C   UNL     1      -0.456   3.667  -1.126  1.00  0.00    -0.027 A 
ATOM     29  C   UNL     1       0.216   2.573  -1.898  1.00  0.00     0.046 C 
ENDBRANCH  19  22
ENDBRANCH  17  18
ENDBRANCH  10  17
ENDBRANCH   7   9
ENDBRANCH   6   7
ENDBRANCH   5   6
ENDBRANCH   1   5
BRANCH   3  30
ATOM     30  C   UNL     1      -3.115   2.933   0.459  1.00  0.00     0.116 C 
BRANCH  30  31
ATOM     31  C   UNL     1      -2.999   3.480   1.985  1.00  0.00     0.023 C 
BRANCH  31  32
ATOM     32  C   UNL     1      -2.877   2.850   3.409  1.00  0.00     0.023 C 
BRANCH  32  33
ATOM     33  C   UNL     1      -1.610   3.061   4.275  1.00  0.00     0.116 C 
BRANCH  33  34
ATOM     34  N   UNL     1      -1.629   4.286   5.049  1.00  0.00    -0.352 N 
ATOM     35  C   UNL     1      -1.353   4.518   6.378  1.00  0.00     0.251 C 
ATOM     36  H   UNL     1      -1.882   5.088   4.538  1.00  0.00     0.163 HD
ATOM     37  O   UNL     1      -1.509   5.659   6.811  1.00  0.00    -0.269 OA
BRANCH  35  38
ATOM     38  C   UNL     1      -0.922   3.445   7.318  1.00  0.00     0.039 A 
ATOM     39  C   UNL     1      -1.421   3.488   8.627  1.00  0.00     0.014 A 
ATOM     40  C   UNL     1      -0.004   2.446   6.983  1.00  0.00     0.014 A 
ATOM     41  C   UNL     1      -1.046   2.519   9.568  1.00  0.00     0.010 A 
ATOM     42  C   UNL     1       0.313   1.434   7.905  1.00  0.00     0.010 A 
ATOM     43  C   UNL     1      -0.197   1.458   9.213  1.00  0.00    -0.014 A 
BRANCH  43  44
ATOM     44  C   UNL     1       0.138   0.398  10.216  1.00  0.00     0.031 A 
ATOM     45  C   UNL     1       1.558   0.167  10.673  1.00  0.00     0.074 A 
ATOM     46  C   UNL     1      -0.846  -0.370  10.731  1.00  0.00     0.049 A 
ATOM     47  N   UNL     1       2.008  -0.638  11.608  1.00  0.00    -0.248 NA
ATOM     48  C   UNL     1       2.615   0.910   9.973  1.00  0.00     0.031 C 
ATOM     49  C   UNL     1      -2.252  -0.326  10.323  1.00  0.00     0.029 A 
ATOM     50  N   UNL     1      -0.822  -1.327  11.719  1.00  0.00    -0.354 N 
ATOM     51  C   UNL     1       3.392  -0.502  11.597  1.00  0.00     0.074 A 
ATOM     52  C   UNL     1       3.712   0.408  10.520  1.00  0.00     0.031 C 
ATOM     53  C   UNL     1      -2.962  -1.169  11.090  1.00  0.00     0.029 A 
ATOM     54  C   UNL     1      -2.064  -1.830  12.032  1.00  0.00     0.049 A 
ATOM     55  H   UNL     1       0.006  -1.623  12.161  1.00  0.00     0.167 HD
ATOM     56  C   UNL     1       4.314  -1.052  12.427  1.00  0.00     0.037 A 
ATOM     57  C   UNL     1      -2.444  -2.703  12.986  1.00  0.00     0.037 A 
ATOM     58  C   UNL     1       4.000  -1.940  13.517  1.00  0.00     0.049 A 
ATOM     59  C   UNL     1      -1.413  -3.259  13.931  1.00  0.00     0.074 A 
ATOM     60  C   UNL     1       4.855  -2.501  14.451  1.00  0.00     0.029 A 
ATOM     61  N   UNL     1       2.726  -2.397  13.818  1.00  0.00    -0.354 N 
ATOM     62  N   UNL     1      -0.122  -3.037  13.971  1.00  0.00    -0.248 NA
ATOM     63  C   UNL     1      -1.898  -4.170  14.977  1.00  0.00     0.031 C 
ATOM     64  C   UNL     1       4.103  -3.325  15.296  1.00  0.00     0.029 A 
ATOM     65  C   UNL     1       2.773  -3.239  14.918  1.00  0.00     0.049 A 
ATOM     66  H   UNL     1       1.909  -2.158  13.324  1.00  0.00     0.167 HD
ATOM     67  C   UNL     1       0.354  -3.756  15.060  1.00  0.00     0.074 A 
ATOM     68  C   UNL     1      -0.791  -4.402  15.667  1.00  0.00     0.031 C 
ATOM     69  C   UNL     1       1.626  -3.872  15.516  1.00  0.00     0.037 A 
BRANCH  56  70
ATOM     70  C   UNL     1       5.755  -0.689  12.194  1.00  0.00     0.057 A 
ATOM     71  C   UNL     1       6.237   0.605  12.440  1.00  0.00     0.134 A 
ATOM     72  C   UNL     1       6.676  -1.641  11.740  1.00  0.00     0.134 A 
ATOM     73  F   UNL     1       5.408   1.569  12.870  1.00  0.00    -0.206 F 
ATOM     74  C   UNL     1       7.570   0.948  12.205  1.00  0.00     0.040 A 
ATOM     75  C   UNL     1       8.019  -1.317  11.530  1.00  0.00     0.040 A 
ATOM     76  F   UNL     1       6.290  -2.902  11.497  1.00  0.00    -0.206 F 
ATOM     77  C   UNL     1       8.467  -0.017  11.752  1.00  0.00     0.006 A 
ENDBRANCH  56  70
BRANCH  57  78
ATOM     78  C   UNL     1      -3.879  -3.058  13.145  1.00  0.00     0.057 A 
ATOM     79  C   UNL     1      -4.613  -2.619  14.255  1.00  0.00     0.134 A 
ATOM     80  C   UNL     1      -4.548  -3.852  12.207  1.00  0.00     0.134 A 
ATOM     81  F   UNL     1      -4.024  -1.871  15.200  1.00  0.00    -0.206 F 
ATOM     82  C   UNL     1      -5.950  -2.977  14.439  1.00  0.00     0.040 A 
ATOM     83  C   UNL     1      -5.893  -4.195  12.364  1.00  0.00     0.040 A 
ATOM     84  F   UNL     1      -3.907  -4.297  11.117  1.00  0.00    -0.206 F 
ATOM     85  C   UNL     1      -6.595  -3.764  13.488  1.00  0.00     0.006 A 
ENDBRANCH  57  78
BRANCH  69  86
ATOM     86  C   UNL     1       1.837  -4.702  16.750  1.00  0.00     0.057 A 
ATOM     87  C   UNL     1       1.702  -6.096  16.740  1.00  0.00     0.134 A 
ATOM     88  C   UNL     1       2.193  -4.096  17.962  1.00  0.00     0.134 A 
ATOM     89  F   UNL     1       1.352  -6.737  15.614  1.00  0.00    -0.206 F 
ATOM     90  C   UNL     1       1.879  -6.855  17.898  1.00  0.00     0.040 A 
ATOM     91  C   UNL     1       2.400  -4.847  19.120  1.00  0.00     0.040 A 
ATOM     92  F   UNL     1       2.348  -2.766  18.041  1.00  0.00    -0.206 F 
ATOM     93  C   UNL     1       2.234  -6.230  19.092  1.00  0.00     0.006 A 
ENDBRANCH  69  86
ENDBRANCH  43  44
ENDBRANCH  35  38
ENDBRANCH  33  34
ENDBRANCH  32  33
ENDBRANCH  31  32
ENDBRANCH  30  31
ENDBRANCH   3  30
TORSDOF 17
