REMARK SMILES CCc1ccsc1CNC(=O)N1[C@H]2CC[C@@H]1[C@H](C(=O)NCCCCNC(=O)c1ccc(-c3c4nc(c(-c5c(F)cccc5F)c5ccc([nH]5)c(-c5c(F)cccc5F)c5nc(c(-c6c(F)cccc6F)c6ccc3[nH]6)C=C5)C=C4)cc1)C2
REMARK SMILES IDX 21 1 20 2 18 3 19 4 17 6 12 7 13 8 16 9 14 10 82 11 15 12
REMARK SMILES IDX 10 13 9 14 11 16 8 17 7 18 3 19 4 20 5 21 6 22 2 23 1 24
REMARK SMILES IDX 22 25 23 26 24 27 25 28 26 29 27 31 28 32 29 33 81 34 30 35
REMARK SMILES IDX 80 36 31 37 32 38 33 39 74 40 34 41 79 42 73 43 75 44 35 45
REMARK SMILES IDX 78 46 72 47 71 48 36 50 62 51 45 52 61 53 46 54 49 55 60 56
REMARK SMILES IDX 76 57 47 58 48 59 59 61 77 62 50 63 37 64 38 65 43 66 39 67
REMARK SMILES IDX 40 68 42 69 44 70 41 71 63 72 64 73 69 74 65 75 66 76 68 77
REMARK SMILES IDX 70 78 67 79 51 80 52 81 57 82 53 83 54 84 56 85 58 86 55 87
REMARK H PARENT 20 5 9 15 25 30 75 49 49 60
REMARK Flexibility Score: inf
ROOT
ATOM      1  C   UNL     1       3.717   7.685   3.030  1.00  0.00     0.116 C 
ENDROOT
BRANCH   1   2
ATOM      2  N   UNL     1       3.958   6.725   4.076  1.00  0.00    -0.356 N 
ATOM      3  C   UNL     1       3.350   5.561   4.393  1.00  0.00     0.225 C 
ATOM      4  O   UNL     1       3.681   5.068   5.478  1.00  0.00    -0.275 OA
ATOM      5  H   UNL     1       4.706   6.961   4.672  1.00  0.00     0.163 HD
BRANCH   3   6
ATOM      6  C   UNL     1       2.326   4.843   3.534  1.00  0.00     0.103 C 
ATOM      7  N   UNL     1       0.320   4.301   2.669  1.00  0.00    -0.318 N 
ATOM      8  C   UNL     1       1.059   4.751   1.501  1.00  0.00     0.088 C 
ATOM      9  C   UNL     1       0.840   5.226   3.658  1.00  0.00     0.099 C 
ATOM     10  C   UNL     1       0.651   6.234   1.473  1.00  0.00     0.027 C 
ATOM     11  C   UNL     1       2.513   4.641   2.011  1.00  0.00     0.040 C 
ATOM     12  C   UNL     1       0.459   6.543   2.973  1.00  0.00     0.028 C 
BRANCH   7  13
ATOM     13  C   UNL     1      -0.912   3.742   2.736  1.00  0.00     0.318 C 
ATOM     14  N   UNL     1      -1.119   2.578   2.077  1.00  0.00    -0.333 N 
ATOM     15  H   UNL     1      -2.058   2.294   1.994  1.00  0.00     0.165 HD
ATOM     16  O   UNL     1      -1.812   4.197   3.439  1.00  0.00    -0.249 OA
BRANCH  14  17
ATOM     17  C   UNL     1      -0.144   1.699   1.480  1.00  0.00     0.165 C 
BRANCH  17  18
ATOM     18  C   UNL     1       0.428   0.690   2.445  1.00  0.00     0.027 A 
ATOM     19  C   UNL     1       0.793  -0.624   2.165  1.00  0.00    -0.033 A 
ATOM     20  C   UNL     1       1.405  -1.250   3.303  1.00  0.00     0.016 A 
ATOM     21  C   UNL     1       1.491  -0.413   4.389  1.00  0.00     0.065 A 
ATOM     22  S   UNL     1       0.833   1.119   4.059  1.00  0.00    -0.147 S 
BRANCH  19  23
ATOM     23  C   UNL     1       0.595  -1.323   0.847  1.00  0.00     0.033 C 
ATOM     24  C   UNL     1       1.497  -0.787  -0.256  1.00  0.00     0.009 C 
ENDBRANCH  19  23
ENDBRANCH  17  18
ENDBRANCH  14  17
ENDBRANCH   7  13
ENDBRANCH   3   6
ENDBRANCH   1   2
BRANCH   1  25
ATOM     25  C   UNL     1       2.983   8.908   3.578  1.00  0.00     0.023 C 
BRANCH  25  26
ATOM     26  C   UNL     1       3.876   9.984   4.173  1.00  0.00     0.023 C 
BRANCH  26  27
ATOM     27  C   UNL     1       4.917  10.543   3.220  1.00  0.00     0.116 C 
BRANCH  27  28
ATOM     28  N   UNL     1       4.377  11.011   1.951  1.00  0.00    -0.352 N 
ATOM     29  C   UNL     1       4.830  12.064   1.183  1.00  0.00     0.251 C 
ATOM     30  H   UNL     1       3.598  10.521   1.601  1.00  0.00     0.163 HD
ATOM     31  O   UNL     1       4.261  12.402   0.164  1.00  0.00    -0.269 OA
BRANCH  29  32
ATOM     32  C   UNL     1       6.011  12.801   1.676  1.00  0.00     0.039 A 
ATOM     33  C   UNL     1       5.899  14.170   1.915  1.00  0.00     0.014 A 
ATOM     34  C   UNL     1       7.165  12.098   2.032  1.00  0.00     0.014 A 
ATOM     35  C   UNL     1       6.928  14.828   2.589  1.00  0.00     0.010 A 
ATOM     36  C   UNL     1       8.137  12.733   2.789  1.00  0.00     0.010 A 
ATOM     37  C   UNL     1       8.033  14.105   3.067  1.00  0.00    -0.014 A 
BRANCH  37  38
ATOM     38  C   UNL     1       9.118  14.765   3.832  1.00  0.00     0.031 A 
ATOM     39  C   UNL     1      10.512  14.770   3.272  1.00  0.00     0.074 A 
ATOM     40  C   UNL     1       8.869  15.285   5.049  1.00  0.00     0.049 A 
ATOM     41  N   UNL     1      11.622  15.197   3.816  1.00  0.00    -0.248 NA
ATOM     42  C   UNL     1      10.690  14.174   1.936  1.00  0.00     0.031 C 
ATOM     43  C   UNL     1       7.572  15.283   5.729  1.00  0.00     0.029 A 
ATOM     44  N   UNL     1       9.706  15.912   5.937  1.00  0.00    -0.354 N 
ATOM     45  C   UNL     1      12.626  14.893   2.906  1.00  0.00     0.074 A 
ATOM     46  C   UNL     1      12.007  14.192   1.805  1.00  0.00     0.031 C 
ATOM     47  C   UNL     1       7.694  15.908   6.912  1.00  0.00     0.029 A 
ATOM     48  C   UNL     1       9.081  16.327   7.088  1.00  0.00     0.049 A 
ATOM     49  H   UNL     1      10.666  16.051   5.766  1.00  0.00     0.167 HD
ATOM     50  C   UNL     1      13.942  15.201   2.965  1.00  0.00     0.037 A 
ATOM     51  C   UNL     1       9.575  16.978   8.158  1.00  0.00     0.037 A 
ATOM     52  C   UNL     1      14.544  15.951   4.033  1.00  0.00     0.049 A 
ATOM     53  C   UNL     1      11.030  17.355   8.176  1.00  0.00     0.074 A 
ATOM     54  C   UNL     1      15.855  16.372   4.160  1.00  0.00     0.029 A 
ATOM     55  N   UNL     1      13.863  16.406   5.152  1.00  0.00    -0.354 N 
ATOM     56  N   UNL     1      11.958  17.113   7.281  1.00  0.00    -0.248 NA
ATOM     57  C   UNL     1      11.506  18.106   9.346  1.00  0.00     0.031 C 
ATOM     58  C   UNL     1      15.973  17.067   5.368  1.00  0.00     0.029 A 
ATOM     59  C   UNL     1      14.727  17.106   5.975  1.00  0.00     0.049 A 
ATOM     60  H   UNL     1      12.908  16.255   5.333  1.00  0.00     0.167 HD
ATOM     61  C   UNL     1      13.116  17.708   7.764  1.00  0.00     0.074 A 
ATOM     62  C   UNL     1      12.772  18.331   9.025  1.00  0.00     0.031 C 
ATOM     63  C   UNL     1      14.354  17.737   7.214  1.00  0.00     0.037 A 
BRANCH  50  64
ATOM     64  C   UNL     1      14.805  14.743   1.828  1.00  0.00     0.057 A 
ATOM     65  C   UNL     1      14.710  15.319   0.554  1.00  0.00     0.134 A 
ATOM     66  C   UNL     1      15.746  13.722   2.008  1.00  0.00     0.134 A 
ATOM     67  F   UNL     1      13.814  16.288   0.312  1.00  0.00    -0.206 F 
ATOM     68  C   UNL     1      15.499  14.876  -0.508  1.00  0.00     0.040 A 
ATOM     69  C   UNL     1      16.560  13.289   0.960  1.00  0.00     0.040 A 
ATOM     70  F   UNL     1      15.889  13.129   3.203  1.00  0.00    -0.206 F 
ATOM     71  C   UNL     1      16.433  13.862  -0.304  1.00  0.00     0.006 A 
ENDBRANCH  50  64
BRANCH  51  72
ATOM     72  C   UNL     1       8.681  17.359   9.280  1.00  0.00     0.057 A 
ATOM     73  C   UNL     1       8.323  18.697   9.489  1.00  0.00     0.134 A 
ATOM     74  C   UNL     1       8.181  16.410  10.177  1.00  0.00     0.134 A 
ATOM     75  F   UNL     1       8.787  19.654   8.672  1.00  0.00    -0.206 F 
ATOM     76  C   UNL     1       7.519  19.080  10.563  1.00  0.00     0.040 A 
ATOM     77  C   UNL     1       7.357  16.776  11.243  1.00  0.00     0.040 A 
ATOM     78  F   UNL     1       8.480  15.111  10.026  1.00  0.00    -0.206 F 
ATOM     79  C   UNL     1       7.031  18.116  11.443  1.00  0.00     0.006 A 
ENDBRANCH  51  72
BRANCH  63  80
ATOM     80  C   UNL     1      15.411  18.504   7.948  1.00  0.00     0.057 A 
ATOM     81  C   UNL     1      16.009  18.008   9.112  1.00  0.00     0.134 A 
ATOM     82  C   UNL     1      15.866  19.733   7.454  1.00  0.00     0.134 A 
ATOM     83  F   UNL     1      15.606  16.842   9.639  1.00  0.00    -0.206 F 
ATOM     84  C   UNL     1      17.011  18.719   9.773  1.00  0.00     0.040 A 
ATOM     85  C   UNL     1      16.884  20.441   8.093  1.00  0.00     0.040 A 
ATOM     86  F   UNL     1      15.339  20.256   6.337  1.00  0.00    -0.206 F 
ATOM     87  C   UNL     1      17.456  19.936   9.259  1.00  0.00     0.006 A 
ENDBRANCH  63  80
ENDBRANCH  37  38
ENDBRANCH  29  32
ENDBRANCH  27  28
ENDBRANCH  26  27
ENDBRANCH  25  26
ENDBRANCH   1  25
TORSDOF 15
