REMARK SMILES C[C@H](c1ccccc1)N1C(=O)c2ccc(C(=O)NCCCCNC(=O)c3ccc(-c4c5nc(c(-c6c(F)cccc6F)c6ccc([nH]6)c(-c6c(F)cccc6F)c6nc(c(-c7c(F)cccc7F)c7ccc4[nH]7)C=C6)C=C5)cc3)cc2C1=O
REMARK SMILES IDX 20 1 19 2 18 3 16 4 17 5 15 7 9 8 10 9 82 10 11 11 12 12
REMARK SMILES IDX 81 13 83 14 13 15 80 16 14 17 2 18 1 19 3 20 4 21 8 22 5 23
REMARK SMILES IDX 7 24 6 25 21 26 22 27 23 28 24 29 25 31 26 32 27 33 79 34
REMARK SMILES IDX 28 35 78 36 29 37 30 38 31 39 72 40 32 41 77 42 71 43 73 44
REMARK SMILES IDX 33 45 76 46 70 47 69 48 34 50 60 51 43 52 59 53 44 54 47 55
REMARK SMILES IDX 58 56 74 57 45 58 46 59 57 61 75 62 48 63 35 64 36 65 41 66
REMARK SMILES IDX 37 67 38 68 40 69 42 70 39 71 61 72 62 73 67 74 63 75 64 76
REMARK SMILES IDX 66 77 68 78 65 79 49 80 50 81 55 82 51 83 52 84 54 85 56 86
REMARK SMILES IDX 53 87
REMARK H PARENT 18 6 23 30 73 49 47 60
REMARK Flexibility Score: inf
ROOT
ATOM      1  C   UNL     1      -7.628   4.426  -1.898  1.00  0.00     0.023 C 
ENDROOT
BRANCH   1   2
ATOM      2  C   UNL     1      -7.137   3.664  -0.668  1.00  0.00     0.116 C 
BRANCH   2   3
ATOM      3  N   UNL     1      -7.770   2.369  -0.499  1.00  0.00    -0.352 N 
ATOM      4  C   UNL     1      -7.265   1.097  -0.545  1.00  0.00     0.251 C 
ATOM      5  O   UNL     1      -8.030   0.143  -0.424  1.00  0.00    -0.269 OA
ATOM      6  H   UNL     1      -8.737   2.413  -0.318  1.00  0.00     0.163 HD
BRANCH   4   7
ATOM      7  C   UNL     1      -5.832   0.833  -0.805  1.00  0.00     0.040 A 
ATOM      8  N   UNL     1      -1.235   1.011  -0.720  1.00  0.00    -0.267 N 
ATOM      9  C   UNL     1      -1.798   0.255  -1.712  1.00  0.00     0.262 C 
ATOM     10  C   UNL     1      -2.207   1.652   0.008  1.00  0.00     0.262 C 
ATOM     11  O   UNL     1      -1.320  -0.272  -2.696  1.00  0.00    -0.269 OA
ATOM     12  C   UNL     1      -3.235   0.258  -1.484  1.00  0.00     0.053 A 
ATOM     13  C   UNL     1      -3.501   1.154  -0.469  1.00  0.00     0.054 A 
ATOM     14  O   UNL     1      -2.093   2.514   0.859  1.00  0.00    -0.269 OA
ATOM     15  C   UNL     1      -4.227  -0.432  -2.148  1.00  0.00     0.015 A 
ATOM     16  C   UNL     1      -4.798   1.463  -0.095  1.00  0.00     0.028 A 
ATOM     17  C   UNL     1      -5.543  -0.144  -1.790  1.00  0.00     0.015 A 
BRANCH   8  18
ATOM     18  C   UNL     1       0.197   1.304  -0.569  1.00  0.00     0.121 C 
ATOM     19  C   UNL     1       0.641   2.425  -1.515  1.00  0.00     0.037 C 
BRANCH  18  20
ATOM     20  C   UNL     1       1.068   0.055  -0.658  1.00  0.00    -0.025 A 
ATOM     21  C   UNL     1       1.421  -0.518  -1.891  1.00  0.00     0.006 A 
ATOM     22  C   UNL     1       1.493  -0.591   0.513  1.00  0.00     0.006 A 
ATOM     23  C   UNL     1       2.112  -1.729  -1.956  1.00  0.00     0.000 A 
ATOM     24  C   UNL     1       2.214  -1.788   0.449  1.00  0.00     0.000 A 
ATOM     25  C   UNL     1       2.506  -2.366  -0.785  1.00  0.00     0.000 A 
ENDBRANCH  18  20
ENDBRANCH   8  18
ENDBRANCH   4   7
ENDBRANCH   2   3
ENDBRANCH   1   2
BRANCH   1  26
ATOM     26  C   UNL     1      -9.130   4.708  -1.975  1.00  0.00     0.023 C 
BRANCH  26  27
ATOM     27  C   UNL     1      -9.784   5.283  -0.722  1.00  0.00     0.116 C 
BRANCH  27  28
ATOM     28  N   UNL     1      -9.160   6.500  -0.235  1.00  0.00    -0.352 N 
ATOM     29  C   UNL     1      -9.740   7.628   0.296  1.00  0.00     0.251 C 
ATOM     30  H   UNL     1      -8.177   6.521  -0.294  1.00  0.00     0.163 HD
ATOM     31  O   UNL     1      -9.038   8.585   0.611  1.00  0.00    -0.269 OA
BRANCH  29  32
ATOM     32  C   UNL     1     -11.210   7.717   0.446  1.00  0.00     0.039 A 
ATOM     33  C   UNL     1     -11.851   8.884   0.017  1.00  0.00     0.014 A 
ATOM     34  C   UNL     1     -11.957   6.672   0.995  1.00  0.00     0.014 A 
ATOM     35  C   UNL     1     -13.245   8.972   0.064  1.00  0.00     0.010 A 
ATOM     36  C   UNL     1     -13.350   6.737   0.988  1.00  0.00     0.010 A 
ATOM     37  C   UNL     1     -14.007   7.883   0.513  1.00  0.00    -0.014 A 
BRANCH  37  38
ATOM     38  C   UNL     1     -15.491   7.916   0.473  1.00  0.00     0.031 A 
ATOM     39  C   UNL     1     -16.286   7.900   1.748  1.00  0.00     0.074 A 
ATOM     40  C   UNL     1     -16.124   7.887  -0.715  1.00  0.00     0.049 A 
ATOM     41  N   UNL     1     -17.583   7.841   1.912  1.00  0.00    -0.248 NA
ATOM     42  C   UNL     1     -15.520   7.930   3.003  1.00  0.00     0.031 C 
ATOM     43  C   UNL     1     -15.468   7.853  -2.024  1.00  0.00     0.029 A 
ATOM     44  N   UNL     1     -17.463   7.866  -1.014  1.00  0.00    -0.354 N 
ATOM     45  C   UNL     1     -17.789   7.806   3.285  1.00  0.00     0.074 A 
ATOM     46  C   UNL     1     -16.482   7.813   3.908  1.00  0.00     0.031 C 
ATOM     47  C   UNL     1     -16.406   7.831  -2.985  1.00  0.00     0.029 A 
ATOM     48  C   UNL     1     -17.726   7.819  -2.362  1.00  0.00     0.049 A 
ATOM     49  H   UNL     1     -18.169   7.884  -0.328  1.00  0.00     0.167 HD
ATOM     50  C   UNL     1     -18.960   7.785   3.965  1.00  0.00     0.037 A 
ATOM     51  C   UNL     1     -18.898   7.766  -3.021  1.00  0.00     0.037 A 
ATOM     52  C   UNL     1     -20.260   7.811   3.348  1.00  0.00     0.049 A 
ATOM     53  C   UNL     1     -20.184   7.764  -2.244  1.00  0.00     0.074 A 
ATOM     54  C   UNL     1     -21.503   7.857   3.955  1.00  0.00     0.029 A 
ATOM     55  N   UNL     1     -20.483   7.795   1.980  1.00  0.00    -0.354 N 
ATOM     56  N   UNL     1     -20.363   7.789  -0.946  1.00  0.00    -0.248 NA
ATOM     57  C   UNL     1     -21.430   7.732  -3.024  1.00  0.00     0.031 C 
ATOM     58  C   UNL     1     -22.480   7.842   2.954  1.00  0.00     0.029 A 
ATOM     59  C   UNL     1     -21.844   7.819   1.723  1.00  0.00     0.049 A 
ATOM     60  H   UNL     1     -19.779   7.771   1.292  1.00  0.00     0.167 HD
ATOM     61  C   UNL     1     -21.738   7.799  -0.753  1.00  0.00     0.074 A 
ATOM     62  C   UNL     1     -22.346   7.788  -2.067  1.00  0.00     0.031 C 
ATOM     63  C   UNL     1     -22.433   7.816   0.409  1.00  0.00     0.037 A 
BRANCH  50  64
ATOM     64  C   UNL     1     -18.884   7.739   5.461  1.00  0.00     0.057 A 
ATOM     65  C   UNL     1     -18.498   8.855   6.213  1.00  0.00     0.134 A 
ATOM     66  C   UNL     1     -19.228   6.575   6.160  1.00  0.00     0.134 A 
ATOM     67  F   UNL     1     -18.145   9.997   5.603  1.00  0.00    -0.206 F 
ATOM     68  C   UNL     1     -18.432   8.809   7.607  1.00  0.00     0.040 A 
ATOM     69  C   UNL     1     -19.187   6.523   7.554  1.00  0.00     0.040 A 
ATOM     70  F   UNL     1     -19.611   5.472   5.499  1.00  0.00    -0.206 F 
ATOM     71  C   UNL     1     -18.782   7.641   8.281  1.00  0.00     0.006 A 
ENDBRANCH  50  64
BRANCH  51  72
ATOM     72  C   UNL     1     -18.912   7.738  -4.504  1.00  0.00     0.057 A 
ATOM     73  C   UNL     1     -19.301   8.863  -5.239  1.00  0.00     0.134 A 
ATOM     74  C   UNL     1     -18.542   6.593  -5.218  1.00  0.00     0.134 A 
ATOM     75  F   UNL     1     -19.685   9.982  -4.607  1.00  0.00    -0.206 F 
ATOM     76  C   UNL     1     -19.335   8.848  -6.634  1.00  0.00     0.040 A 
ATOM     77  C   UNL     1     -18.552   6.570  -6.614  1.00  0.00     0.040 A 
ATOM     78  F   UNL     1     -18.154   5.486  -4.569  1.00  0.00    -0.206 F 
ATOM     79  C   UNL     1     -18.956   7.699  -7.325  1.00  0.00     0.006 A 
ENDBRANCH  51  72
BRANCH  63  80
ATOM     80  C   UNL     1     -23.928   7.853   0.311  1.00  0.00     0.057 A 
ATOM     81  C   UNL     1     -24.671   6.717  -0.030  1.00  0.00     0.134 A 
ATOM     82  C   UNL     1     -24.631   9.030   0.596  1.00  0.00     0.134 A 
ATOM     83  F   UNL     1     -24.053   5.564  -0.327  1.00  0.00    -0.206 F 
ATOM     84  C   UNL     1     -26.064   6.753  -0.100  1.00  0.00     0.040 A 
ATOM     85  C   UNL     1     -26.025   9.073   0.548  1.00  0.00     0.040 A 
ATOM     86  F   UNL     1     -23.976  10.150   0.933  1.00  0.00    -0.206 F 
ATOM     87  C   UNL     1     -26.745   7.933   0.196  1.00  0.00     0.006 A 
ENDBRANCH  63  80
ENDBRANCH  37  38
ENDBRANCH  29  32
ENDBRANCH  27  28
ENDBRANCH  26  27
ENDBRANCH   1  26
TORSDOF 13
