REMARK SMILES CCN1C(=O)/C(=C/c2ccccc2O[C@H](C)C(=O)NCCCCNC(=O)c2ccc(-c3c4nc(c(-c5c(F)cccc5F)c5ccc([nH]5)c(-c5c(F)cccc5F)c5nc(c(-c6c(F)cccc6F)c6ccc3[nH]6)C=C5)C=C4)cc2)S/C1=[NH+]\c1ccc(C)cc1O
REMARK SMILES IDX 20 1 19 2 17 3 18 4 15 6 16 7 14 8 13 9 8 10 9 11 10 12
REMARK SMILES IDX 12 13 11 14 7 15 3 16 4 17 82 18 5 19 6 20 81 21 83 22 2 24
REMARK SMILES IDX 1 25 84 26 85 27 90 28 86 29 89 30 87 31 88 32 91 33 21 35
REMARK SMILES IDX 22 36 23 37 24 38 25 39 26 41 27 42 28 43 80 44 29 45 79 46
REMARK SMILES IDX 30 47 31 48 32 49 73 50 33 51 78 52 72 53 74 54 34 55 77 56
REMARK SMILES IDX 71 57 70 58 35 60 61 61 44 62 60 63 45 64 48 65 59 66 75 67
REMARK SMILES IDX 46 68 47 69 58 71 76 72 49 73 36 74 37 75 42 76 38 77 39 78
REMARK SMILES IDX 41 79 43 80 40 81 62 82 63 83 68 84 64 85 65 86 67 87 69 88
REMARK SMILES IDX 66 89 50 90 51 91 56 92 52 93 53 94 55 95 57 96 54 97
REMARK H PARENT 19 5 83 23 91 34 24 40 74 59 48 70
REMARK Flexibility Score: inf
ROOT
ATOM      1  C   UNL     1       1.096  -3.312  -5.215  1.00  0.00     0.116 C 
ENDROOT
BRANCH   1   2
ATOM      2  N   UNL     1       1.762  -3.548  -3.956  1.00  0.00    -0.353 N 
ATOM      3  C   UNL     1       2.742  -2.817  -3.347  1.00  0.00     0.260 C 
ATOM      4  O   UNL     1       3.111  -3.193  -2.229  1.00  0.00    -0.271 OA
ATOM      5  H   UNL     1       1.469  -4.351  -3.467  1.00  0.00     0.163 HD
BRANCH   3   6
ATOM      6  C   UNL     1       3.426  -1.620  -4.046  1.00  0.00     0.258 C 
ATOM      7  C   UNL     1       4.524  -2.119  -4.970  1.00  0.00     0.064 C 
BRANCH   6   8
ATOM      8  O   UNL     1       2.506  -0.621  -4.456  1.00  0.00    -0.480 OA
BRANCH   8   9
ATOM      9  C   UNL     1       2.197  -0.115  -5.679  1.00  0.00     0.127 A 
ATOM     10  C   UNL     1       1.178   0.865  -5.667  1.00  0.00     0.018 A 
ATOM     11  C   UNL     1       0.657   1.356  -6.875  1.00  0.00     0.012 A 
ATOM     12  C   UNL     1       1.155   0.906  -8.093  1.00  0.00     0.001 A 
ATOM     13  C   UNL     1       2.703  -0.532  -6.911  1.00  0.00     0.047 A 
ATOM     14  C   UNL     1       2.182  -0.029  -8.109  1.00  0.00     0.004 A 
BRANCH  10  15
ATOM     15  C   UNL     1       0.574   1.382  -4.424  1.00  0.00     0.036 C 
ATOM     16  N   UNL     1       1.414   3.229  -1.436  1.00  0.00    -0.186 N 
ATOM     17  C   UNL     1       0.521   2.557  -2.249  1.00  0.00     0.348 C 
ATOM     18  C   UNL     1       2.703   3.326  -1.902  1.00  0.00     0.324 C 
ATOM     19  O   UNL     1      -0.691   2.484  -2.091  1.00  0.00    -0.240 OA
ATOM     20  C   UNL     1       1.230   1.984  -3.423  1.00  0.00     0.110 C 
ATOM     21  S   UNL     1       2.910   2.314  -3.307  1.00  0.00     0.007 SA
ATOM     22  N   UNL     1       3.579   4.120  -1.377  1.00  0.00    -0.231 N 
ATOM     23  H   UNL     1       3.328   4.672  -0.601  1.00  0.00     0.313 HD
BRANCH  16  24
ATOM     24  C   UNL     1       0.948   3.917  -0.238  1.00  0.00     0.244 C 
ATOM     25  C   UNL     1       0.361   2.970   0.802  1.00  0.00     0.055 C 
ENDBRANCH  16  24
BRANCH  22  26
ATOM     26  C   UNL     1       4.889   4.210  -1.895  1.00  0.00     0.167 A 
ATOM     27  C   UNL     1       5.958   3.771  -1.112  1.00  0.00     0.056 A 
ATOM     28  C   UNL     1       5.179   4.800  -3.136  1.00  0.00     0.162 A 
ATOM     29  C   UNL     1       7.276   3.881  -1.575  1.00  0.00     0.008 A 
ATOM     30  C   UNL     1       6.482   4.883  -3.620  1.00  0.00     0.054 A 
ATOM     31  C   UNL     1       7.546   4.422  -2.839  1.00  0.00    -0.047 A 
ATOM     32  C   UNL     1       8.961   4.561  -3.316  1.00  0.00     0.044 C 
BRANCH  28  33
ATOM     33  O   UNL     1       4.189   5.337  -3.917  1.00  0.00    -0.504 OA
ATOM     34  H   UNL     1       3.297   5.304  -3.632  1.00  0.00     0.293 HD
ENDBRANCH  28  33
ENDBRANCH  22  26
ENDBRANCH  10  15
ENDBRANCH   8   9
ENDBRANCH   6   8
ENDBRANCH   3   6
ENDBRANCH   1   2
BRANCH   1  35
ATOM     35  C   UNL     1       1.422  -4.364  -6.266  1.00  0.00     0.023 C 
BRANCH  35  36
ATOM     36  C   UNL     1       0.676  -5.681  -6.086  1.00  0.00     0.023 C 
BRANCH  36  37
ATOM     37  C   UNL     1      -0.841  -5.556  -6.010  1.00  0.00     0.116 C 
BRANCH  37  38
ATOM     38  N   UNL     1      -1.432  -4.876  -7.152  1.00  0.00    -0.352 N 
ATOM     39  C   UNL     1      -2.636  -5.138  -7.770  1.00  0.00     0.251 C 
ATOM     40  H   UNL     1      -0.906  -4.136  -7.532  1.00  0.00     0.163 HD
ATOM     41  O   UNL     1      -2.961  -4.547  -8.784  1.00  0.00    -0.269 OA
BRANCH  39  42
ATOM     42  C   UNL     1      -3.514  -6.181  -7.197  1.00  0.00     0.039 A 
ATOM     43  C   UNL     1      -4.023  -7.172  -8.038  1.00  0.00     0.014 A 
ATOM     44  C   UNL     1      -3.792  -6.199  -5.828  1.00  0.00     0.014 A 
ATOM     45  C   UNL     1      -4.770  -8.217  -7.493  1.00  0.00     0.010 A 
ATOM     46  C   UNL     1      -4.463  -7.284  -5.277  1.00  0.00     0.010 A 
ATOM     47  C   UNL     1      -4.971  -8.295  -6.105  1.00  0.00    -0.014 A 
BRANCH  47  48
ATOM     48  C   UNL     1      -5.755  -9.400  -5.500  1.00  0.00     0.031 A 
ATOM     49  C   UNL     1      -7.047  -9.093  -4.795  1.00  0.00     0.074 A 
ATOM     50  C   UNL     1      -5.282 -10.660  -5.532  1.00  0.00     0.049 A 
ATOM     51  N   UNL     1      -7.847  -9.898  -4.144  1.00  0.00    -0.248 NA
ATOM     52  C   UNL     1      -7.481  -7.686  -4.795  1.00  0.00     0.031 C 
ATOM     53  C   UNL     1      -4.018 -11.079  -6.142  1.00  0.00     0.029 A 
ATOM     54  N   UNL     1      -5.811 -11.823  -5.032  1.00  0.00    -0.354 N 
ATOM     55  C   UNL     1      -8.861  -9.093  -3.642  1.00  0.00     0.074 A 
ATOM     56  C   UNL     1      -8.545  -7.731  -4.009  1.00  0.00     0.031 C 
ATOM     57  C   UNL     1      -3.885 -12.409  -6.006  1.00  0.00     0.029 A 
ATOM     58  C   UNL     1      -5.035 -12.931  -5.276  1.00  0.00     0.049 A 
ATOM     59  H   UNL     1      -6.665 -11.860  -4.545  1.00  0.00     0.167 HD
ATOM     60  C   UNL     1      -9.975  -9.457  -2.962  1.00  0.00     0.037 A 
ATOM     61  C   UNL     1      -5.237 -14.221  -4.949  1.00  0.00     0.037 A 
ATOM     62  C   UNL     1     -10.306 -10.816  -2.630  1.00  0.00     0.049 A 
ATOM     63  C   UNL     1      -6.489 -14.604  -4.209  1.00  0.00     0.074 A 
ATOM     64  C   UNL     1     -11.432 -11.298  -1.985  1.00  0.00     0.029 A 
ATOM     65  N   UNL     1      -9.512 -11.914  -2.925  1.00  0.00    -0.354 N 
ATOM     66  N   UNL     1      -7.469 -13.841  -3.789  1.00  0.00    -0.248 NA
ATOM     67  C   UNL     1      -6.668 -16.031  -3.907  1.00  0.00     0.031 C 
ATOM     68  C   UNL     1     -11.305 -12.686  -1.865  1.00  0.00     0.029 A 
ATOM     69  C   UNL     1     -10.120 -13.072  -2.471  1.00  0.00     0.049 A 
ATOM     70  H   UNL     1      -8.645 -11.875  -3.389  1.00  0.00     0.167 HD
ATOM     71  C   UNL     1      -8.397 -14.696  -3.210  1.00  0.00     0.074 A 
ATOM     72  C   UNL     1      -7.865 -16.037  -3.337  1.00  0.00     0.031 C 
ATOM     73  C   UNL     1      -9.584 -14.399  -2.628  1.00  0.00     0.037 A 
BRANCH  60  74
ATOM     74  C   UNL     1     -10.914  -8.362  -2.549  1.00  0.00     0.057 A 
ATOM     75  C   UNL     1     -11.679  -7.655  -3.487  1.00  0.00     0.134 A 
ATOM     76  C   UNL     1     -11.061  -8.013  -1.201  1.00  0.00     0.134 A 
ATOM     77  F   UNL     1     -11.573  -7.929  -4.796  1.00  0.00    -0.206 F 
ATOM     78  C   UNL     1     -12.530  -6.617  -3.103  1.00  0.00     0.040 A 
ATOM     79  C   UNL     1     -11.931  -6.997  -0.802  1.00  0.00     0.040 A 
ATOM     80  F   UNL     1     -10.362  -8.652  -0.251  1.00  0.00    -0.206 F 
ATOM     81  C   UNL     1     -12.661  -6.290  -1.755  1.00  0.00     0.006 A 
ENDBRANCH  60  74
BRANCH  61  82
ATOM     82  C   UNL     1      -4.256 -15.256  -5.362  1.00  0.00     0.057 A 
ATOM     83  C   UNL     1      -4.569 -16.179  -6.367  1.00  0.00     0.134 A 
ATOM     84  C   UNL     1      -2.997 -15.357  -4.761  1.00  0.00     0.134 A 
ATOM     85  F   UNL     1      -5.768 -16.143  -6.967  1.00  0.00    -0.206 F 
ATOM     86  C   UNL     1      -3.673 -17.179  -6.746  1.00  0.00     0.040 A 
ATOM     87  C   UNL     1      -2.082 -16.339  -5.146  1.00  0.00     0.040 A 
ATOM     88  F   UNL     1      -2.635 -14.497  -3.798  1.00  0.00    -0.206 F 
ATOM     89  C   UNL     1      -2.422 -17.258  -6.137  1.00  0.00     0.006 A 
ENDBRANCH  61  82
BRANCH  73  90
ATOM     90  C   UNL     1     -10.414 -15.548  -2.136  1.00  0.00     0.057 A 
ATOM     91  C   UNL     1     -10.076 -16.268  -0.984  1.00  0.00     0.134 A 
ATOM     92  C   UNL     1     -11.589 -15.911  -2.807  1.00  0.00     0.134 A 
ATOM     93  F   UNL     1      -8.956 -15.977  -0.304  1.00  0.00    -0.206 F 
ATOM     94  C   UNL     1     -10.866 -17.324  -0.528  1.00  0.00     0.040 A 
ATOM     95  C   UNL     1     -12.400 -16.948  -2.347  1.00  0.00     0.040 A 
ATOM     96  F   UNL     1     -11.973 -15.255  -3.912  1.00  0.00    -0.206 F 
ATOM     97  C   UNL     1     -12.036 -17.662  -1.207  1.00  0.00     0.006 A 
ENDBRANCH  73  90
ENDBRANCH  47  48
ENDBRANCH  39  42
ENDBRANCH  37  38
ENDBRANCH  36  37
ENDBRANCH  35  36
ENDBRANCH   1  35
TORSDOF 17
