REMARK SMILES O=C(NCCCCNC(=O)c1cc2c(cc1NS(=O)(=O)c1cc(Cl)ccc1Cl)OCCCO2)c1ccc(-c2c3nc(c(-c4c(F)cccc4F)c4ccc([nH]4)c(-c4c(F)cccc4F)c4nc(c(-c5c(F)cccc5F)c5ccc2[nH]5)C=C4)C=C3)cc1
REMARK SMILES IDX 6 1 5 2 4 3 3 4 1 5 2 6 34 8 35 9 87 10 36 11 86 12 37 13
REMARK SMILES IDX 38 14 39 15 80 16 40 17 85 18 79 19 81 20 41 21 84 22 78 23
REMARK SMILES IDX 77 24 42 26 68 27 51 28 67 29 52 30 55 31 66 32 82 33 53 34
REMARK SMILES IDX 54 35 65 37 83 38 56 39 43 40 44 41 49 42 45 43 46 44 48 45
REMARK SMILES IDX 50 46 47 47 69 48 70 49 75 50 71 51 72 52 74 53 76 54 73 55
REMARK SMILES IDX 57 56 58 57 63 58 59 59 60 60 62 61 64 62 61 63 7 64 8 65
REMARK SMILES IDX 9 66 10 68 11 69 12 70 16 71 13 72 15 73 14 74 17 75 18 77
REMARK SMILES IDX 19 78 20 79 21 80 22 81 27 82 23 83 26 84 28 85 24 86 25 87
REMARK SMILES IDX 33 88 32 89 31 90 29 92 30 93
REMARK H PARENT 3 7 81 25 55 36 8 67 17 76
REMARK Flexibility Score: 100.00
ROOT
ATOM      1  C   UNL     1       2.945  -4.050  -0.896  1.00  0.00     0.023 C 
ENDROOT
BRANCH   1   2
ATOM      2  C   UNL     1       3.614  -2.979  -0.011  1.00  0.00     0.023 C 
BRANCH   2   3
ATOM      3  C   UNL     1       3.864  -1.619  -0.674  1.00  0.00     0.116 C 
BRANCH   3   4
ATOM      4  N   UNL     1       2.622  -0.899  -0.885  1.00  0.00    -0.352 N 
ATOM      5  O   UNL     1       0.845   0.340  -0.340  1.00  0.00    -0.269 OA
ATOM      6  C   UNL     1       2.041   0.111  -0.164  1.00  0.00     0.251 C 
ATOM      7  H   UNL     1       2.112  -1.184  -1.678  1.00  0.00     0.163 HD
BRANCH   6   8
ATOM      8  C   UNL     1       2.797   0.954   0.798  1.00  0.00     0.039 A 
ATOM      9  C   UNL     1       2.117   1.418   1.932  1.00  0.00     0.014 A 
ATOM     10  C   UNL     1       4.077   1.448   0.522  1.00  0.00     0.014 A 
ATOM     11  C   UNL     1       2.694   2.386   2.761  1.00  0.00     0.010 A 
ATOM     12  C   UNL     1       4.675   2.383   1.381  1.00  0.00     0.010 A 
ATOM     13  C   UNL     1       3.970   2.897   2.483  1.00  0.00    -0.014 A 
BRANCH  13  14
ATOM     14  C   UNL     1       4.496   4.049   3.269  1.00  0.00     0.031 A 
ATOM     15  C   UNL     1       4.596   5.415   2.633  1.00  0.00     0.074 A 
ATOM     16  C   UNL     1       4.837   3.901   4.564  1.00  0.00     0.049 A 
ATOM     17  N   UNL     1       4.975   6.553   3.161  1.00  0.00    -0.248 NA
ATOM     18  C   UNL     1       4.231   5.509   1.211  1.00  0.00     0.031 C 
ATOM     19  C   UNL     1       4.807   2.644   5.309  1.00  0.00     0.029 A 
ATOM     20  N   UNL     1       5.266   4.826   5.485  1.00  0.00    -0.354 N 
ATOM     21  C   UNL     1       4.891   7.494   2.141  1.00  0.00     0.074 A 
ATOM     22  C   UNL     1       4.481   6.783   0.949  1.00  0.00     0.031 C 
ATOM     23  C   UNL     1       5.179   2.879   6.580  1.00  0.00     0.029 A 
ATOM     24  C   UNL     1       5.486   4.299   6.735  1.00  0.00     0.049 A 
ATOM     25  H   UNL     1       5.404   5.777   5.270  1.00  0.00     0.167 HD
ATOM     26  C   UNL     1       5.104   8.832   2.189  1.00  0.00     0.037 A 
ATOM     27  C   UNL     1       5.878   4.894   7.878  1.00  0.00     0.037 A 
ATOM     28  C   UNL     1       5.499   9.557   3.367  1.00  0.00     0.049 A 
ATOM     29  C   UNL     1       6.113   6.380   7.906  1.00  0.00     0.074 A 
ATOM     30  C   UNL     1       5.739  10.914   3.509  1.00  0.00     0.029 A 
ATOM     31  N   UNL     1       5.704   8.984   4.612  1.00  0.00    -0.354 N 
ATOM     32  N   UNL     1       5.999   7.257   6.939  1.00  0.00    -0.248 NA
ATOM     33  C   UNL     1       6.519   6.960   9.196  1.00  0.00     0.031 C 
ATOM     34  C   UNL     1       6.108  11.158   4.838  1.00  0.00     0.029 A 
ATOM     35  C   UNL     1       6.068   9.958   5.527  1.00  0.00     0.049 A 
ATOM     36  H   UNL     1       5.607   8.026   4.815  1.00  0.00     0.167 HD
ATOM     37  C   UNL     1       6.295   8.490   7.506  1.00  0.00     0.074 A 
ATOM     38  C   UNL     1       6.574   8.252   8.907  1.00  0.00     0.031 C 
ATOM     39  C   UNL     1       6.336   9.711   6.919  1.00  0.00     0.037 A 
BRANCH  26  40
ATOM     40  C   UNL     1       4.896   9.599   0.916  1.00  0.00     0.057 A 
ATOM     41  C   UNL     1       5.982  10.111   0.196  1.00  0.00     0.134 A 
ATOM     42  C   UNL     1       3.611   9.837   0.409  1.00  0.00     0.134 A 
ATOM     43  F   UNL     1       7.237   9.924   0.630  1.00  0.00    -0.206 F 
ATOM     44  C   UNL     1       5.797  10.827  -0.988  1.00  0.00     0.040 A 
ATOM     45  C   UNL     1       3.416  10.532  -0.785  1.00  0.00     0.040 A 
ATOM     46  F   UNL     1       2.531   9.362   1.046  1.00  0.00    -0.206 F 
ATOM     47  C   UNL     1       4.511  11.033  -1.486  1.00  0.00     0.006 A 
ENDBRANCH  26  40
BRANCH  27  48
ATOM     48  C   UNL     1       6.052   4.093   9.115  1.00  0.00     0.057 A 
ATOM     49  C   UNL     1       7.143   3.232   9.275  1.00  0.00     0.134 A 
ATOM     50  C   UNL     1       5.155   4.207  10.183  1.00  0.00     0.134 A 
ATOM     51  F   UNL     1       8.037   3.081   8.287  1.00  0.00    -0.206 F 
ATOM     52  C   UNL     1       7.338   2.514  10.456  1.00  0.00     0.040 A 
ATOM     53  C   UNL     1       5.350   3.512  11.377  1.00  0.00     0.040 A 
ATOM     54  F   UNL     1       4.105   5.037  10.097  1.00  0.00    -0.206 F 
ATOM     55  C   UNL     1       6.444   2.661  11.515  1.00  0.00     0.006 A 
ENDBRANCH  27  48
BRANCH  39  56
ATOM     56  C   UNL     1       6.666  10.879   7.800  1.00  0.00     0.057 A 
ATOM     57  C   UNL     1       5.673  11.793   8.176  1.00  0.00     0.134 A 
ATOM     58  C   UNL     1       7.965  11.103   8.272  1.00  0.00     0.134 A 
ATOM     59  F   UNL     1       4.410  11.639   7.754  1.00  0.00    -0.206 F 
ATOM     60  C   UNL     1       5.961  12.883   8.999  1.00  0.00     0.040 A 
ATOM     61  C   UNL     1       8.261  12.178   9.112  1.00  0.00     0.040 A 
ATOM     62  F   UNL     1       8.957  10.255   7.959  1.00  0.00    -0.206 F 
ATOM     63  C   UNL     1       7.257  13.073   9.476  1.00  0.00     0.006 A 
ENDBRANCH  39  56
ENDBRANCH  13  14
ENDBRANCH   6   8
ENDBRANCH   3   4
ENDBRANCH   2   3
ENDBRANCH   1   2
BRANCH   1  64
ATOM     64  C   UNL     1       3.777  -4.553  -2.083  1.00  0.00     0.116 C 
BRANCH  64  65
ATOM     65  N   UNL     1       4.966  -5.276  -1.661  1.00  0.00    -0.352 N 
ATOM     66  C   UNL     1       5.964  -5.901  -2.367  1.00  0.00     0.253 C 
ATOM     67  H   UNL     1       5.077  -5.326  -0.683  1.00  0.00     0.163 HD
ATOM     68  O   UNL     1       6.915  -6.394  -1.759  1.00  0.00    -0.269 OA
BRANCH  66  69
ATOM     69  C   UNL     1       5.930  -6.058  -3.828  1.00  0.00     0.067 A 
ATOM     70  C   UNL     1       6.011  -7.388  -4.267  1.00  0.00     0.066 A 
ATOM     71  C   UNL     1       5.886  -5.008  -4.754  1.00  0.00     0.066 A 
ATOM     72  C   UNL     1       5.926  -7.698  -5.619  1.00  0.00     0.162 A 
ATOM     73  C   UNL     1       5.701  -5.337  -6.112  1.00  0.00     0.078 A 
ATOM     74  C   UNL     1       5.698  -6.681  -6.545  1.00  0.00     0.163 A 
BRANCH  71  75
ATOM     75  N   UNL     1       5.818  -3.644  -4.309  1.00  0.00    -0.279 N 
ATOM     76  H   UNL     1       5.013  -3.362  -3.816  1.00  0.00     0.180 HD
BRANCH  75  77
ATOM     77  S   UNL     1       7.018  -2.492  -4.572  1.00  0.00     0.263 S 
ATOM     78  O   UNL     1       7.572  -2.735  -5.886  1.00  0.00    -0.201 OA
ATOM     79  O   UNL     1       6.377  -1.228  -4.265  1.00  0.00    -0.201 OA
BRANCH  77  80
ATOM     80  C   UNL     1       8.346  -2.641  -3.414  1.00  0.00     0.107 A 
ATOM     81  C   UNL     1       9.552  -2.016  -3.756  1.00  0.00     0.044 A 
ATOM     82  C   UNL     1       8.280  -3.308  -2.202  1.00  0.00     0.061 A 
ATOM     83  C   UNL     1      10.687  -2.211  -2.970  1.00  0.00     0.042 A 
ATOM     84  C   UNL     1       9.453  -3.676  -1.529  1.00  0.00     0.023 A 
ATOM     85  Cl  UNL     1       6.914  -3.117  -1.179  1.00  0.00    -0.083 Cl
ATOM     86  Cl  UNL     1      12.106  -1.289  -3.271  1.00  0.00    -0.084 Cl
ATOM     87  C   UNL     1      10.667  -3.118  -1.915  1.00  0.00     0.022 A 
ENDBRANCH  77  80
ENDBRANCH  75  77
ENDBRANCH  71  75
BRANCH  72  88
ATOM     88  O   UNL     1       5.966  -9.031  -5.909  1.00  0.00    -0.490 OA
BRANCH  88  89
ATOM     89  C   UNL     1       6.905  -9.323  -6.942  1.00  0.00     0.233 C 
BRANCH  89  90
ATOM     90  C   UNL     1       6.235  -9.179  -8.290  1.00  0.00     0.083 CG0
ATOM     91  G   UNL     1       6.077  -7.710  -8.665  1.00  0.00     0.000 G0
ENDBRANCH  89  90
ENDBRANCH  88  89
ENDBRANCH  72  88
BRANCH  74  92
ATOM     92  O   UNL     1       5.239  -6.928  -7.812  1.00  0.00    -0.489 OA
BRANCH  92  93
ATOM     93  C   UNL     1       6.077  -7.710  -8.665  1.00  0.00     0.233 CG0
ATOM     94  G   UNL     1       6.235  -9.179  -8.290  1.00  0.00     0.000 G0
ENDBRANCH  92  93
ENDBRANCH  74  92
ENDBRANCH  66  69
ENDBRANCH  64  65
ENDBRANCH   1  64
TORSDOF 14
