REMARK SMILES CCCCCCCCNC(=O)Oc1cccc(-c2ccc([C@@H](C)C(=O)NCCCCNC(=O)c3ccc(-c4c5nc(c(-c6c(F)cccc6F)c6ccc([nH]6)c(-c6c(F)cccc6F)c6nc(c(-c7c(F)cccc7F)c7ccc4[nH]7)C=C6)C=C5)cc3)cc2F)c1
REMARK SMILES IDX 18 1 19 2 20 3 21 4 88 5 89 6 90 7 17 8 13 9 14 10 91 11
REMARK SMILES IDX 15 12 16 13 12 14 10 15 9 16 11 18 8 19 7 20 6 21 5 22 4 23
REMARK SMILES IDX 3 24 2 25 1 26 22 27 23 28 24 29 25 30 26 31 27 33 28 34
REMARK SMILES IDX 29 35 30 36 31 37 32 38 33 40 34 41 35 42 87 43 36 44 86 45
REMARK SMILES IDX 37 46 38 47 39 48 80 49 40 50 85 51 79 52 81 53 41 54 84 55
REMARK SMILES IDX 78 56 77 57 42 59 68 60 51 61 67 62 52 63 55 64 66 65 82 66
REMARK SMILES IDX 53 67 54 68 65 70 83 71 56 72 43 73 44 74 49 75 45 76 46 77
REMARK SMILES IDX 48 78 50 79 47 80 69 81 70 82 75 83 71 84 72 85 74 86 76 87
REMARK SMILES IDX 73 88 57 89 58 90 63 91 59 92 60 93 62 94 64 95 61 96
REMARK H PARENT 9 17 26 32 31 39 81 58 55 69
REMARK Flexibility Score: inf
ROOT
ATOM      1  C   UNL     1      -6.043  -9.686   5.980  1.00  0.00     0.018 A 
ATOM      2  C   UNL     1      -7.040 -10.320   6.739  1.00  0.00     0.012 A 
ATOM      3  C   UNL     1      -8.028 -11.117   6.144  1.00  0.00     0.005 A 
ATOM      4  C   UNL     1      -8.109 -11.250   4.756  1.00  0.00    -0.033 A 
ATOM      5  C   UNL     1      -7.097 -10.656   3.990  1.00  0.00     0.044 A 
ATOM      6  C   UNL     1      -6.079  -9.916   4.595  1.00  0.00     0.131 A 
ATOM      7  F   UNL     1      -5.123  -9.421   3.792  1.00  0.00    -0.206 F 
ENDROOT
BRANCH   1   8
ATOM      8  C   UNL     1      -5.039  -8.801   6.621  1.00  0.00    -0.012 A 
ATOM      9  C   UNL     1      -3.582  -6.848   6.565  1.00  0.00     0.133 A 
ATOM     10  C   UNL     1      -3.135  -7.095   7.857  1.00  0.00     0.047 A 
ATOM     11  C   UNL     1      -4.520  -7.680   5.950  1.00  0.00     0.056 A 
ATOM     12  C   UNL     1      -3.643  -8.188   8.547  1.00  0.00     0.004 A 
ATOM     13  C   UNL     1      -4.574  -9.035   7.932  1.00  0.00     0.009 A 
BRANCH   9  14
ATOM     14  O   UNL     1      -2.933  -5.832   5.848  1.00  0.00    -0.410 OA
BRANCH  14  15
ATOM     15  C   UNL     1      -3.695  -4.922   5.132  1.00  0.00     0.412 C 
ATOM     16  N   UNL     1      -2.943  -4.168   4.274  1.00  0.00    -0.321 N 
ATOM     17  H   UNL     1      -3.414  -3.463   3.773  1.00  0.00     0.167 HD
ATOM     18  O   UNL     1      -4.905  -4.764   5.223  1.00  0.00    -0.224 OA
BRANCH  16  19
ATOM     19  C   UNL     1      -1.521  -4.304   4.031  1.00  0.00     0.119 C 
BRANCH  19  20
ATOM     20  C   UNL     1      -1.217  -4.589   2.559  1.00  0.00     0.021 C 
BRANCH  20  21
ATOM     21  C   UNL     1      -1.623  -3.471   1.591  1.00  0.00     0.002 C 
BRANCH  21  22
ATOM     22  C   UNL     1      -1.033  -2.091   1.903  1.00  0.00     0.000 C 
BRANCH  22  23
ATOM     23  C   UNL     1       0.497  -2.026   1.898  1.00  0.00    -0.000 C 
BRANCH  23  24
ATOM     24  C   UNL     1       1.154  -2.313   0.544  1.00  0.00    -0.000 C 
BRANCH  24  25
ATOM     25  C   UNL     1       0.733  -1.383  -0.597  1.00  0.00    -0.003 C 
ATOM     26  C   UNL     1       1.052   0.081  -0.333  1.00  0.00     0.004 C 
ENDBRANCH  24  25
ENDBRANCH  23  24
ENDBRANCH  22  23
ENDBRANCH  21  22
ENDBRANCH  20  21
ENDBRANCH  19  20
ENDBRANCH  16  19
ENDBRANCH  14  15
ENDBRANCH   9  14
ENDBRANCH   1   8
BRANCH   4  27
ATOM     27  C   UNL     1      -9.255 -11.956   4.049  1.00  0.00     0.105 C 
ATOM     28  C   UNL     1      -9.732 -13.262   4.682  1.00  0.00     0.023 C 
BRANCH  27  29
ATOM     29  C   UNL     1     -10.393 -11.008   3.634  1.00  0.00     0.227 C 
ATOM     30  O   UNL     1     -10.542 -10.709   2.443  1.00  0.00    -0.274 OA
ATOM     31  N   UNL     1     -11.283 -10.463   4.509  1.00  0.00    -0.356 N 
ATOM     32  H   UNL     1     -11.993  -9.930   4.085  1.00  0.00     0.163 HD
BRANCH  31  33
ATOM     33  C   UNL     1     -11.369 -10.528   5.952  1.00  0.00     0.116 C 
BRANCH  33  34
ATOM     34  C   UNL     1     -10.728  -9.313   6.623  1.00  0.00     0.023 C 
BRANCH  34  35
ATOM     35  C   UNL     1     -11.650  -8.107   6.791  1.00  0.00     0.023 C 
BRANCH  35  36
ATOM     36  C   UNL     1     -12.885  -8.345   7.652  1.00  0.00     0.116 C 
BRANCH  36  37
ATOM     37  N   UNL     1     -12.593  -8.823   8.996  1.00  0.00    -0.352 N 
ATOM     38  C   UNL     1     -13.301  -8.589  10.153  1.00  0.00     0.251 C 
ATOM     39  H   UNL     1     -11.789  -9.384   9.089  1.00  0.00     0.163 HD
ATOM     40  O   UNL     1     -12.893  -9.002  11.232  1.00  0.00    -0.269 OA
BRANCH  38  41
ATOM     41  C   UNL     1     -14.538  -7.785  10.081  1.00  0.00     0.039 A 
ATOM     42  C   UNL     1     -14.675  -6.681  10.926  1.00  0.00     0.014 A 
ATOM     43  C   UNL     1     -15.518  -8.076   9.130  1.00  0.00     0.014 A 
ATOM     44  C   UNL     1     -15.758  -5.818  10.757  1.00  0.00     0.010 A 
ATOM     45  C   UNL     1     -16.552  -7.174   8.912  1.00  0.00     0.010 A 
ATOM     46  C   UNL     1     -16.679  -6.032   9.719  1.00  0.00    -0.014 A 
BRANCH  46  47
ATOM     47  C   UNL     1     -17.774  -5.069   9.446  1.00  0.00     0.031 A 
ATOM     48  C   UNL     1     -19.207  -5.501   9.581  1.00  0.00     0.074 A 
ATOM     49  C   UNL     1     -17.479  -3.835   8.994  1.00  0.00     0.049 A 
ATOM     50  N   UNL     1     -20.300  -4.836   9.308  1.00  0.00    -0.248 NA
ATOM     51  C   UNL     1     -19.442  -6.875  10.053  1.00  0.00     0.031 C 
ATOM     52  C   UNL     1     -16.129  -3.318   8.758  1.00  0.00     0.029 A 
ATOM     53  N   UNL     1     -18.299  -2.794   8.637  1.00  0.00    -0.354 N 
ATOM     54  C   UNL     1     -21.347  -5.715   9.553  1.00  0.00     0.074 A 
ATOM     55  C   UNL     1     -20.758  -6.976   9.947  1.00  0.00     0.031 C 
ATOM     56  C   UNL     1     -16.214  -2.053   8.316  1.00  0.00     0.029 A 
ATOM     57  C   UNL     1     -17.620  -1.680   8.206  1.00  0.00     0.049 A 
ATOM     58  H   UNL     1     -19.282  -2.841   8.685  1.00  0.00     0.167 HD
ATOM     59  C   UNL     1     -22.679  -5.484   9.480  1.00  0.00     0.037 A 
ATOM     60  C   UNL     1     -18.081  -0.493   7.767  1.00  0.00     0.037 A 
ATOM     61  C   UNL     1     -23.262  -4.218   9.124  1.00  0.00     0.049 A 
ATOM     62  C   UNL     1     -19.564  -0.254   7.718  1.00  0.00     0.074 A 
ATOM     63  C   UNL     1     -24.598  -3.861   9.100  1.00  0.00     0.029 A 
ATOM     64  N   UNL     1     -22.541  -3.101   8.730  1.00  0.00    -0.354 N 
ATOM     65  N   UNL     1     -20.543  -1.069   8.031  1.00  0.00    -0.248 NA
ATOM     66  C   UNL     1     -20.007   1.071   7.263  1.00  0.00     0.031 C 
ATOM     67  C   UNL     1     -24.688  -2.537   8.654  1.00  0.00     0.029 A 
ATOM     68  C   UNL     1     -23.405  -2.059   8.442  1.00  0.00     0.049 A 
ATOM     69  H   UNL     1     -21.559  -3.056   8.666  1.00  0.00     0.167 HD
ATOM     70  C   UNL     1     -21.714  -0.349   7.834  1.00  0.00     0.074 A 
ATOM     71  C   UNL     1     -21.323   0.972   7.388  1.00  0.00     0.031 C 
ATOM     72  C   UNL     1     -22.998  -0.748   8.005  1.00  0.00     0.037 A 
BRANCH  59  73
ATOM     73  C   UNL     1     -23.595  -6.628   9.801  1.00  0.00     0.057 A 
ATOM     74  C   UNL     1     -23.736  -7.117  11.107  1.00  0.00     0.134 A 
ATOM     75  C   UNL     1     -24.363  -7.233   8.799  1.00  0.00     0.134 A 
ATOM     76  F   UNL     1     -23.019  -6.591  12.111  1.00  0.00    -0.206 F 
ATOM     77  C   UNL     1     -24.586  -8.185  11.399  1.00  0.00     0.040 A 
ATOM     78  C   UNL     1     -25.236  -8.285   9.083  1.00  0.00     0.040 A 
ATOM     79  F   UNL     1     -24.280  -6.811   7.528  1.00  0.00    -0.206 F 
ATOM     80  C   UNL     1     -25.344  -8.768  10.386  1.00  0.00     0.006 A 
ENDBRANCH  59  73
BRANCH  60  81
ATOM     81  C   UNL     1     -17.128   0.571   7.365  1.00  0.00     0.057 A 
ATOM     82  C   UNL     1     -16.948   1.712   8.155  1.00  0.00     0.134 A 
ATOM     83  C   UNL     1     -16.377   0.475   6.188  1.00  0.00     0.134 A 
ATOM     84  F   UNL     1     -17.653   1.868   9.285  1.00  0.00    -0.206 F 
ATOM     85  C   UNL     1     -16.069   2.730   7.780  1.00  0.00     0.040 A 
ATOM     86  C   UNL     1     -15.477   1.474   5.812  1.00  0.00     0.040 A 
ATOM     87  F   UNL     1     -16.499  -0.598   5.392  1.00  0.00    -0.206 F 
ATOM     88  C   UNL     1     -15.327   2.609   6.607  1.00  0.00     0.006 A 
ENDBRANCH  60  81
BRANCH  72  89
ATOM     89  C   UNL     1     -24.071   0.265   7.738  1.00  0.00     0.057 A 
ATOM     90  C   UNL     1     -24.409   0.656   6.436  1.00  0.00     0.134 A 
ATOM     91  C   UNL     1     -24.803   0.823   8.794  1.00  0.00     0.134 A 
ATOM     92  F   UNL     1     -23.736   0.167   5.383  1.00  0.00    -0.206 F 
ATOM     93  C   UNL     1     -25.424   1.583   6.195  1.00  0.00     0.040 A 
ATOM     94  C   UNL     1     -25.836   1.732   8.564  1.00  0.00     0.040 A 
ATOM     95  F   UNL     1     -24.534   0.483  10.063  1.00  0.00    -0.206 F 
ATOM     96  C   UNL     1     -26.146   2.118   7.261  1.00  0.00     0.006 A 
ENDBRANCH  72  89
ENDBRANCH  46  47
ENDBRANCH  38  41
ENDBRANCH  36  37
ENDBRANCH  35  36
ENDBRANCH  34  35
ENDBRANCH  33  34
ENDBRANCH  31  33
ENDBRANCH  27  29
ENDBRANCH   4  27
TORSDOF 22
