REMARK SMILES C[C@H]1[C@H](C(=O)NCCCCNC(=O)c2ccc(-c3c4nc(c(-c5c(F)cccc5F)c5ccc([nH]5)c(-c5c(F)cccc5F)c5nc(c(-c6c(F)cccc6F)c6ccc3[nH]6)C=C5)C=C4)cc2)CC[N@@H+]1Cc1nnnn1-c1ccccc1
REMARK SMILES IDX 8 1 7 2 6 3 4 4 5 5 3 7 1 8 2 9 70 10 68 11 69 12 71 14
REMARK SMILES IDX 72 15 73 16 76 17 74 18 75 19 77 20 78 21 82 22 79 23 81 24
REMARK SMILES IDX 80 25 9 26 10 27 11 28 12 29 13 31 14 32 15 33 67 34 16 35
REMARK SMILES IDX 66 36 17 37 18 38 19 39 60 40 20 41 65 42 59 43 61 44 21 45
REMARK SMILES IDX 64 46 58 47 57 48 22 50 48 51 31 52 47 53 32 54 35 55 46 56
REMARK SMILES IDX 62 57 33 58 34 59 45 61 63 62 36 63 23 64 24 65 29 66 25 67
REMARK SMILES IDX 26 68 28 69 30 70 27 71 49 72 50 73 55 74 51 75 52 76 54 77
REMARK SMILES IDX 56 78 53 79 37 80 38 81 43 82 39 83 40 84 42 85 44 86 41 87
REMARK H PARENT 6 6 70 13 11 30 61 49 35 60
REMARK Flexibility Score: inf
ROOT
ATOM      1  C   UNL     1       0.693   0.758   4.134  1.00  0.00     0.023 C 
ENDROOT
BRANCH   1   2
ATOM      2  C   UNL     1      -0.252   1.552   3.226  1.00  0.00     0.116 C 
BRANCH   2   3
ATOM      3  N   UNL     1       0.444   2.496   2.384  1.00  0.00    -0.356 N 
ATOM      4  C   UNL     1       0.724   2.444   1.057  1.00  0.00     0.229 C 
ATOM      5  O   UNL     1       1.229   3.457   0.560  1.00  0.00    -0.275 OA
ATOM      6  H   UNL     1       0.766   3.305   2.845  1.00  0.00     0.163 HD
BRANCH   4   7
ATOM      7  C   UNL     1       0.409   1.249   0.162  1.00  0.00     0.142 C 
ATOM      8  C   UNL     1       2.135  -0.567  -0.049  1.00  0.00     0.076 C 
ATOM      9  C   UNL     1       0.823  -0.160   0.636  1.00  0.00     0.194 C 
ATOM     10  N   UNL     1      -0.240  -1.075   0.170  1.00  0.00    -0.326 N 
ATOM     11  C   UNL     1      -1.047   1.098  -0.252  1.00  0.00     0.081 C 
ATOM     12  C   UNL     1      -1.067  -0.331  -0.771  1.00  0.00     0.263 C 
ATOM     13  H   UNL     1       0.196  -1.856  -0.319  1.00  0.00     0.348 HD
BRANCH  10  14
ATOM     14  C   UNL     1      -0.906  -1.949   1.154  1.00  0.00     0.343 C 
BRANCH  14  15
ATOM     15  C   UNL     1      -1.924  -1.377   2.095  1.00  0.00     0.210 A 
ATOM     16  N   UNL     1      -1.761  -1.160   3.390  1.00  0.00    -0.107 NA
ATOM     17  N   UNL     1      -3.192  -0.923   1.769  1.00  0.00    -0.192 N 
ATOM     18  N   UNL     1      -2.820  -0.386   3.790  1.00  0.00    -0.023 NA
ATOM     19  N   UNL     1      -3.632  -0.137   2.777  1.00  0.00    -0.040 NA
BRANCH  17  20
ATOM     20  C   UNL     1      -3.988  -1.170   0.641  1.00  0.00     0.069 A 
ATOM     21  C   UNL     1      -4.671  -0.106   0.038  1.00  0.00     0.028 A 
ATOM     22  C   UNL     1      -4.059  -2.462   0.112  1.00  0.00     0.028 A 
ATOM     23  C   UNL     1      -5.359  -0.331  -1.153  1.00  0.00     0.002 A 
ATOM     24  C   UNL     1      -4.790  -2.683  -1.053  1.00  0.00     0.002 A 
ATOM     25  C   UNL     1      -5.419  -1.617  -1.695  1.00  0.00     0.000 A 
ENDBRANCH  17  20
ENDBRANCH  14  15
ENDBRANCH  10  14
ENDBRANCH   4   7
ENDBRANCH   2   3
ENDBRANCH   1   2
BRANCH   1  26
ATOM     26  C   UNL     1       0.658   1.159   5.607  1.00  0.00     0.023 C 
BRANCH  26  27
ATOM     27  C   UNL     1      -0.700   1.067   6.300  1.00  0.00     0.116 C 
BRANCH  27  28
ATOM     28  N   UNL     1      -1.269  -0.270   6.370  1.00  0.00    -0.352 N 
ATOM     29  C   UNL     1      -2.091  -0.791   7.351  1.00  0.00     0.251 C 
ATOM     30  H   UNL     1      -1.041  -0.876   5.628  1.00  0.00     0.163 HD
ATOM     31  O   UNL     1      -2.480  -1.946   7.315  1.00  0.00    -0.269 OA
BRANCH  29  32
ATOM     32  C   UNL     1      -2.456   0.076   8.497  1.00  0.00     0.039 A 
ATOM     33  C   UNL     1      -2.182  -0.368   9.792  1.00  0.00     0.014 A 
ATOM     34  C   UNL     1      -2.974   1.356   8.283  1.00  0.00     0.014 A 
ATOM     35  C   UNL     1      -2.315   0.516  10.864  1.00  0.00     0.010 A 
ATOM     36  C   UNL     1      -3.036   2.258   9.341  1.00  0.00     0.010 A 
ATOM     37  C   UNL     1      -2.681   1.855  10.638  1.00  0.00    -0.014 A 
BRANCH  37  38
ATOM     38  C   UNL     1      -2.629   2.860  11.730  1.00  0.00     0.031 A 
ATOM     39  C   UNL     1      -3.877   3.554  12.191  1.00  0.00     0.074 A 
ATOM     40  C   UNL     1      -1.434   3.211  12.246  1.00  0.00     0.049 A 
ATOM     41  N   UNL     1      -4.013   4.501  13.085  1.00  0.00    -0.248 NA
ATOM     42  C   UNL     1      -5.136   3.151  11.546  1.00  0.00     0.031 C 
ATOM     43  C   UNL     1      -0.139   2.661  11.838  1.00  0.00     0.029 A 
ATOM     44  N   UNL     1      -1.111   4.124  13.220  1.00  0.00    -0.354 N 
ATOM     45  C   UNL     1      -5.365   4.815  13.100  1.00  0.00     0.074 A 
ATOM     46  C   UNL     1      -6.000   3.993  12.092  1.00  0.00     0.031 C 
ATOM     47  C   UNL     1       0.832   3.228  12.571  1.00  0.00     0.029 A 
ATOM     48  C   UNL     1       0.236   4.205  13.477  1.00  0.00     0.049 A 
ATOM     49  H   UNL     1      -1.783   4.670  13.690  1.00  0.00     0.167 HD
ATOM     50  C   UNL     1      -6.021   5.693  13.896  1.00  0.00     0.037 A 
ATOM     51  C   UNL     1       0.916   4.979  14.343  1.00  0.00     0.037 A 
ATOM     52  C   UNL     1      -5.393   6.494  14.914  1.00  0.00     0.049 A 
ATOM     53  C   UNL     1       0.163   5.936  15.223  1.00  0.00     0.074 A 
ATOM     54  C   UNL     1      -5.984   7.363  15.815  1.00  0.00     0.029 A 
ATOM     55  N   UNL     1      -4.029   6.527  15.163  1.00  0.00    -0.354 N 
ATOM     56  N   UNL     1      -1.126   6.166  15.280  1.00  0.00    -0.248 NA
ATOM     57  C   UNL     1       0.959   6.739  16.162  1.00  0.00     0.031 C 
ATOM     58  C   UNL     1      -4.974   7.947  16.587  1.00  0.00     0.029 A 
ATOM     59  C   UNL     1      -3.758   7.414  16.192  1.00  0.00     0.049 A 
ATOM     60  H   UNL     1      -3.354   5.997  14.680  1.00  0.00     0.167 HD
ATOM     61  C   UNL     1      -1.299   7.117  16.276  1.00  0.00     0.074 A 
ATOM     62  C   UNL     1       0.017   7.414  16.805  1.00  0.00     0.031 C 
ATOM     63  C   UNL     1      -2.445   7.694  16.712  1.00  0.00     0.037 A 
BRANCH  50  64
ATOM     64  C   UNL     1      -7.502   5.823  13.701  1.00  0.00     0.057 A 
ATOM     65  C   UNL     1      -8.387   4.809  14.090  1.00  0.00     0.134 A 
ATOM     66  C   UNL     1      -8.054   6.984  13.146  1.00  0.00     0.134 A 
ATOM     67  F   UNL     1      -7.921   3.666  14.617  1.00  0.00    -0.206 F 
ATOM     68  C   UNL     1      -9.765   4.933  13.909  1.00  0.00     0.040 A 
ATOM     69  C   UNL     1      -9.432   7.131  12.983  1.00  0.00     0.040 A 
ATOM     70  F   UNL     1      -7.263   7.997  12.758  1.00  0.00    -0.206 F 
ATOM     71  C   UNL     1     -10.292   6.100  13.359  1.00  0.00     0.006 A 
ENDBRANCH  50  64
BRANCH  51  72
ATOM     72  C   UNL     1       2.392   4.861  14.445  1.00  0.00     0.057 A 
ATOM     73  C   UNL     1       2.990   4.271  15.564  1.00  0.00     0.134 A 
ATOM     74  C   UNL     1       3.237   5.338  13.437  1.00  0.00     0.134 A 
ATOM     75  F   UNL     1       2.232   3.813  16.571  1.00  0.00    -0.206 F 
ATOM     76  C   UNL     1       4.377   4.176  15.687  1.00  0.00     0.040 A 
ATOM     77  C   UNL     1       4.625   5.229  13.536  1.00  0.00     0.040 A 
ATOM     78  F   UNL     1       2.724   5.908  12.336  1.00  0.00    -0.206 F 
ATOM     79  C   UNL     1       5.199   4.653  14.668  1.00  0.00     0.006 A 
ENDBRANCH  51  72
BRANCH  63  80
ATOM     80  C   UNL     1      -2.330   8.680  17.836  1.00  0.00     0.057 A 
ATOM     81  C   UNL     1      -1.814   9.966  17.639  1.00  0.00     0.134 A 
ATOM     82  C   UNL     1      -2.776   8.350  19.122  1.00  0.00     0.134 A 
ATOM     83  F   UNL     1      -1.357  10.338  16.433  1.00  0.00    -0.206 F 
ATOM     84  C   UNL     1      -1.728  10.884  18.686  1.00  0.00     0.040 A 
ATOM     85  C   UNL     1      -2.716   9.267  20.172  1.00  0.00     0.040 A 
ATOM     86  F   UNL     1      -3.287   7.135  19.375  1.00  0.00    -0.206 F 
ATOM     87  C   UNL     1      -2.186  10.537  19.956  1.00  0.00     0.006 A 
ENDBRANCH  63  80
ENDBRANCH  37  38
ENDBRANCH  29  32
ENDBRANCH  27  28
ENDBRANCH  26  27
ENDBRANCH   1  26
TORSDOF 14
