REMARK SMILES C[C@@H]1[C@H](C(=O)NCCCCNC(=O)c2ccc(-c3c4nc(c(-c5c(F)cccc5F)c5ccc([nH]5)c(-c5c(F)cccc5F)c5nc(c(-c6c(F)cccc6F)c6ccc3[nH]6)C=C5)C=C4)cc2)CCN1C(=O)COCc1ccccc1
REMARK SMILES IDX 7 1 6 2 4 3 5 4 3 6 1 7 2 8 70 9 68 10 69 11 71 12 72 13
REMARK SMILES IDX 73 14 74 15 75 16 76 17 77 18 81 19 78 20 80 21 79 22 8 23
REMARK SMILES IDX 9 24 10 25 11 26 12 27 13 29 14 30 15 31 67 32 16 33 66 34
REMARK SMILES IDX 17 35 18 36 19 37 60 38 20 39 65 40 59 41 61 42 21 43 64 44
REMARK SMILES IDX 58 45 57 46 22 48 48 49 31 50 47 51 32 52 35 53 46 54 62 55
REMARK SMILES IDX 33 56 34 57 45 59 63 60 36 61 23 62 24 63 29 64 25 65 26 66
REMARK SMILES IDX 28 67 30 68 27 69 49 70 50 71 55 72 51 73 52 74 54 75 56 76
REMARK SMILES IDX 53 77 37 78 38 79 43 80 39 81 40 82 42 83 44 84 41 85
REMARK H PARENT 6 5 11 28 61 47 35 58
REMARK Flexibility Score: inf
ROOT
ATOM      1  C   UNL     1       1.389   1.514   2.151  1.00  0.00     0.116 C 
ENDROOT
BRANCH   1   2
ATOM      2  N   UNL     1       1.303   2.447   1.042  1.00  0.00    -0.356 N 
ATOM      3  C   UNL     1       0.709   2.352  -0.176  1.00  0.00     0.225 C 
ATOM      4  O   UNL     1       0.863   3.305  -0.947  1.00  0.00    -0.275 OA
ATOM      5  H   UNL     1       1.759   3.305   1.202  1.00  0.00     0.163 HD
BRANCH   3   6
ATOM      6  C   UNL     1      -0.116   1.153  -0.621  1.00  0.00     0.102 C 
ATOM      7  C   UNL     1       2.060  -0.283  -0.454  1.00  0.00     0.032 C 
ATOM      8  C   UNL     1       0.613  -0.179  -0.913  1.00  0.00     0.094 C 
ATOM      9  N   UNL     1      -0.277  -1.212  -0.354  1.00  0.00    -0.337 N 
ATOM     10  C   UNL     1      -1.296   0.827   0.296  1.00  0.00     0.037 C 
ATOM     11  C   UNL     1      -1.538  -0.652   0.093  1.00  0.00     0.121 C 
BRANCH   9  12
ATOM     12  C   UNL     1      -0.174  -2.589  -0.450  1.00  0.00     0.248 C 
ATOM     13  O   UNL     1      -1.093  -3.327  -0.084  1.00  0.00    -0.272 OA
BRANCH  12  14
ATOM     14  C   UNL     1       1.131  -3.197  -0.976  1.00  0.00     0.260 C 
BRANCH  14  15
ATOM     15  O   UNL     1       1.596  -2.748  -2.241  1.00  0.00    -0.367 OA
BRANCH  15  16
ATOM     16  C   UNL     1       0.739  -3.096  -3.329  1.00  0.00     0.196 C 
BRANCH  16  17
ATOM     17  C   UNL     1       0.710  -4.585  -3.534  1.00  0.00    -0.022 A 
ATOM     18  C   UNL     1      -0.502  -5.284  -3.475  1.00  0.00     0.006 A 
ATOM     19  C   UNL     1       1.907  -5.297  -3.700  1.00  0.00     0.006 A 
ATOM     20  C   UNL     1      -0.513  -6.675  -3.553  1.00  0.00     0.000 A 
ATOM     21  C   UNL     1       1.894  -6.688  -3.770  1.00  0.00     0.000 A 
ATOM     22  C   UNL     1       0.684  -7.377  -3.692  1.00  0.00     0.000 A 
ENDBRANCH  16  17
ENDBRANCH  15  16
ENDBRANCH  14  15
ENDBRANCH  12  14
ENDBRANCH   9  12
ENDBRANCH   3   6
ENDBRANCH   1   2
BRANCH   1  23
ATOM     23  C   UNL     1       2.833   1.121   2.469  1.00  0.00     0.023 C 
BRANCH  23  24
ATOM     24  C   UNL     1       3.705   2.232   3.033  1.00  0.00     0.023 C 
BRANCH  24  25
ATOM     25  C   UNL     1       3.202   2.829   4.334  1.00  0.00     0.116 C 
BRANCH  25  26
ATOM     26  N   UNL     1       3.033   1.839   5.389  1.00  0.00    -0.352 N 
ATOM     27  C   UNL     1       3.497   1.869   6.683  1.00  0.00     0.251 C 
ATOM     28  H   UNL     1       2.517   1.038   5.141  1.00  0.00     0.163 HD
ATOM     29  O   UNL     1       3.381   0.895   7.412  1.00  0.00    -0.269 OA
BRANCH  27  30
ATOM     30  C   UNL     1       4.167   3.092   7.168  1.00  0.00     0.039 A 
ATOM     31  C   UNL     1       5.390   2.982   7.831  1.00  0.00     0.014 A 
ATOM     32  C   UNL     1       3.609   4.346   6.907  1.00  0.00     0.014 A 
ATOM     33  C   UNL     1       6.091   4.139   8.171  1.00  0.00     0.010 A 
ATOM     34  C   UNL     1       4.353   5.489   7.151  1.00  0.00     0.010 A 
ATOM     35  C   UNL     1       5.594   5.399   7.800  1.00  0.00    -0.014 A 
BRANCH  35  36
ATOM     36  C   UNL     1       6.326   6.648   8.114  1.00  0.00     0.031 A 
ATOM     37  C   UNL     1       5.686   7.671   9.011  1.00  0.00     0.074 A 
ATOM     38  C   UNL     1       7.515   6.898   7.534  1.00  0.00     0.049 A 
ATOM     39  N   UNL     1       6.097   8.872   9.324  1.00  0.00    -0.248 NA
ATOM     40  C   UNL     1       4.386   7.309   9.602  1.00  0.00     0.031 C 
ATOM     41  C   UNL     1       8.210   6.010   6.599  1.00  0.00     0.029 A 
ATOM     42  N   UNL     1       8.345   7.985   7.638  1.00  0.00    -0.354 N 
ATOM     43  C   UNL     1       5.095   9.416  10.117  1.00  0.00     0.074 A 
ATOM     44  C   UNL     1       4.030   8.441  10.187  1.00  0.00     0.031 C 
ATOM     45  C   UNL     1       9.374   6.575   6.239  1.00  0.00     0.029 A 
ATOM     46  C   UNL     1       9.492   7.876   6.889  1.00  0.00     0.049 A 
ATOM     47  H   UNL     1       8.139   8.769   8.196  1.00  0.00     0.167 HD
ATOM     48  C   UNL     1       5.076  10.608  10.757  1.00  0.00     0.037 A 
ATOM     49  C   UNL     1      10.520   8.733   6.747  1.00  0.00     0.037 A 
ATOM     50  C   UNL     1       6.160  11.552  10.726  1.00  0.00     0.049 A 
ATOM     51  C   UNL     1      10.494  10.036   7.497  1.00  0.00     0.074 A 
ATOM     52  C   UNL     1       6.272  12.761  11.389  1.00  0.00     0.029 A 
ATOM     53  N   UNL     1       7.327  11.383   9.995  1.00  0.00    -0.354 N 
ATOM     54  N   UNL     1       9.567  10.514   8.291  1.00  0.00    -0.248 NA
ATOM     55  C   UNL     1      11.662  10.914   7.339  1.00  0.00     0.031 C 
ATOM     56  C   UNL     1       7.498  13.337  11.038  1.00  0.00     0.029 A 
ATOM     57  C   UNL     1       8.164  12.468  10.187  1.00  0.00     0.049 A 
ATOM     58  H   UNL     1       7.529  10.607   9.425  1.00  0.00     0.167 HD
ATOM     59  C   UNL     1      10.051  11.731   8.753  1.00  0.00     0.074 A 
ATOM     60  C   UNL     1      11.359  11.913   8.156  1.00  0.00     0.031 C 
ATOM     61  C   UNL     1       9.468  12.618   9.595  1.00  0.00     0.037 A 
BRANCH  48  62
ATOM     62  C   UNL     1       3.848  10.941  11.552  1.00  0.00     0.057 A 
ATOM     63  C   UNL     1       3.529  10.263  12.737  1.00  0.00     0.134 A 
ATOM     64  C   UNL     1       2.974  11.951  11.131  1.00  0.00     0.134 A 
ATOM     65  F   UNL     1       4.314   9.272  13.185  1.00  0.00    -0.206 F 
ATOM     66  C   UNL     1       2.368  10.554  13.455  1.00  0.00     0.040 A 
ATOM     67  C   UNL     1       1.825  12.271  11.857  1.00  0.00     0.040 A 
ATOM     68  F   UNL     1       3.220  12.642  10.008  1.00  0.00    -0.206 F 
ATOM     69  C   UNL     1       1.515  11.565  13.018  1.00  0.00     0.006 A 
ENDBRANCH  48  62
BRANCH  49  70
ATOM     70  C   UNL     1      11.681   8.367   5.898  1.00  0.00     0.057 A 
ATOM     71  C   UNL     1      12.915   8.042   6.473  1.00  0.00     0.134 A 
ATOM     72  C   UNL     1      11.590   8.333   4.502  1.00  0.00     0.134 A 
ATOM     73  F   UNL     1      13.067   8.073   7.806  1.00  0.00    -0.206 F 
ATOM     74  C   UNL     1      14.024   7.715   5.691  1.00  0.00     0.040 A 
ATOM     75  C   UNL     1      12.685   7.986   3.708  1.00  0.00     0.040 A 
ATOM     76  F   UNL     1      10.433   8.625   3.891  1.00  0.00    -0.206 F 
ATOM     77  C   UNL     1      13.908   7.682   4.303  1.00  0.00     0.006 A 
ENDBRANCH  49  70
BRANCH  61  78
ATOM     78  C   UNL     1      10.259  13.839   9.957  1.00  0.00     0.057 A 
ATOM     79  C   UNL     1      10.444  14.894   9.055  1.00  0.00     0.134 A 
ATOM     80  C   UNL     1      10.803  13.977  11.240  1.00  0.00     0.134 A 
ATOM     81  F   UNL     1       9.957  14.815   7.808  1.00  0.00    -0.206 F 
ATOM     82  C   UNL     1      11.161  16.037   9.412  1.00  0.00     0.040 A 
ATOM     83  C   UNL     1      11.500  15.125  11.616  1.00  0.00     0.040 A 
ATOM     84  F   UNL     1      10.652  13.005  12.152  1.00  0.00    -0.206 F 
ATOM     85  C   UNL     1      11.686  16.157  10.697  1.00  0.00     0.006 A 
ENDBRANCH  61  78
ENDBRANCH  35  36
ENDBRANCH  27  30
ENDBRANCH  25  26
ENDBRANCH  24  25
ENDBRANCH  23  24
ENDBRANCH   1  23
TORSDOF 16
