REMARK SMILES COC(=O)C[C@H](NC(=O)N(C)C[C@@H]1CCC[N@H+]1C)C(=O)NCCCCNC(=O)c1ccc(-c2c3nc(c(-c4c(F)cccc4F)c4ccc([nH]4)c(-c4c(F)cccc4F)c4nc(c(-c5c(F)cccc5F)c5ccc2[nH]5)C=C4)C=C3)cc1
REMARK SMILES IDX 22 1 21 2 19 3 20 4 6 6 5 7 3 8 4 9 2 10 1 11 7 12 8 13 9 15
REMARK SMILES IDX 10 16 11 17 12 18 13 19 14 20 17 21 15 22 16 23 18 24 23 26
REMARK SMILES IDX 24 27 25 28 26 29 27 30 28 32 29 33 30 34 82 35 31 36 81 37
REMARK SMILES IDX 32 38 33 39 34 40 75 41 35 42 80 43 74 44 76 45 36 46 79 47
REMARK SMILES IDX 73 48 72 49 37 51 63 52 46 53 62 54 47 55 50 56 61 57 77 58
REMARK SMILES IDX 48 59 49 60 60 62 78 63 51 64 38 65 39 66 44 67 40 68 41 69
REMARK SMILES IDX 43 70 45 71 42 72 64 73 65 74 70 75 66 76 67 77 69 78 71 79
REMARK SMILES IDX 68 80 52 81 53 82 58 83 54 84 55 85 57 86 59 87 56 88
REMARK H PARENT 21 5 7 14 17 25 26 31 76 50 50 61
REMARK Flexibility Score: inf
ROOT
ATOM      1  C   UNL     1       2.543   0.198   5.345  1.00  0.00     0.116 C 
ENDROOT
BRANCH   1   2
ATOM      2  N   UNL     1       2.655   1.045   6.514  1.00  0.00    -0.354 N 
ATOM      3  C   UNL     1       2.948   2.372   6.587  1.00  0.00     0.243 C 
ATOM      4  O   UNL     1       2.628   2.969   7.621  1.00  0.00    -0.273 OA
ATOM      5  H   UNL     1       2.498   0.598   7.377  1.00  0.00     0.163 HD
BRANCH   3   6
ATOM      6  C   UNL     1       3.534   3.146   5.393  1.00  0.00     0.184 C 
BRANCH   6   7
ATOM      7  C   UNL     1       2.398   3.437   4.386  1.00  0.00     0.157 C 
BRANCH   7   8
ATOM      8  C   UNL     1       2.457   2.730   3.060  1.00  0.00     0.308 C 
ATOM      9  O   UNL     1       1.654   1.875   2.700  1.00  0.00    -0.252 OA
BRANCH   8  10
ATOM     10  O   UNL     1       3.517   3.163   2.329  1.00  0.00    -0.469 OA
ATOM     11  C   UNL     1       3.654   2.543   1.047  1.00  0.00     0.282 C 
ENDBRANCH   8  10
ENDBRANCH   7   8
ENDBRANCH   6   7
BRANCH   6  12
ATOM     12  N   UNL     1       4.746   2.524   4.855  1.00  0.00    -0.326 N 
ATOM     13  C   UNL     1       5.984   2.245   5.301  1.00  0.00     0.318 C 
ATOM     14  H   UNL     1       4.622   2.235   3.922  1.00  0.00     0.166 HD
ATOM     15  O   UNL     1       6.727   1.758   4.439  1.00  0.00    -0.249 OA
BRANCH  13  16
ATOM     16  N   UNL     1       6.402   2.406   6.593  1.00  0.00    -0.322 N 
ATOM     17  C   UNL     1       5.765   3.172   7.652  1.00  0.00     0.149 C 
BRANCH  16  18
ATOM     18  C   UNL     1       7.706   1.812   6.961  1.00  0.00     0.185 C 
BRANCH  18  19
ATOM     19  C   UNL     1       7.750   0.310   7.370  1.00  0.00     0.203 C 
ATOM     20  C   UNL     1       7.047  -0.636   6.402  1.00  0.00     0.073 C 
ATOM     21  N   UNL     1       7.161  -0.087   8.671  1.00  0.00    -0.333 N 
ATOM     22  C   UNL     1       6.720  -1.883   7.210  1.00  0.00     0.068 C 
ATOM     23  C   UNL     1       7.139  -1.558   8.630  1.00  0.00     0.262 C 
ATOM     24  C   UNL     1       7.950   0.363   9.815  1.00  0.00     0.333 C 
ATOM     25  H   UNL     1       6.241   0.337   8.793  1.00  0.00     0.348 HD
ENDBRANCH  18  19
ENDBRANCH  16  18
ENDBRANCH  13  16
ENDBRANCH   6  12
ENDBRANCH   3   6
ENDBRANCH   1   2
BRANCH   1  26
ATOM     26  C   UNL     1       3.278  -1.128   5.457  1.00  0.00     0.023 C 
BRANCH  26  27
ATOM     27  C   UNL     1       2.992  -1.931   6.719  1.00  0.00     0.023 C 
BRANCH  27  28
ATOM     28  C   UNL     1       1.524  -2.247   6.940  1.00  0.00     0.116 C 
BRANCH  28  29
ATOM     29  N   UNL     1       0.971  -3.044   5.855  1.00  0.00    -0.352 N 
ATOM     30  C   UNL     1       0.432  -4.304   5.887  1.00  0.00     0.251 C 
ATOM     31  H   UNL     1       0.986  -2.615   4.969  1.00  0.00     0.163 HD
ATOM     32  O   UNL     1       0.226  -4.913   4.840  1.00  0.00    -0.269 OA
BRANCH  30  33
ATOM     33  C   UNL     1       0.113  -4.935   7.184  1.00  0.00     0.039 A 
ATOM     34  C   UNL     1       0.385  -6.292   7.365  1.00  0.00     0.014 A 
ATOM     35  C   UNL     1      -0.461  -4.190   8.218  1.00  0.00     0.014 A 
ATOM     36  C   UNL     1       0.129  -6.888   8.601  1.00  0.00     0.010 A 
ATOM     37  C   UNL     1      -0.615  -4.756   9.476  1.00  0.00     0.010 A 
ATOM     38  C   UNL     1      -0.343  -6.117   9.676  1.00  0.00    -0.014 A 
BRANCH  38  39
ATOM     39  C   UNL     1      -0.592  -6.721  11.008  1.00  0.00     0.031 A 
ATOM     40  C   UNL     1      -1.982  -6.721  11.585  1.00  0.00     0.074 A 
ATOM     41  C   UNL     1       0.438  -7.219  11.718  1.00  0.00     0.049 A 
ATOM     42  N   UNL     1      -2.394  -7.154  12.748  1.00  0.00    -0.248 NA
ATOM     43  C   UNL     1      -3.044  -6.126  10.757  1.00  0.00     0.031 C 
ATOM     44  C   UNL     1       1.838  -7.229  11.289  1.00  0.00     0.029 A 
ATOM     45  N   UNL     1       0.467  -7.810  12.955  1.00  0.00    -0.354 N 
ATOM     46  C   UNL     1      -3.754  -6.871  12.796  1.00  0.00     0.074 A 
ATOM     47  C   UNL     1      -4.084  -6.169  11.575  1.00  0.00     0.031 C 
ATOM     48  C   UNL     1       2.583  -7.829  12.231  1.00  0.00     0.029 A 
ATOM     49  C   UNL     1       1.722  -8.208  13.347  1.00  0.00     0.049 A 
ATOM     50  H   UNL     1      -0.337  -7.937  13.510  1.00  0.00     0.167 HD
ATOM     51  C   UNL     1      -4.654  -7.192  13.755  1.00  0.00     0.037 A 
ATOM     52  C   UNL     1       2.130  -8.809  14.480  1.00  0.00     0.037 A 
ATOM     53  C   UNL     1      -4.324  -7.912  14.957  1.00  0.00     0.049 A 
ATOM     54  C   UNL     1       1.113  -9.148  15.535  1.00  0.00     0.074 A 
ATOM     55  C   UNL     1      -5.169  -8.338  15.966  1.00  0.00     0.029 A 
ATOM     56  N   UNL     1      -3.043  -8.308  15.312  1.00  0.00    -0.354 N 
ATOM     57  N   UNL     1      -0.181  -8.940  15.534  1.00  0.00    -0.248 NA
ATOM     58  C   UNL     1       1.614  -9.813  16.745  1.00  0.00     0.031 C 
ATOM     59  C   UNL     1      -4.393  -8.948  16.956  1.00  0.00     0.029 A 
ATOM     60  C   UNL     1      -3.072  -8.954  16.537  1.00  0.00     0.049 A 
ATOM     61  H   UNL     1      -2.234  -8.154  14.773  1.00  0.00     0.167 HD
ATOM     62  C   UNL     1      -0.654  -9.477  16.725  1.00  0.00     0.074 A 
ATOM     63  C   UNL     1       0.492 -10.033  17.414  1.00  0.00     0.031 C 
ATOM     64  C   UNL     1      -1.921  -9.508  17.205  1.00  0.00     0.037 A 
BRANCH  51  65
ATOM     65  C   UNL     1      -6.079  -6.769  13.538  1.00  0.00     0.057 A 
ATOM     66  C   UNL     1      -6.876  -7.338  12.534  1.00  0.00     0.134 A 
ATOM     67  C   UNL     1      -6.669  -5.798  14.355  1.00  0.00     0.134 A 
ATOM     68  F   UNL     1      -6.370  -8.265  11.707  1.00  0.00    -0.206 F 
ATOM     69  C   UNL     1      -8.197  -6.933  12.332  1.00  0.00     0.040 A 
ATOM     70  C   UNL     1      -7.999  -5.407  14.183  1.00  0.00     0.040 A 
ATOM     71  F   UNL     1      -5.967  -5.215  15.339  1.00  0.00    -0.206 F 
ATOM     72  C   UNL     1      -8.764  -5.970  13.163  1.00  0.00     0.006 A 
ENDBRANCH  51  65
BRANCH  52  73
ATOM     73  C   UNL     1       3.562  -9.157  14.665  1.00  0.00     0.057 A 
ATOM     74  C   UNL     1       3.985 -10.492  14.679  1.00  0.00     0.134 A 
ATOM     75  C   UNL     1       4.540  -8.171  14.844  1.00  0.00     0.134 A 
ATOM     76  F   UNL     1       3.094 -11.483  14.529  1.00  0.00    -0.206 F 
ATOM     77  C   UNL     1       5.321 -10.835  14.888  1.00  0.00     0.040 A 
ATOM     78  C   UNL     1       5.884  -8.498  15.026  1.00  0.00     0.040 A 
ATOM     79  F   UNL     1       4.203  -6.873  14.832  1.00  0.00    -0.206 F 
ATOM     80  C   UNL     1       6.277  -9.835  15.058  1.00  0.00     0.006 A 
ENDBRANCH  52  73
BRANCH  64  81
ATOM     81  C   UNL     1      -2.141 -10.204  18.517  1.00  0.00     0.057 A 
ATOM     82  C   UNL     1      -1.691  -9.665  19.729  1.00  0.00     0.134 A 
ATOM     83  C   UNL     1      -2.841 -11.416  18.570  1.00  0.00     0.134 A 
ATOM     84  F   UNL     1      -1.004  -8.512  19.747  1.00  0.00    -0.206 F 
ATOM     85  C   UNL     1      -1.904 -10.321  20.943  1.00  0.00     0.040 A 
ATOM     86  C   UNL     1      -3.087 -12.066  19.780  1.00  0.00     0.040 A 
ATOM     87  F   UNL     1      -3.309 -11.983  17.447  1.00  0.00    -0.206 F 
ATOM     88  C   UNL     1      -2.610 -11.522  20.970  1.00  0.00     0.006 A 
ENDBRANCH  64  81
ENDBRANCH  38  39
ENDBRANCH  30  33
ENDBRANCH  28  29
ENDBRANCH  27  28
ENDBRANCH  26  27
ENDBRANCH   1  26
TORSDOF 18
