REMARK SMILES CC[C@H](C)N(CC)c1cc(C)c(N)c(C(=O)NCCCCNC(=O)c2ccc(-c3c4nc(c(-c5c(F)cccc5F)c5ccc([nH]5)c(-c5c(F)cccc5F)c5nc(c(-c6c(F)cccc6F)c6ccc3[nH]6)C=C5)C=C4)cc2)c1
REMARK SMILES IDX 19 1 18 2 17 3 15 4 16 5 14 7 8 8 9 9 79 10 10 11 11 12
REMARK SMILES IDX 12 13 5 14 3 15 4 16 2 17 1 18 6 19 7 20 13 21 20 24 21 25
REMARK SMILES IDX 22 26 23 27 24 29 25 30 26 31 78 32 27 33 77 34 28 35 29 36
REMARK SMILES IDX 30 37 71 38 31 39 76 40 70 41 72 42 32 43 75 44 69 45 68 46
REMARK SMILES IDX 33 48 59 49 42 50 58 51 43 52 46 53 57 54 73 55 44 56 45 57
REMARK SMILES IDX 56 59 74 60 47 61 34 62 35 63 40 64 36 65 37 66 39 67 41 68
REMARK SMILES IDX 38 69 60 70 61 71 66 72 62 73 63 74 65 75 67 76 64 77 48 78
REMARK SMILES IDX 49 79 54 80 50 81 51 82 53 83 55 84 52 85
REMARK H PARENT 17 6 13 22 13 23 22 28 72 47 46 58
REMARK Flexibility Score: inf
ROOT
ATOM      1  C   UNL     1      -0.839  -1.507   7.829  1.00  0.00     0.023 C 
ENDROOT
BRANCH   1   2
ATOM      2  C   UNL     1      -1.480  -2.848   7.458  1.00  0.00     0.116 C 
BRANCH   2   3
ATOM      3  N   UNL     1      -2.885  -2.675   7.164  1.00  0.00    -0.352 N 
ATOM      4  C   UNL     1      -3.591  -2.503   5.998  1.00  0.00     0.253 C 
ATOM      5  O   UNL     1      -4.815  -2.413   6.144  1.00  0.00    -0.269 OA
ATOM      6  H   UNL     1      -3.455  -2.683   7.967  1.00  0.00     0.163 HD
BRANCH   4   7
ATOM      7  C   UNL     1      -2.985  -2.467   4.617  1.00  0.00     0.065 A 
ATOM      8  C   UNL     1      -1.040  -2.181   3.126  1.00  0.00     0.038 A 
ATOM      9  C   UNL     1      -1.867  -2.467   2.043  1.00  0.00     0.031 A 
ATOM     10  C   UNL     1      -1.630  -2.166   4.396  1.00  0.00     0.042 A 
ATOM     11  C   UNL     1      -3.249  -2.668   2.197  1.00  0.00    -0.025 A 
ATOM     12  C   UNL     1      -4.097  -2.800   0.961  1.00  0.00     0.046 C 
ATOM     13  C   UNL     1      -3.815  -2.701   3.489  1.00  0.00     0.047 A 
BRANCH   8  14
ATOM     14  N   UNL     1       0.307  -1.891   2.976  1.00  0.00    -0.369 N 
BRANCH  14  15
ATOM     15  C   UNL     1       0.817  -0.739   2.203  1.00  0.00     0.078 C 
ATOM     16  C   UNL     1       0.571  -0.854   0.700  1.00  0.00     0.031 C 
BRANCH  15  17
ATOM     17  C   UNL     1       0.416   0.628   2.788  1.00  0.00     0.021 C 
ATOM     18  C   UNL     1      -1.066   0.972   2.827  1.00  0.00     0.006 C 
ENDBRANCH  15  17
ENDBRANCH  14  15
BRANCH  14  19
ATOM     19  C   UNL     1       1.276  -2.908   3.410  1.00  0.00     0.113 C 
ATOM     20  C   UNL     1       1.657  -2.742   4.874  1.00  0.00     0.027 C 
ENDBRANCH  14  19
ENDBRANCH   8  14
BRANCH  13  21
ATOM     21  N   UNL     1      -5.190  -2.886   3.619  1.00  0.00    -0.398 N 
ATOM     22  H   UNL     1      -5.743  -3.046   2.821  1.00  0.00     0.156 HD
ATOM     23  H   UNL     1      -5.608  -2.856   4.510  1.00  0.00     0.156 HD
ENDBRANCH  13  21
ENDBRANCH   4   7
ENDBRANCH   2   3
ENDBRANCH   1   2
BRANCH   1  24
ATOM     24  C   UNL     1      -1.004  -1.128   9.305  1.00  0.00     0.023 C 
BRANCH  24  25
ATOM     25  C   UNL     1      -0.306  -2.067  10.283  1.00  0.00     0.116 C 
BRANCH  25  26
ATOM     26  N   UNL     1       1.127  -2.177  10.060  1.00  0.00    -0.352 N 
ATOM     27  C   UNL     1       2.107  -2.490  10.973  1.00  0.00     0.251 C 
ATOM     28  H   UNL     1       1.434  -2.005   9.140  1.00  0.00     0.163 HD
ATOM     29  O   UNL     1       3.288  -2.456  10.662  1.00  0.00    -0.269 OA
BRANCH  27  30
ATOM     30  C   UNL     1       1.708  -2.823  12.356  1.00  0.00     0.039 A 
ATOM     31  C   UNL     1       2.305  -2.130  13.411  1.00  0.00     0.014 A 
ATOM     32  C   UNL     1       0.715  -3.774  12.602  1.00  0.00     0.014 A 
ATOM     33  C   UNL     1       1.855  -2.343  14.715  1.00  0.00     0.010 A 
ATOM     34  C   UNL     1       0.220  -3.934  13.892  1.00  0.00     0.010 A 
ATOM     35  C   UNL     1       0.784  -3.220  14.960  1.00  0.00    -0.014 A 
BRANCH  35  36
ATOM     36  C   UNL     1       0.239  -3.398  16.328  1.00  0.00     0.031 A 
ATOM     37  C   UNL     1       0.341  -4.731  17.012  1.00  0.00     0.074 A 
ATOM     38  C   UNL     1      -0.408  -2.378  16.924  1.00  0.00     0.049 A 
ATOM     39  N   UNL     1      -0.124  -5.099  18.179  1.00  0.00    -0.248 NA
ATOM     40  C   UNL     1       1.029  -5.803  16.274  1.00  0.00     0.031 C 
ATOM     41  C   UNL     1      -0.626  -1.054  16.337  1.00  0.00     0.029 A 
ATOM     42  N   UNL     1      -1.010  -2.300  18.154  1.00  0.00    -0.354 N 
ATOM     43  C   UNL     1       0.199  -6.443  18.306  1.00  0.00     0.074 A 
ATOM     44  C   UNL     1       0.852  -6.841  17.078  1.00  0.00     0.031 C 
ATOM     45  C   UNL     1      -1.294  -0.289  17.216  1.00  0.00     0.029 A 
ATOM     46  C   UNL     1      -1.576  -1.075  18.413  1.00  0.00     0.049 A 
ATOM     47  H   UNL     1      -1.035  -3.050  18.791  1.00  0.00     0.167 HD
ATOM     48  C   UNL     1      -0.008  -7.266  19.361  1.00  0.00     0.037 A 
ATOM     49  C   UNL     1      -2.247  -0.636  19.495  1.00  0.00     0.037 A 
ATOM     50  C   UNL     1      -0.628  -6.860  20.594  1.00  0.00     0.049 A 
ATOM     51  C   UNL     1      -2.442  -1.562  20.663  1.00  0.00     0.074 A 
ATOM     52  C   UNL     1      -0.821  -7.599  21.748  1.00  0.00     0.029 A 
ATOM     53  N   UNL     1      -1.157  -5.600  20.833  1.00  0.00    -0.354 N 
ATOM     54  N   UNL     1      -2.063  -2.810  20.801  1.00  0.00    -0.248 NA
ATOM     55  C   UNL     1      -3.149  -1.016  21.830  1.00  0.00     0.031 C 
ATOM     56  C   UNL     1      -1.499  -6.798  22.673  1.00  0.00     0.029 A 
ATOM     57  C   UNL     1      -1.690  -5.546  22.110  1.00  0.00     0.049 A 
ATOM     58  H   UNL     1      -1.153  -4.854  20.190  1.00  0.00     0.167 HD
ATOM     59  C   UNL     1      -2.461  -3.189  22.076  1.00  0.00     0.074 A 
ATOM     60  C   UNL     1      -3.098  -2.035  22.676  1.00  0.00     0.031 C 
ATOM     61  C   UNL     1      -2.313  -4.386  22.694  1.00  0.00     0.037 A 
BRANCH  48  62
ATOM     62  C   UNL     1       0.451  -8.688  19.227  1.00  0.00     0.057 A 
ATOM     63  C   UNL     1       1.811  -9.027  19.216  1.00  0.00     0.134 A 
ATOM     64  C   UNL     1      -0.476  -9.734  19.135  1.00  0.00     0.134 A 
ATOM     65  F   UNL     1       2.750  -8.071  19.287  1.00  0.00    -0.206 F 
ATOM     66  C   UNL     1       2.232 -10.352  19.091  1.00  0.00     0.040 A 
ATOM     67  C   UNL     1      -0.067 -11.065  19.037  1.00  0.00     0.040 A 
ATOM     68  F   UNL     1      -1.793  -9.480  19.145  1.00  0.00    -0.206 F 
ATOM     69  C   UNL     1       1.292 -11.376  19.008  1.00  0.00     0.006 A 
ENDBRANCH  48  62
BRANCH  49  70
ATOM     70  C   UNL     1      -2.754   0.757  19.539  1.00  0.00     0.057 A 
ATOM     71  C   UNL     1      -2.165   1.713  20.375  1.00  0.00     0.134 A 
ATOM     72  C   UNL     1      -3.839   1.167  18.755  1.00  0.00     0.134 A 
ATOM     73  F   UNL     1      -1.134   1.375  21.163  1.00  0.00    -0.206 F 
ATOM     74  C   UNL     1      -2.647   3.021  20.444  1.00  0.00     0.040 A 
ATOM     75  C   UNL     1      -4.317   2.478  18.797  1.00  0.00     0.040 A 
ATOM     76  F   UNL     1      -4.441   0.300  17.927  1.00  0.00    -0.206 F 
ATOM     77  C   UNL     1      -3.724   3.407  19.649  1.00  0.00     0.006 A 
ENDBRANCH  49  70
BRANCH  61  78
ATOM     78  C   UNL     1      -2.818  -4.497  24.102  1.00  0.00     0.057 A 
ATOM     79  C   UNL     1      -4.186  -4.553  24.394  1.00  0.00     0.134 A 
ATOM     80  C   UNL     1      -1.921  -4.584  25.175  1.00  0.00     0.134 A 
ATOM     81  F   UNL     1      -5.095  -4.461  23.412  1.00  0.00    -0.206 F 
ATOM     82  C   UNL     1      -4.646  -4.671  25.707  1.00  0.00     0.040 A 
ATOM     83  C   UNL     1      -2.368  -4.727  26.488  1.00  0.00     0.040 A 
ATOM     84  F   UNL     1      -0.597  -4.545  24.961  1.00  0.00    -0.206 F 
ATOM     85  C   UNL     1      -3.735  -4.765  26.758  1.00  0.00     0.006 A 
ENDBRANCH  61  78
ENDBRANCH  35  36
ENDBRANCH  27  30
ENDBRANCH  25  26
ENDBRANCH  24  25
ENDBRANCH   1  24
TORSDOF 16
