REMARK SMILES O=C(NCCCCNC(=O)[C@H]1CCc2[nH]nc(C(F)(F)F)c2C1)c1ccc(-c2c3nc(c(-c4c(F)cccc4F)c4ccc([nH]4)c(-c4c(F)cccc4F)c4nc(c(-c5c(F)cccc5F)c5ccc2[nH]5)C=C4)C=C3)cc1
REMARK SMILES IDX 5 1 4 2 3 3 1 4 2 5 24 7 25 8 77 9 26 10 76 11 27 12 28 13
REMARK SMILES IDX 29 14 70 15 30 16 75 17 69 18 71 19 31 20 74 21 68 22 67 23
REMARK SMILES IDX 32 25 58 26 41 27 57 28 42 29 45 30 56 31 72 32 43 33 44 34
REMARK SMILES IDX 55 36 73 37 46 38 33 39 34 40 39 41 35 42 36 43 38 44 40 45
REMARK SMILES IDX 37 46 59 47 60 48 65 49 61 50 62 51 64 52 66 53 63 54 47 55
REMARK SMILES IDX 48 56 53 57 49 58 50 59 52 60 54 61 51 62 6 63 7 64 8 65
REMARK SMILES IDX 9 66 10 68 11 69 12 70 23 71 13 72 22 73 14 74 17 75 15 76
REMARK SMILES IDX 16 77 18 79 19 80 20 81 21 82
REMARK H PARENT 3 6 71 24 45 35 8 67 15 78
REMARK Flexibility Score: inf
ROOT
ATOM      1  C   UNL     1      11.255   1.369   6.252  1.00  0.00     0.023 C 
ENDROOT
BRANCH   1   2
ATOM      2  C   UNL     1      11.469   0.060   7.001  1.00  0.00     0.116 C 
BRANCH   2   3
ATOM      3  N   UNL     1      11.719  -1.052   6.101  1.00  0.00    -0.352 N 
ATOM      4  O   UNL     1      12.904  -2.760   5.224  1.00  0.00    -0.269 OA
ATOM      5  C   UNL     1      12.726  -1.982   6.155  1.00  0.00     0.251 C 
ATOM      6  H   UNL     1      11.084  -1.151   5.355  1.00  0.00     0.163 HD
BRANCH   5   7
ATOM      7  C   UNL     1      13.604  -2.027   7.341  1.00  0.00     0.039 A 
ATOM      8  C   UNL     1      13.056  -2.005   8.628  1.00  0.00     0.014 A 
ATOM      9  C   UNL     1      14.986  -2.107   7.161  1.00  0.00     0.014 A 
ATOM     10  C   UNL     1      13.895  -1.966   9.734  1.00  0.00     0.010 A 
ATOM     11  C   UNL     1      15.826  -2.144   8.276  1.00  0.00     0.010 A 
ATOM     12  C   UNL     1      15.286  -2.068   9.570  1.00  0.00    -0.014 A 
BRANCH  12  13
ATOM     13  C   UNL     1      16.152  -2.220  10.763  1.00  0.00     0.031 A 
ATOM     14  C   UNL     1      17.163  -1.176  11.133  1.00  0.00     0.074 A 
ATOM     15  C   UNL     1      16.025  -3.342  11.498  1.00  0.00     0.049 A 
ATOM     16  N   UNL     1      18.031  -1.186  12.112  1.00  0.00    -0.248 NA
ATOM     17  C   UNL     1      17.217   0.032  10.295  1.00  0.00     0.031 C 
ATOM     18  C   UNL     1      15.086  -4.431  11.216  1.00  0.00     0.029 A 
ATOM     19  N   UNL     1      16.686  -3.759  12.624  1.00  0.00    -0.354 N 
ATOM     20  C   UNL     1      18.749  -0.003  11.998  1.00  0.00     0.074 A 
ATOM     21  C   UNL     1      18.224   0.699  10.846  1.00  0.00     0.031 C 
ATOM     22  C   UNL     1      15.219  -5.382  12.150  1.00  0.00     0.029 A 
ATOM     23  C   UNL     1      16.296  -5.004  13.056  1.00  0.00     0.049 A 
ATOM     24  H   UNL     1      17.373  -3.220  13.079  1.00  0.00     0.167 HD
ATOM     25  C   UNL     1      19.752   0.449  12.789  1.00  0.00     0.037 A 
ATOM     26  C   UNL     1      16.778  -5.776  14.046  1.00  0.00     0.037 A 
ATOM     27  C   UNL     1      20.249  -0.252  13.945  1.00  0.00     0.049 A 
ATOM     28  C   UNL     1      17.916  -5.261  14.878  1.00  0.00     0.074 A 
ATOM     29  C   UNL     1      21.205   0.162  14.857  1.00  0.00     0.029 A 
ATOM     30  N   UNL     1      19.842  -1.518  14.341  1.00  0.00    -0.354 N 
ATOM     31  N   UNL     1      18.535  -4.108  14.805  1.00  0.00    -0.248 NA
ATOM     32  C   UNL     1      18.430  -6.156  15.923  1.00  0.00     0.031 C 
ATOM     33  C   UNL     1      21.421  -0.877  15.767  1.00  0.00     0.029 A 
ATOM     34  C   UNL     1      20.562  -1.918  15.455  1.00  0.00     0.049 A 
ATOM     35  H   UNL     1      19.145  -2.052  13.896  1.00  0.00     0.167 HD
ATOM     36  C   UNL     1      19.502  -4.134  15.798  1.00  0.00     0.074 A 
ATOM     37  C   UNL     1      19.371  -5.406  16.478  1.00  0.00     0.031 C 
ATOM     38  C   UNL     1      20.421  -3.190  16.115  1.00  0.00     0.037 A 
BRANCH  25  39
ATOM     39  C   UNL     1      20.405   1.751  12.430  1.00  0.00     0.057 A 
ATOM     40  C   UNL     1      19.771   2.983  12.635  1.00  0.00     0.134 A 
ATOM     41  C   UNL     1      21.725   1.774  11.958  1.00  0.00     0.134 A 
ATOM     42  F   UNL     1      18.507   3.031  13.080  1.00  0.00    -0.206 F 
ATOM     43  C   UNL     1      20.423   4.190  12.374  1.00  0.00     0.040 A 
ATOM     44  C   UNL     1      22.394   2.975  11.715  1.00  0.00     0.040 A 
ATOM     45  F   UNL     1      22.393   0.630  11.748  1.00  0.00    -0.206 F 
ATOM     46  C   UNL     1      21.742   4.188  11.922  1.00  0.00     0.006 A 
ENDBRANCH  25  39
BRANCH  26  47
ATOM     47  C   UNL     1      16.216  -7.131  14.270  1.00  0.00     0.057 A 
ATOM     48  C   UNL     1      15.495  -7.437  15.429  1.00  0.00     0.134 A 
ATOM     49  C   UNL     1      16.392  -8.155  13.330  1.00  0.00     0.134 A 
ATOM     50  F   UNL     1      15.307  -6.503  16.373  1.00  0.00    -0.206 F 
ATOM     51  C   UNL     1      14.988  -8.717  15.656  1.00  0.00     0.040 A 
ATOM     52  C   UNL     1      15.864  -9.430  13.530  1.00  0.00     0.040 A 
ATOM     53  F   UNL     1      17.066  -7.923  12.194  1.00  0.00    -0.206 F 
ATOM     54  C   UNL     1      15.167  -9.716  14.701  1.00  0.00     0.006 A 
ENDBRANCH  26  47
BRANCH  38  55
ATOM     55  C   UNL     1      21.348  -3.497  17.253  1.00  0.00     0.057 A 
ATOM     56  C   UNL     1      22.387  -4.426  17.123  1.00  0.00     0.134 A 
ATOM     57  C   UNL     1      21.227  -2.826  18.476  1.00  0.00     0.134 A 
ATOM     58  F   UNL     1      22.545  -5.115  15.982  1.00  0.00    -0.206 F 
ATOM     59  C   UNL     1      23.265  -4.689  18.175  1.00  0.00     0.040 A 
ATOM     60  C   UNL     1      22.114  -3.061  19.526  1.00  0.00     0.040 A 
ATOM     61  F   UNL     1      20.255  -1.920  18.663  1.00  0.00    -0.206 F 
ATOM     62  C   UNL     1      23.134  -3.998  19.379  1.00  0.00     0.006 A 
ENDBRANCH  38  55
ENDBRANCH  12  13
ENDBRANCH   5   7
ENDBRANCH   2   3
ENDBRANCH   1   2
BRANCH   1  63
ATOM     63  C   UNL     1      10.053   1.375   5.299  1.00  0.00     0.023 C 
BRANCH  63  64
ATOM     64  C   UNL     1       8.737   0.933   5.945  1.00  0.00     0.116 C 
BRANCH  64  65
ATOM     65  N   UNL     1       8.440   1.774   7.084  1.00  0.00    -0.356 N 
ATOM     66  C   UNL     1       7.689   2.909   7.112  1.00  0.00     0.223 C 
ATOM     67  H   UNL     1       8.828   1.492   7.944  1.00  0.00     0.163 HD
ATOM     68  O   UNL     1       7.949   3.732   7.988  1.00  0.00    -0.275 OA
BRANCH  66  69
ATOM     69  C   UNL     1       6.525   3.049   6.133  1.00  0.00     0.083 C 
ATOM     70  C   UNL     1       5.360   2.130   6.594  1.00  0.00     0.020 C 
ATOM     71  C   UNL     1       6.065   4.520   6.026  1.00  0.00     0.053 C 
ATOM     72  C   UNL     1       4.770   2.530   7.968  1.00  0.00     0.057 C 
ATOM     73  C   UNL     1       5.314   4.924   7.245  1.00  0.00     0.006 A 
ATOM     74  C   UNL     1       4.729   4.009   8.089  1.00  0.00     0.039 A 
ATOM     75  C   UNL     1       5.127   6.188   7.865  1.00  0.00     0.169 A 
ATOM     76  N   UNL     1       4.250   4.718   9.145  1.00  0.00    -0.282 N 
ATOM     77  N   UNL     1       4.431   6.045   9.016  1.00  0.00    -0.171 NA
ATOM     78  H   UNL     1       3.814   4.303   9.925  1.00  0.00     0.190 HD
BRANCH  75  79
ATOM     79  C   UNL     1       5.641   7.522   7.384  1.00  0.00     0.435 C 
ATOM     80  F   UNL     1       4.683   8.488   7.387  1.00  0.00    -0.164 F 
ATOM     81  F   UNL     1       6.674   7.987   8.137  1.00  0.00    -0.164 F 
ATOM     82  F   UNL     1       6.105   7.462   6.101  1.00  0.00    -0.164 F 
ENDBRANCH  75  79
ENDBRANCH  66  69
ENDBRANCH  64  65
ENDBRANCH  63  64
ENDBRANCH   1  63
TORSDOF 12
