REMARK SMILES CCN(CCC(=O)NCCCCNC(=O)c1ccc(-c2c3nc(c(-c4c(F)cccc4F)c4ccc([nH]4)c(-c4c(F)cccc4F)c4nc(c(-c5c(F)cccc5F)c5ccc2[nH]5)C=C4)C=C3)cc1)C(=O)N(C)CCc1cccs1
REMARK SMILES IDX 6 1 7 2 8 3 5 5 4 6 3 7 2 8 1 9 70 10 71 11 72 12 73 13
REMARK SMILES IDX 74 14 75 15 76 16 77 17 80 18 78 19 79 20 9 21 10 22 11 23
REMARK SMILES IDX 12 24 13 25 14 26 15 28 16 29 17 30 69 31 18 32 68 33 19 34
REMARK SMILES IDX 20 35 21 36 62 37 22 38 67 39 61 40 63 41 23 42 66 43 60 44
REMARK SMILES IDX 59 45 24 47 50 48 33 49 49 50 34 51 37 52 48 53 64 54 35 55
REMARK SMILES IDX 36 56 47 58 65 59 38 60 25 61 26 62 31 63 27 64 28 65 30 66
REMARK SMILES IDX 32 67 29 68 51 69 52 70 57 71 53 72 54 73 56 74 58 75 55 76
REMARK SMILES IDX 39 77 40 78 45 79 41 80 42 81 44 82 46 83 43 84
REMARK H PARENT 8 4 13 27 63 46 37 57
REMARK Flexibility Score: inf
ROOT
ATOM      1  C   UNL     1       1.012   2.998  -3.339  1.00  0.00     0.221 C 
ATOM      2  O   UNL     1       1.282   3.748  -4.284  1.00  0.00    -0.275 OA
ATOM      3  N   UNL     1       1.971   2.774  -2.403  1.00  0.00    -0.356 N 
ATOM      4  H   UNL     1       2.819   3.199  -2.666  1.00  0.00     0.163 HD
ENDROOT
BRANCH   1   5
ATOM      5  C   UNL     1      -0.335   2.367  -3.262  1.00  0.00     0.121 C 
BRANCH   5   6
ATOM      6  C   UNL     1      -0.293   0.985  -3.871  1.00  0.00     0.131 C 
BRANCH   6   7
ATOM      7  N   UNL     1       0.540   0.050  -3.110  1.00  0.00    -0.324 N 
BRANCH   7   8
ATOM      8  C   UNL     1      -0.198  -0.518  -1.949  1.00  0.00     0.118 C 
ATOM      9  C   UNL     1       0.434  -1.341  -0.839  1.00  0.00     0.027 C 
ENDBRANCH   7   8
BRANCH   7  10
ATOM     10  C   UNL     1       1.891  -0.211  -3.439  1.00  0.00     0.319 C 
ATOM     11  O   UNL     1       2.509  -1.173  -2.985  1.00  0.00    -0.248 OA
BRANCH  10  12
ATOM     12  N   UNL     1       2.514   0.705  -4.355  1.00  0.00    -0.327 N 
ATOM     13  C   UNL     1       2.261   0.246  -5.723  1.00  0.00     0.148 C 
BRANCH  12  14
ATOM     14  C   UNL     1       3.962   1.155  -4.171  1.00  0.00     0.126 C 
BRANCH  14  15
ATOM     15  C   UNL     1       4.654   2.587  -3.828  1.00  0.00     0.068 C 
BRANCH  15  16
ATOM     16  C   UNL     1       4.633   3.632  -2.645  1.00  0.00     0.006 A 
ATOM     17  C   UNL     1       4.644   3.615  -1.255  1.00  0.00     0.015 A 
ATOM     18  S   UNL     1       4.564   5.330  -3.087  1.00  0.00    -0.149 S 
ATOM     19  C   UNL     1       4.481   4.859  -0.577  1.00  0.00     0.012 A 
ATOM     20  C   UNL     1       4.413   5.885  -1.473  1.00  0.00     0.065 A 
ENDBRANCH  15  16
ENDBRANCH  14  15
ENDBRANCH  12  14
ENDBRANCH  10  12
ENDBRANCH   7  10
ENDBRANCH   6   7
ENDBRANCH   5   6
ENDBRANCH   1   5
BRANCH   3  21
ATOM     21  C   UNL     1       2.114   2.083  -1.109  1.00  0.00     0.116 C 
BRANCH  21  22
ATOM     22  C   UNL     1       3.148   0.901  -0.745  1.00  0.00     0.023 C 
BRANCH  22  23
ATOM     23  C   UNL     1       4.618   0.384  -1.008  1.00  0.00     0.023 C 
BRANCH  23  24
ATOM     24  C   UNL     1       5.954   0.921  -0.468  1.00  0.00     0.116 C 
BRANCH  24  25
ATOM     25  N   UNL     1       5.887   1.419   0.887  1.00  0.00    -0.352 N 
ATOM     26  C   UNL     1       6.830   2.140   1.579  1.00  0.00     0.251 C 
ATOM     27  H   UNL     1       5.059   1.214   1.378  1.00  0.00     0.163 HD
ATOM     28  O   UNL     1       6.615   2.482   2.740  1.00  0.00    -0.269 OA
BRANCH  26  29
ATOM     29  C   UNL     1       8.149   2.409   0.968  1.00  0.00     0.039 A 
ATOM     30  C   UNL     1       9.270   1.867   1.602  1.00  0.00     0.014 A 
ATOM     31  C   UNL     1       8.298   3.145  -0.211  1.00  0.00     0.014 A 
ATOM     32  C   UNL     1      10.525   1.979   1.008  1.00  0.00     0.010 A 
ATOM     33  C   UNL     1       9.548   3.212  -0.833  1.00  0.00     0.010 A 
ATOM     34  C   UNL     1      10.667   2.607  -0.240  1.00  0.00    -0.014 A 
BRANCH  34  35
ATOM     35  C   UNL     1      11.976   2.561  -0.937  1.00  0.00     0.031 A 
ATOM     36  C   UNL     1      12.799   3.802  -1.112  1.00  0.00     0.074 A 
ATOM     37  C   UNL     1      12.415   1.378  -1.411  1.00  0.00     0.049 A 
ATOM     38  N   UNL     1      13.998   3.931  -1.622  1.00  0.00    -0.248 NA
ATOM     39  C   UNL     1      12.190   5.067  -0.676  1.00  0.00     0.031 C 
ATOM     40  C   UNL     1      11.667   0.119  -1.350  1.00  0.00     0.029 A 
ATOM     41  N   UNL     1      13.593   1.032  -2.023  1.00  0.00    -0.354 N 
ATOM     42  C   UNL     1      14.287   5.288  -1.566  1.00  0.00     0.074 A 
ATOM     43  C   UNL     1      13.118   5.947  -1.025  1.00  0.00     0.031 C 
ATOM     44  C   UNL     1      12.421  -0.868  -1.860  1.00  0.00     0.029 A 
ATOM     45  C   UNL     1      13.694  -0.311  -2.304  1.00  0.00     0.049 A 
ATOM     46  H   UNL     1      14.299   1.682  -2.240  1.00  0.00     0.167 HD
ATOM     47  C   UNL     1      15.434   5.922  -1.914  1.00  0.00     0.037 A 
ATOM     48  C   UNL     1      14.708  -1.014  -2.842  1.00  0.00     0.037 A 
ATOM     49  C   UNL     1      16.592   5.252  -2.445  1.00  0.00     0.049 A 
ATOM     50  C   UNL     1      15.979  -0.292  -3.195  1.00  0.00     0.074 A 
ATOM     51  C   UNL     1      17.818   5.789  -2.797  1.00  0.00     0.029 A 
ATOM     52  N   UNL     1      16.663   3.890  -2.702  1.00  0.00    -0.354 N 
ATOM     53  N   UNL     1      16.267   0.980  -3.064  1.00  0.00    -0.248 NA
ATOM     54  C   UNL     1      17.067  -1.102  -3.758  1.00  0.00     0.031 C 
ATOM     55  C   UNL     1      18.619   4.756  -3.298  1.00  0.00     0.029 A 
ATOM     56  C   UNL     1      17.906   3.569  -3.221  1.00  0.00     0.049 A 
ATOM     57  H   UNL     1      15.936   3.246  -2.539  1.00  0.00     0.167 HD
ATOM     58  C   UNL     1      17.575   1.122  -3.507  1.00  0.00     0.074 A 
ATOM     59  C   UNL     1      18.029  -0.200  -3.892  1.00  0.00     0.031 C 
ATOM     60  C   UNL     1      18.332   2.243  -3.592  1.00  0.00     0.037 A 
BRANCH  47  61
ATOM     61  C   UNL     1      15.477   7.412  -1.726  1.00  0.00     0.057 A 
ATOM     62  C   UNL     1      15.508   7.993  -0.451  1.00  0.00     0.134 A 
ATOM     63  C   UNL     1      15.486   8.276  -2.828  1.00  0.00     0.134 A 
ATOM     64  F   UNL     1      15.491   7.223   0.647  1.00  0.00    -0.206 F 
ATOM     65  C   UNL     1      15.507   9.378  -0.278  1.00  0.00     0.040 A 
ATOM     66  C   UNL     1      15.511   9.663  -2.668  1.00  0.00     0.040 A 
ATOM     67  F   UNL     1      15.467   7.789  -4.078  1.00  0.00    -0.206 F 
ATOM     68  C   UNL     1      15.511  10.218  -1.389  1.00  0.00     0.006 A 
ENDBRANCH  47  61
BRANCH  48  69
ATOM     69  C   UNL     1      14.580  -2.482  -3.033  1.00  0.00     0.057 A 
ATOM     70  C   UNL     1      15.316  -3.381  -2.251  1.00  0.00     0.134 A 
ATOM     71  C   UNL     1      13.717  -3.024  -3.993  1.00  0.00     0.134 A 
ATOM     72  F   UNL     1      16.172  -2.926  -1.324  1.00  0.00    -0.206 F 
ATOM     73  C   UNL     1      15.213  -4.763  -2.429  1.00  0.00     0.040 A 
ATOM     74  C   UNL     1      13.586  -4.404  -4.165  1.00  0.00     0.040 A 
ATOM     75  F   UNL     1      12.976  -2.219  -4.768  1.00  0.00    -0.206 F 
ATOM     76  C   UNL     1      14.341  -5.277  -3.385  1.00  0.00     0.006 A 
ENDBRANCH  48  69
BRANCH  60  77
ATOM     77  C   UNL     1      19.732   2.081  -4.103  1.00  0.00     0.057 A 
ATOM     78  C   UNL     1      19.997   1.848  -5.458  1.00  0.00     0.134 A 
ATOM     79  C   UNL     1      20.826   2.204  -3.238  1.00  0.00     0.134 A 
ATOM     80  F   UNL     1      18.991   1.707  -6.334  1.00  0.00    -0.206 F 
ATOM     81  C   UNL     1      21.304   1.726  -5.932  1.00  0.00     0.040 A 
ATOM     82  C   UNL     1      22.137   2.107  -3.704  1.00  0.00     0.040 A 
ATOM     83  F   UNL     1      20.637   2.433  -1.929  1.00  0.00    -0.206 F 
ATOM     84  C   UNL     1      22.378   1.863  -5.055  1.00  0.00     0.006 A 
ENDBRANCH  60  77
ENDBRANCH  34  35
ENDBRANCH  26  29
ENDBRANCH  24  25
ENDBRANCH  23  24
ENDBRANCH  22  23
ENDBRANCH  21  22
ENDBRANCH   3  21
TORSDOF 19
