REMARK SMILES CC(C)C[C@H](C(=O)NCCCCNC(=O)c1ccc(-c2c3nc(c(-c4c(F)cccc4F)c4ccc([nH]4)c(-c4c(F)cccc4F)c4nc(c(-c5c(F)cccc5F)c5ccc2[nH]5)C=C4)C=C3)cc1)[C@@H]1CCO[C@]2(CCOC2)C1
REMARK SMILES IDX 10 1 9 2 8 3 6 4 7 5 5 7 4 8 2 9 1 10 3 11 70 12 71 13 79 14
REMARK SMILES IDX 72 15 74 16 73 17 75 18 78 19 76 20 77 21 11 22 12 23 13 24
REMARK SMILES IDX 14 25 15 27 16 28 17 29 69 30 18 31 68 32 19 33 20 34 21 35
REMARK SMILES IDX 62 36 22 37 67 38 61 39 63 40 23 41 66 42 60 43 59 44 24 46
REMARK SMILES IDX 50 47 33 48 49 49 34 50 37 51 48 52 64 53 35 54 36 55 47 57
REMARK SMILES IDX 65 58 38 59 25 60 26 61 31 62 27 63 28 64 30 65 32 66 29 67
REMARK SMILES IDX 51 68 52 69 57 70 53 71 54 72 56 73 58 74 55 75 39 76 40 77
REMARK SMILES IDX 45 78 41 79 42 80 44 81 46 82 43 83
REMARK H PARENT 8 6 13 26 63 45 37 56
REMARK Flexibility Score: inf
ROOT
ATOM      1  C   UNL     1      -1.720   2.438   1.118  1.00  0.00     0.023 C 
ENDROOT
BRANCH   1   2
ATOM      2  C   UNL     1      -0.782   1.670   0.177  1.00  0.00     0.116 C 
BRANCH   2   3
ATOM      3  N   UNL     1      -0.344   0.379   0.675  1.00  0.00    -0.356 N 
ATOM      4  C   UNL     1      -0.531  -0.916   0.305  1.00  0.00     0.223 C 
ATOM      5  O   UNL     1       0.254  -1.698   0.862  1.00  0.00    -0.275 OA
ATOM      6  H   UNL     1       0.226   0.461   1.473  1.00  0.00     0.163 HD
BRANCH   4   7
ATOM      7  C   UNL     1      -1.577  -1.444  -0.718  1.00  0.00     0.082 C 
BRANCH   7   8
ATOM      8  C   UNL     1      -1.017  -2.814  -1.284  1.00  0.00     0.016 C 
BRANCH   8   9
ATOM      9  C   UNL     1      -1.103  -4.071  -0.363  1.00  0.00    -0.017 C 
ATOM     10  C   UNL     1      -2.393  -4.891  -0.515  1.00  0.00     0.007 C 
ATOM     11  C   UNL     1       0.064  -5.019  -0.674  1.00  0.00     0.007 C 
ENDBRANCH   8   9
ENDBRANCH   7   8
BRANCH   7  12
ATOM     12  C   UNL     1      -3.108  -1.640  -0.417  1.00  0.00     0.007 C 
ATOM     13  C   UNL     1      -4.025  -0.565  -0.978  1.00  0.00     0.033 C 
ATOM     14  C   UNL     1      -3.632  -2.013   0.982  1.00  0.00     0.042 C 
ATOM     15  C   UNL     1      -4.213   0.599  -0.050  1.00  0.00     0.161 C 
ATOM     16  C   UNL     1      -3.742  -0.839   1.952  1.00  0.00     0.094 C 
ATOM     17  O   UNL     1      -4.255   0.351   1.349  1.00  0.00    -0.372 OA
ATOM     18  C   UNL     1      -2.427  -0.706   2.716  1.00  0.00     0.066 C 
ATOM     19  C   UNL     1      -4.675  -1.109   3.145  1.00  0.00     0.195 C 
ATOM     20  C   UNL     1      -2.617  -1.321   4.087  1.00  0.00     0.163 C 
ATOM     21  O   UNL     1      -3.937  -1.850   4.117  1.00  0.00    -0.378 OA
ENDBRANCH   7  12
ENDBRANCH   4   7
ENDBRANCH   2   3
ENDBRANCH   1   2
BRANCH   1  22
ATOM     22  C   UNL     1      -1.264   2.807   2.521  1.00  0.00     0.023 C 
BRANCH  22  23
ATOM     23  C   UNL     1      -0.149   3.813   2.594  1.00  0.00     0.116 C 
BRANCH  23  24
ATOM     24  N   UNL     1      -0.491   5.069   1.948  1.00  0.00    -0.352 N 
ATOM     25  C   UNL     1      -0.683   6.318   2.489  1.00  0.00     0.251 C 
ATOM     26  H   UNL     1      -0.604   5.017   0.971  1.00  0.00     0.163 HD
ATOM     27  O   UNL     1      -1.174   7.210   1.812  1.00  0.00    -0.269 OA
BRANCH  25  28
ATOM     28  C   UNL     1      -0.320   6.568   3.902  1.00  0.00     0.039 A 
ATOM     29  C   UNL     1      -1.152   7.366   4.690  1.00  0.00     0.014 A 
ATOM     30  C   UNL     1       0.823   5.991   4.456  1.00  0.00     0.014 A 
ATOM     31  C   UNL     1      -0.880   7.508   6.052  1.00  0.00     0.010 A 
ATOM     32  C   UNL     1       1.014   6.019   5.829  1.00  0.00     0.010 A 
ATOM     33  C   UNL     1       0.173   6.790   6.642  1.00  0.00    -0.014 A 
BRANCH  33  34
ATOM     34  C   UNL     1       0.426   6.835   8.102  1.00  0.00     0.031 A 
ATOM     35  C   UNL     1       1.756   7.319   8.617  1.00  0.00     0.074 A 
ATOM     36  C   UNL     1      -0.507   6.368   8.954  1.00  0.00     0.049 A 
ATOM     37  N   UNL     1       2.202   7.355   9.847  1.00  0.00    -0.248 NA
ATOM     38  C   UNL     1       2.729   7.793   7.617  1.00  0.00     0.031 C 
ATOM     39  C   UNL     1      -1.807   5.810   8.568  1.00  0.00     0.029 A 
ATOM     40  N   UNL     1      -0.504   6.275  10.323  1.00  0.00    -0.354 N 
ATOM     41  C   UNL     1       3.503   7.833   9.762  1.00  0.00     0.074 A 
ATOM     42  C   UNL     1       3.801   8.016   8.360  1.00  0.00     0.031 C 
ATOM     43  C   UNL     1      -2.485   5.464   9.674  1.00  0.00     0.029 A 
ATOM     44  C   UNL     1      -1.654   5.728  10.842  1.00  0.00     0.049 A 
ATOM     45  H   UNL     1       0.251   6.572  10.881  1.00  0.00     0.167 HD
ATOM     46  C   UNL     1       4.363   8.122  10.766  1.00  0.00     0.037 A 
ATOM     47  C   UNL     1      -1.992   5.459  12.117  1.00  0.00     0.037 A 
ATOM     48  C   UNL     1       4.045   7.975  12.160  1.00  0.00     0.049 A 
ATOM     49  C   UNL     1      -1.014   5.792  13.212  1.00  0.00     0.074 A 
ATOM     50  C   UNL     1       4.814   8.316  13.258  1.00  0.00     0.029 A 
ATOM     51  N   UNL     1       2.862   7.440  12.647  1.00  0.00    -0.354 N 
ATOM     52  N   UNL     1       0.178   6.330  13.121  1.00  0.00    -0.248 NA
ATOM     53  C   UNL     1      -1.430   5.482  14.587  1.00  0.00     0.031 C 
ATOM     54  C   UNL     1       4.119   7.936  14.410  1.00  0.00     0.029 A 
ATOM     55  C   UNL     1       2.894   7.411  14.030  1.00  0.00     0.049 A 
ATOM     56  H   UNL     1       2.112   7.128  12.091  1.00  0.00     0.167 HD
ATOM     57  C   UNL     1       0.644   6.444  14.424  1.00  0.00     0.074 A 
ATOM     58  C   UNL     1      -0.406   5.944  15.288  1.00  0.00     0.031 C 
ATOM     59  C   UNL     1       1.835   6.914  14.870  1.00  0.00     0.037 A 
BRANCH  46  60
ATOM     60  C   UNL     1       5.723   8.639  10.399  1.00  0.00     0.057 A 
ATOM     61  C   UNL     1       5.909   9.920   9.862  1.00  0.00     0.134 A 
ATOM     62  C   UNL     1       6.869   7.871  10.646  1.00  0.00     0.134 A 
ATOM     63  F   UNL     1       4.853  10.702   9.588  1.00  0.00    -0.206 F 
ATOM     64  C   UNL     1       7.182  10.413   9.571  1.00  0.00     0.040 A 
ATOM     65  C   UNL     1       8.148   8.364  10.385  1.00  0.00     0.040 A 
ATOM     66  F   UNL     1       6.763   6.637  11.161  1.00  0.00    -0.206 F 
ATOM     67  C   UNL     1       8.307   9.638   9.844  1.00  0.00     0.006 A 
ENDBRANCH  46  60
BRANCH  47  68
ATOM     68  C   UNL     1      -3.307   4.845  12.437  1.00  0.00     0.057 A 
ATOM     69  C   UNL     1      -4.282   5.550  13.152  1.00  0.00     0.134 A 
ATOM     70  C   UNL     1      -3.608   3.528  12.067  1.00  0.00     0.134 A 
ATOM     71  F   UNL     1      -4.049   6.809  13.550  1.00  0.00    -0.206 F 
ATOM     72  C   UNL     1      -5.493   4.959  13.518  1.00  0.00     0.040 A 
ATOM     73  C   UNL     1      -4.828   2.935  12.399  1.00  0.00     0.040 A 
ATOM     74  F   UNL     1      -2.723   2.800  11.372  1.00  0.00    -0.206 F 
ATOM     75  C   UNL     1      -5.770   3.648  13.138  1.00  0.00     0.006 A 
ENDBRANCH  47  68
BRANCH  59  76
ATOM     76  C   UNL     1       2.053   6.931  16.354  1.00  0.00     0.057 A 
ATOM     77  C   UNL     1       2.240   5.752  17.086  1.00  0.00     0.134 A 
ATOM     78  C   UNL     1       2.115   8.144  17.052  1.00  0.00     0.134 A 
ATOM     79  F   UNL     1       2.179   4.557  16.478  1.00  0.00    -0.206 F 
ATOM     80  C   UNL     1       2.454   5.777  18.464  1.00  0.00     0.040 A 
ATOM     81  C   UNL     1       2.361   8.183  18.424  1.00  0.00     0.040 A 
ATOM     82  F   UNL     1       1.956   9.310  16.408  1.00  0.00    -0.206 F 
ATOM     83  C   UNL     1       2.523   6.997  19.135  1.00  0.00     0.006 A 
ENDBRANCH  59  76
ENDBRANCH  33  34
ENDBRANCH  25  28
ENDBRANCH  23  24
ENDBRANCH  22  23
ENDBRANCH   1  22
TORSDOF 14
