REMARK SMILES C[C@@H](O)c1ccc(F)cc1OCC(C)(C)C(=O)NCCCCNC(=O)c1ccc(-c2c3nc(c(-c4c(F)cccc4F)c4ccc([nH]4)c(-c4c(F)cccc4F)c4nc(c(-c5c(F)cccc5F)c5ccc2[nH]5)C=C4)C=C3)cc1
REMARK SMILES IDX 19 1 18 2 16 3 17 4 13 6 14 7 15 8 12 9 11 10 10 11 4 12
REMARK SMILES IDX 5 13 6 14 9 15 7 16 8 17 2 18 1 19 3 20 20 22 21 23 22 24
REMARK SMILES IDX 23 25 24 26 25 28 26 29 27 30 79 31 28 32 78 33 29 34 30 35
REMARK SMILES IDX 31 36 72 37 32 38 77 39 71 40 73 41 33 42 76 43 70 44 69 45
REMARK SMILES IDX 34 47 60 48 43 49 59 50 44 51 47 52 58 53 74 54 45 55 46 56
REMARK SMILES IDX 57 58 75 59 48 60 35 61 36 62 41 63 37 64 38 65 40 66 42 67
REMARK SMILES IDX 39 68 61 69 62 70 67 71 63 72 64 73 66 74 68 75 65 76 49 77
REMARK SMILES IDX 50 78 55 79 51 80 52 81 54 82 56 83 53 84
REMARK H PARENT 18 5 3 21 23 27 73 46 47 57
REMARK Flexibility Score: inf
ROOT
ATOM      1  C   UNL     1       2.115   1.880   3.615  1.00  0.00     0.116 C 
ENDROOT
BRANCH   1   2
ATOM      2  N   UNL     1       1.419   3.140   3.382  1.00  0.00    -0.356 N 
ATOM      3  C   UNL     1       0.801   3.608   2.244  1.00  0.00     0.229 C 
ATOM      4  O   UNL     1       0.174   4.664   2.334  1.00  0.00    -0.274 OA
ATOM      5  H   UNL     1       1.387   3.748   4.155  1.00  0.00     0.163 HD
BRANCH   3   6
ATOM      6  C   UNL     1       0.949   2.835   0.916  1.00  0.00     0.077 C 
ATOM      7  C   UNL     1       0.495   1.384   1.175  1.00  0.00     0.025 C 
ATOM      8  C   UNL     1       2.442   2.951   0.511  1.00  0.00     0.025 C 
BRANCH   6   9
ATOM      9  C   UNL     1       0.176   3.523  -0.261  1.00  0.00     0.245 C 
BRANCH   9  10
ATOM     10  O   UNL     1      -1.204   3.224  -0.369  1.00  0.00    -0.492 OA
BRANCH  10  11
ATOM     11  C   UNL     1      -1.775   2.162  -1.011  1.00  0.00     0.128 A 
ATOM     12  C   UNL     1      -1.230   1.036  -1.675  1.00  0.00     0.022 A 
ATOM     13  C   UNL     1      -2.127  -0.002  -2.046  1.00  0.00     0.013 A 
ATOM     14  C   UNL     1      -3.493   0.059  -1.775  1.00  0.00     0.040 A 
ATOM     15  C   UNL     1      -3.169   2.232  -0.814  1.00  0.00     0.086 A 
ATOM     16  C   UNL     1      -4.006   1.191  -1.178  1.00  0.00     0.126 A 
ATOM     17  F   UNL     1      -5.317   1.271  -0.919  1.00  0.00    -0.207 F 
BRANCH  12  18
ATOM     18  C   UNL     1       0.231   0.782  -2.002  1.00  0.00     0.145 C 
ATOM     19  C   UNL     1       0.757  -0.592  -1.559  1.00  0.00     0.044 C 
BRANCH  18  20
ATOM     20  O   UNL     1       0.409   0.903  -3.412  1.00  0.00    -0.389 OA
ATOM     21  H   UNL     1      -0.116   0.224  -3.863  1.00  0.00     0.211 HD
ENDBRANCH  18  20
ENDBRANCH  12  18
ENDBRANCH  10  11
ENDBRANCH   9  10
ENDBRANCH   6   9
ENDBRANCH   3   6
ENDBRANCH   1   2
BRANCH   1  22
ATOM     22  C   UNL     1       3.369   2.027   4.457  1.00  0.00     0.023 C 
BRANCH  22  23
ATOM     23  C   UNL     1       3.094   2.167   5.948  1.00  0.00     0.023 C 
BRANCH  23  24
ATOM     24  C   UNL     1       2.233   1.062   6.552  1.00  0.00     0.116 C 
BRANCH  24  25
ATOM     25  N   UNL     1       2.762  -0.277   6.327  1.00  0.00    -0.352 N 
ATOM     26  C   UNL     1       2.901  -1.306   7.233  1.00  0.00     0.251 C 
ATOM     27  H   UNL     1       3.058  -0.471   5.409  1.00  0.00     0.163 HD
ATOM     28  O   UNL     1       3.470  -2.338   6.929  1.00  0.00    -0.269 OA
BRANCH  26  29
ATOM     29  C   UNL     1       2.373  -1.111   8.599  1.00  0.00     0.039 A 
ATOM     30  C   UNL     1       3.224  -1.318   9.685  1.00  0.00     0.014 A 
ATOM     31  C   UNL     1       1.068  -0.649   8.789  1.00  0.00     0.014 A 
ATOM     32  C   UNL     1       2.783  -0.992  10.967  1.00  0.00     0.010 A 
ATOM     33  C   UNL     1       0.662  -0.247  10.055  1.00  0.00     0.010 A 
ATOM     34  C   UNL     1       1.514  -0.416  11.157  1.00  0.00    -0.014 A 
BRANCH  34  35
ATOM     35  C   UNL     1       1.065   0.010  12.504  1.00  0.00     0.031 A 
ATOM     36  C   UNL     1      -0.115  -0.658  13.150  1.00  0.00     0.074 A 
ATOM     37  C   UNL     1       1.693   1.028  13.125  1.00  0.00     0.049 A 
ATOM     38  N   UNL     1      -0.667  -0.413  14.311  1.00  0.00    -0.248 NA
ATOM     39  C   UNL     1      -0.780  -1.723  12.383  1.00  0.00     0.031 C 
ATOM     40  C   UNL     1       2.813   1.794  12.574  1.00  0.00     0.029 A 
ATOM     41  N   UNL     1       1.480   1.592  14.357  1.00  0.00    -0.354 N 
ATOM     42  C   UNL     1      -1.743  -1.284  14.407  1.00  0.00     0.074 A 
ATOM     43  C   UNL     1      -1.807  -2.021  13.165  1.00  0.00     0.031 C 
ATOM     44  C   UNL     1       3.215   2.698  13.482  1.00  0.00     0.029 A 
ATOM     45  C   UNL     1       2.363   2.599  14.663  1.00  0.00     0.049 A 
ATOM     46  H   UNL     1       0.762   1.302  14.966  1.00  0.00     0.167 HD
ATOM     47  C   UNL     1      -2.584  -1.476  15.450  1.00  0.00     0.037 A 
ATOM     48  C   UNL     1       2.478   3.352  15.773  1.00  0.00     0.037 A 
ATOM     49  C   UNL     1      -2.498  -0.764  16.697  1.00  0.00     0.049 A 
ATOM     50  C   UNL     1       1.539   3.113  16.922  1.00  0.00     0.074 A 
ATOM     51  C   UNL     1      -3.268  -0.928  17.835  1.00  0.00     0.029 A 
ATOM     52  N   UNL     1      -1.585   0.243  16.970  1.00  0.00    -0.354 N 
ATOM     53  N   UNL     1       0.564   2.242  17.023  1.00  0.00    -0.248 NA
ATOM     54  C   UNL     1       1.719   3.955  18.113  1.00  0.00     0.031 C 
ATOM     55  C   UNL     1      -2.846   0.008  18.784  1.00  0.00     0.029 A 
ATOM     56  C   UNL     1      -1.784   0.722  18.253  1.00  0.00     0.049 A 
ATOM     57  H   UNL     1      -0.899   0.569  16.344  1.00  0.00     0.167 HD
ATOM     58  C   UNL     1       0.028   2.416  18.292  1.00  0.00     0.074 A 
ATOM     59  C   UNL     1       0.797   3.464  18.931  1.00  0.00     0.031 C 
ATOM     60  C   UNL     1      -1.008   1.765  18.875  1.00  0.00     0.037 A 
BRANCH  47  61
ATOM     61  C   UNL     1      -3.655  -2.514  15.297  1.00  0.00     0.057 A 
ATOM     62  C   UNL     1      -5.004  -2.147  15.219  1.00  0.00     0.134 A 
ATOM     63  C   UNL     1      -3.356  -3.883  15.284  1.00  0.00     0.134 A 
ATOM     64  F   UNL     1      -5.360  -0.854  15.230  1.00  0.00    -0.206 F 
ATOM     65  C   UNL     1      -6.017  -3.104  15.143  1.00  0.00     0.040 A 
ATOM     66  C   UNL     1      -4.357  -4.849  15.182  1.00  0.00     0.040 A 
ATOM     67  F   UNL     1      -2.082  -4.300  15.341  1.00  0.00    -0.206 F 
ATOM     68  C   UNL     1      -5.694  -4.460  15.122  1.00  0.00     0.006 A 
ENDBRANCH  47  61
BRANCH  48  69
ATOM     69  C   UNL     1       3.557   4.367  15.866  1.00  0.00     0.057 A 
ATOM     70  C   UNL     1       3.526   5.543  15.108  1.00  0.00     0.134 A 
ATOM     71  C   UNL     1       4.661   4.167  16.702  1.00  0.00     0.134 A 
ATOM     72  F   UNL     1       2.499   5.789  14.281  1.00  0.00    -0.206 F 
ATOM     73  C   UNL     1       4.561   6.478  15.167  1.00  0.00     0.040 A 
ATOM     74  C   UNL     1       5.692   5.104  16.788  1.00  0.00     0.040 A 
ATOM     75  F   UNL     1       4.739   3.067  17.465  1.00  0.00    -0.206 F 
ATOM     76  C   UNL     1       5.647   6.261  16.013  1.00  0.00     0.006 A 
ENDBRANCH  48  69
BRANCH  60  77
ATOM     77  C   UNL     1      -1.367   2.152  20.279  1.00  0.00     0.057 A 
ATOM     78  C   UNL     1      -1.124   1.276  21.344  1.00  0.00     0.134 A 
ATOM     79  C   UNL     1      -2.018   3.358  20.566  1.00  0.00     0.134 A 
ATOM     80  F   UNL     1      -0.515   0.099  21.134  1.00  0.00    -0.206 F 
ATOM     81  C   UNL     1      -1.526   1.581  22.645  1.00  0.00     0.040 A 
ATOM     82  C   UNL     1      -2.402   3.685  21.867  1.00  0.00     0.040 A 
ATOM     83  F   UNL     1      -2.271   4.243  19.590  1.00  0.00    -0.206 F 
ATOM     84  C   UNL     1      -2.165   2.790  22.909  1.00  0.00     0.006 A 
ENDBRANCH  60  77
ENDBRANCH  34  35
ENDBRANCH  26  29
ENDBRANCH  24  25
ENDBRANCH  23  24
ENDBRANCH  22  23
ENDBRANCH   1  22
TORSDOF 16
