REMARK SMILES O=C(NCCCCNC(=O)c1cc(Cl)cc(Cl)c1NC(=S)NC(=O)c1cccc([N+](=O)[O-])c1)c1ccc(-c2c3nc(c(-c4c(F)cccc4F)c4ccc([nH]4)c(-c4c(F)cccc4F)c4nc(c(-c5c(F)cccc5F)c5ccc2[nH]5)C=C4)C=C3)cc1
REMARK SMILES IDX 7 1 6 2 5 3 4 4 3 5 1 6 2 7 34 9 35 10 87 11 36 12 86 13
REMARK SMILES IDX 37 14 38 15 39 16 80 17 40 18 85 19 79 20 81 21 41 22 84 23
REMARK SMILES IDX 78 24 77 25 42 27 68 28 51 29 67 30 52 31 55 32 66 33 82 34
REMARK SMILES IDX 53 35 54 36 65 38 83 39 56 40 43 41 44 42 49 43 45 44 46 45
REMARK SMILES IDX 48 46 50 47 47 48 69 49 70 50 75 51 71 52 72 53 74 54 76 55
REMARK SMILES IDX 73 56 57 57 58 58 63 59 59 60 60 61 62 62 64 63 61 64 8 65
REMARK SMILES IDX 9 66 10 68 11 69 12 70 18 71 13 72 16 73 14 74 15 75 17 76
REMARK SMILES IDX 19 77 20 79 21 80 22 81 23 82 24 84 25 85 26 86 33 87 27 88
REMARK SMILES IDX 29 89 28 90 30 91 31 92 32 93
REMARK H PARENT 3 8 81 26 55 37 8 67 19 78 22 83
REMARK Flexibility Score: inf
ROOT
ATOM      1  C   UNL     1       4.908  -2.941   2.378  1.00  0.00     0.116 C 
ENDROOT
BRANCH   1   2
ATOM      2  C   UNL     1       4.441  -1.691   3.114  1.00  0.00     0.023 C 
BRANCH   2   3
ATOM      3  C   UNL     1       4.781  -0.382   2.413  1.00  0.00     0.023 C 
BRANCH   3   4
ATOM      4  C   UNL     1       4.445  -0.355   0.929  1.00  0.00     0.116 C 
BRANCH   4   5
ATOM      5  N   UNL     1       3.043  -0.644   0.658  1.00  0.00    -0.352 N 
ATOM      6  O   UNL     1       0.993  -0.237  -0.221  1.00  0.00    -0.269 OA
ATOM      7  C   UNL     1       2.181   0.051  -0.155  1.00  0.00     0.251 C 
ATOM      8  H   UNL     1       2.667  -1.432   1.112  1.00  0.00     0.163 HD
BRANCH   7   9
ATOM      9  C   UNL     1       2.727   1.186  -0.916  1.00  0.00     0.039 A 
ATOM     10  C   UNL     1       3.844   0.990  -1.735  1.00  0.00     0.014 A 
ATOM     11  C   UNL     1       2.199   2.459  -0.702  1.00  0.00     0.014 A 
ATOM     12  C   UNL     1       4.521   2.094  -2.231  1.00  0.00     0.010 A 
ATOM     13  C   UNL     1       2.835   3.559  -1.271  1.00  0.00     0.010 A 
ATOM     14  C   UNL     1       4.017   3.386  -2.011  1.00  0.00    -0.014 A 
BRANCH  14  15
ATOM     15  C   UNL     1       4.701   4.554  -2.609  1.00  0.00     0.031 A 
ATOM     16  C   UNL     1       5.324   5.610  -1.745  1.00  0.00     0.074 A 
ATOM     17  C   UNL     1       4.727   4.659  -3.949  1.00  0.00     0.049 A 
ATOM     18  N   UNL     1       5.858   6.751  -2.096  1.00  0.00    -0.248 NA
ATOM     19  C   UNL     1       5.340   5.359  -0.295  1.00  0.00     0.031 C 
ATOM     20  C   UNL     1       4.156   3.683  -4.881  1.00  0.00     0.029 A 
ATOM     21  N   UNL     1       5.243   5.634  -4.760  1.00  0.00    -0.354 N 
ATOM     22  C   UNL     1       6.245   7.370  -0.915  1.00  0.00     0.074 A 
ATOM     23  C   UNL     1       5.875   6.482   0.167  1.00  0.00     0.031 C 
ATOM     24  C   UNL     1       4.366   4.101  -6.136  1.00  0.00     0.029 A 
ATOM     25  C   UNL     1       5.018   5.403  -6.094  1.00  0.00     0.049 A 
ATOM     26  H   UNL     1       5.726   6.422  -4.420  1.00  0.00     0.167 HD
ATOM     27  C   UNL     1       6.851   8.571  -0.755  1.00  0.00     0.037 A 
ATOM     28  C   UNL     1       5.271   6.174  -7.166  1.00  0.00     0.037 A 
ATOM     29  C   UNL     1       7.227   9.435  -1.846  1.00  0.00     0.049 A 
ATOM     30  C   UNL     1       5.917   7.509  -6.962  1.00  0.00     0.074 A 
ATOM     31  C   UNL     1       7.875  10.657  -1.797  1.00  0.00     0.029 A 
ATOM     32  N   UNL     1       6.983   9.166  -3.186  1.00  0.00    -0.354 N 
ATOM     33  N   UNL     1       6.287   8.081  -5.842  1.00  0.00    -0.248 NA
ATOM     34  C   UNL     1       6.175   8.309  -8.165  1.00  0.00     0.031 C 
ATOM     35  C   UNL     1       7.989  11.144  -3.104  1.00  0.00     0.029 A 
ATOM     36  C   UNL     1       7.451  10.207  -3.971  1.00  0.00     0.049 A 
ATOM     37  H   UNL     1       6.543   8.354  -3.528  1.00  0.00     0.167 HD
ATOM     38  C   UNL     1       6.841   9.300  -6.203  1.00  0.00     0.074 A 
ATOM     39  C   UNL     1       6.763   9.380  -7.649  1.00  0.00     0.031 C 
ATOM     40  C   UNL     1       7.368  10.263  -5.409  1.00  0.00     0.037 A 
BRANCH  27  41
ATOM     41  C   UNL     1       7.115   9.035   0.648  1.00  0.00     0.057 A 
ATOM     42  C   UNL     1       8.106   8.455   1.451  1.00  0.00     0.134 A 
ATOM     43  C   UNL     1       6.383  10.098   1.195  1.00  0.00     0.134 A 
ATOM     44  F   UNL     1       8.834   7.426   0.994  1.00  0.00    -0.206 F 
ATOM     45  C   UNL     1       8.342   8.898   2.754  1.00  0.00     0.040 A 
ATOM     46  C   UNL     1       6.626  10.565   2.488  1.00  0.00     0.040 A 
ATOM     47  F   UNL     1       5.423  10.703   0.479  1.00  0.00    -0.206 F 
ATOM     48  C   UNL     1       7.604   9.960   3.274  1.00  0.00     0.006 A 
ENDBRANCH  27  41
BRANCH  28  49
ATOM     49  C   UNL     1       4.889   5.685  -8.511  1.00  0.00     0.057 A 
ATOM     50  C   UNL     1       5.855   5.244  -9.419  1.00  0.00     0.134 A 
ATOM     51  C   UNL     1       3.544   5.580  -8.890  1.00  0.00     0.134 A 
ATOM     52  F   UNL     1       7.158   5.328  -9.113  1.00  0.00    -0.206 F 
ATOM     53  C   UNL     1       5.499   4.713 -10.660  1.00  0.00     0.040 A 
ATOM     54  C   UNL     1       3.173   5.030 -10.116  1.00  0.00     0.040 A 
ATOM     55  F   UNL     1       2.572   5.971  -8.053  1.00  0.00    -0.206 F 
ATOM     56  C   UNL     1       4.153   4.596 -11.006  1.00  0.00     0.006 A 
ENDBRANCH  28  49
BRANCH  40  57
ATOM     57  C   UNL     1       7.937  11.468  -6.092  1.00  0.00     0.057 A 
ATOM     58  C   UNL     1       7.118  12.465  -6.634  1.00  0.00     0.134 A 
ATOM     59  C   UNL     1       9.324  11.651  -6.169  1.00  0.00     0.134 A 
ATOM     60  F   UNL     1       5.782  12.338  -6.606  1.00  0.00    -0.206 F 
ATOM     61  C   UNL     1       7.659  13.598  -7.242  1.00  0.00     0.040 A 
ATOM     62  C   UNL     1       9.876  12.790  -6.755  1.00  0.00     0.040 A 
ATOM     63  F   UNL     1      10.161  10.733  -5.664  1.00  0.00    -0.206 F 
ATOM     64  C   UNL     1       9.042  13.766  -7.296  1.00  0.00     0.006 A 
ENDBRANCH  40  57
ENDBRANCH  14  15
ENDBRANCH   7   9
ENDBRANCH   4   5
ENDBRANCH   3   4
ENDBRANCH   2   3
ENDBRANCH   1   2
BRANCH   1  65
ATOM     65  N   UNL     1       6.353  -3.030   2.296  1.00  0.00    -0.352 N 
ATOM     66  C   UNL     1       7.157  -4.044   2.738  1.00  0.00     0.253 C 
ATOM     67  H   UNL     1       6.811  -2.269   1.871  1.00  0.00     0.163 HD
ATOM     68  O   UNL     1       8.371  -3.928   2.808  1.00  0.00    -0.269 OA
BRANCH  66  69
ATOM     69  C   UNL     1       6.518  -5.284   3.180  1.00  0.00     0.066 A 
ATOM     70  C   UNL     1       5.692  -6.324   1.963  1.00  0.00     0.036 A 
ATOM     71  C   UNL     1       6.651  -5.690   4.885  1.00  0.00     0.072 A 
ATOM     72  C   UNL     1       4.946  -7.892   2.392  1.00  0.00     0.043 A 
ATOM     73  C   UNL     1       5.804  -7.078   5.440  1.00  0.00     0.066 A 
ATOM     74  Cl  UNL     1       4.123  -8.829   1.224  1.00  0.00    -0.084 Cl
ATOM     75  C   UNL     1       4.969  -8.383   4.140  1.00  0.00     0.043 A 
ATOM     76  Cl  UNL     1       5.231  -6.248   7.218  1.00  0.00    -0.082 Cl
BRANCH  71  77
ATOM     77  N   UNL     1       7.856  -5.578   5.639  1.00  0.00    -0.330 N 
ATOM     78  H   UNL     1       8.424  -4.814   5.391  1.00  0.00     0.169 HD
BRANCH  77  79
ATOM     79  C   UNL     1       8.363  -6.364   6.662  1.00  0.00     0.177 C 
ATOM     80  S   UNL     1       9.787  -5.820   7.375  1.00  0.00    -0.040 S 
BRANCH  79  81
ATOM     81  N   UNL     1       7.838  -7.593   7.210  1.00  0.00    -0.299 N 
ATOM     82  C   UNL     1       6.882  -8.763   7.290  1.00  0.00     0.257 C 
ATOM     83  H   UNL     1       8.452  -7.770   7.959  1.00  0.00     0.172 HD
ATOM     84  O   UNL     1       6.823  -9.444   8.310  1.00  0.00    -0.269 OA
BRANCH  82  85
ATOM     85  C   UNL     1       5.974  -9.120   6.111  1.00  0.00     0.047 A 
ATOM     86  C   UNL     1       4.303  -8.478   6.254  1.00  0.00     0.014 A 
ATOM     87  C   UNL     1       7.023  -8.780   4.801  1.00  0.00     0.099 A 
ATOM     88  C   UNL     1       3.679  -7.155   5.212  1.00  0.00     0.008 A 
ATOM     89  C   UNL     1       6.587  -7.484   3.705  1.00  0.00     0.270 A 
ATOM     90  C   UNL     1       4.821  -6.519   3.948  1.00  0.00     0.085 A 
BRANCH  89  91
ATOM     91  N   UNL     1       7.798  -7.490   2.724  1.00  0.00     0.062 N 
ATOM     92  O   UNL     1       7.683  -8.135   1.673  1.00  0.00    -0.258 OA
ATOM     93  O   UNL     1       8.854  -7.013   3.156  1.00  0.00    -0.258 OA
ENDBRANCH  89  91
ENDBRANCH  82  85
ENDBRANCH  79  81
ENDBRANCH  77  79
ENDBRANCH  71  77
ENDBRANCH  66  69
ENDBRANCH   1  65
TORSDOF 16
