REMARK SMILES CC(C)(C)N(CC(=O)NCCCCNC(=O)c1ccc(-c2c3nc(c(-c4c(F)cccc4F)c4ccc([nH]4)c(-c4c(F)cccc4F)c4nc(c(-c5c(F)cccc5F)c5ccc2[nH]5)C=C4)C=C3)cc1)C(=O)N1CC[C@H](C[NH3+])C1
REMARK SMILES IDX 10 1 9 2 7 3 8 4 6 6 5 7 2 8 1 9 3 10 4 11 71 12 72 13 73 14
REMARK SMILES IDX 74 15 79 16 75 17 76 18 77 19 78 20 11 24 12 25 13 26 14 27
REMARK SMILES IDX 15 28 16 30 17 31 18 32 70 33 19 34 69 35 20 36 21 37 22 38
REMARK SMILES IDX 63 39 23 40 68 41 62 42 64 43 24 44 67 45 61 46 60 47 25 49
REMARK SMILES IDX 51 50 34 51 50 52 35 53 38 54 49 55 65 56 36 57 37 58 48 60
REMARK SMILES IDX 66 61 39 62 26 63 27 64 32 65 28 66 29 67 31 68 33 69 30 70
REMARK SMILES IDX 52 71 53 72 58 73 54 74 55 75 57 76 59 77 56 78 40 79 41 80
REMARK SMILES IDX 46 81 42 82 43 83 45 84 47 85 44 86
REMARK H PARENT 9 5 78 21 78 22 78 23 14 29 64 48 38 59
REMARK Flexibility Score: inf
ROOT
ATOM      1  C   UNL     1       3.873  -0.506   1.564  1.00  0.00     0.116 C 
ENDROOT
BRANCH   1   2
ATOM      2  N   UNL     1       4.205  -1.781   0.983  1.00  0.00    -0.355 N 
ATOM      3  C   UNL     1       3.418  -2.638   0.277  1.00  0.00     0.239 C 
ATOM      4  O   UNL     1       4.010  -3.473  -0.421  1.00  0.00    -0.273 OA
ATOM      5  H   UNL     1       5.135  -2.075   1.115  1.00  0.00     0.163 HD
BRANCH   3   6
ATOM      6  C   UNL     1       1.876  -2.555   0.220  1.00  0.00     0.221 C 
BRANCH   6   7
ATOM      7  N   UNL     1       1.088  -2.030   1.355  1.00  0.00    -0.311 N 
BRANCH   7   8
ATOM      8  C   UNL     1       0.242  -0.773   1.161  1.00  0.00     0.037 C 
ATOM      9  C   UNL     1       0.535   0.017  -0.148  1.00  0.00     0.034 C 
ATOM     10  C   UNL     1       0.420   0.239   2.321  1.00  0.00     0.034 C 
ATOM     11  C   UNL     1      -1.258  -1.151   1.060  1.00  0.00     0.034 C 
ENDBRANCH   7   8
BRANCH   7  12
ATOM     12  C   UNL     1       0.763  -2.858   2.451  1.00  0.00     0.320 C 
ATOM     13  O   UNL     1       0.006  -2.491   3.352  1.00  0.00    -0.248 OA
BRANCH  12  14
ATOM     14  N   UNL     1       1.142  -4.182   2.404  1.00  0.00    -0.324 N 
ATOM     15  C   UNL     1       2.486  -4.709   2.533  1.00  0.00     0.122 C 
ATOM     16  C   UNL     1       0.215  -5.195   2.899  1.00  0.00     0.130 C 
ATOM     17  C   UNL     1       2.299  -6.167   2.155  1.00  0.00     0.033 C 
ATOM     18  C   UNL     1       0.990  -6.525   2.871  1.00  0.00     0.065 C 
BRANCH  18  19
ATOM     19  C   UNL     1       0.188  -7.646   2.211  1.00  0.00     0.264 C 
BRANCH  19  20
ATOM     20  N   UNL     1       0.953  -8.886   2.124  1.00  0.00    -0.357 N 
ATOM     21  H   UNL     1       1.785  -8.732   1.554  1.00  0.00     0.344 HD
ATOM     22  H   UNL     1       0.377  -9.611   1.697  1.00  0.00     0.344 HD
ATOM     23  H   UNL     1       1.232  -9.180   3.060  1.00  0.00     0.344 HD
ENDBRANCH  19  20
ENDBRANCH  18  19
ENDBRANCH  12  14
ENDBRANCH   7  12
ENDBRANCH   6   7
ENDBRANCH   3   6
ENDBRANCH   1   2
BRANCH   1  24
ATOM     24  C   UNL     1       3.750  -0.517   3.083  1.00  0.00     0.023 C 
BRANCH  24  25
ATOM     25  C   UNL     1       5.065  -0.631   3.849  1.00  0.00     0.023 C 
BRANCH  25  26
ATOM     26  C   UNL     1       6.168   0.331   3.421  1.00  0.00     0.116 C 
BRANCH  26  27
ATOM     27  N   UNL     1       5.765   1.730   3.375  1.00  0.00    -0.352 N 
ATOM     28  C   UNL     1       6.499   2.852   3.693  1.00  0.00     0.251 C 
ATOM     29  H   UNL     1       4.842   1.896   3.075  1.00  0.00     0.163 HD
ATOM     30  O   UNL     1       5.995   3.962   3.634  1.00  0.00    -0.269 OA
BRANCH  28  31
ATOM     31  C   UNL     1       7.892   2.690   4.164  1.00  0.00     0.039 A 
ATOM     32  C   UNL     1       8.275   3.321   5.350  1.00  0.00     0.014 A 
ATOM     33  C   UNL     1       8.790   1.869   3.478  1.00  0.00     0.014 A 
ATOM     34  C   UNL     1       9.529   3.051   5.900  1.00  0.00     0.010 A 
ATOM     35  C   UNL     1      10.005   1.539   4.068  1.00  0.00     0.010 A 
ATOM     36  C   UNL     1      10.383   2.118   5.289  1.00  0.00    -0.014 A 
BRANCH  36  37
ATOM     37  C   UNL     1      11.666   1.716   5.920  1.00  0.00     0.031 A 
ATOM     38  C   UNL     1      12.967   1.984   5.217  1.00  0.00     0.074 A 
ATOM     39  C   UNL     1      11.652   1.034   7.082  1.00  0.00     0.049 A 
ATOM     40  N   UNL     1      14.179   1.626   5.558  1.00  0.00    -0.248 NA
ATOM     41  C   UNL     1      12.895   2.723   3.946  1.00  0.00     0.031 C 
ATOM     42  C   UNL     1      10.452   0.653   7.831  1.00  0.00     0.029 A 
ATOM     43  N   UNL     1      12.683   0.522   7.831  1.00  0.00    -0.354 N 
ATOM     44  C   UNL     1      15.005   2.071   4.535  1.00  0.00     0.074 A 
ATOM     45  C   UNL     1      14.155   2.686   3.539  1.00  0.00     0.031 C 
ATOM     46  C   UNL     1      10.816  -0.013   8.939  1.00  0.00     0.029 A 
ATOM     47  C   UNL     1      12.269  -0.138   8.963  1.00  0.00     0.049 A 
ATOM     48  H   UNL     1      13.630   0.619   7.581  1.00  0.00     0.167 HD
ATOM     49  C   UNL     1      16.354   1.996   4.445  1.00  0.00     0.037 A 
ATOM     50  C   UNL     1      12.981  -0.778   9.910  1.00  0.00     0.037 A 
ATOM     51  C   UNL     1      17.203   1.427   5.458  1.00  0.00     0.049 A 
ATOM     52  C   UNL     1      14.480  -0.816   9.801  1.00  0.00     0.074 A 
ATOM     53  C   UNL     1      18.585   1.379   5.495  1.00  0.00     0.029 A 
ATOM     54  N   UNL     1      16.748   0.813   6.614  1.00  0.00    -0.354 N 
ATOM     55  N   UNL     1      15.254  -0.319   8.866  1.00  0.00    -0.248 NA
ATOM     56  C   UNL     1      15.207  -1.496  10.883  1.00  0.00     0.031 C 
ATOM     57  C   UNL     1      18.967   0.704   6.659  1.00  0.00     0.029 A 
ATOM     58  C   UNL     1      17.823   0.368   7.364  1.00  0.00     0.049 A 
ATOM     59  H   UNL     1      15.801   0.708   6.864  1.00  0.00     0.167 HD
ATOM     60  C   UNL     1      16.555  -0.602   9.260  1.00  0.00     0.074 A 
ATOM     61  C   UNL     1      16.468  -1.300  10.526  1.00  0.00     0.031 C 
ATOM     62  C   UNL     1      17.718  -0.312   8.629  1.00  0.00     0.037 A 
BRANCH  49  63
ATOM     63  C   UNL     1      17.001   2.558   3.214  1.00  0.00     0.057 A 
ATOM     64  C   UNL     1      17.077   3.938   2.986  1.00  0.00     0.134 A 
ATOM     65  C   UNL     1      17.599   1.712   2.272  1.00  0.00     0.134 A 
ATOM     66  F   UNL     1      16.513   4.801   3.844  1.00  0.00    -0.206 F 
ATOM     67  C   UNL     1      17.710   4.456   1.855  1.00  0.00     0.040 A 
ATOM     68  C   UNL     1      18.255   2.219   1.149  1.00  0.00     0.040 A 
ATOM     69  F   UNL     1      17.565   0.380   2.433  1.00  0.00    -0.206 F 
ATOM     70  C   UNL     1      18.308   3.595   0.937  1.00  0.00     0.006 A 
ENDBRANCH  49  63
BRANCH  50  71
ATOM     71  C   UNL     1      12.293  -1.421  11.058  1.00  0.00     0.057 A 
ATOM     72  C   UNL     1      12.399  -0.892  12.351  1.00  0.00     0.134 A 
ATOM     73  C   UNL     1      11.538  -2.588  10.899  1.00  0.00     0.134 A 
ATOM     74  F   UNL     1      13.126   0.214  12.569  1.00  0.00    -0.206 F 
ATOM     75  C   UNL     1      11.802  -1.516  13.447  1.00  0.00     0.040 A 
ATOM     76  C   UNL     1      10.915  -3.209  11.983  1.00  0.00     0.040 A 
ATOM     77  F   UNL     1      11.392  -3.140   9.685  1.00  0.00    -0.206 F 
ATOM     78  C   UNL     1      11.054  -2.677  13.264  1.00  0.00     0.006 A 
ENDBRANCH  50  71
BRANCH  62  79
ATOM     79  C   UNL     1      18.989  -0.715   9.314  1.00  0.00     0.057 A 
ATOM     80  C   UNL     1      19.403  -2.051   9.375  1.00  0.00     0.134 A 
ATOM     81  C   UNL     1      19.827   0.251   9.885  1.00  0.00     0.134 A 
ATOM     82  F   UNL     1      18.637  -3.024   8.858  1.00  0.00    -0.206 F 
ATOM     83  C   UNL     1      20.597  -2.415   9.999  1.00  0.00     0.040 A 
ATOM     84  C   UNL     1      21.035  -0.098  10.489  1.00  0.00     0.040 A 
ATOM     85  F   UNL     1      19.491   1.550   9.852  1.00  0.00    -0.206 F 
ATOM     86  C   UNL     1      21.420  -1.435  10.552  1.00  0.00     0.006 A 
ENDBRANCH  62  79
ENDBRANCH  36  37
ENDBRANCH  28  31
ENDBRANCH  26  27
ENDBRANCH  25  26
ENDBRANCH  24  25
ENDBRANCH   1  24
TORSDOF 17
