REMARK SMILES O=C(NCCCCNC(=O)[C@H](c1c[nH]c2cc(F)ccc12)[NH+]1CC[NH+](CC(=O)N2CCOCC2)CC1)c1ccc(-c2c3nc(c(-c4c(F)cccc4F)c4ccc([nH]4)c(-c4c(F)cccc4F)c4nc(c(-c5c(F)cccc5F)c5ccc2[nH]5)C=C4)C=C3)cc1
REMARK SMILES IDX 6 1 5 2 4 3 3 4 1 5 2 6 37 8 38 9 90 10 39 11 89 12 40 13
REMARK SMILES IDX 41 14 42 15 83 16 43 17 88 18 82 19 84 20 44 21 87 22 81 23
REMARK SMILES IDX 80 24 45 26 71 27 54 28 70 29 55 30 58 31 69 32 85 33 56 34
REMARK SMILES IDX 57 35 68 37 86 38 59 39 46 40 47 41 52 42 48 43 49 44 51 45
REMARK SMILES IDX 53 46 50 47 72 48 73 49 78 50 74 51 75 52 77 53 79 54 76 55
REMARK SMILES IDX 60 56 61 57 66 58 62 59 63 60 65 61 67 62 64 63 7 64 8 65
REMARK SMILES IDX 9 66 10 68 11 69 22 70 23 71 36 72 24 74 35 75 25 76 26 78
REMARK SMILES IDX 27 79 28 80 29 81 30 82 34 83 31 84 33 85 32 86 12 87 13 88
REMARK SMILES IDX 21 89 14 90 15 91 20 92 16 94 19 95 17 96 18 97
REMARK H PARENT 3 7 84 25 58 36 8 67 22 73 25 77 14 93
REMARK Flexibility Score: inf
ROOT
ATOM      1  C   UNL     1       3.471  -2.272   5.733  1.00  0.00     0.023 C 
ENDROOT
BRANCH   1   2
ATOM      2  C   UNL     1       1.961  -2.330   5.748  1.00  0.00     0.023 C 
BRANCH   2   3
ATOM      3  C   UNL     1       1.397  -2.554   4.362  1.00  0.00     0.116 C 
BRANCH   3   4
ATOM      4  N   UNL     1       1.016  -3.939   4.146  1.00  0.00    -0.352 N 
ATOM      5  O   UNL     1      -0.179  -5.832   4.378  1.00  0.00    -0.269 OA
ATOM      6  C   UNL     1      -0.145  -4.601   4.456  1.00  0.00     0.251 C 
ATOM      7  H   UNL     1       1.702  -4.492   3.706  1.00  0.00     0.163 HD
BRANCH   6   8
ATOM      8  C   UNL     1      -1.351  -3.860   4.887  1.00  0.00     0.039 A 
ATOM      9  C   UNL     1      -1.643  -2.611   4.347  1.00  0.00     0.014 A 
ATOM     10  C   UNL     1      -2.251  -4.442   5.785  1.00  0.00     0.014 A 
ATOM     11  C   UNL     1      -2.697  -1.862   4.835  1.00  0.00     0.010 A 
ATOM     12  C   UNL     1      -3.432  -3.768   6.124  1.00  0.00     0.010 A 
ATOM     13  C   UNL     1      -3.663  -2.472   5.642  1.00  0.00    -0.014 A 
BRANCH  13  14
ATOM     14  C   UNL     1      -4.970  -1.783   5.782  1.00  0.00     0.031 A 
ATOM     15  C   UNL     1      -5.527  -1.405   7.118  1.00  0.00     0.074 A 
ATOM     16  C   UNL     1      -5.633  -1.470   4.647  1.00  0.00     0.049 A 
ATOM     17  N   UNL     1      -6.662  -0.814   7.390  1.00  0.00    -0.248 NA
ATOM     18  C   UNL     1      -4.724  -1.745   8.302  1.00  0.00     0.031 C 
ATOM     19  C   UNL     1      -5.188  -1.816   3.289  1.00  0.00     0.029 A 
ATOM     20  N   UNL     1      -6.787  -0.763   4.435  1.00  0.00    -0.354 N 
ATOM     21  C   UNL     1      -6.733  -0.749   8.774  1.00  0.00     0.074 A 
ATOM     22  C   UNL     1      -5.527  -1.364   9.288  1.00  0.00     0.031 C 
ATOM     23  C   UNL     1      -5.995  -1.237   2.394  1.00  0.00     0.029 A 
ATOM     24  C   UNL     1      -7.084  -0.588   3.104  1.00  0.00     0.049 A 
ATOM     25  H   UNL     1      -7.348  -0.415   5.165  1.00  0.00     0.167 HD
ATOM     26  C   UNL     1      -7.725  -0.229   9.537  1.00  0.00     0.037 A 
ATOM     27  C   UNL     1      -8.139  -0.005   2.510  1.00  0.00     0.037 A 
ATOM     28  C   UNL     1      -8.908   0.397   9.002  1.00  0.00     0.049 A 
ATOM     29  C   UNL     1      -9.216   0.560   3.381  1.00  0.00     0.074 A 
ATOM     30  C   UNL     1      -9.962   0.979   9.686  1.00  0.00     0.029 A 
ATOM     31  N   UNL     1      -9.194   0.524   7.648  1.00  0.00    -0.354 N 
ATOM     32  N   UNL     1      -9.271   0.611   4.689  1.00  0.00    -0.248 NA
ATOM     33  C   UNL     1     -10.386   1.124   2.700  1.00  0.00     0.031 C 
ATOM     34  C   UNL     1     -10.903   1.419   8.749  1.00  0.00     0.029 A 
ATOM     35  C   UNL     1     -10.416   1.156   7.478  1.00  0.00     0.049 A 
ATOM     36  H   UNL     1      -8.615   0.210   6.917  1.00  0.00     0.167 HD
ATOM     37  C   UNL     1     -10.481   1.211   4.993  1.00  0.00     0.074 A 
ATOM     38  C   UNL     1     -11.114   1.535   3.728  1.00  0.00     0.031 C 
ATOM     39  C   UNL     1     -11.026   1.461   6.208  1.00  0.00     0.037 A 
BRANCH  26  40
ATOM     40  C   UNL     1      -7.591  -0.349  11.027  1.00  0.00     0.057 A 
ATOM     41  C   UNL     1      -6.665   0.407  11.757  1.00  0.00     0.134 A 
ATOM     42  C   UNL     1      -8.425  -1.215  11.747  1.00  0.00     0.134 A 
ATOM     43  F   UNL     1      -5.827   1.246  11.130  1.00  0.00    -0.206 F 
ATOM     44  C   UNL     1      -6.560   0.291  13.146  1.00  0.00     0.040 A 
ATOM     45  C   UNL     1      -8.346  -1.322  13.136  1.00  0.00     0.040 A 
ATOM     46  F   UNL     1      -9.338  -1.966  11.111  1.00  0.00    -0.206 F 
ATOM     47  C   UNL     1      -7.407  -0.571  13.839  1.00  0.00     0.006 A 
ENDBRANCH  26  40
BRANCH  27  48
ATOM     48  C   UNL     1      -8.232   0.023   1.029  1.00  0.00     0.057 A 
ATOM     49  C   UNL     1      -8.128   1.223   0.318  1.00  0.00     0.134 A 
ATOM     50  C   UNL     1      -8.382  -1.156   0.286  1.00  0.00     0.134 A 
ATOM     51  F   UNL     1      -7.996   2.386   0.971  1.00  0.00    -0.206 F 
ATOM     52  C   UNL     1      -8.176   1.250  -1.078  1.00  0.00     0.040 A 
ATOM     53  C   UNL     1      -8.399  -1.147  -1.109  1.00  0.00     0.040 A 
ATOM     54  F   UNL     1      -8.474  -2.341   0.907  1.00  0.00    -0.206 F 
ATOM     55  C   UNL     1      -8.302   0.061  -1.795  1.00  0.00     0.006 A 
ENDBRANCH  27  48
BRANCH  39  56
ATOM     56  C   UNL     1     -12.363   2.135   6.212  1.00  0.00     0.057 A 
ATOM     57  C   UNL     1     -13.533   1.454   5.853  1.00  0.00     0.134 A 
ATOM     58  C   UNL     1     -12.481   3.479   6.587  1.00  0.00     0.134 A 
ATOM     59  F   UNL     1     -13.480   0.171   5.463  1.00  0.00    -0.206 F 
ATOM     60  C   UNL     1     -14.772   2.094   5.843  1.00  0.00     0.040 A 
ATOM     61  C   UNL     1     -13.718   4.122   6.607  1.00  0.00     0.040 A 
ATOM     62  F   UNL     1     -11.397   4.184   6.944  1.00  0.00    -0.206 F 
ATOM     63  C   UNL     1     -14.867   3.430   6.227  1.00  0.00     0.006 A 
ENDBRANCH  39  56
ENDBRANCH  13  14
ENDBRANCH   6   8
ENDBRANCH   3   4
ENDBRANCH   2   3
ENDBRANCH   1   2
BRANCH   1  64
ATOM     64  C   UNL     1       4.103  -1.136   4.945  1.00  0.00     0.116 C 
BRANCH  64  65
ATOM     65  N   UNL     1       4.453  -0.017   5.787  1.00  0.00    -0.351 N 
ATOM     66  C   UNL     1       5.620   0.341   6.387  1.00  0.00     0.283 C 
ATOM     67  H   UNL     1       3.708   0.603   5.960  1.00  0.00     0.163 HD
ATOM     68  O   UNL     1       5.557   1.390   7.050  1.00  0.00    -0.268 OA
BRANCH  66  69
ATOM     69  C   UNL     1       6.963  -0.424   6.310  1.00  0.00     0.308 C 
BRANCH  69  70
ATOM     70  N   UNL     1       7.110  -1.627   7.165  1.00  0.00    -0.312 N 
ATOM     71  C   UNL     1       6.536  -2.915   6.774  1.00  0.00     0.325 C 
ATOM     72  C   UNL     1       7.134  -1.326   8.607  1.00  0.00     0.325 C 
ATOM     73  H   UNL     1       8.055  -1.898   6.895  1.00  0.00     0.349 HD
ATOM     74  C   UNL     1       5.554  -3.615   7.784  1.00  0.00     0.325 C 
ATOM     75  C   UNL     1       6.374  -2.297   9.537  1.00  0.00     0.325 C 
ATOM     76  N   UNL     1       5.148  -2.682   8.845  1.00  0.00    -0.318 N 
ATOM     77  H   UNL     1       4.706  -1.865   8.424  1.00  0.00     0.348 HD
BRANCH  76  78
ATOM     78  C   UNL     1       4.024  -3.086   9.696  1.00  0.00     0.364 C 
BRANCH  78  79
ATOM     79  C   UNL     1       2.728  -2.299   9.323  1.00  0.00     0.277 C 
ATOM     80  O   UNL     1       1.717  -2.926   8.986  1.00  0.00    -0.268 OA
ATOM     81  N   UNL     1       2.704  -0.903   9.404  1.00  0.00    -0.333 N 
ATOM     82  C   UNL     1       3.859  -0.086   9.758  1.00  0.00     0.148 C 
ATOM     83  C   UNL     1       1.637  -0.174   8.711  1.00  0.00     0.148 C 
ATOM     84  C   UNL     1       3.500   1.319  10.251  1.00  0.00     0.181 C 
ATOM     85  C   UNL     1       1.369   1.219   9.284  1.00  0.00     0.181 C 
ATOM     86  O   UNL     1       2.580   1.975   9.375  1.00  0.00    -0.378 OA
ENDBRANCH  78  79
ENDBRANCH  76  78
ENDBRANCH  69  70
BRANCH  69  87
ATOM     87  C   UNL     1       7.649  -0.501   4.960  1.00  0.00     0.044 A 
ATOM     88  C   UNL     1       7.132  -0.330   3.685  1.00  0.00     0.094 A 
ATOM     89  C   UNL     1       9.082  -0.539   4.789  1.00  0.00     0.009 A 
ATOM     90  N   UNL     1       8.158  -0.336   2.777  1.00  0.00    -0.361 N 
ATOM     91  C   UNL     1       9.362  -0.394   3.430  1.00  0.00     0.049 A 
ATOM     92  C   UNL     1      10.166  -0.604   5.693  1.00  0.00     0.014 A 
ATOM     93  H   UNL     1       8.046  -0.303   1.800  1.00  0.00     0.166 HD
ATOM     94  C   UNL     1      10.664  -0.297   2.928  1.00  0.00     0.065 A 
ATOM     95  C   UNL     1      11.475  -0.495   5.212  1.00  0.00     0.040 A 
ATOM     96  C   UNL     1      11.706  -0.339   3.853  1.00  0.00     0.125 A 
ATOM     97  F   UNL     1      12.966  -0.211   3.416  1.00  0.00    -0.207 F 
ENDBRANCH  69  87
ENDBRANCH  66  69
ENDBRANCH  64  65
ENDBRANCH   1  64
TORSDOF 15
