REMARK SMILES N#CCC[NH2+]C1(C(=O)NCCCCNC(=O)c2ccc(-c3c4nc(c(-c5c(F)cccc5F)c5ccc([nH]5)c(-c5c(F)cccc5F)c5nc(c(-c6c(F)cccc6F)c6ccc3[nH]6)C=C5)C=C4)cc2)CC1
REMARK SMILES IDX 10 1 9 2 7 3 8 4 6 6 71 7 72 8 5 9 4 12 3 13 2 14 1 15 11 16
REMARK SMILES IDX 12 17 13 18 14 19 15 20 16 22 17 23 18 24 70 25 19 26 69 27
REMARK SMILES IDX 20 28 21 29 22 30 63 31 23 32 68 33 62 34 64 35 24 36 67 37
REMARK SMILES IDX 61 38 60 39 25 41 51 42 34 43 50 44 35 45 38 46 49 47 65 48
REMARK SMILES IDX 36 49 37 50 48 52 66 53 39 54 26 55 27 56 32 57 28 58 29 59
REMARK SMILES IDX 31 60 33 61 30 62 52 63 53 64 58 65 54 66 55 67 57 68 59 69
REMARK SMILES IDX 56 70 40 71 41 72 46 73 42 74 43 75 45 76 47 77 44 78
REMARK H PARENT 9 5 5 10 5 11 14 21 64 40 38 51
REMARK Flexibility Score: inf
ROOT
ATOM      1  C   UNL     1       4.698   1.712   6.834  1.00  0.00     0.116 C 
ENDROOT
BRANCH   1   2
ATOM      2  N   UNL     1       4.199   0.531   6.170  1.00  0.00    -0.351 N 
ATOM      3  C   UNL     1       3.892   0.275   4.866  1.00  0.00     0.281 C 
ATOM      4  O   UNL     1       3.162  -0.699   4.659  1.00  0.00    -0.268 OA
ATOM      5  H   UNL     1       4.053  -0.233   6.773  1.00  0.00     0.163 HD
BRANCH   3   6
ATOM      6  C   UNL     1       4.397   1.089   3.675  1.00  0.00     0.176 C 
ATOM      7  C   UNL     1       5.692   1.867   3.709  1.00  0.00     0.086 C 
ATOM      8  C   UNL     1       4.373   2.599   3.700  1.00  0.00     0.086 C 
BRANCH   6   9
ATOM      9  N   UNL     1       4.104   0.332   2.435  1.00  0.00    -0.333 N 
ATOM     10  H   UNL     1       4.723  -0.480   2.429  1.00  0.00     0.347 HD
ATOM     11  H   UNL     1       3.103   0.149   2.496  1.00  0.00     0.347 HD
BRANCH   9  12
ATOM     12  C   UNL     1       4.253   0.983   1.148  1.00  0.00     0.276 C 
BRANCH  12  13
ATOM     13  C   UNL     1       3.734   0.054   0.070  1.00  0.00     0.181 C 
BRANCH  13  14
ATOM     14  C   UNL     1       2.214   0.054   0.070  1.00  0.00     0.068 C 
ATOM     15  N   UNL     1       0.953   0.054   0.070  1.00  0.00    -0.198 NA
ENDBRANCH  13  14
ENDBRANCH  12  13
ENDBRANCH   9  12
ENDBRANCH   6   9
ENDBRANCH   3   6
ENDBRANCH   1   2
BRANCH   1  16
ATOM     16  C   UNL     1       3.546   2.500   7.453  1.00  0.00     0.023 C 
BRANCH  16  17
ATOM     17  C   UNL     1       2.820   1.761   8.578  1.00  0.00     0.023 C 
BRANCH  17  18
ATOM     18  C   UNL     1       3.736   1.161   9.635  1.00  0.00     0.116 C 
BRANCH  18  19
ATOM     19  N   UNL     1       4.671   2.131  10.183  1.00  0.00    -0.352 N 
ATOM     20  C   UNL     1       5.101   2.275  11.474  1.00  0.00     0.251 C 
ATOM     21  H   UNL     1       5.046   2.772   9.537  1.00  0.00     0.163 HD
ATOM     22  O   UNL     1       5.799   3.237  11.789  1.00  0.00    -0.269 OA
BRANCH  20  23
ATOM     23  C   UNL     1       4.699   1.285  12.489  1.00  0.00     0.039 A 
ATOM     24  C   UNL     1       4.261   1.744  13.732  1.00  0.00     0.014 A 
ATOM     25  C   UNL     1       4.752  -0.085  12.217  1.00  0.00     0.014 A 
ATOM     26  C   UNL     1       3.850   0.825  14.696  1.00  0.00     0.010 A 
ATOM     27  C   UNL     1       4.257  -0.993  13.145  1.00  0.00     0.010 A 
ATOM     28  C   UNL     1       3.830  -0.549  14.404  1.00  0.00    -0.014 A 
BRANCH  28  29
ATOM     29  C   UNL     1       3.419  -1.534  15.433  1.00  0.00     0.031 A 
ATOM     30  C   UNL     1       4.414  -2.534  15.954  1.00  0.00     0.074 A 
ATOM     31  C   UNL     1       2.149  -1.541  15.880  1.00  0.00     0.049 A 
ATOM     32  N   UNL     1       4.254  -3.467  16.858  1.00  0.00    -0.248 NA
ATOM     33  C   UNL     1       5.762  -2.502  15.362  1.00  0.00     0.031 C 
ATOM     34  C   UNL     1       1.079  -0.660  15.410  1.00  0.00     0.029 A 
ATOM     35  N   UNL     1       1.546  -2.317  16.837  1.00  0.00    -0.354 N 
ATOM     36  C   UNL     1       5.470  -4.134  16.932  1.00  0.00     0.074 A 
ATOM     37  C   UNL     1       6.337  -3.548  15.934  1.00  0.00     0.031 C 
ATOM     38  C   UNL     1      -0.040  -0.919  16.105  1.00  0.00     0.029 A 
ATOM     39  C   UNL     1       0.226  -2.002  17.047  1.00  0.00     0.049 A 
ATOM     40  H   UNL     1       2.014  -3.031  17.326  1.00  0.00     0.167 HD
ATOM     41  C   UNL     1       5.845  -5.123  17.777  1.00  0.00     0.037 A 
ATOM     42  C   UNL     1      -0.665  -2.524  17.910  1.00  0.00     0.037 A 
ATOM     43  C   UNL     1       4.987  -5.686  18.786  1.00  0.00     0.049 A 
ATOM     44  C   UNL     1      -0.221  -3.613  18.848  1.00  0.00     0.074 A 
ATOM     45  C   UNL     1       5.283  -6.656  19.728  1.00  0.00     0.029 A 
ATOM     46  N   UNL     1       3.661  -5.329  18.981  1.00  0.00    -0.354 N 
ATOM     47  N   UNL     1       0.955  -4.183  18.959  1.00  0.00    -0.248 NA
ATOM     48  C   UNL     1      -1.226  -4.118  19.792  1.00  0.00     0.031 C 
ATOM     49  C   UNL     1       4.122  -6.917  20.465  1.00  0.00     0.029 A 
ATOM     50  C   UNL     1       3.120  -6.070  20.019  1.00  0.00     0.049 A 
ATOM     51  H   UNL     1       3.177  -4.649  18.460  1.00  0.00     0.167 HD
ATOM     52  C   UNL     1       0.841  -5.090  20.005  1.00  0.00     0.074 A 
ATOM     53  C   UNL     1      -0.513  -4.977  20.507  1.00  0.00     0.031 C 
ATOM     54  C   UNL     1       1.770  -5.941  20.507  1.00  0.00     0.037 A 
BRANCH  41  55
ATOM     55  C   UNL     1       7.246  -5.649  17.646  1.00  0.00     0.057 A 
ATOM     56  C   UNL     1       8.364  -4.872  17.985  1.00  0.00     0.134 A 
ATOM     57  C   UNL     1       7.482  -6.952  17.190  1.00  0.00     0.134 A 
ATOM     58  F   UNL     1       8.210  -3.610  18.413  1.00  0.00    -0.206 F 
ATOM     59  C   UNL     1       9.664  -5.361  17.845  1.00  0.00     0.040 A 
ATOM     60  C   UNL     1       8.777  -7.462  17.076  1.00  0.00     0.040 A 
ATOM     61  F   UNL     1       6.460  -7.752  16.852  1.00  0.00    -0.206 F 
ATOM     62  C   UNL     1       9.873  -6.663  17.396  1.00  0.00     0.006 A 
ENDBRANCH  41  55
BRANCH  42  63
ATOM     63  C   UNL     1      -2.053  -1.999  17.959  1.00  0.00     0.057 A 
ATOM     64  C   UNL     1      -2.513  -1.271  19.064  1.00  0.00     0.134 A 
ATOM     65  C   UNL     1      -2.957  -2.225  16.916  1.00  0.00     0.134 A 
ATOM     66  F   UNL     1      -1.698  -1.035  20.103  1.00  0.00    -0.206 F 
ATOM     67  C   UNL     1      -3.828  -0.812  19.142  1.00  0.00     0.040 A 
ATOM     68  C   UNL     1      -4.268  -1.748  16.968  1.00  0.00     0.040 A 
ATOM     69  F   UNL     1      -2.576  -2.906  15.825  1.00  0.00    -0.206 F 
ATOM     70  C   UNL     1      -4.710  -1.048  18.089  1.00  0.00     0.006 A 
ENDBRANCH  42  63
BRANCH  54  71
ATOM     71  C   UNL     1       1.361  -6.780  21.683  1.00  0.00     0.057 A 
ATOM     72  C   UNL     1       0.432  -7.822  21.567  1.00  0.00     0.134 A 
ATOM     73  C   UNL     1       1.913  -6.546  22.950  1.00  0.00     0.134 A 
ATOM     74  F   UNL     1      -0.142  -8.093  20.385  1.00  0.00    -0.206 F 
ATOM     75  C   UNL     1       0.035  -8.573  22.675  1.00  0.00     0.040 A 
ATOM     76  C   UNL     1       1.549  -7.311  24.058  1.00  0.00     0.040 A 
ATOM     77  F   UNL     1       2.818  -5.572  23.130  1.00  0.00    -0.206 F 
ATOM     78  C   UNL     1       0.598  -8.320  23.924  1.00  0.00     0.006 A 
ENDBRANCH  54  71
ENDBRANCH  28  29
ENDBRANCH  20  23
ENDBRANCH  18  19
ENDBRANCH  17  18
ENDBRANCH  16  17
ENDBRANCH   1  16
TORSDOF 15
