REMARK SMILES C[C@@H]1CCC[C@@]1(C(=O)NCCCCNC(=O)c1ccc(-c2c3nc(c(-c4c(F)cccc4F)c4ccc([nH]4)c(-c4c(F)cccc4F)c4nc(c(-c5c(F)cccc5F)c5ccc2[nH]5)C=C4)C=C3)cc1)c1ccc(Cl)cc1Cl
REMARK SMILES IDX 12 1 11 2 10 3 9 4 7 5 8 6 6 8 1 9 2 10 3 11 4 12 5 13 71 14
REMARK SMILES IDX 72 15 77 16 73 17 76 18 78 19 74 20 75 21 13 22 14 23 15 24
REMARK SMILES IDX 16 26 17 27 18 28 70 29 19 30 69 31 20 32 21 33 22 34 63 35
REMARK SMILES IDX 23 36 68 37 62 38 64 39 24 40 67 41 61 42 60 43 25 45 51 46
REMARK SMILES IDX 34 47 50 48 35 49 38 50 49 51 65 52 36 53 37 54 48 56 66 57
REMARK SMILES IDX 39 58 26 59 27 60 32 61 28 62 29 63 31 64 33 65 30 66 52 67
REMARK SMILES IDX 53 68 58 69 54 70 55 71 57 72 59 73 56 74 40 75 41 76 46 77
REMARK SMILES IDX 42 78 43 79 45 80 47 81 44 82
REMARK H PARENT 9 7 14 25 64 44 38 55
REMARK Flexibility Score: inf
ROOT
ATOM      1  C   UNL     1       4.540   1.697   2.455  1.00  0.00     0.023 C 
ENDROOT
BRANCH   1   2
ATOM      2  C   UNL     1       3.248   0.893   2.491  1.00  0.00     0.023 C 
BRANCH   2   3
ATOM      3  C   UNL     1       1.981   1.739   2.460  1.00  0.00     0.116 C 
BRANCH   3   4
ATOM      4  N   UNL     1       1.752   2.355   1.169  1.00  0.00    -0.355 N 
ATOM      5  C   UNL     1       0.752   2.131   0.258  1.00  0.00     0.230 C 
ATOM      6  O   UNL     1       0.787   2.783  -0.788  1.00  0.00    -0.274 OA
ATOM      7  H   UNL     1       2.413   3.036   0.906  1.00  0.00     0.163 HD
BRANCH   5   8
ATOM      8  C   UNL     1      -0.323   1.042   0.532  1.00  0.00     0.078 C 
ATOM      9  C   UNL     1       1.536  -0.390  -0.676  1.00  0.00     0.009 C 
ATOM     10  C   UNL     1       0.411  -0.354   0.385  1.00  0.00     0.006 C 
ATOM     11  C   UNL     1      -0.663  -1.354  -0.067  1.00  0.00     0.005 C 
ATOM     12  C   UNL     1      -1.779  -0.530  -0.692  1.00  0.00     0.002 C 
ATOM     13  C   UNL     1      -1.360   0.939  -0.612  1.00  0.00     0.022 C 
BRANCH   8  14
ATOM     14  C   UNL     1      -1.090   1.323   1.866  1.00  0.00    -0.013 A 
ATOM     15  C   UNL     1      -1.437   0.266   2.734  1.00  0.00     0.008 A 
ATOM     16  C   UNL     1      -1.411   2.631   2.319  1.00  0.00     0.046 A 
ATOM     17  C   UNL     1      -1.976   0.493   4.006  1.00  0.00     0.021 A 
ATOM     18  C   UNL     1      -1.903   2.858   3.614  1.00  0.00     0.041 A 
ATOM     19  Cl  UNL     1      -1.254   4.056   1.351  1.00  0.00    -0.084 Cl
ATOM     20  C   UNL     1      -2.171   1.789   4.455  1.00  0.00     0.042 A 
ATOM     21  Cl  UNL     1      -2.748   2.070   6.049  1.00  0.00    -0.084 Cl
ENDBRANCH   8  14
ENDBRANCH   5   8
ENDBRANCH   3   4
ENDBRANCH   2   3
ENDBRANCH   1   2
BRANCH   1  22
ATOM     22  C   UNL     1       4.629   2.797   3.504  1.00  0.00     0.116 C 
BRANCH  22  23
ATOM     23  N   UNL     1       4.359   2.326   4.857  1.00  0.00    -0.352 N 
ATOM     24  C   UNL     1       5.064   2.575   6.009  1.00  0.00     0.251 C 
ATOM     25  H   UNL     1       3.566   1.752   4.959  1.00  0.00     0.163 HD
ATOM     26  O   UNL     1       4.774   2.012   7.059  1.00  0.00    -0.269 OA
BRANCH  24  27
ATOM     27  C   UNL     1       6.204   3.505   5.947  1.00  0.00     0.039 A 
ATOM     28  C   UNL     1       7.446   3.085   6.427  1.00  0.00     0.014 A 
ATOM     29  C   UNL     1       6.056   4.750   5.330  1.00  0.00     0.014 A 
ATOM     30  C   UNL     1       8.564   3.889   6.215  1.00  0.00     0.010 A 
ATOM     31  C   UNL     1       7.184   5.504   5.041  1.00  0.00     0.010 A 
ATOM     32  C   UNL     1       8.448   5.083   5.483  1.00  0.00    -0.014 A 
BRANCH  32  33
ATOM     33  C   UNL     1       9.636   5.914   5.174  1.00  0.00     0.031 A 
ATOM     34  C   UNL     1       9.726   7.313   5.712  1.00  0.00     0.074 A 
ATOM     35  C   UNL     1      10.591   5.435   4.354  1.00  0.00     0.049 A 
ATOM     36  N   UNL     1      10.645   8.221   5.503  1.00  0.00    -0.248 NA
ATOM     37  C   UNL     1       8.620   7.766   6.572  1.00  0.00     0.031 C 
ATOM     38  C   UNL     1      10.582   4.116   3.717  1.00  0.00     0.029 A 
ATOM     39  N   UNL     1      11.755   6.010   3.909  1.00  0.00    -0.354 N 
ATOM     40  C   UNL     1      10.216   9.352   6.185  1.00  0.00     0.074 A 
ATOM     41  C   UNL     1       8.929   9.038   6.764  1.00  0.00     0.031 C 
ATOM     42  C   UNL     1      11.701   3.972   2.989  1.00  0.00     0.029 A 
ATOM     43  C   UNL     1      12.489   5.197   3.080  1.00  0.00     0.049 A 
ATOM     44  H   UNL     1      12.037   6.919   4.161  1.00  0.00     0.167 HD
ATOM     45  C   UNL     1      10.852  10.536   6.342  1.00  0.00     0.037 A 
ATOM     46  C   UNL     1      13.666   5.418   2.466  1.00  0.00     0.037 A 
ATOM     47  C   UNL     1      12.150  10.831   5.797  1.00  0.00     0.049 A 
ATOM     48  C   UNL     1      14.364   6.733   2.674  1.00  0.00     0.074 A 
ATOM     49  C   UNL     1      12.912  11.974   5.954  1.00  0.00     0.029 A 
ATOM     50  N   UNL     1      12.878   9.969   4.991  1.00  0.00    -0.354 N 
ATOM     51  N   UNL     1      13.983   7.768   3.384  1.00  0.00    -0.248 NA
ATOM     52  C   UNL     1      15.660   6.908   2.003  1.00  0.00     0.031 C 
ATOM     53  C   UNL     1      14.089  11.818   5.214  1.00  0.00     0.029 A 
ATOM     54  C   UNL     1      14.077  10.561   4.630  1.00  0.00     0.049 A 
ATOM     55  H   UNL     1      12.587   9.070   4.716  1.00  0.00     0.167 HD
ATOM     56  C   UNL     1      15.001   8.704   3.268  1.00  0.00     0.074 A 
ATOM     57  C   UNL     1      16.023   8.109   2.431  1.00  0.00     0.031 C 
ATOM     58  C   UNL     1      15.084   9.946   3.804  1.00  0.00     0.037 A 
BRANCH  45  59
ATOM     59  C   UNL     1      10.153  11.592   7.147  1.00  0.00     0.057 A 
ATOM     60  C   UNL     1       9.986  11.472   8.533  1.00  0.00     0.134 A 
ATOM     61  C   UNL     1       9.657  12.749   6.534  1.00  0.00     0.134 A 
ATOM     62  F   UNL     1      10.425  10.380   9.179  1.00  0.00    -0.206 F 
ATOM     63  C   UNL     1       9.326  12.451   9.277  1.00  0.00     0.040 A 
ATOM     64  C   UNL     1       9.018  13.748   7.271  1.00  0.00     0.040 A 
ATOM     65  F   UNL     1       9.785  12.928   5.211  1.00  0.00    -0.206 F 
ATOM     66  C   UNL     1       8.845  13.596   8.646  1.00  0.00     0.006 A 
ENDBRANCH  45  59
BRANCH  46  67
ATOM     67  C   UNL     1      14.279   4.358   1.627  1.00  0.00     0.057 A 
ATOM     68  C   UNL     1      15.425   3.676   2.053  1.00  0.00     0.134 A 
ATOM     69  C   UNL     1      13.745   4.007   0.382  1.00  0.00     0.134 A 
ATOM     70  F   UNL     1      15.992   3.980   3.230  1.00  0.00    -0.206 F 
ATOM     71  C   UNL     1      16.030   2.697   1.264  1.00  0.00     0.040 A 
ATOM     72  C   UNL     1      14.326   3.014  -0.408  1.00  0.00     0.040 A 
ATOM     73  F   UNL     1      12.644   4.618  -0.079  1.00  0.00    -0.206 F 
ATOM     74  C   UNL     1      15.477   2.361   0.030  1.00  0.00     0.006 A 
ENDBRANCH  46  67
BRANCH  58  75
ATOM     75  C   UNL     1      16.334  10.728   3.531  1.00  0.00     0.057 A 
ATOM     76  C   UNL     1      16.593  11.292   2.276  1.00  0.00     0.134 A 
ATOM     77  C   UNL     1      17.270  10.951   4.549  1.00  0.00     0.134 A 
ATOM     78  F   UNL     1      15.741  11.103   1.257  1.00  0.00    -0.206 F 
ATOM     79  C   UNL     1      17.750  12.033   2.037  1.00  0.00     0.040 A 
ATOM     80  C   UNL     1      18.418  11.711   4.328  1.00  0.00     0.040 A 
ATOM     81  F   UNL     1      17.076  10.444   5.776  1.00  0.00    -0.206 F 
ATOM     82  C   UNL     1      18.664  12.250   3.067  1.00  0.00     0.006 A 
ENDBRANCH  58  75
ENDBRANCH  32  33
ENDBRANCH  24  27
ENDBRANCH  22  23
ENDBRANCH   1  22
TORSDOF 12
