REMARK SMILES O=C(COc1ccccc1/C=N/N1[C@@H](S)N=N[C@H]1[C@@H]1C=C(c2ccccc2)N=N1)NCCCCNC(=O)c1ccc(-c2c3nc(c(-c4c(F)cccc4F)c4ccc([nH]4)c(-c4c(F)cccc4F)c4nc(c(-c5c(F)cccc5F)c5ccc2[nH]5)C=C4)C=C3)cc1
REMARK SMILES IDX 1 1 2 2 30 3 3 5 4 6 5 7 6 8 10 9 7 10 9 11 8 12 11 13 12 14
REMARK SMILES IDX 13 15 14 16 18 17 16 18 17 19 15 20 19 22 20 23 29 24 21 25
REMARK SMILES IDX 28 26 22 27 23 28 27 29 24 30 26 31 25 32 31 33 32 34 33 35
REMARK SMILES IDX 34 36 35 37 36 38 37 40 38 41 39 42 91 43 40 44 90 45 41 46
REMARK SMILES IDX 42 47 43 48 84 49 44 50 89 51 83 52 85 53 45 54 88 55 82 56
REMARK SMILES IDX 81 57 46 59 72 60 55 61 71 62 56 63 59 64 70 65 86 66 57 67
REMARK SMILES IDX 58 68 69 70 87 71 60 72 47 73 48 74 53 75 49 76 50 77 52 78
REMARK SMILES IDX 54 79 51 80 73 81 74 82 79 83 75 84 76 85 78 86 80 87 77 88
REMARK SMILES IDX 61 89 62 90 67 91 63 92 64 93 66 94 68 95 65 96
REMARK H PARENT 30 4 15 21 35 39 85 58 59 69
REMARK Flexibility Score: inf
ROOT
ATOM      1  O   UNL     1       1.394   0.856   0.123  1.00  0.00    -0.271 OA
ATOM      2  C   UNL     1       2.098  -0.049   0.579  1.00  0.00     0.257 C 
ATOM      3  N   UNL     1       2.464  -1.332  -0.003  1.00  0.00    -0.353 N 
ATOM      4  H   UNL     1       2.970  -1.810   0.693  1.00  0.00     0.163 HD
ENDROOT
BRANCH   2   5
ATOM      5  C   UNL     1       2.510   0.389   2.002  1.00  0.00     0.329 C 
BRANCH   5   6
ATOM      6  O   UNL     1       1.476   0.209   2.968  1.00  0.00    -0.483 OA
BRANCH   6   7
ATOM      7  C   UNL     1       1.390  -1.131   3.223  1.00  0.00     0.128 A 
ATOM      8  C   UNL     1       2.254  -1.606   4.220  1.00  0.00     0.047 A 
ATOM      9  C   UNL     1       0.579  -1.964   2.417  1.00  0.00     0.037 A 
ATOM     10  C   UNL     1       2.350  -2.967   4.426  1.00  0.00     0.004 A 
ATOM     11  C   UNL     1       0.715  -3.334   2.617  1.00  0.00     0.013 A 
ATOM     12  C   UNL     1       1.584  -3.825   3.628  1.00  0.00     0.001 A 
BRANCH   9  13
ATOM     13  C   UNL     1      -0.191  -1.282   1.287  1.00  0.00     0.145 C 
ATOM     14  N   UNL     1      -0.085  -1.585   0.009  1.00  0.00    -0.180 NA
BRANCH  14  15
ATOM     15  N   UNL     1      -0.311  -0.449  -0.847  1.00  0.00    -0.233 NA
ATOM     16  C   UNL     1      -1.459  -0.512  -1.768  1.00  0.00     0.298 C 
ATOM     17  C   UNL     1       0.760   0.119  -1.925  1.00  0.00     0.274 C 
ATOM     18  N   UNL     1      -1.281   0.564  -2.785  1.00  0.00    -0.153 NA
ATOM     19  N   UNL     1      -0.077   0.949  -2.849  1.00  0.00    -0.161 NA
BRANCH  16  20
ATOM     20  S   UNL     1      -3.037  -0.497  -0.857  1.00  0.00    -0.128 SA
ATOM     21  H   UNL     1      -3.127   0.645  -0.124  1.00  0.00     0.106 HD
ENDBRANCH  16  20
BRANCH  17  22
ATOM     22  C   UNL     1       2.507   0.743  -2.080  1.00  0.00     0.202 C 
ATOM     23  C   UNL     1       3.843   0.030  -1.703  1.00  0.00     0.037 C 
ATOM     24  N   UNL     1       2.836   2.061  -1.371  1.00  0.00    -0.177 NA
ATOM     25  C   UNL     1       4.527   0.736  -0.799  1.00  0.00     0.091 C 
ATOM     26  N   UNL     1       3.920   1.967  -0.657  1.00  0.00    -0.155 NA
BRANCH  25  27
ATOM     27  C   UNL     1       5.554   0.076   0.130  1.00  0.00     0.002 A 
ATOM     28  C   UNL     1       5.204  -0.966   1.028  1.00  0.00     0.010 A 
ATOM     29  C   UNL     1       6.914   0.369   0.167  1.00  0.00     0.010 A 
ATOM     30  C   UNL     1       6.028  -1.587   1.975  1.00  0.00     0.001 A 
ATOM     31  C   UNL     1       7.795  -0.287   1.081  1.00  0.00     0.001 A 
ATOM     32  C   UNL     1       7.350  -1.238   2.003  1.00  0.00     0.000 A 
ENDBRANCH  25  27
ENDBRANCH  17  22
ENDBRANCH  14  15
ENDBRANCH   9  13
ENDBRANCH   6   7
ENDBRANCH   5   6
ENDBRANCH   2   5
BRANCH   3  33
ATOM     33  C   UNL     1       2.412  -2.357  -1.316  1.00  0.00     0.116 C 
BRANCH  33  34
ATOM     34  C   UNL     1       2.477  -2.299  -3.006  1.00  0.00     0.023 C 
BRANCH  34  35
ATOM     35  C   UNL     1       3.600  -1.865  -4.024  1.00  0.00     0.023 C 
BRANCH  35  36
ATOM     36  C   UNL     1       4.701  -2.872  -4.317  1.00  0.00     0.116 C 
BRANCH  36  37
ATOM     37  N   UNL     1       4.233  -3.918  -5.229  1.00  0.00    -0.352 N 
ATOM     38  C   UNL     1       4.665  -5.225  -5.348  1.00  0.00     0.251 C 
ATOM     39  H   UNL     1       3.510  -3.653  -5.843  1.00  0.00     0.163 HD
ATOM     40  O   UNL     1       4.491  -5.869  -6.357  1.00  0.00    -0.269 OA
BRANCH  38  41
ATOM     41  C   UNL     1       5.345  -5.811  -4.184  1.00  0.00     0.039 A 
ATOM     42  C   UNL     1       6.506  -6.564  -4.339  1.00  0.00     0.014 A 
ATOM     43  C   UNL     1       4.837  -5.498  -2.925  1.00  0.00     0.014 A 
ATOM     44  C   UNL     1       7.202  -6.933  -3.196  1.00  0.00     0.010 A 
ATOM     45  C   UNL     1       5.616  -5.702  -1.820  1.00  0.00     0.010 A 
ATOM     46  C   UNL     1       6.764  -6.471  -1.941  1.00  0.00    -0.014 A 
BRANCH  46  47
ATOM     47  C   UNL     1       7.574  -6.697  -0.755  1.00  0.00     0.031 A 
ATOM     48  C   UNL     1       8.984  -6.264  -0.911  1.00  0.00     0.074 A 
ATOM     49  C   UNL     1       7.069  -7.104   0.429  1.00  0.00     0.049 A 
ATOM     50  N   UNL     1      10.003  -7.021  -1.141  1.00  0.00    -0.248 NA
ATOM     51  C   UNL     1       9.279  -4.825  -1.014  1.00  0.00     0.031 C 
ATOM     52  C   UNL     1       5.657  -7.229   0.815  1.00  0.00     0.029 A 
ATOM     53  N   UNL     1       7.723  -7.425   1.581  1.00  0.00    -0.354 N 
ATOM     54  C   UNL     1      11.107  -6.173  -1.127  1.00  0.00     0.074 A 
ATOM     55  C   UNL     1      10.587  -4.844  -1.290  1.00  0.00     0.031 C 
ATOM     56  C   UNL     1       5.559  -7.362   2.155  1.00  0.00     0.029 A 
ATOM     57  C   UNL     1       6.893  -7.545   2.690  1.00  0.00     0.049 A 
ATOM     58  H   UNL     1       8.698  -7.558   1.625  1.00  0.00     0.167 HD
ATOM     59  C   UNL     1      12.291  -6.624  -0.625  1.00  0.00     0.037 A 
ATOM     60  C   UNL     1       7.271  -7.808   3.962  1.00  0.00     0.037 A 
ATOM     61  C   UNL     1      12.249  -8.059  -0.469  1.00  0.00     0.049 A 
ATOM     62  C   UNL     1       8.593  -8.470   3.903  1.00  0.00     0.074 A 
ATOM     63  C   UNL     1      12.330  -9.171  -1.276  1.00  0.00     0.029 A 
ATOM     64  N   UNL     1      11.677  -8.454   0.712  1.00  0.00    -0.354 N 
ATOM     65  N   UNL     1       8.778  -9.654   3.390  1.00  0.00    -0.248 NA
ATOM     66  C   UNL     1       9.799  -7.673   4.095  1.00  0.00     0.031 C 
ATOM     67  C   UNL     1      11.664 -10.225  -0.577  1.00  0.00     0.029 A 
ATOM     68  C   UNL     1      11.233  -9.745   0.657  1.00  0.00     0.049 A 
ATOM     69  H   UNL     1      11.595  -7.876   1.504  1.00  0.00     0.167 HD
ATOM     70  C   UNL     1      10.027  -9.580   2.810  1.00  0.00     0.074 A 
ATOM     71  C   UNL     1      10.674  -8.428   3.424  1.00  0.00     0.031 C 
ATOM     72  C   UNL     1      10.297 -10.234   1.645  1.00  0.00     0.037 A 
BRANCH  59  73
ATOM     73  C   UNL     1      13.249  -5.804   0.223  1.00  0.00     0.057 A 
ATOM     74  C   UNL     1      14.439  -6.417   0.670  1.00  0.00     0.134 A 
ATOM     75  C   UNL     1      12.927  -4.599   0.877  1.00  0.00     0.134 A 
ATOM     76  F   UNL     1      14.866  -7.570   0.132  1.00  0.00    -0.206 F 
ATOM     77  C   UNL     1      15.190  -5.917   1.743  1.00  0.00     0.040 A 
ATOM     78  C   UNL     1      13.695  -4.068   1.919  1.00  0.00     0.040 A 
ATOM     79  F   UNL     1      11.808  -3.913   0.626  1.00  0.00    -0.206 F 
ATOM     80  C   UNL     1      14.812  -4.744   2.380  1.00  0.00     0.006 A 
ENDBRANCH  59  73
BRANCH  60  81
ATOM     81  C   UNL     1       6.683  -7.337   5.230  1.00  0.00     0.057 A 
ATOM     82  C   UNL     1       6.975  -7.980   6.441  1.00  0.00     0.134 A 
ATOM     83  C   UNL     1       6.082  -6.069   5.325  1.00  0.00     0.134 A 
ATOM     84  F   UNL     1       7.567  -9.182   6.446  1.00  0.00    -0.206 F 
ATOM     85  C   UNL     1       6.737  -7.373   7.679  1.00  0.00     0.040 A 
ATOM     86  C   UNL     1       5.839  -5.453   6.556  1.00  0.00     0.040 A 
ATOM     87  F   UNL     1       5.803  -5.351   4.226  1.00  0.00    -0.206 F 
ATOM     88  C   UNL     1       6.186  -6.096   7.739  1.00  0.00     0.006 A 
ENDBRANCH  60  81
BRANCH  72  89
ATOM     89  C   UNL     1       9.471 -11.435   1.312  1.00  0.00     0.057 A 
ATOM     90  C   UNL     1       8.109 -11.408   0.983  1.00  0.00     0.134 A 
ATOM     91  C   UNL     1      10.116 -12.676   1.258  1.00  0.00     0.134 A 
ATOM     92  F   UNL     1       7.426 -10.256   0.947  1.00  0.00    -0.206 F 
ATOM     93  C   UNL     1       7.417 -12.575   0.643  1.00  0.00     0.040 A 
ATOM     94  C   UNL     1       9.445 -13.842   0.891  1.00  0.00     0.040 A 
ATOM     95  F   UNL     1      11.427 -12.767   1.532  1.00  0.00    -0.206 F 
ATOM     96  C   UNL     1       8.087 -13.796   0.591  1.00  0.00     0.006 A 
ENDBRANCH  72  89
ENDBRANCH  46  47
ENDBRANCH  38  41
ENDBRANCH  36  37
ENDBRANCH  35  36
ENDBRANCH  34  35
ENDBRANCH  33  34
ENDBRANCH   3  33
TORSDOF 18
