REMARK SMILES O=C(COc1cccc(NC(=O)c2ccc3c(c2)C(=O)N(c2ccccc2-c2ccccc2)C3=O)c1)NCCCCNC(=O)c1ccc(-c2c3nc(c(-c4c(F)cccc4F)c4ccc([nH]4)c(-c4c(F)cccc4F)c4nc(c(-c5c(F)cccc5F)c5ccc2[nH]5)C=C4)C=C3)cc1
REMARK SMILES IDX 1 1 2 2 37 3 3 5 4 6 5 7 6 8 36 9 7 10 9 11 8 12 10 13 11 14
REMARK SMILES IDX 12 16 13 17 14 18 18 19 15 20 17 21 16 22 19 23 34 24 20 25
REMARK SMILES IDX 21 26 35 27 22 28 23 29 27 30 24 31 26 32 25 33 28 34 29 35
REMARK SMILES IDX 33 36 30 37 32 38 31 39 38 40 39 41 40 42 41 43 42 44 43 45
REMARK SMILES IDX 44 47 45 48 46 49 98 50 47 51 97 52 48 53 49 54 50 55 91 56
REMARK SMILES IDX 51 57 96 58 90 59 92 60 52 61 95 62 89 63 88 64 53 66 79 67
REMARK SMILES IDX 62 68 78 69 63 70 66 71 77 72 93 73 64 74 65 75 76 77 94 78
REMARK SMILES IDX 67 79 54 80 55 81 60 82 56 83 57 84 59 85 61 86 58 87 80 88
REMARK SMILES IDX 81 89 86 90 82 91 83 92 85 93 87 94 84 95 68 96 69 97 74 98
REMARK SMILES IDX 70 99 71 100 73 101 75 102 72 103
REMARK H PARENT 37 4 10 15 42 46 92 65 66 76
REMARK Flexibility Score: inf
ROOT
ATOM      1  O   UNL     1       0.818  -1.051   0.071  1.00  0.00    -0.271 OA
ATOM      2  C   UNL     1       1.928  -0.527   0.094  1.00  0.00     0.257 C 
ATOM      3  N   UNL     1       2.638  -0.288   1.254  1.00  0.00    -0.353 N 
ATOM      4  H   UNL     1       3.586  -0.031   1.188  1.00  0.00     0.163 HD
ENDROOT
BRANCH   2   5
ATOM      5  C   UNL     1       2.628  -0.044  -1.177  1.00  0.00     0.329 C 
BRANCH   5   6
ATOM      6  O   UNL     1       3.638   0.937  -0.974  1.00  0.00    -0.484 OA
BRANCH   6   7
ATOM      7  C   UNL     1       3.211   2.235  -0.874  1.00  0.00     0.122 A 
ATOM      8  C   UNL     1       3.976   3.156  -1.581  1.00  0.00     0.046 A 
ATOM      9  C   UNL     1       2.201   2.682  -0.004  1.00  0.00     0.072 A 
ATOM     10  C   UNL     1       3.748   4.512  -1.406  1.00  0.00     0.006 A 
ATOM     11  C   UNL     1       1.973   4.051   0.200  1.00  0.00     0.045 A 
ATOM     12  C   UNL     1       2.773   4.948  -0.506  1.00  0.00     0.026 A 
BRANCH  11  13
ATOM     13  N   UNL     1       1.037   4.425   1.200  1.00  0.00    -0.322 N 
ATOM     14  C   UNL     1       0.443   5.636   1.525  1.00  0.00     0.255 C 
ATOM     15  H   UNL     1       0.753   3.678   1.776  1.00  0.00     0.170 HD
ATOM     16  O   UNL     1      -0.138   5.803   2.591  1.00  0.00    -0.269 OA
BRANCH  14  17
ATOM     17  C   UNL     1       0.351   6.682   0.492  1.00  0.00     0.041 A 
ATOM     18  C   UNL     1       1.272   7.753   0.459  1.00  0.00     0.015 A 
ATOM     19  C   UNL     1      -0.477   6.389  -0.588  1.00  0.00     0.028 A 
ATOM     20  C   UNL     1       1.550   8.384  -0.766  1.00  0.00     0.015 A 
ATOM     21  C   UNL     1      -0.169   7.028  -1.764  1.00  0.00     0.054 A 
ATOM     22  C   UNL     1       0.863   7.927  -1.882  1.00  0.00     0.053 A 
ATOM     23  C   UNL     1      -0.576   6.626  -3.089  1.00  0.00     0.266 C 
ATOM     24  C   UNL     1       1.177   8.006  -3.316  1.00  0.00     0.266 C 
ATOM     25  O   UNL     1      -1.618   6.013  -3.229  1.00  0.00    -0.268 OA
ATOM     26  N   UNL     1       0.417   7.041  -3.951  1.00  0.00    -0.242 N 
ATOM     27  O   UNL     1       1.942   8.859  -3.724  1.00  0.00    -0.268 OA
BRANCH  26  28
ATOM     28  C   UNL     1       0.599   6.461  -5.259  1.00  0.00     0.060 A 
ATOM     29  C   UNL     1      -0.467   5.702  -5.805  1.00  0.00     0.027 A 
ATOM     30  C   UNL     1       1.812   6.467  -6.000  1.00  0.00     0.006 A 
ATOM     31  C   UNL     1      -0.370   4.978  -6.996  1.00  0.00     0.002 A 
ATOM     32  C   UNL     1       1.871   5.755  -7.231  1.00  0.00     0.011 A 
ATOM     33  C   UNL     1       0.802   5.012  -7.720  1.00  0.00     0.001 A 
BRANCH  30  34
ATOM     34  C   UNL     1       3.105   7.018  -5.568  1.00  0.00    -0.016 A 
ATOM     35  C   UNL     1       3.568   8.245  -6.068  1.00  0.00     0.009 A 
ATOM     36  C   UNL     1       3.969   6.259  -4.762  1.00  0.00     0.009 A 
ATOM     37  C   UNL     1       4.836   8.724  -5.727  1.00  0.00     0.001 A 
ATOM     38  C   UNL     1       5.241   6.731  -4.431  1.00  0.00     0.001 A 
ATOM     39  C   UNL     1       5.670   7.969  -4.905  1.00  0.00     0.000 A 
ENDBRANCH  30  34
ENDBRANCH  26  28
ENDBRANCH  14  17
ENDBRANCH  11  13
ENDBRANCH   6   7
ENDBRANCH   5   6
ENDBRANCH   2   5
BRANCH   3  40
ATOM     40  C   UNL     1       2.034  -0.401   2.562  1.00  0.00     0.116 C 
BRANCH  40  41
ATOM     41  C   UNL     1       2.467  -1.652   3.313  1.00  0.00     0.023 C 
BRANCH  41  42
ATOM     42  C   UNL     1       3.964  -1.730   3.622  1.00  0.00     0.023 C 
BRANCH  42  43
ATOM     43  C   UNL     1       4.546  -0.549   4.395  1.00  0.00     0.116 C 
BRANCH  43  44
ATOM     44  N   UNL     1       3.940  -0.364   5.704  1.00  0.00    -0.352 N 
ATOM     45  C   UNL     1       4.533  -0.223   6.936  1.00  0.00     0.251 C 
ATOM     46  H   UNL     1       2.956  -0.336   5.708  1.00  0.00     0.163 HD
ATOM     47  O   UNL     1       3.841  -0.201   7.949  1.00  0.00    -0.269 OA
BRANCH  45  48
ATOM     48  C   UNL     1       6.006  -0.131   7.054  1.00  0.00     0.039 A 
ATOM     49  C   UNL     1       6.647  -0.880   8.046  1.00  0.00     0.014 A 
ATOM     50  C   UNL     1       6.755   0.690   6.207  1.00  0.00     0.014 A 
ATOM     51  C   UNL     1       8.041  -0.866   8.138  1.00  0.00     0.010 A 
ATOM     52  C   UNL     1       8.148   0.652   6.257  1.00  0.00     0.010 A 
ATOM     53  C   UNL     1       8.806  -0.131   7.218  1.00  0.00    -0.014 A 
BRANCH  53  54
ATOM     54  C   UNL     1      10.291  -0.183   7.236  1.00  0.00     0.031 A 
ATOM     55  C   UNL     1      11.093   1.053   7.536  1.00  0.00     0.074 A 
ATOM     56  C   UNL     1      10.922  -1.329   6.912  1.00  0.00     0.049 A 
ATOM     57  N   UNL     1      12.391   1.222   7.515  1.00  0.00    -0.248 NA
ATOM     58  C   UNL     1      10.335   2.265   7.880  1.00  0.00     0.031 C 
ATOM     59  C   UNL     1      10.263  -2.587   6.556  1.00  0.00     0.029 A 
ATOM     60  N   UNL     1      12.261  -1.617   6.814  1.00  0.00    -0.354 N 
ATOM     61  C   UNL     1      12.604   2.558   7.828  1.00  0.00     0.074 A 
ATOM     62  C   UNL     1      11.300   3.167   7.987  1.00  0.00     0.031 C 
ATOM     63  C   UNL     1      11.198  -3.515   6.296  1.00  0.00     0.029 A 
ATOM     64  C   UNL     1      12.520  -2.910   6.430  1.00  0.00     0.049 A 
ATOM     65  H   UNL     1      12.968  -0.959   7.003  1.00  0.00     0.167 HD
ATOM     66  C   UNL     1      13.778   3.215   7.990  1.00  0.00     0.037 A 
ATOM     67  C   UNL     1      13.689  -3.537   6.202  1.00  0.00     0.037 A 
ATOM     68  C   UNL     1      15.076   2.605   7.856  1.00  0.00     0.049 A 
ATOM     69  C   UNL     1      14.978  -2.787   6.386  1.00  0.00     0.074 A 
ATOM     70  C   UNL     1      16.321   3.176   8.056  1.00  0.00     0.029 A 
ATOM     71  N   UNL     1      15.295   1.286   7.488  1.00  0.00    -0.354 N 
ATOM     72  N   UNL     1      15.164  -1.539   6.740  1.00  0.00    -0.248 NA
ATOM     73  C   UNL     1      16.221  -3.535   6.144  1.00  0.00     0.031 C 
ATOM     74  C   UNL     1      17.295   2.213   7.772  1.00  0.00     0.029 A 
ATOM     75  C   UNL     1      16.656   1.030   7.438  1.00  0.00     0.049 A 
ATOM     76  H   UNL     1      14.589   0.629   7.293  1.00  0.00     0.167 HD
ATOM     77  C   UNL     1      16.541  -1.359   6.789  1.00  0.00     0.074 A 
ATOM     78  C   UNL     1      17.142  -2.629   6.441  1.00  0.00     0.031 C 
ATOM     79  C   UNL     1      17.242  -0.240   7.095  1.00  0.00     0.037 A 
BRANCH  66  80
ATOM     80  C   UNL     1      13.711   4.673   8.336  1.00  0.00     0.057 A 
ATOM     81  C   UNL     1      13.287   5.112   9.598  1.00  0.00     0.134 A 
ATOM     82  C   UNL     1      14.106   5.649   7.412  1.00  0.00     0.134 A 
ATOM     83  F   UNL     1      12.885   4.229  10.524  1.00  0.00    -0.206 F 
ATOM     84  C   UNL     1      13.232   6.470   9.918  1.00  0.00     0.040 A 
ATOM     85  C   UNL     1      14.081   7.008   7.730  1.00  0.00     0.040 A 
ATOM     86  F   UNL     1      14.529   5.297   6.188  1.00  0.00    -0.206 F 
ATOM     87  C   UNL     1      13.636   7.422   8.984  1.00  0.00     0.006 A 
ENDBRANCH  66  80
BRANCH  67  88
ATOM     88  C   UNL     1      13.697  -4.964   5.792  1.00  0.00     0.057 A 
ATOM     89  C   UNL     1      14.133  -5.964   6.669  1.00  0.00     0.134 A 
ATOM     90  C   UNL     1      13.277  -5.360   4.517  1.00  0.00     0.134 A 
ATOM     91  F   UNL     1      14.566  -5.642   7.896  1.00  0.00    -0.206 F 
ATOM     92  C   UNL     1      14.167  -7.306   6.288  1.00  0.00     0.040 A 
ATOM     93  C   UNL     1      13.284  -6.702   4.130  1.00  0.00     0.040 A 
ATOM     94  F   UNL     1      12.842  -4.450   3.633  1.00  0.00    -0.206 F 
ATOM     95  C   UNL     1      13.736  -7.678   5.016  1.00  0.00     0.006 A 
ENDBRANCH  67  88
BRANCH  79  96
ATOM     96  C   UNL     1      18.738  -0.348   7.099  1.00  0.00     0.057 A 
ATOM     97  C   UNL     1      19.476  -0.440   5.912  1.00  0.00     0.134 A 
ATOM     98  C   UNL     1      19.451  -0.324   8.305  1.00  0.00     0.134 A 
ATOM     99  F   UNL     1      18.852  -0.482   4.726  1.00  0.00    -0.206 F 
ATOM    100  C   UNL     1      20.869  -0.523   5.926  1.00  0.00     0.040 A 
ATOM    101  C   UNL     1      20.845  -0.382   8.329  1.00  0.00     0.040 A 
ATOM    102  F   UNL     1      18.805  -0.230   9.477  1.00  0.00    -0.206 F 
ATOM    103  C   UNL     1      21.558  -0.487   7.137  1.00  0.00     0.006 A 
ENDBRANCH  79  96
ENDBRANCH  53  54
ENDBRANCH  45  48
ENDBRANCH  43  44
ENDBRANCH  42  43
ENDBRANCH  41  42
ENDBRANCH  40  41
ENDBRANCH   3  40
TORSDOF 17
