REMARK SMILES CC[NH+]1CCC2(CC1)OC[C@H](C(=O)NCCCCNC(=O)c1ccc(-c3c4nc(c(-c5c(F)cccc5F)c5ccc([nH]5)c(-c5c(F)cccc5F)c5nc(c(-c6c(F)cccc6F)c6ccc3[nH]6)C=C5)C=C4)cc1)N2C(=O)c1ccccc1
REMARK SMILES IDX 16 1 15 2 14 3 12 4 13 5 11 7 3 8 4 9 8 10 5 12 7 13 6 14
REMARK SMILES IDX 9 15 76 16 10 17 2 18 1 19 77 20 78 21 79 22 80 23 84 24
REMARK SMILES IDX 81 25 83 26 82 27 17 28 18 29 19 30 20 31 21 33 22 34 23 35
REMARK SMILES IDX 75 36 24 37 74 38 25 39 26 40 27 41 68 42 28 43 73 44 67 45
REMARK SMILES IDX 69 46 29 47 72 48 66 49 65 50 30 52 56 53 39 54 55 55 40 56
REMARK SMILES IDX 43 57 54 58 70 59 41 60 42 61 53 63 71 64 44 65 31 66 32 67
REMARK SMILES IDX 37 68 33 69 34 70 36 71 38 72 35 73 57 74 58 75 63 76 59 77
REMARK SMILES IDX 60 78 62 79 64 80 61 81 45 82 46 83 51 84 47 85 48 86 50 87
REMARK SMILES IDX 52 88 49 89
REMARK H PARENT 14 6 3 11 19 32 69 51 43 62
REMARK Flexibility Score: inf
ROOT
ATOM      1  C   UNL     1      -6.088   0.667   7.801  1.00  0.00     0.023 C 
ENDROOT
BRANCH   1   2
ATOM      2  C   UNL     1      -4.841   0.233   7.045  1.00  0.00     0.116 C 
BRANCH   2   3
ATOM      3  N   UNL     1      -4.063   1.300   6.463  1.00  0.00    -0.354 N 
ATOM      4  C   UNL     1      -2.783   1.237   5.967  1.00  0.00     0.245 C 
ATOM      5  O   UNL     1      -2.354   2.264   5.431  1.00  0.00    -0.273 OA
ATOM      6  H   UNL     1      -4.502   2.180   6.417  1.00  0.00     0.163 HD
BRANCH   4   7
ATOM      7  C   UNL     1      -1.903  -0.032   6.177  1.00  0.00     0.203 C 
ATOM      8  N   UNL     1       0.709  -0.533   1.619  1.00  0.00    -0.335 N 
ATOM      9  C   UNL     1      -0.025   0.636   2.096  1.00  0.00     0.267 C 
ATOM     10  C   UNL     1       0.905  -1.584   2.611  1.00  0.00     0.267 C 
ATOM     11  H   UNL     1       1.651  -0.173   1.467  1.00  0.00     0.348 HD
ATOM     12  C   UNL     1      -1.286   0.310   2.870  1.00  0.00     0.120 C 
ATOM     13  C   UNL     1      -0.244  -1.880   3.561  1.00  0.00     0.120 C 
ATOM     14  C   UNL     1      -1.047  -0.663   4.025  1.00  0.00     0.155 C 
ATOM     15  O   UNL     1      -2.377  -1.240   4.284  1.00  0.00    -0.352 OA
ATOM     16  N   UNL     1      -0.708  -0.029   5.326  1.00  0.00    -0.295 N 
ATOM     17  C   UNL     1      -2.508  -1.326   5.704  1.00  0.00     0.198 C 
BRANCH   8  18
ATOM     18  C   UNL     1       0.295  -1.013   0.305  1.00  0.00     0.258 C 
ATOM     19  C   UNL     1       0.908  -0.129  -0.779  1.00  0.00     0.071 C 
ENDBRANCH   8  18
BRANCH  16  20
ATOM     20  C   UNL     1       0.448   0.490   5.885  1.00  0.00     0.256 C 
ATOM     21  O   UNL     1       0.453   1.107   6.951  1.00  0.00    -0.269 OA
BRANCH  20  22
ATOM     22  C   UNL     1       1.769   0.159   5.339  1.00  0.00     0.040 A 
ATOM     23  C   UNL     1       2.390  -1.022   5.770  1.00  0.00     0.014 A 
ATOM     24  C   UNL     1       2.450   1.047   4.506  1.00  0.00     0.014 A 
ATOM     25  C   UNL     1       3.645  -1.369   5.266  1.00  0.00     0.001 A 
ATOM     26  C   UNL     1       3.690   0.680   3.977  1.00  0.00     0.001 A 
ATOM     27  C   UNL     1       4.279  -0.532   4.346  1.00  0.00     0.000 A 
ENDBRANCH  20  22
ENDBRANCH  16  20
ENDBRANCH   4   7
ENDBRANCH   2   3
ENDBRANCH   1   2
BRANCH   1  28
ATOM     28  C   UNL     1      -7.192   1.306   6.959  1.00  0.00     0.023 C 
BRANCH  28  29
ATOM     29  C   UNL     1      -7.528   0.620   5.636  1.00  0.00     0.116 C 
BRANCH  29  30
ATOM     30  N   UNL     1      -7.926  -0.775   5.776  1.00  0.00    -0.352 N 
ATOM     31  C   UNL     1      -9.139  -1.393   5.567  1.00  0.00     0.251 C 
ATOM     32  H   UNL     1      -7.206  -1.379   6.069  1.00  0.00     0.163 HD
ATOM     33  O   UNL     1      -9.274  -2.579   5.836  1.00  0.00    -0.269 OA
BRANCH  31  34
ATOM     34  C   UNL     1     -10.293  -0.619   5.063  1.00  0.00     0.039 A 
ATOM     35  C   UNL     1     -11.530  -0.764   5.698  1.00  0.00     0.014 A 
ATOM     36  C   UNL     1     -10.159   0.260   3.988  1.00  0.00     0.014 A 
ATOM     37  C   UNL     1     -12.601   0.050   5.322  1.00  0.00     0.010 A 
ATOM     38  C   UNL     1     -11.195   1.136   3.681  1.00  0.00     0.010 A 
ATOM     39  C   UNL     1     -12.425   1.047   4.349  1.00  0.00    -0.014 A 
BRANCH  39  40
ATOM     40  C   UNL     1     -13.508   2.012   4.026  1.00  0.00     0.031 A 
ATOM     41  C   UNL     1     -14.072   2.081   2.633  1.00  0.00     0.074 A 
ATOM     42  C   UNL     1     -13.930   2.881   4.966  1.00  0.00     0.049 A 
ATOM     43  N   UNL     1     -14.961   2.906   2.140  1.00  0.00    -0.248 NA
ATOM     44  C   UNL     1     -13.542   1.118   1.655  1.00  0.00     0.031 C 
ATOM     45  C   UNL     1     -13.421   2.962   6.338  1.00  0.00     0.029 A 
ATOM     46  N   UNL     1     -14.878   3.873   4.908  1.00  0.00    -0.354 N 
ATOM     47  C   UNL     1     -15.080   2.575   0.797  1.00  0.00     0.074 A 
ATOM     48  C   UNL     1     -14.131   1.515   0.537  1.00  0.00     0.031 C 
ATOM     49  C   UNL     1     -14.082   3.927   6.997  1.00  0.00     0.029 A 
ATOM     50  C   UNL     1     -15.033   4.559   6.088  1.00  0.00     0.049 A 
ATOM     51  H   UNL     1     -15.398   4.073   4.096  1.00  0.00     0.167 HD
ATOM     52  C   UNL     1     -15.923   3.086  -0.131  1.00  0.00     0.037 A 
ATOM     53  C   UNL     1     -15.846   5.585   6.403  1.00  0.00     0.037 A 
ATOM     54  C   UNL     1     -16.891   4.117   0.136  1.00  0.00     0.049 A 
ATOM     55  C   UNL     1     -16.781   6.128   5.358  1.00  0.00     0.074 A 
ATOM     56  C   UNL     1     -17.836   4.655  -0.720  1.00  0.00     0.029 A 
ATOM     57  N   UNL     1     -17.036   4.766   1.352  1.00  0.00    -0.354 N 
ATOM     58  N   UNL     1     -16.935   5.753   4.111  1.00  0.00    -0.248 NA
ATOM     59  C   UNL     1     -17.661   7.232   5.766  1.00  0.00     0.031 C 
ATOM     60  C   UNL     1     -18.526   5.659  -0.033  1.00  0.00     0.029 A 
ATOM     61  C   UNL     1     -18.044   5.713   1.265  1.00  0.00     0.049 A 
ATOM     62  H   UNL     1     -16.503   4.582   2.159  1.00  0.00     0.167 HD
ATOM     63  C   UNL     1     -17.946   6.553   3.595  1.00  0.00     0.074 A 
ATOM     64  C   UNL     1     -18.379   7.424   4.668  1.00  0.00     0.031 C 
ATOM     65  C   UNL     1     -18.469   6.566   2.345  1.00  0.00     0.037 A 
BRANCH  52  66
ATOM     66  C   UNL     1     -15.841   2.526  -1.522  1.00  0.00     0.057 A 
ATOM     67  C   UNL     1     -16.261   1.222  -1.818  1.00  0.00     0.134 A 
ATOM     68  C   UNL     1     -15.362   3.306  -2.582  1.00  0.00     0.134 A 
ATOM     69  F   UNL     1     -16.718   0.417  -0.847  1.00  0.00    -0.206 F 
ATOM     70  C   UNL     1     -16.178   0.704  -3.112  1.00  0.00     0.040 A 
ATOM     71  C   UNL     1     -15.303   2.808  -3.885  1.00  0.00     0.040 A 
ATOM     72  F   UNL     1     -14.950   4.565  -2.370  1.00  0.00    -0.206 F 
ATOM     73  C   UNL     1     -15.704   1.501  -4.151  1.00  0.00     0.006 A 
ENDBRANCH  52  66
BRANCH  53  74
ATOM     74  C   UNL     1     -15.838   6.149   7.777  1.00  0.00     0.057 A 
ATOM     75  C   UNL     1     -16.923   5.956   8.640  1.00  0.00     0.134 A 
ATOM     76  C   UNL     1     -14.759   6.900   8.256  1.00  0.00     0.134 A 
ATOM     77  F   UNL     1     -17.995   5.261   8.232  1.00  0.00    -0.206 F 
ATOM     78  C   UNL     1     -16.945   6.507   9.923  1.00  0.00     0.040 A 
ATOM     79  C   UNL     1     -14.756   7.436   9.545  1.00  0.00     0.040 A 
ATOM     80  F   UNL     1     -13.685   7.114   7.481  1.00  0.00    -0.206 F 
ATOM     81  C   UNL     1     -15.856   7.246  10.380  1.00  0.00     0.006 A 
ENDBRANCH  53  74
BRANCH  65  82
ATOM     82  C   UNL     1     -19.593   7.524   2.080  1.00  0.00     0.057 A 
ATOM     83  C   UNL     1     -19.380   8.905   1.981  1.00  0.00     0.134 A 
ATOM     84  C   UNL     1     -20.898   7.054   1.885  1.00  0.00     0.134 A 
ATOM     85  F   UNL     1     -18.156   9.420   2.170  1.00  0.00    -0.206 F 
ATOM     86  C   UNL     1     -20.430   9.787   1.719  1.00  0.00     0.040 A 
ATOM     87  C   UNL     1     -21.951   7.923   1.596  1.00  0.00     0.040 A 
ATOM     88  F   UNL     1     -21.168   5.742   1.958  1.00  0.00    -0.206 F 
ATOM     89  C   UNL     1     -21.719   9.295   1.519  1.00  0.00     0.006 A 
ENDBRANCH  65  82
ENDBRANCH  39  40
ENDBRANCH  31  34
ENDBRANCH  29  30
ENDBRANCH  28  29
ENDBRANCH   1  28
TORSDOF 14
