REMARK SMILES O=C(Nc1cccc(C(=O)NCCCCNC(=O)c2ccc(-c3c4nc(c(-c5c(F)cccc5F)c5ccc([nH]5)c(-c5c(F)cccc5F)c5nc(c(-c6c(F)cccc6F)c6ccc3[nH]6)C=C5)C=C4)cc2)c1)Nc1cc(Cl)c(Cl)cc1Cl
REMARK SMILES IDX 13 1 12 2 11 3 9 4 10 5 8 7 4 8 5 9 73 10 6 11 7 12 3 13
REMARK SMILES IDX 1 14 2 15 74 16 75 19 76 20 82 21 77 22 81 23 83 24 78 25
REMARK SMILES IDX 79 26 80 27 14 28 15 29 16 30 17 31 18 33 19 34 20 35 72 36
REMARK SMILES IDX 21 37 71 38 22 39 23 40 24 41 65 42 25 43 70 44 64 45 66 46
REMARK SMILES IDX 26 47 69 48 63 49 62 50 27 52 53 53 36 54 52 55 37 56 40 57
REMARK SMILES IDX 51 58 67 59 38 60 39 61 50 63 68 64 41 65 28 66 29 67 34 68
REMARK SMILES IDX 30 69 31 70 33 71 35 72 32 73 54 74 55 75 60 76 56 77 57 78
REMARK SMILES IDX 59 79 61 80 58 81 42 82 43 83 48 84 44 85 45 86 47 87 49 88
REMARK SMILES IDX 46 89
REMARK H PARENT 11 6 3 17 74 18 16 32 66 51 40 62
REMARK Flexibility Score: inf
ROOT
ATOM      1  C   UNL     1       4.408  -2.621  -2.905  1.00  0.00     0.023 C 
ENDROOT
BRANCH   1   2
ATOM      2  C   UNL     1       5.334  -2.787  -1.698  1.00  0.00     0.116 C 
BRANCH   2   3
ATOM      3  N   UNL     1       6.618  -2.162  -1.938  1.00  0.00    -0.352 N 
ATOM      4  C   UNL     1       7.110  -0.901  -1.717  1.00  0.00     0.251 C 
ATOM      5  O   UNL     1       8.282  -0.706  -2.045  1.00  0.00    -0.269 OA
ATOM      6  H   UNL     1       7.277  -2.770  -2.346  1.00  0.00     0.163 HD
BRANCH   4   7
ATOM      7  C   UNL     1       6.346   0.221  -1.085  1.00  0.00     0.041 A 
ATOM      8  C   UNL     1       4.340   1.332  -0.246  1.00  0.00     0.043 A 
ATOM      9  C   UNL     1       5.091   2.450   0.110  1.00  0.00     0.026 A 
ATOM     10  C   UNL     1       4.963   0.258  -0.898  1.00  0.00     0.040 A 
ATOM     11  C   UNL     1       6.469   2.449  -0.094  1.00  0.00     0.003 A 
ATOM     12  C   UNL     1       7.091   1.337  -0.669  1.00  0.00     0.014 A 
BRANCH   8  13
ATOM     13  N   UNL     1       2.963   1.331   0.042  1.00  0.00    -0.308 N 
ATOM     14  O   UNL     1       0.905   0.452   0.278  1.00  0.00    -0.248 OA
ATOM     15  C   UNL     1       2.118   0.269   0.272  1.00  0.00     0.323 C 
ATOM     16  N   UNL     1       2.740  -0.894   0.662  1.00  0.00    -0.306 N 
ATOM     17  H   UNL     1       2.543   2.220   0.085  1.00  0.00     0.171 HD
ATOM     18  H   UNL     1       3.710  -0.843   0.823  1.00  0.00     0.171 HD
BRANCH  16  19
ATOM     19  C   UNL     1       2.130  -2.153   0.855  1.00  0.00     0.063 A 
ATOM     20  C   UNL     1       2.645  -2.918   1.913  1.00  0.00     0.049 A 
ATOM     21  C   UNL     1       1.111  -2.702   0.057  1.00  0.00     0.066 A 
ATOM     22  C   UNL     1       2.105  -4.171   2.224  1.00  0.00     0.061 A 
ATOM     23  C   UNL     1       0.576  -3.961   0.367  1.00  0.00     0.044 A 
ATOM     24  Cl  UNL     1       0.595  -2.000  -1.436  1.00  0.00    -0.082 Cl
ATOM     25  Cl  UNL     1       2.785  -5.023   3.565  1.00  0.00    -0.083 Cl
ATOM     26  C   UNL     1       1.059  -4.688   1.457  1.00  0.00     0.061 A 
ATOM     27  Cl  UNL     1       0.347  -6.226   1.786  1.00  0.00    -0.083 Cl
ENDBRANCH  16  19
ENDBRANCH   8  13
ENDBRANCH   4   7
ENDBRANCH   2   3
ENDBRANCH   1   2
BRANCH   1  28
ATOM     28  C   UNL     1       4.580  -3.694  -3.983  1.00  0.00     0.023 C 
BRANCH  28  29
ATOM     29  C   UNL     1       4.232  -5.114  -3.543  1.00  0.00     0.116 C 
BRANCH  29  30
ATOM     30  N   UNL     1       2.879  -5.253  -3.026  1.00  0.00    -0.352 N 
ATOM     31  C   UNL     1       2.089  -6.382  -3.002  1.00  0.00     0.251 C 
ATOM     32  H   UNL     1       2.478  -4.439  -2.645  1.00  0.00     0.163 HD
ATOM     33  O   UNL     1       0.947  -6.335  -2.579  1.00  0.00    -0.269 OA
BRANCH  31  34
ATOM     34  C   UNL     1       2.637  -7.638  -3.558  1.00  0.00     0.039 A 
ATOM     35  C   UNL     1       1.946  -8.266  -4.598  1.00  0.00     0.014 A 
ATOM     36  C   UNL     1       3.861  -8.141  -3.112  1.00  0.00     0.014 A 
ATOM     37  C   UNL     1       2.530  -9.352  -5.253  1.00  0.00     0.010 A 
ATOM     38  C   UNL     1       4.465  -9.190  -3.801  1.00  0.00     0.010 A 
ATOM     39  C   UNL     1       3.815  -9.789  -4.891  1.00  0.00    -0.014 A 
BRANCH  39  40
ATOM     40  C   UNL     1       4.523 -10.831  -5.676  1.00  0.00     0.031 A 
ATOM     41  C   UNL     1       4.849 -12.159  -5.058  1.00  0.00     0.074 A 
ATOM     42  C   UNL     1       4.955 -10.541  -6.918  1.00  0.00     0.049 A 
ATOM     43  N   UNL     1       5.546 -13.150  -5.553  1.00  0.00    -0.248 NA
ATOM     44  C   UNL     1       4.347 -12.393  -3.696  1.00  0.00     0.031 C 
ATOM     45  C   UNL     1       4.749  -9.266  -7.609  1.00  0.00     0.029 A 
ATOM     46  N   UNL     1       5.677 -11.291  -7.812  1.00  0.00    -0.354 N 
ATOM     47  C   UNL     1       5.575 -14.121  -4.562  1.00  0.00     0.074 A 
ATOM     48  C   UNL     1       4.865 -13.582  -3.421  1.00  0.00     0.031 C 
ATOM     49  C   UNL     1       5.326  -9.325  -8.820  1.00  0.00     0.029 A 
ATOM     50  C   UNL     1       5.969 -10.626  -8.978  1.00  0.00     0.049 A 
ATOM     51  H   UNL     1       5.958 -12.217  -7.635  1.00  0.00     0.167 HD
ATOM     52  C   UNL     1       6.125 -15.358  -4.606  1.00  0.00     0.037 A 
ATOM     53  C   UNL     1       6.688 -11.013 -10.048  1.00  0.00     0.037 A 
ATOM     54  C   UNL     1       6.817 -15.899  -5.746  1.00  0.00     0.049 A 
ATOM     55  C   UNL     1       7.300 -12.384 -10.070  1.00  0.00     0.074 A 
ATOM     56  C   UNL     1       7.346 -17.168  -5.912  1.00  0.00     0.029 A 
ATOM     57  N   UNL     1       7.083 -15.200  -6.913  1.00  0.00    -0.354 N 
ATOM     58  N   UNL     1       7.260 -13.319  -9.152  1.00  0.00    -0.248 NA
ATOM     59  C   UNL     1       8.059 -12.753 -11.273  1.00  0.00     0.031 C 
ATOM     60  C   UNL     1       7.965 -17.224  -7.166  1.00  0.00     0.029 A 
ATOM     61  C   UNL     1       7.792 -16.001  -7.794  1.00  0.00     0.049 A 
ATOM     62  H   UNL     1       6.809 -14.271  -7.090  1.00  0.00     0.167 HD
ATOM     63  C   UNL     1       7.979 -14.388  -9.668  1.00  0.00     0.074 A 
ATOM     64  C   UNL     1       8.428 -13.994 -10.988  1.00  0.00     0.031 C 
ATOM     65  C   UNL     1       8.245 -15.588  -9.098  1.00  0.00     0.037 A 
BRANCH  52  66
ATOM     66  C   UNL     1       5.992 -16.211  -3.380  1.00  0.00     0.057 A 
ATOM     67  C   UNL     1       4.765 -16.776  -3.009  1.00  0.00     0.134 A 
ATOM     68  C   UNL     1       7.103 -16.486  -2.574  1.00  0.00     0.134 A 
ATOM     69  F   UNL     1       3.661 -16.540  -3.733  1.00  0.00    -0.206 F 
ATOM     70  C   UNL     1       4.642 -17.563  -1.863  1.00  0.00     0.040 A 
ATOM     71  C   UNL     1       6.996 -17.291  -1.438  1.00  0.00     0.040 A 
ATOM     72  F   UNL     1       8.307 -15.980  -2.876  1.00  0.00    -0.206 F 
ATOM     73  C   UNL     1       5.761 -17.827  -1.077  1.00  0.00     0.006 A 
ENDBRANCH  52  66
BRANCH  53  74
ATOM     74  C   UNL     1       6.862 -10.085 -11.192  1.00  0.00     0.057 A 
ATOM     75  C   UNL     1       6.184 -10.293 -12.398  1.00  0.00     0.134 A 
ATOM     76  C   UNL     1       7.696  -8.965 -11.102  1.00  0.00     0.134 A 
ATOM     77  F   UNL     1       5.386 -11.360 -12.548  1.00  0.00    -0.206 F 
ATOM     78  C   UNL     1       6.335  -9.424 -13.479  1.00  0.00     0.040 A 
ATOM     79  C   UNL     1       7.842  -8.077 -12.168  1.00  0.00     0.040 A 
ATOM     80  F   UNL     1       8.367  -8.710  -9.970  1.00  0.00    -0.206 F 
ATOM     81  C   UNL     1       7.163  -8.308 -13.363  1.00  0.00     0.006 A 
ENDBRANCH  53  74
BRANCH  65  82
ATOM     82  C   UNL     1       9.062 -16.557  -9.898  1.00  0.00     0.057 A 
ATOM     83  C   UNL     1      10.444 -16.394 -10.054  1.00  0.00     0.134 A 
ATOM     84  C   UNL     1       8.469 -17.681 -10.486  1.00  0.00     0.134 A 
ATOM     85  F   UNL     1      11.066 -15.329  -9.528  1.00  0.00    -0.206 F 
ATOM     86  C   UNL     1      11.207 -17.310 -10.780  1.00  0.00     0.040 A 
ATOM     87  C   UNL     1       9.225 -18.614 -11.197  1.00  0.00     0.040 A 
ATOM     88  F   UNL     1       7.151 -17.896 -10.368  1.00  0.00    -0.206 F 
ATOM     89  C   UNL     1      10.598 -18.428 -11.348  1.00  0.00     0.006 A 
ENDBRANCH  65  82
ENDBRANCH  39  40
ENDBRANCH  31  34
ENDBRANCH  29  30
ENDBRANCH  28  29
ENDBRANCH   1  28
TORSDOF 13
