REMARK SMILES CC[C@H](C)Oc1ccc(NC(=O)/C=C/C(=O)NCCCCNC(=O)c2ccc(-c3c4nc(c(-c5c(F)cccc5F)c5ccc([nH]5)c(-c5c(F)cccc5F)c5nc(c(-c6c(F)cccc6F)c6ccc3[nH]6)C=C5)C=C4)cc2)cc1
REMARK SMILES IDX 18 1 17 2 15 3 16 4 14 6 13 7 11 8 10 9 12 11 9 12 6 13 7 14
REMARK SMILES IDX 80 15 8 16 79 17 5 18 3 19 4 20 2 21 1 22 19 23 20 24 21 25
REMARK SMILES IDX 22 26 23 27 24 29 25 30 26 31 78 32 27 33 77 34 28 35 29 36
REMARK SMILES IDX 30 37 71 38 31 39 76 40 70 41 72 42 32 43 75 44 69 45 68 46
REMARK SMILES IDX 33 48 59 49 42 50 58 51 43 52 46 53 57 54 73 55 44 56 45 57
REMARK SMILES IDX 56 59 74 60 47 61 34 62 35 63 40 64 36 65 37 66 39 67 41 68
REMARK SMILES IDX 38 69 60 70 61 71 66 72 62 73 63 74 65 75 67 76 64 77 48 78
REMARK SMILES IDX 49 79 54 80 50 81 51 82 53 83 55 84 52 85
REMARK H PARENT 17 5 10 10 22 28 72 47 46 58
REMARK Flexibility Score: inf
ROOT
ATOM      1  C   UNL     1      -4.718   9.620  -2.389  1.00  0.00     0.116 C 
ENDROOT
BRANCH   1   2
ATOM      2  N   UNL     1      -3.380   9.071  -2.478  1.00  0.00    -0.353 N 
ATOM      3  C   UNL     1      -2.965   7.793  -2.287  1.00  0.00     0.244 C 
ATOM      4  O   UNL     1      -1.814   7.468  -2.562  1.00  0.00    -0.270 OA
ATOM      5  H   UNL     1      -2.673   9.716  -2.711  1.00  0.00     0.163 HD
BRANCH   3   6
ATOM      6  C   UNL     1      -3.905   6.782  -1.771  1.00  0.00     0.077 C 
ATOM      7  C   UNL     1      -4.560   6.976  -0.617  1.00  0.00     0.077 C 
BRANCH   7   8
ATOM      8  C   UNL     1      -5.339   5.883  -0.015  1.00  0.00     0.248 C 
ATOM      9  N   UNL     1      -4.708   4.743   0.396  1.00  0.00    -0.323 N 
ATOM     10  H   UNL     1      -5.316   4.024   0.682  1.00  0.00     0.170 HD
ATOM     11  O   UNL     1      -6.558   6.003   0.083  1.00  0.00    -0.270 OA
BRANCH   9  12
ATOM     12  C   UNL     1      -3.342   4.418   0.481  1.00  0.00     0.041 A 
ATOM     13  C   UNL     1      -0.654   3.595   0.316  1.00  0.00     0.119 A 
ATOM     14  C   UNL     1      -0.977   4.944   0.440  1.00  0.00     0.048 A 
ATOM     15  C   UNL     1      -1.675   2.655   0.393  1.00  0.00     0.048 A 
ATOM     16  C   UNL     1      -2.309   5.352   0.541  1.00  0.00     0.030 A 
ATOM     17  C   UNL     1      -3.012   3.062   0.479  1.00  0.00     0.030 A 
BRANCH  13  18
ATOM     18  O   UNL     1       0.674   3.350   0.153  1.00  0.00    -0.491 OA
BRANCH  18  19
ATOM     19  C   UNL     1       1.155   2.146  -0.461  1.00  0.00     0.170 C 
ATOM     20  C   UNL     1       1.133   0.965   0.507  1.00  0.00     0.053 C 
BRANCH  19  21
ATOM     21  C   UNL     1       0.574   1.888  -1.864  1.00  0.00     0.041 C 
ATOM     22  C   UNL     1       1.121   0.633  -2.526  1.00  0.00     0.008 C 
ENDBRANCH  19  21
ENDBRANCH  18  19
ENDBRANCH  13  18
ENDBRANCH   9  12
ENDBRANCH   7   8
ENDBRANCH   3   6
ENDBRANCH   1   2
BRANCH   1  23
ATOM     23  C   UNL     1      -4.825  10.655  -1.272  1.00  0.00     0.023 C 
BRANCH  23  24
ATOM     24  C   UNL     1      -4.101  11.975  -1.551  1.00  0.00     0.023 C 
BRANCH  24  25
ATOM     25  C   UNL     1      -4.428  12.621  -2.892  1.00  0.00     0.116 C 
BRANCH  25  26
ATOM     26  N   UNL     1      -5.856  12.774  -3.130  1.00  0.00    -0.352 N 
ATOM     27  C   UNL     1      -6.485  13.712  -3.910  1.00  0.00     0.251 C 
ATOM     28  H   UNL     1      -6.442  12.126  -2.676  1.00  0.00     0.163 HD
ATOM     29  O   UNL     1      -7.708  13.770  -3.968  1.00  0.00    -0.269 OA
BRANCH  27  30
ATOM     30  C   UNL     1      -5.657  14.684  -4.645  1.00  0.00     0.039 A 
ATOM     31  C   UNL     1      -5.875  16.047  -4.435  1.00  0.00     0.014 A 
ATOM     32  C   UNL     1      -4.628  14.243  -5.481  1.00  0.00     0.014 A 
ATOM     33  C   UNL     1      -5.014  16.976  -5.018  1.00  0.00     0.010 A 
ATOM     34  C   UNL     1      -3.735  15.167  -6.009  1.00  0.00     0.010 A 
ATOM     35  C   UNL     1      -3.919  16.540  -5.780  1.00  0.00    -0.014 A 
BRANCH  35  36
ATOM     36  C   UNL     1      -2.954  17.500  -6.367  1.00  0.00     0.031 A 
ATOM     37  C   UNL     1      -2.849  17.621  -7.861  1.00  0.00     0.074 A 
ATOM     38  C   UNL     1      -2.121  18.189  -5.565  1.00  0.00     0.049 A 
ATOM     39  N   UNL     1      -1.985  18.293  -8.576  1.00  0.00    -0.248 NA
ATOM     40  C   UNL     1      -3.825  16.857  -8.655  1.00  0.00     0.031 C 
ATOM     41  C   UNL     1      -2.101  18.122  -4.102  1.00  0.00     0.029 A 
ATOM     42  N   UNL     1      -1.114  19.069  -5.871  1.00  0.00    -0.354 N 
ATOM     43  C   UNL     1      -2.295  18.010  -9.900  1.00  0.00     0.074 A 
ATOM     44  C   UNL     1      -3.400  17.077  -9.890  1.00  0.00     0.031 C 
ATOM     45  C   UNL     1      -1.135  18.933  -3.639  1.00  0.00     0.029 A 
ATOM     46  C   UNL     1      -0.447  19.548  -4.769  1.00  0.00     0.049 A 
ATOM     47  H   UNL     1      -0.890  19.332  -6.793  1.00  0.00     0.167 HD
ATOM     48  C   UNL     1      -1.720  18.500 -11.023  1.00  0.00     0.037 A 
ATOM     49  C   UNL     1       0.608  20.380  -4.685  1.00  0.00     0.037 A 
ATOM     50  C   UNL     1      -0.652  19.463 -11.028  1.00  0.00     0.049 A 
ATOM     51  C   UNL     1       1.210  20.930  -5.949  1.00  0.00     0.074 A 
ATOM     52  C   UNL     1      -0.043  20.070 -12.112  1.00  0.00     0.029 A 
ATOM     53  N   UNL     1      -0.040  19.965  -9.890  1.00  0.00    -0.354 N 
ATOM     54  N   UNL     1       0.872  20.698  -7.194  1.00  0.00    -0.248 NA
ATOM     55  C   UNL     1       2.338  21.861  -5.797  1.00  0.00     0.031 C 
ATOM     56  C   UNL     1       0.956  20.921 -11.631  1.00  0.00     0.029 A 
ATOM     57  C   UNL     1       0.945  20.870 -10.246  1.00  0.00     0.049 A 
ATOM     58  H   UNL     1      -0.272  19.716  -8.966  1.00  0.00     0.167 HD
ATOM     59  C   UNL     1       1.718  21.479  -7.970  1.00  0.00     0.074 A 
ATOM     60  C   UNL     1       2.584  22.195  -7.056  1.00  0.00     0.031 C 
ATOM     61  C   UNL     1       1.774  21.593  -9.318  1.00  0.00     0.037 A 
BRANCH  48  62
ATOM     62  C   UNL     1      -2.242  18.010 -12.339  1.00  0.00     0.057 A 
ATOM     63  C   UNL     1      -3.494  18.405 -12.829  1.00  0.00     0.134 A 
ATOM     64  C   UNL     1      -1.469  17.164 -13.144  1.00  0.00     0.134 A 
ATOM     65  F   UNL     1      -4.288  19.202 -12.099  1.00  0.00    -0.206 F 
ATOM     66  C   UNL     1      -3.967  17.960 -14.064  1.00  0.00     0.040 A 
ATOM     67  C   UNL     1      -1.922  16.732 -14.392  1.00  0.00     0.040 A 
ATOM     68  F   UNL     1      -0.260  16.751 -12.736  1.00  0.00    -0.206 F 
ATOM     69  C   UNL     1      -3.176  17.126 -14.853  1.00  0.00     0.006 A 
ENDBRANCH  48  62
BRANCH  49  70
ATOM     70  C   UNL     1       1.155  20.763  -3.360  1.00  0.00     0.057 A 
ATOM     71  C   UNL     1       0.989  22.060  -2.860  1.00  0.00     0.134 A 
ATOM     72  C   UNL     1       1.872  19.855  -2.572  1.00  0.00     0.134 A 
ATOM     73  F   UNL     1       0.327  22.980  -3.577  1.00  0.00    -0.206 F 
ATOM     74  C   UNL     1       1.537  22.448  -1.636  1.00  0.00     0.040 A 
ATOM     75  C   UNL     1       2.406  20.223  -1.336  1.00  0.00     0.040 A 
ATOM     76  F   UNL     1       2.058  18.595  -2.991  1.00  0.00    -0.206 F 
ATOM     77  C   UNL     1       2.246  21.526  -0.869  1.00  0.00     0.006 A 
ENDBRANCH  49  70
BRANCH  61  78
ATOM     78  C   UNL     1       2.764  22.564  -9.887  1.00  0.00     0.057 A 
ATOM     79  C   UNL     1       4.134  22.280  -9.932  1.00  0.00     0.134 A 
ATOM     80  C   UNL     1       2.329  23.770 -10.449  1.00  0.00     0.134 A 
ATOM     81  F   UNL     1       4.612  21.146  -9.399  1.00  0.00    -0.206 F 
ATOM     82  C   UNL     1       5.040  23.172 -10.508  1.00  0.00     0.040 A 
ATOM     83  C   UNL     1       3.223  24.659 -11.047  1.00  0.00     0.040 A 
ATOM     84  F   UNL     1       1.027  24.095 -10.443  1.00  0.00    -0.206 F 
ATOM     85  C   UNL     1       4.584  24.361 -11.074  1.00  0.00     0.006 A 
ENDBRANCH  61  78
ENDBRANCH  35  36
ENDBRANCH  27  30
ENDBRANCH  25  26
ENDBRANCH  24  25
ENDBRANCH  23  24
ENDBRANCH   1  23
TORSDOF 16
