REMARK SMILES COCCN(CC(=O)NCCCCNC(=O)c1ccc(-c2c3nc(c(-c4c(F)cccc4F)c4ccc([nH]4)c(-c4c(F)cccc4F)c4nc(c(-c5c(F)cccc5F)c5ccc2[nH]5)C=C4)C=C3)cc1)C(=O)N1CCC[C@@H]1C
REMARK SMILES IDX 10 1 9 2 7 3 8 4 6 6 5 7 4 8 3 9 2 10 1 11 71 12 72 13 73 14
REMARK SMILES IDX 74 15 77 16 75 17 76 18 78 19 11 20 12 21 13 22 14 23 15 24
REMARK SMILES IDX 16 26 17 27 18 28 70 29 19 30 69 31 20 32 21 33 22 34 63 35
REMARK SMILES IDX 23 36 68 37 62 38 64 39 24 40 67 41 61 42 60 43 25 45 51 46
REMARK SMILES IDX 34 47 50 48 35 49 38 50 49 51 65 52 36 53 37 54 48 56 66 57
REMARK SMILES IDX 39 58 26 59 27 60 32 61 28 62 29 63 31 64 33 65 30 66 52 67
REMARK SMILES IDX 53 68 58 69 54 70 55 71 57 72 59 73 56 74 40 75 41 76 46 77
REMARK SMILES IDX 42 78 43 79 45 80 47 81 44 82
REMARK H PARENT 9 5 14 25 64 44 38 55
REMARK Flexibility Score: inf
ROOT
ATOM      1  C   UNL     1      -0.782  -4.529   2.352  1.00  0.00     0.116 C 
ENDROOT
BRANCH   1   2
ATOM      2  N   UNL     1       0.127  -5.216   1.464  1.00  0.00    -0.355 N 
ATOM      3  C   UNL     1       1.328  -4.815   0.961  1.00  0.00     0.239 C 
ATOM      4  O   UNL     1       2.082  -5.716   0.572  1.00  0.00    -0.273 OA
ATOM      5  H   UNL     1      -0.166  -6.112   1.179  1.00  0.00     0.163 HD
BRANCH   3   6
ATOM      6  C   UNL     1       1.827  -3.356   1.007  1.00  0.00     0.221 C 
BRANCH   6   7
ATOM      7  N   UNL     1       0.877  -2.288   0.685  1.00  0.00    -0.313 N 
BRANCH   7   8
ATOM      8  C   UNL     1       0.480  -1.398   1.797  1.00  0.00     0.150 C 
BRANCH   8   9
ATOM      9  C   UNL     1       1.422  -0.206   2.050  1.00  0.00     0.181 C 
BRANCH   9  10
ATOM     10  O   UNL     1       1.068   0.929   1.266  1.00  0.00    -0.383 OA
ATOM     11  C   UNL     1       1.903   1.117   0.134  1.00  0.00     0.194 C 
ENDBRANCH   9  10
ENDBRANCH   8   9
ENDBRANCH   7   8
BRANCH   7  12
ATOM     12  C   UNL     1       0.526  -1.874  -0.592  1.00  0.00     0.320 C 
ATOM     13  O   UNL     1      -0.232  -0.916  -0.765  1.00  0.00    -0.248 OA
BRANCH  12  14
ATOM     14  N   UNL     1       1.143  -2.436  -1.681  1.00  0.00    -0.322 N 
ATOM     15  C   UNL     1       1.435  -1.585  -2.819  1.00  0.00     0.122 C 
ATOM     16  C   UNL     1       1.165  -3.840  -2.103  1.00  0.00     0.083 C 
ATOM     17  C   UNL     1       2.357  -2.434  -3.669  1.00  0.00     0.024 C 
ATOM     18  C   UNL     1       1.739  -3.817  -3.534  1.00  0.00     0.027 C 
ATOM     19  C   UNL     1      -0.224  -4.469  -2.109  1.00  0.00     0.031 C 
ENDBRANCH  12  14
ENDBRANCH   7  12
ENDBRANCH   6   7
ENDBRANCH   3   6
ENDBRANCH   1   2
BRANCH   1  20
ATOM     20  C   UNL     1      -1.923  -3.799   1.649  1.00  0.00     0.023 C 
BRANCH  20  21
ATOM     21  C   UNL     1      -2.939  -4.684   0.932  1.00  0.00     0.023 C 
BRANCH  21  22
ATOM     22  C   UNL     1      -3.536  -5.803   1.766  1.00  0.00     0.116 C 
BRANCH  22  23
ATOM     23  N   UNL     1      -4.182  -5.346   2.986  1.00  0.00    -0.352 N 
ATOM     24  C   UNL     1      -5.284  -5.885   3.606  1.00  0.00     0.251 C 
ATOM     25  H   UNL     1      -3.782  -4.557   3.420  1.00  0.00     0.163 HD
ATOM     26  O   UNL     1      -5.772  -5.357   4.600  1.00  0.00    -0.269 OA
BRANCH  24  27
ATOM     27  C   UNL     1      -5.901  -7.092   3.023  1.00  0.00     0.039 A 
ATOM     28  C   UNL     1      -7.262  -7.074   2.708  1.00  0.00     0.014 A 
ATOM     29  C   UNL     1      -5.112  -8.204   2.716  1.00  0.00     0.014 A 
ATOM     30  C   UNL     1      -7.821  -8.148   2.013  1.00  0.00     0.010 A 
ATOM     31  C   UNL     1      -5.653  -9.236   1.962  1.00  0.00     0.010 A 
ATOM     32  C   UNL     1      -7.011  -9.218   1.603  1.00  0.00    -0.014 A 
BRANCH  32  33
ATOM     33  C   UNL     1      -7.546 -10.357   0.820  1.00  0.00     0.031 A 
ATOM     34  C   UNL     1      -7.524 -11.732   1.421  1.00  0.00     0.074 A 
ATOM     35  C   UNL     1      -7.939 -10.178  -0.455  1.00  0.00     0.049 A 
ATOM     36  N   UNL     1      -7.754 -12.889   0.857  1.00  0.00    -0.248 NA
ATOM     37  C   UNL     1      -7.154 -11.817   2.843  1.00  0.00     0.031 C 
ATOM     38  C   UNL     1      -7.985  -8.897  -1.160  1.00  0.00     0.029 A 
ATOM     39  N   UNL     1      -8.354 -11.090  -1.393  1.00  0.00    -0.354 N 
ATOM     40  C   UNL     1      -7.513 -13.839   1.840  1.00  0.00     0.074 A 
ATOM     41  C   UNL     1      -7.086 -13.127   3.025  1.00  0.00     0.031 C 
ATOM     42  C   UNL     1      -8.421  -9.102  -2.414  1.00  0.00     0.029 A 
ATOM     43  C   UNL     1      -8.638 -10.531  -2.615  1.00  0.00     0.049 A 
ATOM     44  H   UNL     1      -8.439 -12.053  -1.208  1.00  0.00     0.167 HD
ATOM     45  C   UNL     1      -7.646 -15.184   1.764  1.00  0.00     0.037 A 
ATOM     46  C   UNL     1      -9.017 -11.111  -3.769  1.00  0.00     0.037 A 
ATOM     47  C   UNL     1      -8.118 -15.881   0.599  1.00  0.00     0.049 A 
ATOM     48  C   UNL     1      -9.164 -12.606  -3.829  1.00  0.00     0.074 A 
ATOM     49  C   UNL     1      -8.359 -17.235   0.443  1.00  0.00     0.029 A 
ATOM     50  N   UNL     1      -8.426 -15.275  -0.610  1.00  0.00    -0.354 N 
ATOM     51  N   UNL     1      -8.971 -13.493  -2.884  1.00  0.00    -0.248 NA
ATOM     52  C   UNL     1      -9.577 -13.181  -5.118  1.00  0.00     0.031 C 
ATOM     53  C   UNL     1      -8.784 -17.451  -0.873  1.00  0.00     0.029 A 
ATOM     54  C   UNL     1      -8.842 -16.228  -1.522  1.00  0.00     0.049 A 
ATOM     55  H   UNL     1      -8.359 -14.310  -0.791  1.00  0.00     0.167 HD
ATOM     56  C   UNL     1      -9.275 -14.725  -3.449  1.00  0.00     0.074 A 
ATOM     57  C   UNL     1      -9.658 -14.472  -4.823  1.00  0.00     0.031 C 
ATOM     58  C   UNL     1      -9.245 -15.953  -2.878  1.00  0.00     0.037 A 
BRANCH  45  59
ATOM     59  C   UNL     1      -7.265 -15.979   2.977  1.00  0.00     0.057 A 
ATOM     60  C   UNL     1      -8.029 -15.954   4.151  1.00  0.00     0.134 A 
ATOM     61  C   UNL     1      -6.114 -16.777   2.971  1.00  0.00     0.134 A 
ATOM     62  F   UNL     1      -9.134 -15.197   4.228  1.00  0.00    -0.206 F 
ATOM     63  C   UNL     1      -7.642 -16.665   5.288  1.00  0.00     0.040 A 
ATOM     64  C   UNL     1      -5.732 -17.514   4.093  1.00  0.00     0.040 A 
ATOM     65  F   UNL     1      -5.340 -16.849   1.878  1.00  0.00    -0.206 F 
ATOM     66  C   UNL     1      -6.492 -17.451   5.259  1.00  0.00     0.006 A 
ENDBRANCH  45  59
BRANCH  46  67
ATOM     67  C   UNL     1      -9.316 -10.271  -4.954  1.00  0.00     0.057 A 
ATOM     68  C   UNL     1     -10.637 -10.078  -5.375  1.00  0.00     0.134 A 
ATOM     69  C   UNL     1      -8.306  -9.632  -5.682  1.00  0.00     0.134 A 
ATOM     70  F   UNL     1     -11.645 -10.680  -4.726  1.00  0.00    -0.206 F 
ATOM     71  C   UNL     1     -10.944  -9.286  -6.482  1.00  0.00     0.040 A 
ATOM     72  C   UNL     1      -8.600  -8.822  -6.780  1.00  0.00     0.040 A 
ATOM     73  F   UNL     1      -7.021  -9.774  -5.325  1.00  0.00    -0.206 F 
ATOM     74  C   UNL     1      -9.922  -8.650  -7.185  1.00  0.00     0.006 A 
ENDBRANCH  46  67
BRANCH  58  75
ATOM     75  C   UNL     1      -9.693 -17.114  -3.712  1.00  0.00     0.057 A 
ATOM     76  C   UNL     1      -8.877 -17.671  -4.704  1.00  0.00     0.134 A 
ATOM     77  C   UNL     1     -10.929 -17.726  -3.466  1.00  0.00     0.134 A 
ATOM     78  F   UNL     1      -7.688 -17.122  -4.994  1.00  0.00    -0.206 F 
ATOM     79  C   UNL     1      -9.279 -18.795  -5.427  1.00  0.00     0.040 A 
ATOM     80  C   UNL     1     -11.332 -18.861  -4.168  1.00  0.00     0.040 A 
ATOM     81  F   UNL     1     -11.752 -17.242  -2.523  1.00  0.00    -0.206 F 
ATOM     82  C   UNL     1     -10.506 -19.398  -5.153  1.00  0.00     0.006 A 
ENDBRANCH  58  75
ENDBRANCH  32  33
ENDBRANCH  24  27
ENDBRANCH  22  23
ENDBRANCH  21  22
ENDBRANCH  20  21
ENDBRANCH   1  20
TORSDOF 17
