REMARK SMILES O=C(NCCCCNC(=O)[C@H](CO)NC(=O)[C@H](CS)NC(=O)c1ccc(F)cc1)c1ccc(-c2c3nc(c(-c4c(F)cccc4F)c4ccc([nH]4)c(-c4c(F)cccc4F)c4nc(c(-c5c(F)cccc5F)c5ccc2[nH]5)C=C4)C=C3)cc1
REMARK SMILES IDX 6 1 5 2 4 3 3 4 1 5 2 6 30 8 31 9 83 10 32 11 82 12 33 13
REMARK SMILES IDX 34 14 35 15 76 16 36 17 81 18 75 19 77 20 37 21 80 22 74 23
REMARK SMILES IDX 73 24 38 26 64 27 47 28 63 29 48 30 51 31 62 32 78 33 49 34
REMARK SMILES IDX 50 35 61 37 79 38 52 39 39 40 40 41 45 42 41 43 42 44 44 45
REMARK SMILES IDX 46 46 43 47 65 48 66 49 71 50 67 51 68 52 70 53 72 54 69 55
REMARK SMILES IDX 53 56 54 57 59 58 55 59 56 60 58 61 60 62 57 63 7 64 8 65
REMARK SMILES IDX 9 66 10 68 11 69 14 70 15 71 16 73 17 74 20 75 21 76 22 78
REMARK SMILES IDX 23 79 24 80 29 81 25 82 28 83 26 84 27 85 18 86 19 87 12 89
REMARK SMILES IDX 13 90
REMARK H PARENT 3 7 77 25 51 36 8 67 14 72 20 77 19 88 13 91
REMARK Flexibility Score: inf
ROOT
ATOM      1  C   UNL     1       6.692  -0.487  -2.023  1.00  0.00     0.023 C 
ENDROOT
BRANCH   1   2
ATOM      2  C   UNL     1       6.982   0.883  -1.410  1.00  0.00     0.023 C 
BRANCH   2   3
ATOM      3  C   UNL     1       5.745   1.715  -1.124  1.00  0.00     0.116 C 
BRANCH   3   4
ATOM      4  N   UNL     1       4.909   1.125  -0.088  1.00  0.00    -0.352 N 
ATOM      5  O   UNL     1       4.010   0.888   1.967  1.00  0.00    -0.269 OA
ATOM      6  C   UNL     1       4.575   1.607   1.159  1.00  0.00     0.251 C 
ATOM      7  H   UNL     1       4.523   0.247  -0.312  1.00  0.00     0.163 HD
BRANCH   6   8
ATOM      8  C   UNL     1       4.930   2.998   1.521  1.00  0.00     0.039 A 
ATOM      9  C   UNL     1       4.753   4.032   0.603  1.00  0.00     0.014 A 
ATOM     10  C   UNL     1       5.454   3.266   2.788  1.00  0.00     0.014 A 
ATOM     11  C   UNL     1       5.271   5.289   0.877  1.00  0.00     0.010 A 
ATOM     12  C   UNL     1       5.871   4.563   3.106  1.00  0.00     0.010 A 
ATOM     13  C   UNL     1       5.820   5.576   2.138  1.00  0.00    -0.014 A 
BRANCH  13  14
ATOM     14  C   UNL     1       6.275   6.961   2.418  1.00  0.00     0.031 A 
ATOM     15  C   UNL     1       7.716   7.270   2.709  1.00  0.00     0.074 A 
ATOM     16  C   UNL     1       5.373   7.959   2.334  1.00  0.00     0.049 A 
ATOM     17  N   UNL     1       8.280   8.433   2.921  1.00  0.00    -0.248 NA
ATOM     18  C   UNL     1       8.647   6.133   2.779  1.00  0.00     0.031 C 
ATOM     19  C   UNL     1       3.945   7.776   2.058  1.00  0.00     0.029 A 
ATOM     20  N   UNL     1       5.521   9.318   2.428  1.00  0.00    -0.354 N 
ATOM     21  C   UNL     1       9.621   8.169   3.167  1.00  0.00     0.074 A 
ATOM     22  C   UNL     1       9.785   6.732   3.104  1.00  0.00     0.031 C 
ATOM     23  C   UNL     1       3.367   8.976   1.923  1.00  0.00     0.029 A 
ATOM     24  C   UNL     1       4.362  10.011   2.179  1.00  0.00     0.049 A 
ATOM     25  H   UNL     1       6.375   9.754   2.652  1.00  0.00     0.167 HD
ATOM     26  C   UNL     1      10.622   9.047   3.415  1.00  0.00     0.037 A 
ATOM     27  C   UNL     1       4.119  11.334   2.165  1.00  0.00     0.037 A 
ATOM     28  C   UNL     1      10.453  10.478   3.460  1.00  0.00     0.049 A 
ATOM     29  C   UNL     1       5.239  12.283   2.461  1.00  0.00     0.074 A 
ATOM     30  C   UNL     1      11.408  11.451   3.696  1.00  0.00     0.029 A 
ATOM     31  N   UNL     1       9.250  11.140   3.261  1.00  0.00    -0.354 N 
ATOM     32  N   UNL     1       6.499  12.016   2.702  1.00  0.00    -0.248 NA
ATOM     33  C   UNL     1       4.904  13.711   2.496  1.00  0.00     0.031 C 
ATOM     34  C   UNL     1      10.776  12.699   3.678  1.00  0.00     0.029 A 
ATOM     35  C   UNL     1       9.436  12.507   3.384  1.00  0.00     0.049 A 
ATOM     36  H   UNL     1       8.391  10.702   3.061  1.00  0.00     0.167 HD
ATOM     37  C   UNL     1       7.111  13.242   2.916  1.00  0.00     0.074 A 
ATOM     38  C   UNL     1       6.087  14.254   2.752  1.00  0.00     0.031 C 
ATOM     39  C   UNL     1       8.404  13.502   3.226  1.00  0.00     0.037 A 
BRANCH  26  40
ATOM     40  C   UNL     1      11.993   8.489   3.671  1.00  0.00     0.057 A 
ATOM     41  C   UNL     1      12.562   8.552   4.950  1.00  0.00     0.134 A 
ATOM     42  C   UNL     1      12.772   7.942   2.644  1.00  0.00     0.134 A 
ATOM     43  F   UNL     1      11.873   9.071   5.977  1.00  0.00    -0.206 F 
ATOM     44  C   UNL     1      13.859   8.098   5.196  1.00  0.00     0.040 A 
ATOM     45  C   UNL     1      14.062   7.463   2.883  1.00  0.00     0.040 A 
ATOM     46  F   UNL     1      12.283   7.841   1.399  1.00  0.00    -0.206 F 
ATOM     47  C   UNL     1      14.612   7.548   4.161  1.00  0.00     0.006 A 
ENDBRANCH  26  40
BRANCH  27  48
ATOM     48  C   UNL     1       2.752  11.814   1.847  1.00  0.00     0.057 A 
ATOM     49  C   UNL     1       1.682  11.600   2.725  1.00  0.00     0.134 A 
ATOM     50  C   UNL     1       2.472  12.431   0.624  1.00  0.00     0.134 A 
ATOM     51  F   UNL     1       1.886  11.001   3.908  1.00  0.00    -0.206 F 
ATOM     52  C   UNL     1       0.376  11.952   2.384  1.00  0.00     0.040 A 
ATOM     53  C   UNL     1       1.174  12.812   0.280  1.00  0.00     0.040 A 
ATOM     54  F   UNL     1       3.459  12.673  -0.252  1.00  0.00    -0.206 F 
ATOM     55  C   UNL     1       0.120  12.561   1.157  1.00  0.00     0.006 A 
ENDBRANCH  27  48
BRANCH  39  56
ATOM     56  C   UNL     1       8.789  14.940   3.401  1.00  0.00     0.057 A 
ATOM     57  C   UNL     1       9.578  15.590   2.444  1.00  0.00     0.134 A 
ATOM     58  C   UNL     1       8.421  15.664   4.542  1.00  0.00     0.134 A 
ATOM     59  F   UNL     1       9.969  14.947   1.333  1.00  0.00    -0.206 F 
ATOM     60  C   UNL     1       9.996  16.909   2.620  1.00  0.00     0.040 A 
ATOM     61  C   UNL     1       8.814  16.992   4.718  1.00  0.00     0.040 A 
ATOM     62  F   UNL     1       7.655  15.101   5.488  1.00  0.00    -0.206 F 
ATOM     63  C   UNL     1       9.611  17.615   3.758  1.00  0.00     0.006 A 
ENDBRANCH  39  56
ENDBRANCH  13  14
ENDBRANCH   6   8
ENDBRANCH   3   4
ENDBRANCH   2   3
ENDBRANCH   1   2
BRANCH   1  64
ATOM     64  C   UNL     1       6.074  -0.451  -3.427  1.00  0.00     0.116 C 
BRANCH  64  65
ATOM     65  N   UNL     1       6.976   0.193  -4.363  1.00  0.00    -0.354 N 
ATOM     66  C   UNL     1       7.797  -0.351  -5.298  1.00  0.00     0.244 C 
ATOM     67  H   UNL     1       6.996   1.176  -4.312  1.00  0.00     0.163 HD
ATOM     68  O   UNL     1       8.703   0.376  -5.726  1.00  0.00    -0.273 OA
BRANCH  66  69
ATOM     69  C   UNL     1       7.603  -1.788  -5.837  1.00  0.00     0.197 C 
BRANCH  69  70
ATOM     70  N   UNL     1       8.255  -1.753  -7.157  1.00  0.00    -0.340 N 
ATOM     71  C   UNL     1       7.854  -1.607  -8.434  1.00  0.00     0.244 C 
ATOM     72  H   UNL     1       9.231  -1.865  -7.088  1.00  0.00     0.164 HD
ATOM     73  O   UNL     1       8.758  -1.311  -9.229  1.00  0.00    -0.273 OA
BRANCH  71  74
ATOM     74  C   UNL     1       6.465  -1.957  -8.991  1.00  0.00     0.181 C 
BRANCH  74  75
ATOM     75  N   UNL     1       6.298  -3.411  -9.057  1.00  0.00    -0.339 N 
ATOM     76  C   UNL     1       6.305  -4.212 -10.179  1.00  0.00     0.251 C 
ATOM     77  H   UNL     1       6.164  -3.872  -8.197  1.00  0.00     0.164 HD
ATOM     78  O   UNL     1       6.167  -5.426 -10.078  1.00  0.00    -0.269 OA
BRANCH  76  79
ATOM     79  C   UNL     1       6.399  -3.597 -11.524  1.00  0.00     0.040 A 
ATOM     80  C   UNL     1       7.547  -2.901 -11.929  1.00  0.00     0.017 A 
ATOM     81  C   UNL     1       5.291  -3.686 -12.375  1.00  0.00     0.017 A 
ATOM     82  C   UNL     1       7.548  -2.217 -13.147  1.00  0.00     0.040 A 
ATOM     83  C   UNL     1       5.305  -3.016 -13.600  1.00  0.00     0.040 A 
ATOM     84  C   UNL     1       6.424  -2.273 -13.965  1.00  0.00     0.123 A 
ATOM     85  F   UNL     1       6.416  -1.596 -15.121  1.00  0.00    -0.207 F 
ENDBRANCH  76  79
ENDBRANCH  74  75
BRANCH  74  86
ATOM     86  C   UNL     1       5.214  -1.149  -8.638  1.00  0.00     0.101 C 
BRANCH  86  87
ATOM     87  S   UNL     1       4.334  -1.448  -7.080  1.00  0.00    -0.177 SA
ATOM     88  H   UNL     1       3.789  -2.694  -7.100  1.00  0.00     0.102 HD
ENDBRANCH  86  87
ENDBRANCH  74  86
ENDBRANCH  71  74
ENDBRANCH  69  70
BRANCH  69  89
ATOM     89  C   UNL     1       8.259  -2.888  -4.993  1.00  0.00     0.191 C 
BRANCH  89  90
ATOM     90  O   UNL     1       8.021  -2.795  -3.601  1.00  0.00    -0.394 OA
ATOM     91  H   UNL     1       8.402  -1.969  -3.263  1.00  0.00     0.210 HD
ENDBRANCH  89  90
ENDBRANCH  69  89
ENDBRANCH  66  69
ENDBRANCH  64  65
ENDBRANCH   1  64
TORSDOF 19
