REMARK SMILES CCc1cn(C[C@H](NC(=O)c2ccco2)C(=O)NCCCCNC(=O)c2ccc(-c3c4nc(c(-c5c(F)cccc5F)c5ccc([nH]5)c(-c5c(F)cccc5F)c5nc(c(-c6c(F)cccc6F)c6ccc3[nH]6)C=C5)C=C4)cc2)c(=O)[nH]c1=O
REMARK SMILES IDX 20 1 19 2 18 3 16 4 17 5 7 7 6 8 5 9 3 10 4 11 83 12 82 13
REMARK SMILES IDX 84 14 80 15 81 17 2 18 1 19 8 20 9 21 10 23 11 24 12 25
REMARK SMILES IDX 15 26 13 27 14 28 21 29 22 30 23 31 24 32 25 34 26 35 27 36
REMARK SMILES IDX 79 37 28 38 78 39 29 40 30 41 31 42 72 43 32 44 77 45 71 46
REMARK SMILES IDX 73 47 33 48 76 49 70 50 69 51 34 53 60 54 43 55 59 56 44 57
REMARK SMILES IDX 47 58 58 59 74 60 45 61 46 62 57 64 75 65 48 66 35 67 36 68
REMARK SMILES IDX 41 69 37 70 38 71 40 72 42 73 39 74 61 75 62 76 67 77 63 78
REMARK SMILES IDX 64 79 66 80 68 81 65 82 49 83 50 84 55 85 51 86 52 87 54 88
REMARK SMILES IDX 56 89 53 90
REMARK H PARENT 18 6 82 16 8 22 23 33 73 52 47 63
REMARK Flexibility Score: inf
ROOT
ATOM      1  C   UNL     1       6.812  -5.037   1.607  1.00  0.00     0.023 C 
ENDROOT
BRANCH   1   2
ATOM      2  C   UNL     1       5.736  -5.834   2.332  1.00  0.00     0.116 C 
BRANCH   2   3
ATOM      3  N   UNL     1       5.550  -5.449   3.714  1.00  0.00    -0.354 N 
ATOM      4  C   UNL     1       4.494  -4.829   4.308  1.00  0.00     0.244 C 
ATOM      5  O   UNL     1       4.454  -4.854   5.543  1.00  0.00    -0.273 OA
ATOM      6  H   UNL     1       6.298  -5.668   4.314  1.00  0.00     0.163 HD
BRANCH   4   7
ATOM      7  C   UNL     1       3.327  -4.232   3.504  1.00  0.00     0.191 C 
BRANCH   7   8
ATOM      8  C   UNL     1       2.253  -5.324   3.195  1.00  0.00     0.162 C 
BRANCH   8   9
ATOM      9  N   UNL     1       2.298  -6.063   1.911  1.00  0.00    -0.298 N 
ATOM     10  C   UNL     1       2.289  -8.186   0.794  1.00  0.00     0.033 A 
ATOM     11  C   UNL     1       2.401  -7.449   1.911  1.00  0.00     0.100 A 
ATOM     12  C   UNL     1       2.111  -7.461  -0.493  1.00  0.00     0.256 A 
ATOM     13  N   UNL     1       1.995  -6.109  -0.407  1.00  0.00    -0.274 N 
ATOM     14  O   UNL     1       2.059  -8.043  -1.570  1.00  0.00    -0.269 OA
ATOM     15  C   UNL     1       2.023  -5.374   0.737  1.00  0.00     0.328 A 
ATOM     16  H   UNL     1       1.880  -5.617  -1.251  1.00  0.00     0.175 HD
ATOM     17  O   UNL     1       1.843  -4.160   0.687  1.00  0.00    -0.248 OA
BRANCH  10  18
ATOM     18  C   UNL     1       2.282  -9.690   0.665  1.00  0.00     0.039 C 
ATOM     19  C   UNL     1       2.555 -10.496   1.926  1.00  0.00     0.009 C 
ENDBRANCH  10  18
ENDBRANCH   8   9
ENDBRANCH   7   8
BRANCH   7  20
ATOM     20  N   UNL     1       3.772  -3.411   2.383  1.00  0.00    -0.336 N 
ATOM     21  C   UNL     1       4.146  -2.088   2.358  1.00  0.00     0.287 C 
ATOM     22  H   UNL     1       3.810  -3.873   1.515  1.00  0.00     0.164 HD
ATOM     23  O   UNL     1       4.348  -1.585   1.254  1.00  0.00    -0.266 OA
BRANCH  21  24
ATOM     24  C   UNL     1       4.256  -1.347   3.592  1.00  0.00     0.191 A 
ATOM     25  C   UNL     1       5.003  -1.520   4.743  1.00  0.00     0.056 A 
ATOM     26  O   UNL     1       3.533  -0.187   3.698  1.00  0.00    -0.459 OA
ATOM     27  C   UNL     1       4.710  -0.421   5.590  1.00  0.00     0.043 A 
ATOM     28  C   UNL     1       3.806   0.356   4.910  1.00  0.00     0.196 A 
ENDBRANCH  21  24
ENDBRANCH   7  20
ENDBRANCH   4   7
ENDBRANCH   2   3
ENDBRANCH   1   2
BRANCH   1  29
ATOM     29  C   UNL     1       8.213  -5.114   2.208  1.00  0.00     0.023 C 
BRANCH  29  30
ATOM     30  C   UNL     1       8.720  -6.507   2.560  1.00  0.00     0.116 C 
BRANCH  30  31
ATOM     31  N   UNL     1       8.727  -7.443   1.445  1.00  0.00    -0.352 N 
ATOM     32  C   UNL     1       9.688  -8.369   1.103  1.00  0.00     0.251 C 
ATOM     33  H   UNL     1       7.939  -7.410   0.857  1.00  0.00     0.163 HD
ATOM     34  O   UNL     1       9.556  -9.059   0.098  1.00  0.00    -0.269 OA
BRANCH  32  35
ATOM     35  C   UNL     1      10.911  -8.481   1.926  1.00  0.00     0.039 A 
ATOM     36  C   UNL     1      10.828  -8.570   3.316  1.00  0.00     0.014 A 
ATOM     37  C   UNL     1      12.157  -8.407   1.297  1.00  0.00     0.014 A 
ATOM     38  C   UNL     1      11.973  -8.382   4.082  1.00  0.00     0.010 A 
ATOM     39  C   UNL     1      13.317  -8.306   2.071  1.00  0.00     0.010 A 
ATOM     40  C   UNL     1      13.227  -8.223   3.469  1.00  0.00    -0.014 A 
BRANCH  40  41
ATOM     41  C   UNL     1      14.418  -7.926   4.309  1.00  0.00     0.031 A 
ATOM     42  C   UNL     1      15.134  -6.604   4.188  1.00  0.00     0.074 A 
ATOM     43  C   UNL     1      14.816  -8.822   5.233  1.00  0.00     0.049 A 
ATOM     44  N   UNL     1      16.167  -6.160   4.861  1.00  0.00    -0.248 NA
ATOM     45  C   UNL     1      14.629  -5.658   3.180  1.00  0.00     0.031 C 
ATOM     46  C   UNL     1      14.201 -10.131   5.460  1.00  0.00     0.029 A 
ATOM     47  N   UNL     1      15.814  -8.756   6.171  1.00  0.00    -0.354 N 
ATOM     48  C   UNL     1      16.452  -4.903   4.340  1.00  0.00     0.074 A 
ATOM     49  C   UNL     1      15.496  -4.660   3.281  1.00  0.00     0.031 C 
ATOM     50  C   UNL     1      14.798 -10.721   6.506  1.00  0.00     0.029 A 
ATOM     51  C   UNL     1      15.874  -9.860   6.985  1.00  0.00     0.049 A 
ATOM     52  H   UNL     1      16.428  -7.991   6.253  1.00  0.00     0.167 HD
ATOM     53  C   UNL     1      17.413  -4.025   4.716  1.00  0.00     0.037 A 
ATOM     54  C   UNL     1      16.710 -10.153   7.998  1.00  0.00     0.037 A 
ATOM     55  C   UNL     1      18.341  -4.245   5.795  1.00  0.00     0.049 A 
ATOM     56  C   UNL     1      17.789  -9.175   8.366  1.00  0.00     0.074 A 
ATOM     57  C   UNL     1      19.318  -3.393   6.281  1.00  0.00     0.029 A 
ATOM     58  N   UNL     1      18.406  -5.402   6.556  1.00  0.00    -0.354 N 
ATOM     59  N   UNL     1      18.026  -7.982   7.880  1.00  0.00    -0.248 NA
ATOM     60  C   UNL     1      18.725  -9.596   9.418  1.00  0.00     0.031 C 
ATOM     61  C   UNL     1      20.001  -4.050   7.311  1.00  0.00     0.029 A 
ATOM     62  C   UNL     1      19.423  -5.296   7.491  1.00  0.00     0.049 A 
ATOM     63  H   UNL     1      17.817  -6.183   6.448  1.00  0.00     0.167 HD
ATOM     64  C   UNL     1      19.125  -7.501   8.579  1.00  0.00     0.074 A 
ATOM     65  C   UNL     1      19.494  -8.524   9.536  1.00  0.00     0.031 C 
ATOM     66  C   UNL     1      19.775  -6.321   8.438  1.00  0.00     0.037 A 
BRANCH  53  67
ATOM     67  C   UNL     1      17.526  -2.743   3.943  1.00  0.00     0.057 A 
ATOM     68  C   UNL     1      18.604  -2.530   3.075  1.00  0.00     0.134 A 
ATOM     69  C   UNL     1      16.599  -1.703   4.091  1.00  0.00     0.134 A 
ATOM     70  F   UNL     1      19.531  -3.482   2.893  1.00  0.00    -0.206 F 
ATOM     71  C   UNL     1      18.758  -1.327   2.383  1.00  0.00     0.040 A 
ATOM     72  C   UNL     1      16.731  -0.504   3.387  1.00  0.00     0.040 A 
ATOM     73  F   UNL     1      15.538  -1.848   4.898  1.00  0.00    -0.206 F 
ATOM     74  C   UNL     1      17.817  -0.311   2.535  1.00  0.00     0.006 A 
ENDBRANCH  53  67
BRANCH  54  75
ATOM     75  C   UNL     1      16.572 -11.432   8.736  1.00  0.00     0.057 A 
ATOM     76  C   UNL     1      16.881 -12.658   8.135  1.00  0.00     0.134 A 
ATOM     77  C   UNL     1      16.160 -11.453  10.073  1.00  0.00     0.134 A 
ATOM     78  F   UNL     1      17.279 -12.704   6.855  1.00  0.00    -0.206 F 
ATOM     79  C   UNL     1      16.780 -13.860   8.836  1.00  0.00     0.040 A 
ATOM     80  C   UNL     1      16.080 -12.645  10.794  1.00  0.00     0.040 A 
ATOM     81  F   UNL     1      15.871 -10.307  10.708  1.00  0.00    -0.206 F 
ATOM     82  C   UNL     1      16.388 -13.854  10.173  1.00  0.00     0.006 A 
ENDBRANCH  54  75
BRANCH  66  83
ATOM     83  C   UNL     1      20.928  -6.070   9.362  1.00  0.00     0.057 A 
ATOM     84  C   UNL     1      20.812  -5.158  10.419  1.00  0.00     0.134 A 
ATOM     85  C   UNL     1      22.154  -6.731   9.207  1.00  0.00     0.134 A 
ATOM     86  F   UNL     1      19.667  -4.489  10.619  1.00  0.00    -0.206 F 
ATOM     87  C   UNL     1      21.873  -4.916  11.291  1.00  0.00     0.040 A 
ATOM     88  C   UNL     1      23.214  -6.514  10.088  1.00  0.00     0.040 A 
ATOM     89  F   UNL     1      22.321  -7.629   8.225  1.00  0.00    -0.206 F 
ATOM     90  C   UNL     1      23.076  -5.601  11.132  1.00  0.00     0.006 A 
ENDBRANCH  66  83
ENDBRANCH  40  41
ENDBRANCH  32  35
ENDBRANCH  30  31
ENDBRANCH  29  30
ENDBRANCH   1  29
TORSDOF 16
