REMARK SMILES O=C(NCCCCNC(=O)c1cc2ccccc2cc1OCCO)c1ccc(-c2c3nc(c(-c4c(F)cccc4F)c4ccc([nH]4)c(-c4c(F)cccc4F)c4nc(c(-c5c(F)cccc5F)c5ccc2[nH]5)C=C4)C=C3)cc1
REMARK SMILES IDX 6 1 5 2 4 3 3 4 1 5 2 6 25 8 26 9 78 10 27 11 77 12 28 13
REMARK SMILES IDX 29 14 30 15 71 16 31 17 76 18 70 19 72 20 32 21 75 22 69 23
REMARK SMILES IDX 68 24 33 26 59 27 42 28 58 29 43 30 46 31 57 32 73 33 44 34
REMARK SMILES IDX 45 35 56 37 74 38 47 39 34 40 35 41 40 42 36 43 37 44 39 45
REMARK SMILES IDX 41 46 38 47 60 48 61 49 66 50 62 51 63 52 65 53 67 54 64 55
REMARK SMILES IDX 48 56 49 57 54 58 50 59 51 60 53 61 55 62 52 63 7 64 8 65
REMARK SMILES IDX 9 66 10 68 11 69 12 70 20 71 13 72 19 73 14 74 18 75 15 76
REMARK SMILES IDX 17 77 16 78 21 79 22 80 23 81 24 82
REMARK H PARENT 3 7 72 25 46 36 8 67 24 83
REMARK Flexibility Score: inf
ROOT
ATOM      1  C   UNL     1       4.987  -2.402   3.113  1.00  0.00     0.023 C 
ENDROOT
BRANCH   1   2
ATOM      2  C   UNL     1       5.348  -1.136   2.329  1.00  0.00     0.023 C 
BRANCH   2   3
ATOM      3  C   UNL     1       4.899  -1.079   0.871  1.00  0.00     0.116 C 
BRANCH   3   4
ATOM      4  N   UNL     1       3.455  -1.036   0.695  1.00  0.00    -0.352 N 
ATOM      5  O   UNL     1       1.419  -0.163   0.258  1.00  0.00    -0.269 OA
ATOM      6  C   UNL     1       2.639  -0.024   0.241  1.00  0.00     0.251 C 
ATOM      7  H   UNL     1       2.985  -1.865   0.941  1.00  0.00     0.163 HD
BRANCH   6   8
ATOM      8  C   UNL     1       3.213   1.256  -0.235  1.00  0.00     0.039 A 
ATOM      9  C   UNL     1       4.290   1.283  -1.123  1.00  0.00     0.014 A 
ATOM     10  C   UNL     1       2.651   2.458   0.209  1.00  0.00     0.014 A 
ATOM     11  C   UNL     1       4.918   2.492  -1.415  1.00  0.00     0.010 A 
ATOM     12  C   UNL     1       3.232   3.678  -0.153  1.00  0.00     0.010 A 
ATOM     13  C   UNL     1       4.404   3.703  -0.925  1.00  0.00    -0.014 A 
BRANCH  13  14
ATOM     14  C   UNL     1       5.101   4.982  -1.229  1.00  0.00     0.031 A 
ATOM     15  C   UNL     1       5.725   5.802  -0.131  1.00  0.00     0.074 A 
ATOM     16  C   UNL     1       5.198   5.395  -2.507  1.00  0.00     0.049 A 
ATOM     17  N   UNL     1       6.365   6.942  -0.212  1.00  0.00    -0.248 NA
ATOM     18  C   UNL     1       5.612   5.277   1.239  1.00  0.00     0.031 C 
ATOM     19  C   UNL     1       4.637   4.694  -3.663  1.00  0.00     0.029 A 
ATOM     20  N   UNL     1       5.809   6.497  -3.050  1.00  0.00    -0.354 N 
ATOM     21  C   UNL     1       6.711   7.281   1.091  1.00  0.00     0.074 A 
ATOM     22  C   UNL     1       6.188   6.238   1.948  1.00  0.00     0.031 C 
ATOM     23  C   UNL     1       4.958   5.364  -4.780  1.00  0.00     0.029 A 
ATOM     24  C   UNL     1       5.696   6.569  -4.416  1.00  0.00     0.049 A 
ATOM     25  H   UNL     1       6.284   7.171  -2.511  1.00  0.00     0.167 HD
ATOM     26  C   UNL     1       7.407   8.357   1.532  1.00  0.00     0.037 A 
ATOM     27  C   UNL     1       6.120   7.509  -5.282  1.00  0.00     0.037 A 
ATOM     28  C   UNL     1       7.943   9.387   0.678  1.00  0.00     0.049 A 
ATOM     29  C   UNL     1       6.862   8.707  -4.766  1.00  0.00     0.074 A 
ATOM     30  C   UNL     1       8.693  10.496   1.031  1.00  0.00     0.029 A 
ATOM     31  N   UNL     1       7.783   9.435  -0.698  1.00  0.00    -0.354 N 
ATOM     32  N   UNL     1       7.203   8.998  -3.534  1.00  0.00    -0.248 NA
ATOM     33  C   UNL     1       7.276   9.707  -5.758  1.00  0.00     0.031 C 
ATOM     34  C   UNL     1       8.948  11.240  -0.127  1.00  0.00     0.029 A 
ATOM     35  C   UNL     1       8.399  10.568  -1.207  1.00  0.00     0.049 A 
ATOM     36  H   UNL     1       7.302   8.765  -1.235  1.00  0.00     0.167 HD
ATOM     37  C   UNL     1       7.886  10.205  -3.605  1.00  0.00     0.074 A 
ATOM     38  C   UNL     1       7.926  10.582  -5.003  1.00  0.00     0.031 C 
ATOM     39  C   UNL     1       8.432  10.933  -2.600  1.00  0.00     0.037 A 
BRANCH  26  40
ATOM     40  C   UNL     1       7.614   8.491   3.014  1.00  0.00     0.057 A 
ATOM     41  C   UNL     1       8.495   7.661   3.720  1.00  0.00     0.134 A 
ATOM     42  C   UNL     1       6.955   9.494   3.739  1.00  0.00     0.134 A 
ATOM     43  F   UNL     1       9.152   6.675   3.089  1.00  0.00    -0.206 F 
ATOM     44  C   UNL     1       8.696   7.808   5.094  1.00  0.00     0.040 A 
ATOM     45  C   UNL     1       7.166   9.666   5.108  1.00  0.00     0.040 A 
ATOM     46  F   UNL     1       6.104  10.330   3.125  1.00  0.00    -0.206 F 
ATOM     47  C   UNL     1       8.034   8.818   5.791  1.00  0.00     0.006 A 
ENDBRANCH  26  40
BRANCH  27  48
ATOM     48  C   UNL     1       5.839   7.349  -6.730  1.00  0.00     0.057 A 
ATOM     49  C   UNL     1       6.863   7.064  -7.639  1.00  0.00     0.134 A 
ATOM     50  C   UNL     1       4.537   7.456  -7.234  1.00  0.00     0.134 A 
ATOM     51  F   UNL     1       8.133   6.969  -7.218  1.00  0.00    -0.206 F 
ATOM     52  C   UNL     1       6.604   6.897  -9.001  1.00  0.00     0.040 A 
ATOM     53  C   UNL     1       4.260   7.265  -8.588  1.00  0.00     0.040 A 
ATOM     54  F   UNL     1       3.512   7.721  -6.411  1.00  0.00    -0.206 F 
ATOM     55  C   UNL     1       5.297   6.989  -9.476  1.00  0.00     0.006 A 
ENDBRANCH  27  48
BRANCH  39  56
ATOM     56  C   UNL     1       9.143  12.197  -2.982  1.00  0.00     0.057 A 
ATOM     57  C   UNL     1       8.448  13.343  -3.388  1.00  0.00     0.134 A 
ATOM     58  C   UNL     1      10.540  12.277  -2.913  1.00  0.00     0.134 A 
ATOM     59  F   UNL     1       7.111  13.327  -3.489  1.00  0.00    -0.206 F 
ATOM     60  C   UNL     1       9.119  14.518  -3.733  1.00  0.00     0.040 A 
ATOM     61  C   UNL     1      11.220  13.453  -3.232  1.00  0.00     0.040 A 
ATOM     62  F   UNL     1      11.265  11.217  -2.524  1.00  0.00    -0.206 F 
ATOM     63  C   UNL     1      10.509  14.576  -3.649  1.00  0.00     0.006 A 
ENDBRANCH  39  56
ENDBRANCH  13  14
ENDBRANCH   6   8
ENDBRANCH   3   4
ENDBRANCH   2   3
ENDBRANCH   1   2
BRANCH   1  64
ATOM     64  C   UNL     1       5.290  -3.731   2.427  1.00  0.00     0.116 C 
BRANCH  64  65
ATOM     65  N   UNL     1       6.686  -3.925   2.076  1.00  0.00    -0.352 N 
ATOM     66  C   UNL     1       7.288  -5.106   1.697  1.00  0.00     0.255 C 
ATOM     67  H   UNL     1       7.263  -3.129   2.114  1.00  0.00     0.163 HD
ATOM     68  O   UNL     1       8.421  -5.107   1.229  1.00  0.00    -0.269 OA
BRANCH  66  69
ATOM     69  C   UNL     1       6.588  -6.384   1.921  1.00  0.00     0.082 A 
ATOM     70  C   UNL     1       6.845  -6.948   3.189  1.00  0.00     0.026 A 
ATOM     71  C   UNL     1       5.822  -7.087   0.985  1.00  0.00     0.132 A 
ATOM     72  C   UNL     1       6.310  -8.189   3.564  1.00  0.00    -0.017 A 
ATOM     73  C   UNL     1       5.262  -8.317   1.383  1.00  0.00     0.056 A 
ATOM     74  C   UNL     1       6.590  -8.773   4.811  1.00  0.00     0.009 A 
ATOM     75  C   UNL     1       5.478  -8.871   2.656  1.00  0.00    -0.015 A 
ATOM     76  C   UNL     1       6.030 -10.002   5.166  1.00  0.00     0.001 A 
ATOM     77  C   UNL     1       4.905 -10.097   3.034  1.00  0.00     0.009 A 
ATOM     78  C   UNL     1       5.177 -10.657   4.283  1.00  0.00     0.001 A 
BRANCH  71  79
ATOM     79  O   UNL     1       5.529  -6.829  -0.324  1.00  0.00    -0.490 OA
BRANCH  79  80
ATOM     80  C   UNL     1       5.625  -5.531  -0.898  1.00  0.00     0.257 C 
BRANCH  80  81
ATOM     81  C   UNL     1       4.227  -4.935  -1.067  1.00  0.00     0.197 C 
BRANCH  81  82
ATOM     82  O   UNL     1       3.431  -5.098   0.104  1.00  0.00    -0.393 OA
ATOM     83  H   UNL     1       3.319  -6.043   0.290  1.00  0.00     0.210 HD
ENDBRANCH  81  82
ENDBRANCH  80  81
ENDBRANCH  79  80
ENDBRANCH  71  79
ENDBRANCH  66  69
ENDBRANCH  64  65
ENDBRANCH   1  64
TORSDOF 15
