REMARK SMILES C#Cc1cc(Cl)c2c(c1)C=C(C(=O)NCCCCNC(=O)c1ccc(-c3c4nc(c(-c5c(F)cccc5F)c5ccc([nH]5)c(-c5c(F)cccc5F)c5nc(c(-c6c(F)cccc6F)c6ccc3[nH]6)C=C5)C=C4)cc1)[C@@H](C(F)(F)F)O2
REMARK SMILES IDX 17 1 16 2 15 3 14 4 12 5 13 6 11 8 3 9 4 10 9 11 5 12 8 13
REMARK SMILES IDX 6 14 7 15 10 16 81 17 76 18 2 19 1 20 77 21 78 22 79 23
REMARK SMILES IDX 80 24 18 25 19 26 20 27 21 29 22 30 23 31 75 32 24 33 74 34
REMARK SMILES IDX 25 35 26 36 27 37 68 38 28 39 73 40 67 41 69 42 29 43 72 44
REMARK SMILES IDX 66 45 65 46 30 48 56 49 39 50 55 51 40 52 43 53 54 54 70 55
REMARK SMILES IDX 41 56 42 57 53 59 71 60 44 61 31 62 32 63 37 64 33 65 34 66
REMARK SMILES IDX 36 67 38 68 35 69 57 70 58 71 63 72 59 73 60 74 62 75 64 76
REMARK SMILES IDX 61 77 45 78 46 79 51 80 47 81 48 82 50 83 52 84 49 85
REMARK H PARENT 14 7 19 28 69 47 43 58
REMARK Flexibility Score: inf
ROOT
ATOM      1  C   UNL     1     -10.987   3.575   1.665  1.00  0.00     0.023 C 
ENDROOT
BRANCH   1   2
ATOM      2  C   UNL     1      -9.928   2.489   1.531  1.00  0.00     0.023 C 
BRANCH   2   3
ATOM      3  C   UNL     1      -9.172   2.554   0.211  1.00  0.00     0.116 C 
BRANCH   3   4
ATOM      4  N   UNL     1      -8.073   3.504   0.254  1.00  0.00    -0.352 N 
ATOM      5  C   UNL     1      -6.720   3.453   0.179  1.00  0.00     0.251 C 
ATOM      6  O   UNL     1      -6.141   4.542   0.216  1.00  0.00    -0.270 OA
ATOM      7  H   UNL     1      -8.396   4.427   0.369  1.00  0.00     0.163 HD
BRANCH   5   8
ATOM      8  C   UNL     1      -5.926   2.193   0.064  1.00  0.00     0.067 C 
ATOM      9  C   UNL     1      -1.618  -0.014   0.042  1.00  0.00     0.027 A 
ATOM     10  C   UNL     1      -2.247  -1.260   0.041  1.00  0.00     0.041 A 
ATOM     11  C   UNL     1      -2.377   1.162   0.066  1.00  0.00     0.029 A 
ATOM     12  C   UNL     1      -3.634  -1.330   0.064  1.00  0.00     0.084 A 
ATOM     13  C   UNL     1      -3.774   1.095   0.089  1.00  0.00     0.020 A 
ATOM     14  Cl  UNL     1      -4.386  -2.886   0.074  1.00  0.00    -0.080 Cl
ATOM     15  C   UNL     1      -4.396  -0.158   0.081  1.00  0.00     0.146 A 
ATOM     16  C   UNL     1      -4.590   2.304   0.177  1.00  0.00     0.025 C 
ATOM     17  O   UNL     1      -5.750  -0.295   0.142  1.00  0.00    -0.474 OA
ATOM     18  C   UNL     1      -6.553   0.857  -0.190  1.00  0.00     0.314 C 
BRANCH   9  19
ATOM     19  C   UNL     1      -0.192   0.043   0.034  1.00  0.00    -0.070 C 
ATOM     20  C   UNL     1       1.010   0.051   0.035  1.00  0.00     0.010 C 
ENDBRANCH   9  19
BRANCH  18  21
ATOM     21  C   UNL     1      -7.071   0.716  -1.635  1.00  0.00     0.429 C 
ATOM     22  F   UNL     1      -7.989  -0.279  -1.715  1.00  0.00    -0.167 F 
ATOM     23  F   UNL     1      -7.688   1.837  -2.083  1.00  0.00    -0.167 F 
ATOM     24  F   UNL     1      -6.084   0.437  -2.514  1.00  0.00    -0.167 F 
ENDBRANCH  18  21
ENDBRANCH   5   8
ENDBRANCH   3   4
ENDBRANCH   2   3
ENDBRANCH   1   2
BRANCH   1  25
ATOM     25  C   UNL     1     -11.976   3.632   0.508  1.00  0.00     0.116 C 
BRANCH  25  26
ATOM     26  N   UNL     1     -12.648   2.362   0.257  1.00  0.00    -0.352 N 
ATOM     27  C   UNL     1     -13.992   2.141   0.075  1.00  0.00     0.251 C 
ATOM     28  H   UNL     1     -12.069   1.568   0.213  1.00  0.00     0.163 HD
ATOM     29  O   UNL     1     -14.448   1.007   0.004  1.00  0.00    -0.269 OA
BRANCH  27  30
ATOM     30  C   UNL     1     -14.880   3.315   0.010  1.00  0.00     0.039 A 
ATOM     31  C   UNL     1     -15.956   3.398   0.892  1.00  0.00     0.014 A 
ATOM     32  C   UNL     1     -14.559   4.377  -0.841  1.00  0.00     0.014 A 
ATOM     33  C   UNL     1     -16.677   4.587   0.968  1.00  0.00     0.010 A 
ATOM     34  C   UNL     1     -15.212   5.591  -0.688  1.00  0.00     0.010 A 
ATOM     35  C   UNL     1     -16.285   5.704   0.208  1.00  0.00    -0.014 A 
BRANCH  35  36
ATOM     36  C   UNL     1     -17.009   6.992   0.318  1.00  0.00     0.031 A 
ATOM     37  C   UNL     1     -17.733   7.539  -0.879  1.00  0.00     0.074 A 
ATOM     38  C   UNL     1     -16.993   7.676   1.478  1.00  0.00     0.049 A 
ATOM     39  N   UNL     1     -18.411   8.651  -0.994  1.00  0.00    -0.248 NA
ATOM     40  C   UNL     1     -17.671   6.743  -2.116  1.00  0.00     0.031 C 
ATOM     41  C   UNL     1     -16.297   7.260   2.697  1.00  0.00     0.029 A 
ATOM     42  N   UNL     1     -17.586   8.864   1.824  1.00  0.00    -0.354 N 
ATOM     43  C   UNL     1     -18.857   8.683  -2.308  1.00  0.00     0.074 A 
ATOM     44  C   UNL     1     -18.309   7.524  -2.974  1.00  0.00     0.031 C 
ATOM     45  C   UNL     1     -16.540   8.154   3.668  1.00  0.00     0.029 A 
ATOM     46  C   UNL     1     -17.369   9.229   3.130  1.00  0.00     0.049 A 
ATOM     47  H   UNL     1     -18.117   9.404   1.195  1.00  0.00     0.167 HD
ATOM     48  C   UNL     1     -19.682   9.578  -2.897  1.00  0.00     0.037 A 
ATOM     49  C   UNL     1     -17.791  10.309   3.816  1.00  0.00     0.037 A 
ATOM     50  C   UNL     1     -20.234  10.723  -2.225  1.00  0.00     0.049 A 
ATOM     51  C   UNL     1     -18.661  11.322   3.122  1.00  0.00     0.074 A 
ATOM     52  C   UNL     1     -21.104  11.673  -2.726  1.00  0.00     0.029 A 
ATOM     53  N   UNL     1     -19.965  11.075  -0.911  1.00  0.00    -0.354 N 
ATOM     54  N   UNL     1     -19.126  11.309   1.896  1.00  0.00    -0.248 NA
ATOM     55  C   UNL     1     -19.068  12.496   3.905  1.00  0.00     0.031 C 
ATOM     56  C   UNL     1     -21.312  12.636  -1.736  1.00  0.00     0.029 A 
ATOM     57  C   UNL     1     -20.628  12.249  -0.594  1.00  0.00     0.049 A 
ATOM     58  H   UNL     1     -19.390  10.566  -0.295  1.00  0.00     0.167 HD
ATOM     59  C   UNL     1     -19.900  12.455   1.768  1.00  0.00     0.074 A 
ATOM     60  C   UNL     1     -19.857  13.131   3.049  1.00  0.00     0.031 C 
ATOM     61  C   UNL     1     -20.581  12.908   0.687  1.00  0.00     0.037 A 
BRANCH  48  62
ATOM     62  C   UNL     1     -20.049   9.347  -4.334  1.00  0.00     0.057 A 
ATOM     63  C   UNL     1     -20.864   8.274  -4.724  1.00  0.00     0.134 A 
ATOM     64  C   UNL     1     -19.634  10.236  -5.332  1.00  0.00     0.134 A 
ATOM     65  F   UNL     1     -21.285   7.376  -3.820  1.00  0.00    -0.206 F 
ATOM     66  C   UNL     1     -21.237   8.085  -6.055  1.00  0.00     0.040 A 
ATOM     67  C   UNL     1     -20.028  10.077  -6.662  1.00  0.00     0.040 A 
ATOM     68  F   UNL     1     -18.855  11.286  -5.030  1.00  0.00    -0.206 F 
ATOM     69  C   UNL     1     -20.828   8.996  -7.027  1.00  0.00     0.006 A 
ENDBRANCH  48  62
BRANCH  49  70
ATOM     70  C   UNL     1     -17.425  10.465   5.248  1.00  0.00     0.057 A 
ATOM     71  C   UNL     1     -18.393  10.373   6.255  1.00  0.00     0.134 A 
ATOM     72  C   UNL     1     -16.101  10.688   5.649  1.00  0.00     0.134 A 
ATOM     73  F   UNL     1     -19.681  10.179   5.936  1.00  0.00    -0.206 F 
ATOM     74  C   UNL     1     -18.062  10.505   7.605  1.00  0.00     0.040 A 
ATOM     75  C   UNL     1     -15.751  10.792   6.997  1.00  0.00     0.040 A 
ATOM     76  F   UNL     1     -15.123  10.781   4.736  1.00  0.00    -0.206 F 
ATOM     77  C   UNL     1     -16.735  10.706   7.979  1.00  0.00     0.006 A 
ENDBRANCH  49  70
BRANCH  61  78
ATOM     78  C   UNL     1     -21.357  14.186   0.833  1.00  0.00     0.057 A 
ATOM     79  C   UNL     1     -20.719  15.427   0.950  1.00  0.00     0.134 A 
ATOM     80  C   UNL     1     -22.757  14.184   0.764  1.00  0.00     0.134 A 
ATOM     81  F   UNL     1     -19.382  15.500   1.029  1.00  0.00    -0.206 F 
ATOM     82  C   UNL     1     -21.445  16.618   1.006  1.00  0.00     0.040 A 
ATOM     83  C   UNL     1     -23.492  15.369   0.784  1.00  0.00     0.040 A 
ATOM     84  F   UNL     1     -23.431  13.031   0.637  1.00  0.00    -0.206 F 
ATOM     85  C   UNL     1     -22.835  16.591   0.910  1.00  0.00     0.006 A 
ENDBRANCH  61  78
ENDBRANCH  35  36
ENDBRANCH  27  30
ENDBRANCH  25  26
ENDBRANCH   1  25
TORSDOF 13
