REMARK SMILES CNC(=O)[C@H](C)Nc1ccc(C(F)(F)F)cc1C(=O)NCCCCNC(=O)c1ccc(-c2c3nc(c(-c4c(F)cccc4F)c4ccc([nH]4)c(-c4c(F)cccc4F)c4nc(c(-c5c(F)cccc5F)c5ccc2[nH]5)C=C4)C=C3)cc1
REMARK SMILES IDX 22 1 21 2 20 3 18 4 19 5 17 7 8 8 9 9 10 10 16 11 11 12 7 13
REMARK SMILES IDX 5 15 6 16 3 17 1 18 2 19 4 21 12 22 13 23 14 24 15 25 23 26
REMARK SMILES IDX 24 27 25 28 26 29 27 31 28 32 29 33 81 34 30 35 80 36 31 37
REMARK SMILES IDX 32 38 33 39 74 40 34 41 79 42 73 43 75 44 35 45 78 46 72 47
REMARK SMILES IDX 71 48 36 50 62 51 45 52 61 53 46 54 49 55 60 56 76 57 47 58
REMARK SMILES IDX 48 59 59 61 77 62 50 63 37 64 38 65 43 66 39 67 40 68 42 69
REMARK SMILES IDX 44 70 41 71 63 72 64 73 69 74 65 75 66 76 68 77 70 78 67 79
REMARK SMILES IDX 51 80 52 81 57 82 53 83 54 84 56 85 58 86 55 87
REMARK H PARENT 20 6 7 14 2 20 25 30 75 49 49 60
REMARK Flexibility Score: inf
ROOT
ATOM      1  C   UNL     1       1.257   2.057  -1.567  1.00  0.00     0.023 C 
ENDROOT
BRANCH   1   2
ATOM      2  C   UNL     1      -0.223   2.144  -1.163  1.00  0.00     0.116 C 
BRANCH   2   3
ATOM      3  N   UNL     1      -0.665   3.503  -0.843  1.00  0.00    -0.352 N 
ATOM      4  C   UNL     1      -1.898   4.035  -0.495  1.00  0.00     0.253 C 
ATOM      5  O   UNL     1      -2.075   5.261  -0.471  1.00  0.00    -0.269 OA
ATOM      6  H   UNL     1       0.057   4.171  -0.881  1.00  0.00     0.163 HD
BRANCH   4   7
ATOM      7  C   UNL     1      -3.073   3.219  -0.184  1.00  0.00     0.063 A 
ATOM      8  C   UNL     1      -2.950   2.021   0.502  1.00  0.00     0.048 A 
ATOM      9  C   UNL     1      -4.056   1.152   0.433  1.00  0.00     0.027 A 
ATOM     10  C   UNL     1      -5.282   1.548  -0.144  1.00  0.00     0.015 A 
ATOM     11  C   UNL     1      -4.325   3.674  -0.655  1.00  0.00     0.029 A 
ATOM     12  C   UNL     1      -5.456   2.853  -0.612  1.00  0.00     0.056 A 
BRANCH   8  13
ATOM     13  N   UNL     1      -1.812   1.685   1.228  1.00  0.00    -0.373 N 
ATOM     14  H   UNL     1      -1.278   0.926   0.901  1.00  0.00     0.161 HD
BRANCH  13  15
ATOM     15  C   UNL     1      -1.327   2.378   2.466  1.00  0.00     0.165 C 
ATOM     16  C   UNL     1      -0.930   1.119   3.329  1.00  0.00     0.041 C 
BRANCH  15  17
ATOM     17  C   UNL     1      -0.004   3.273   2.549  1.00  0.00     0.241 C 
ATOM     18  C   UNL     1       0.319   5.653   1.293  1.00  0.00     0.142 C 
ATOM     19  N   UNL     1       0.454   4.446   2.100  1.00  0.00    -0.357 N 
ATOM     20  H   UNL     1       1.331   4.544   2.536  1.00  0.00     0.163 HD
ATOM     21  O   UNL     1       0.885   2.879   3.350  1.00  0.00    -0.273 OA
ENDBRANCH  15  17
ENDBRANCH  13  15
ENDBRANCH   8  13
BRANCH  12  22
ATOM     22  C   UNL     1      -6.795   3.360  -1.097  1.00  0.00     0.416 C 
ATOM     23  F   UNL     1      -6.931   3.279  -2.449  1.00  0.00    -0.166 F 
ATOM     24  F   UNL     1      -7.849   2.671  -0.574  1.00  0.00    -0.166 F 
ATOM     25  F   UNL     1      -7.017   4.666  -0.776  1.00  0.00    -0.166 F 
ENDBRANCH  12  22
ENDBRANCH   4   7
ENDBRANCH   2   3
ENDBRANCH   1   2
BRANCH   1  26
ATOM     26  C   UNL     1       2.320   2.563  -0.568  1.00  0.00     0.023 C 
BRANCH  26  27
ATOM     27  C   UNL     1       2.447   1.882   0.801  1.00  0.00     0.116 C 
BRANCH  27  28
ATOM     28  N   UNL     1       3.030   0.555   0.786  1.00  0.00    -0.352 N 
ATOM     29  C   UNL     1       4.086   0.010   1.481  1.00  0.00     0.251 C 
ATOM     30  H   UNL     1       2.591  -0.070   0.166  1.00  0.00     0.163 HD
ATOM     31  O   UNL     1       4.329  -1.186   1.317  1.00  0.00    -0.269 OA
BRANCH  29  32
ATOM     32  C   UNL     1       4.987   0.795   2.371  1.00  0.00     0.039 A 
ATOM     33  C   UNL     1       6.364   0.557   2.253  1.00  0.00     0.014 A 
ATOM     34  C   UNL     1       4.542   1.664   3.371  1.00  0.00     0.014 A 
ATOM     35  C   UNL     1       7.286   1.219   3.077  1.00  0.00     0.010 A 
ATOM     36  C   UNL     1       5.471   2.358   4.174  1.00  0.00     0.010 A 
ATOM     37  C   UNL     1       6.855   2.152   4.032  1.00  0.00    -0.014 A 
BRANCH  37  38
ATOM     38  C   UNL     1       7.856   2.918   4.838  1.00  0.00     0.031 A 
ATOM     39  C   UNL     1       8.006   2.709   6.323  1.00  0.00     0.074 A 
ATOM     40  C   UNL     1       8.642   3.833   4.235  1.00  0.00     0.049 A 
ATOM     41  N   UNL     1       8.849   3.271   7.159  1.00  0.00    -0.248 NA
ATOM     42  C   UNL     1       7.080   1.760   6.953  1.00  0.00     0.031 C 
ATOM     43  C   UNL     1       8.590   4.182   2.815  1.00  0.00     0.029 A 
ATOM     44  N   UNL     1       9.635   4.642   4.739  1.00  0.00    -0.354 N 
ATOM     45  C   UNL     1       8.551   2.751   8.412  1.00  0.00     0.074 A 
ATOM     46  C   UNL     1       7.420   1.862   8.231  1.00  0.00     0.031 C 
ATOM     47  C   UNL     1       9.515   5.120   2.559  1.00  0.00     0.029 A 
ATOM     48  C   UNL     1      10.213   5.458   3.797  1.00  0.00     0.049 A 
ATOM     49  H   UNL     1       9.905   4.636   5.686  1.00  0.00     0.167 HD
ATOM     50  C   UNL     1       9.165   2.976   9.602  1.00  0.00     0.037 A 
ATOM     51  C   UNL     1      11.194   6.376   3.907  1.00  0.00     0.037 A 
ATOM     52  C   UNL     1      10.294   3.852   9.796  1.00  0.00     0.049 A 
ATOM     53  C   UNL     1      11.868   6.607   5.231  1.00  0.00     0.074 A 
ATOM     54  C   UNL     1      11.016   4.087  10.956  1.00  0.00     0.029 A 
ATOM     55  N   UNL     1      10.860   4.649   8.812  1.00  0.00    -0.354 N 
ATOM     56  N   UNL     1      11.629   6.042   6.388  1.00  0.00    -0.248 NA
ATOM     57  C   UNL     1      12.959   7.593   5.259  1.00  0.00     0.031 C 
ATOM     58  C   UNL     1      11.986   5.059  10.685  1.00  0.00     0.029 A 
ATOM     59  C   UNL     1      11.903   5.394   9.344  1.00  0.00     0.049 A 
ATOM     60  H   UNL     1      10.564   4.681   7.874  1.00  0.00     0.167 HD
ATOM     61  C   UNL     1      12.553   6.582   7.274  1.00  0.00     0.074 A 
ATOM     62  C   UNL     1      13.365   7.512   6.519  1.00  0.00     0.031 C 
ATOM     63  C   UNL     1      12.713   6.323   8.595  1.00  0.00     0.037 A 
BRANCH  50  64
ATOM     64  C   UNL     1       8.612   2.261  10.804  1.00  0.00     0.057 A 
ATOM     65  C   UNL     1       8.746   0.875  10.968  1.00  0.00     0.134 A 
ATOM     66  C   UNL     1       7.951   2.967  11.818  1.00  0.00     0.134 A 
ATOM     67  F   UNL     1       9.366   0.138  10.034  1.00  0.00    -0.206 F 
ATOM     68  C   UNL     1       8.206   0.213  12.072  1.00  0.00     0.040 A 
ATOM     69  C   UNL     1       7.432   2.320  12.941  1.00  0.00     0.040 A 
ATOM     70  F   UNL     1       7.802   4.298  11.736  1.00  0.00    -0.206 F 
ATOM     71  C   UNL     1       7.548   0.937  13.064  1.00  0.00     0.006 A 
ENDBRANCH  50  64
BRANCH  51  72
ATOM     72  C   UNL     1      11.622   7.133   2.703  1.00  0.00     0.057 A 
ATOM     73  C   UNL     1      12.847   6.868   2.079  1.00  0.00     0.134 A 
ATOM     74  C   UNL     1      10.810   8.123   2.139  1.00  0.00     0.134 A 
ATOM     75  F   UNL     1      13.677   5.946   2.586  1.00  0.00    -0.206 F 
ATOM     76  C   UNL     1      13.252   7.567   0.940  1.00  0.00     0.040 A 
ATOM     77  C   UNL     1      11.192   8.814   0.988  1.00  0.00     0.040 A 
ATOM     78  F   UNL     1       9.623   8.420   2.689  1.00  0.00    -0.206 F 
ATOM     79  C   UNL     1      12.419   8.538   0.387  1.00  0.00     0.006 A 
ENDBRANCH  51  72
BRANCH  63  80
ATOM     80  C   UNL     1      13.828   7.032   9.311  1.00  0.00     0.057 A 
ATOM     81  C   UNL     1      13.769   8.400   9.608  1.00  0.00     0.134 A 
ATOM     82  C   UNL     1      14.963   6.330   9.736  1.00  0.00     0.134 A 
ATOM     83  F   UNL     1      12.717   9.136   9.219  1.00  0.00    -0.206 F 
ATOM     84  C   UNL     1      14.807   9.047  10.282  1.00  0.00     0.040 A 
ATOM     85  C   UNL     1      15.997   6.960  10.432  1.00  0.00     0.040 A 
ATOM     86  F   UNL     1      15.084   5.016   9.491  1.00  0.00    -0.206 F 
ATOM     87  C   UNL     1      15.923   8.325  10.702  1.00  0.00     0.006 A 
ENDBRANCH  63  80
ENDBRANCH  37  38
ENDBRANCH  29  32
ENDBRANCH  27  28
ENDBRANCH  26  27
ENDBRANCH   1  26
TORSDOF 15
