REMARK SMILES C=C1C(=O)O[C@@H]2[C@H]1CC[C@H](C)[C@@H](CCC(=O)NCCCCNC(=O)c1ccc(-c3c4nc(c(-c5c(F)cccc5F)c5ccc([nH]5)c(-c5c(F)cccc5F)c5nc(c(-c6c(F)cccc6F)c6ccc3[nH]6)C=C5)C=C4)cc1)[C@@]2(C)O
REMARK SMILES IDX 18 1 17 2 15 3 16 4 14 6 13 7 12 8 79 9 80 10 6 11 1 12 2 13
REMARK SMILES IDX 3 14 7 15 4 16 5 17 81 19 10 21 11 22 9 23 8 24 19 26 20 27
REMARK SMILES IDX 21 28 22 29 23 30 24 32 25 33 26 34 78 35 27 36 77 37 28 38
REMARK SMILES IDX 29 39 30 40 71 41 31 42 76 43 70 44 72 45 32 46 75 47 69 48
REMARK SMILES IDX 68 49 33 51 59 52 42 53 58 54 43 55 46 56 57 57 73 58 44 59
REMARK SMILES IDX 45 60 56 62 74 63 47 64 34 65 35 66 40 67 36 68 37 69 39 70
REMARK SMILES IDX 41 71 38 72 60 73 61 74 66 75 62 76 63 77 65 78 67 79 64 80
REMARK SMILES IDX 48 81 49 82 54 83 50 84 51 85 53 86 55 87 52 88
REMARK H PARENT 17 5 81 20 22 31 72 50 46 61
REMARK Flexibility Score: 90.00
ROOT
ATOM      1  C   UNL     1      -3.718   2.845  -1.742  1.00  0.00     0.116 C 
ENDROOT
BRANCH   1   2
ATOM      2  N   UNL     1      -4.439   3.941  -1.116  1.00  0.00    -0.356 N 
ATOM      3  C   UNL     1      -4.059   5.221  -0.864  1.00  0.00     0.220 C 
ATOM      4  O   UNL     1      -4.877   5.969  -0.325  1.00  0.00    -0.275 OA
ATOM      5  H   UNL     1      -5.353   3.719  -0.827  1.00  0.00     0.163 HD
BRANCH   3   6
ATOM      6  C   UNL     1      -2.669   5.714  -1.207  1.00  0.00     0.100 C 
BRANCH   6   7
ATOM      7  C   UNL     1      -1.757   5.925   0.022  1.00  0.00     0.017 C 
BRANCH   7   8
ATOM      8  C   UNL     1      -0.731   4.802   0.462  1.00  0.00     0.028 C 
BRANCH   8   9
ATOM      9  C   UNL     1      -1.321   3.835   1.563  1.00  0.00     0.102 C 
ATOM     10  C   UNL     1      -1.746   4.652   2.817  1.00  0.00     0.046 C 
BRANCH   9  11
ATOM     11  C   UNL     1      -0.380   2.720   2.111  1.00  0.00     0.216 C 
ATOM     12  C   UNL     1       1.769  -0.143   1.680  1.00  0.00     0.021 C 
ATOM     13  C   UNL     1       1.183   1.053   1.821  1.00  0.00     0.037 C 
ATOM     14  C   UNL     1       1.794   2.194   2.535  1.00  0.00     0.334 C 
ATOM     15  C   UNL     1      -0.120   1.498   1.250  1.00  0.00     0.070 CG0
ATOM     16  O   UNL     1       2.920   2.237   3.007  1.00  0.00    -0.247 OA
ATOM     17  O   UNL     1       0.900   3.223   2.517  1.00  0.00    -0.455 OA
ATOM     18  G   UNL     1      -0.004   1.737  -0.241  1.00  0.00     0.000 G0
ENDBRANCH   9  11
BRANCH   9  19
ATOM     19  O   UNL     1      -2.490   3.193   1.062  1.00  0.00    -0.386 OA
ATOM     20  H   UNL     1      -2.260   2.672   0.277  1.00  0.00     0.211 HD
ENDBRANCH   9  19
ENDBRANCH   8   9
BRANCH   8  21
ATOM     21  C   UNL     1      -0.039   4.207  -0.810  1.00  0.00    -0.008 C 
ATOM     22  C   UNL     1       0.834   5.271  -1.506  1.00  0.00     0.008 C 
BRANCH  21  23
ATOM     23  C   UNL     1       0.816   2.950  -0.650  1.00  0.00     0.004 C 
BRANCH  23  24
ATOM     24  C   UNL     1      -0.004   1.737  -0.241  1.00  0.00     0.013 CG0
ATOM     25  G   UNL     1      -0.120   1.498   1.250  1.00  0.00     0.000 G0
ENDBRANCH  23  24
ENDBRANCH  21  23
ENDBRANCH   8  21
ENDBRANCH   7   8
ENDBRANCH   6   7
ENDBRANCH   3   6
ENDBRANCH   1   2
BRANCH   1  26
ATOM     26  C   UNL     1      -4.072   1.504  -1.095  1.00  0.00     0.023 C 
BRANCH  26  27
ATOM     27  C   UNL     1      -3.372   0.239  -1.623  1.00  0.00     0.023 C 
BRANCH  27  28
ATOM     28  C   UNL     1      -2.584   0.354  -2.929  1.00  0.00     0.116 C 
BRANCH  28  29
ATOM     29  N   UNL     1      -1.167   0.017  -2.782  1.00  0.00    -0.352 N 
ATOM     30  C   UNL     1      -0.525  -1.196  -2.674  1.00  0.00     0.251 C 
ATOM     31  H   UNL     1      -0.567   0.797  -2.757  1.00  0.00     0.163 HD
ATOM     32  O   UNL     1       0.648  -1.251  -2.318  1.00  0.00    -0.269 OA
BRANCH  30  33
ATOM     33  C   UNL     1      -1.260  -2.438  -2.968  1.00  0.00     0.039 A 
ATOM     34  C   UNL     1      -1.105  -3.568  -2.161  1.00  0.00     0.014 A 
ATOM     35  C   UNL     1      -2.121  -2.470  -4.057  1.00  0.00     0.014 A 
ATOM     36  C   UNL     1      -1.914  -4.687  -2.384  1.00  0.00     0.010 A 
ATOM     37  C   UNL     1      -3.023  -3.509  -4.181  1.00  0.00     0.010 A 
ATOM     38  C   UNL     1      -2.929  -4.636  -3.353  1.00  0.00    -0.014 A 
BRANCH  38  39
ATOM     39  C   UNL     1      -3.918  -5.724  -3.563  1.00  0.00     0.031 A 
ATOM     40  C   UNL     1      -4.117  -6.271  -4.955  1.00  0.00     0.074 A 
ATOM     41  C   UNL     1      -4.747  -6.084  -2.564  1.00  0.00     0.049 A 
ATOM     42  N   UNL     1      -5.110  -6.969  -5.439  1.00  0.00    -0.248 NA
ATOM     43  C   UNL     1      -3.098  -5.906  -5.956  1.00  0.00     0.031 C 
ATOM     44  C   UNL     1      -4.710  -5.570  -1.193  1.00  0.00     0.029 A 
ATOM     45  N   UNL     1      -5.811  -6.950  -2.561  1.00  0.00    -0.354 N 
ATOM     46  C   UNL     1      -4.874  -7.055  -6.806  1.00  0.00     0.074 A 
ATOM     47  C   UNL     1      -3.678  -6.293  -7.081  1.00  0.00     0.031 C 
ATOM     48  C   UNL     1      -5.685  -6.152  -0.475  1.00  0.00     0.029 A 
ATOM     49  C   UNL     1      -6.449  -7.036  -1.346  1.00  0.00     0.049 A 
ATOM     50  H   UNL     1      -6.092  -7.462  -3.354  1.00  0.00     0.167 HD
ATOM     51  C   UNL     1      -5.578  -7.733  -7.743  1.00  0.00     0.037 A 
ATOM     52  C   UNL     1      -7.536  -7.741  -0.984  1.00  0.00     0.037 A 
ATOM     53  C   UNL     1      -6.700  -8.577  -7.434  1.00  0.00     0.049 A 
ATOM     54  C   UNL     1      -8.230  -8.582  -2.019  1.00  0.00     0.074 A 
ATOM     55  C   UNL     1      -7.420  -9.402  -8.280  1.00  0.00     0.029 A 
ATOM     56  N   UNL     1      -7.242  -8.728  -6.166  1.00  0.00    -0.354 N 
ATOM     57  N   UNL     1      -7.972  -8.693  -3.301  1.00  0.00    -0.248 NA
ATOM     58  C   UNL     1      -9.361  -9.398  -1.560  1.00  0.00     0.031 C 
ATOM     59  C   UNL     1      -8.406 -10.043  -7.524  1.00  0.00     0.029 A 
ATOM     60  C   UNL     1      -8.281  -9.639  -6.204  1.00  0.00     0.049 A 
ATOM     61  H   UNL     1      -6.932  -8.256  -5.359  1.00  0.00     0.167 HD
ATOM     62  C   UNL     1      -8.889  -9.611  -3.794  1.00  0.00     0.074 A 
ATOM     63  C   UNL     1      -9.699 -10.037  -2.671  1.00  0.00     0.031 C 
ATOM     64  C   UNL     1      -9.052 -10.059  -5.063  1.00  0.00     0.037 A 
BRANCH  51  65
ATOM     65  C   UNL     1      -5.133  -7.618  -9.173  1.00  0.00     0.057 A 
ATOM     66  C   UNL     1      -3.924  -8.167  -9.620  1.00  0.00     0.134 A 
ATOM     67  C   UNL     1      -5.933  -6.967 -10.121  1.00  0.00     0.134 A 
ATOM     68  F   UNL     1      -3.103  -8.792  -8.763  1.00  0.00    -0.206 F 
ATOM     69  C   UNL     1      -3.510  -8.043 -10.948  1.00  0.00     0.040 A 
ATOM     70  C   UNL     1      -5.545  -6.865 -11.459  1.00  0.00     0.040 A 
ATOM     71  F   UNL     1      -7.107  -6.423  -9.766  1.00  0.00    -0.206 F 
ATOM     72  C   UNL     1      -4.325  -7.396 -11.873  1.00  0.00     0.006 A 
ENDBRANCH  51  65
BRANCH  52  73
ATOM     73  C   UNL     1      -8.008  -7.722   0.423  1.00  0.00     0.057 A 
ATOM     74  C   UNL     1      -7.847  -8.845   1.244  1.00  0.00     0.134 A 
ATOM     75  C   UNL     1      -8.627  -6.599   0.983  1.00  0.00     0.134 A 
ATOM     76  F   UNL     1      -7.273  -9.956   0.760  1.00  0.00    -0.206 F 
ATOM     77  C   UNL     1      -8.307  -8.863   2.562  1.00  0.00     0.040 A 
ATOM     78  C   UNL     1      -9.070  -6.593   2.308  1.00  0.00     0.040 A 
ATOM     79  F   UNL     1      -8.797  -5.485   0.255  1.00  0.00    -0.206 F 
ATOM     80  C   UNL     1      -8.918  -7.731   3.098  1.00  0.00     0.006 A 
ENDBRANCH  52  73
BRANCH  64  81
ATOM     81  C   UNL     1     -10.112 -11.092  -5.287  1.00  0.00     0.057 A 
ATOM     82  C   UNL     1     -11.472 -10.762  -5.293  1.00  0.00     0.134 A 
ATOM     83  C   UNL     1      -9.763 -12.423  -5.547  1.00  0.00     0.134 A 
ATOM     84  F   UNL     1     -11.868  -9.505  -5.037  1.00  0.00    -0.206 F 
ATOM     85  C   UNL     1     -12.452 -11.726  -5.530  1.00  0.00     0.040 A 
ATOM     86  C   UNL     1     -10.732 -13.390  -5.809  1.00  0.00     0.040 A 
ATOM     87  F   UNL     1      -8.475 -12.798  -5.564  1.00  0.00    -0.206 F 
ATOM     88  C   UNL     1     -12.081 -13.043  -5.796  1.00  0.00     0.006 A 
ENDBRANCH  64  81
ENDBRANCH  38  39
ENDBRANCH  30  33
ENDBRANCH  28  29
ENDBRANCH  27  28
ENDBRANCH  26  27
ENDBRANCH   1  26
TORSDOF 14
