REMARK SMILES C[NH+]1CCN(C(=O)c2ccc3c(c2)N(CC(=O)NCCCCNC(=O)c2ccc(-c4c5nc(c(-c6c(F)cccc6F)c6ccc([nH]6)c(-c6c(F)cccc6F)c6nc(c(-c7c(F)cccc7F)c7ccc4[nH]7)C=C6)C=C5)cc2)C(=O)CO3)CC1
REMARK SMILES IDX 20 1 19 2 18 3 16 4 17 5 15 7 14 8 8 9 9 10 13 11 10 12
REMARK SMILES IDX 12 13 11 14 83 15 80 16 82 17 81 18 6 19 1 20 2 21 3 22
REMARK SMILES IDX 85 23 4 25 84 26 5 27 7 28 21 29 22 30 23 31 24 32 25 34
REMARK SMILES IDX 26 35 27 36 79 37 28 38 78 39 29 40 30 41 31 42 72 43 32 44
REMARK SMILES IDX 77 45 71 46 73 47 33 48 76 49 70 50 69 51 34 53 60 54 43 55
REMARK SMILES IDX 59 56 44 57 47 58 58 59 74 60 45 61 46 62 57 64 75 65 48 66
REMARK SMILES IDX 35 67 36 68 41 69 37 70 38 71 40 72 42 73 39 74 61 75 62 76
REMARK SMILES IDX 67 77 63 78 64 79 66 80 68 81 65 82 49 83 50 84 55 85 51 86
REMARK SMILES IDX 52 87 54 88 56 89 53 90
REMARK H PARENT 18 6 2 24 23 33 73 52 47 63
REMARK Flexibility Score: inf
ROOT
ATOM      1  C   UNL     1      -2.622  -6.676   0.500  1.00  0.00     0.023 C 
ENDROOT
BRANCH   1   2
ATOM      2  C   UNL     1      -1.573  -6.637   1.610  1.00  0.00     0.116 C 
BRANCH   2   3
ATOM      3  N   UNL     1      -0.824  -5.398   1.609  1.00  0.00    -0.355 N 
ATOM      4  C   UNL     1      -0.917  -4.337   2.460  1.00  0.00     0.240 C 
ATOM      5  O   UNL     1      -0.085  -3.434   2.335  1.00  0.00    -0.273 OA
ATOM      6  H   UNL     1      -0.154  -5.309   0.894  1.00  0.00     0.163 HD
BRANCH   4   7
ATOM      7  C   UNL     1      -1.960  -4.292   3.586  1.00  0.00     0.225 C 
BRANCH   7   8
ATOM      8  N   UNL     1      -3.351  -4.369   3.138  1.00  0.00    -0.296 N 
ATOM      9  C   UNL     1      -3.785  -1.284   1.051  1.00  0.00     0.042 A 
ATOM     10  C   UNL     1      -5.012  -1.548   0.440  1.00  0.00     0.018 A 
ATOM     11  C   UNL     1      -3.245  -2.178   1.986  1.00  0.00     0.044 A 
ATOM     12  C   UNL     1      -5.683  -2.730   0.735  1.00  0.00     0.049 A 
ATOM     13  C   UNL     1      -3.905  -3.381   2.274  1.00  0.00     0.087 A 
ATOM     14  C   UNL     1      -5.138  -3.633   1.650  1.00  0.00     0.143 A 
ATOM     15  O   UNL     1      -5.849  -4.788   1.823  1.00  0.00    -0.482 OA
ATOM     16  C   UNL     1      -4.131  -5.441   3.550  1.00  0.00     0.265 C 
ATOM     17  C   UNL     1      -5.569  -5.431   3.051  1.00  0.00     0.330 C 
ATOM     18  O   UNL     1      -3.731  -6.324   4.309  1.00  0.00    -0.270 OA
BRANCH   9  19
ATOM     19  C   UNL     1      -3.104  -0.009   0.736  1.00  0.00     0.254 C 
ATOM     20  C   UNL     1       2.452   0.094   0.058  1.00  0.00     0.332 C 
ATOM     21  N   UNL     1       1.045   0.077  -0.341  1.00  0.00    -0.334 N 
ATOM     22  C   UNL     1       0.331   1.244   0.226  1.00  0.00     0.283 C 
ATOM     23  C   UNL     1       0.395  -1.165   0.129  1.00  0.00     0.283 C 
ATOM     24  H   UNL     1       1.002   0.120  -1.359  1.00  0.00     0.347 HD
ATOM     25  C   UNL     1      -1.171   1.241  -0.118  1.00  0.00     0.181 C 
ATOM     26  C   UNL     1      -1.092  -1.213  -0.268  1.00  0.00     0.181 C 
ATOM     27  N   UNL     1      -1.816  -0.031   0.218  1.00  0.00    -0.327 N 
ATOM     28  O   UNL     1      -3.741   1.023   0.938  1.00  0.00    -0.269 OA
ENDBRANCH   9  19
ENDBRANCH   7   8
ENDBRANCH   4   7
ENDBRANCH   2   3
ENDBRANCH   1   2
BRANCH   1  29
ATOM     29  C   UNL     1      -2.050  -6.739  -0.920  1.00  0.00     0.023 C 
BRANCH  29  30
ATOM     30  C   UNL     1      -1.097  -7.897  -1.192  1.00  0.00     0.116 C 
BRANCH  30  31
ATOM     31  N   UNL     1      -1.689  -9.202  -0.946  1.00  0.00    -0.352 N 
ATOM     32  C   UNL     1      -1.548 -10.363  -1.669  1.00  0.00     0.251 C 
ATOM     33  H   UNL     1      -2.271  -9.262  -0.155  1.00  0.00     0.163 HD
ATOM     34  O   UNL     1      -2.212 -11.355  -1.382  1.00  0.00    -0.269 OA
BRANCH  32  35
ATOM     35  C   UNL     1      -0.622 -10.402  -2.820  1.00  0.00     0.039 A 
ATOM     36  C   UNL     1      -1.071 -10.946  -4.026  1.00  0.00     0.014 A 
ATOM     37  C   UNL     1       0.673  -9.887  -2.718  1.00  0.00     0.014 A 
ATOM     38  C   UNL     1      -0.245 -10.906  -5.152  1.00  0.00     0.010 A 
ATOM     39  C   UNL     1       1.466  -9.784  -3.857  1.00  0.00     0.010 A 
ATOM     40  C   UNL     1       1.014 -10.289  -5.086  1.00  0.00    -0.014 A 
BRANCH  40  41
ATOM     41  C   UNL     1       1.870 -10.152  -6.291  1.00  0.00     0.031 A 
ATOM     42  C   UNL     1       3.200 -10.848  -6.358  1.00  0.00     0.074 A 
ATOM     43  C   UNL     1       1.478  -9.349  -7.299  1.00  0.00     0.049 A 
ATOM     44  N   UNL     1       4.117 -10.793  -7.291  1.00  0.00    -0.248 NA
ATOM     45  C   UNL     1       3.559 -11.697  -5.211  1.00  0.00     0.031 C 
ATOM     46  C   UNL     1       0.229  -8.586  -7.338  1.00  0.00     0.029 A 
ATOM     47  N   UNL     1       2.097  -9.032  -8.482  1.00  0.00    -0.354 N 
ATOM     48  C   UNL     1       5.162 -11.589  -6.841  1.00  0.00     0.074 A 
ATOM     49  C   UNL     1       4.791 -12.068  -5.526  1.00  0.00     0.031 C 
ATOM     50  C   UNL     1       0.161  -7.914  -8.498  1.00  0.00     0.029 A 
ATOM     51  C   UNL     1       1.376  -8.164  -9.266  1.00  0.00     0.049 A 
ATOM     52  H   UNL     1       2.975  -9.393  -8.744  1.00  0.00     0.167 HD
ATOM     53  C   UNL     1       6.314 -11.913  -7.474  1.00  0.00     0.037 A 
ATOM     54  C   UNL     1       1.665  -7.628 -10.467  1.00  0.00     0.037 A 
ATOM     55  C   UNL     1       6.675 -11.449  -8.788  1.00  0.00     0.049 A 
ATOM     56  C   UNL     1       2.962  -7.982 -11.138  1.00  0.00     0.074 A 
ATOM     57  C   UNL     1       7.798 -11.758  -9.535  1.00  0.00     0.029 A 
ATOM     58  N   UNL     1       5.917 -10.573  -9.551  1.00  0.00    -0.354 N 
ATOM     59  N   UNL     1       3.916  -8.782 -10.727  1.00  0.00    -0.248 NA
ATOM     60  C   UNL     1       3.223  -7.359 -12.444  1.00  0.00     0.031 C 
ATOM     61  C   UNL     1       7.740 -11.036 -10.732  1.00  0.00     0.029 A 
ATOM     62  C   UNL     1       6.558 -10.314 -10.751  1.00  0.00     0.049 A 
ATOM     63  H   UNL     1       5.051 -10.191  -9.279  1.00  0.00     0.167 HD
ATOM     64  C   UNL     1       4.872  -8.784 -11.734  1.00  0.00     0.074 A 
ATOM     65  C   UNL     1       4.379  -7.912 -12.780  1.00  0.00     0.031 C 
ATOM     66  C   UNL     1       6.052  -9.450 -11.787  1.00  0.00     0.037 A 
BRANCH  53  67
ATOM     67  C   UNL     1       7.267 -12.818  -6.746  1.00  0.00     0.057 A 
ATOM     68  C   UNL     1       6.973 -14.169  -6.521  1.00  0.00     0.134 A 
ATOM     69  C   UNL     1       8.497 -12.338  -6.279  1.00  0.00     0.134 A 
ATOM     70  F   UNL     1       5.806 -14.689  -6.931  1.00  0.00    -0.206 F 
ATOM     71  C   UNL     1       7.853 -15.003  -5.828  1.00  0.00     0.040 A 
ATOM     72  C   UNL     1       9.397 -13.169  -5.610  1.00  0.00     0.040 A 
ATOM     73  F   UNL     1       8.845 -11.056  -6.466  1.00  0.00    -0.206 F 
ATOM     74  C   UNL     1       9.072 -14.504  -5.375  1.00  0.00     0.006 A 
ENDBRANCH  53  67
BRANCH  54  75
ATOM     75  C   UNL     1       0.693  -6.723 -11.129  1.00  0.00     0.057 A 
ATOM     76  C   UNL     1      -0.009  -7.134 -12.268  1.00  0.00     0.134 A 
ATOM     77  C   UNL     1       0.444  -5.432 -10.648  1.00  0.00     0.134 A 
ATOM     78  F   UNL     1       0.201  -8.353 -12.786  1.00  0.00    -0.206 F 
ATOM     79  C   UNL     1      -0.911  -6.290 -12.916  1.00  0.00     0.040 A 
ATOM     80  C   UNL     1      -0.474  -4.585 -11.272  1.00  0.00     0.040 A 
ATOM     81  F   UNL     1       1.079  -4.981  -9.556  1.00  0.00    -0.206 F 
ATOM     82  C   UNL     1      -1.149  -5.012 -12.414  1.00  0.00     0.006 A 
ENDBRANCH  54  75
BRANCH  66  83
ATOM     83  C   UNL     1       6.873  -9.291 -13.033  1.00  0.00     0.057 A 
ATOM     84  C   UNL     1       7.561  -8.106 -13.322  1.00  0.00     0.134 A 
ATOM     85  C   UNL     1       7.006 -10.354 -13.937  1.00  0.00     0.134 A 
ATOM     86  F   UNL     1       7.463  -7.047 -12.504  1.00  0.00    -0.206 F 
ATOM     87  C   UNL     1       8.334  -7.975 -14.476  1.00  0.00     0.040 A 
ATOM     88  C   UNL     1       7.797 -10.244 -15.081  1.00  0.00     0.040 A 
ATOM     89  F   UNL     1       6.379 -11.519 -13.716  1.00  0.00    -0.206 F 
ATOM     90  C   UNL     1       8.459  -9.049 -15.356  1.00  0.00     0.006 A 
ENDBRANCH  66  83
ENDBRANCH  40  41
ENDBRANCH  32  35
ENDBRANCH  30  31
ENDBRANCH  29  30
ENDBRANCH   1  29
TORSDOF 13
