REMARK SMILES CCOC(=O)C1=NN(c2ccc([N+](=O)[O-])cc2C(F)(F)F)[C@@](C)(C(=O)NCCCCNC(=O)c2ccc(-c3c4nc(c(-c5c(F)cccc5F)c5ccc([nH]5)c(-c5c(F)cccc5F)c5nc(c(-c6c(F)cccc6F)c6ccc3[nH]6)C=C5)C=C4)cc2)C1
REMARK SMILES IDX 28 1 27 2 26 3 24 4 25 5 22 7 6 8 7 9 88 10 8 11 23 12 4 13
REMARK SMILES IDX 5 14 3 15 2 16 1 17 9 18 10 19 17 20 11 21 16 22 12 23 18 24
REMARK SMILES IDX 19 25 20 26 21 27 13 28 14 29 15 30 29 31 30 32 31 33 32 34
REMARK SMILES IDX 33 36 34 37 35 38 87 39 36 40 86 41 37 42 38 43 39 44 80 45
REMARK SMILES IDX 40 46 85 47 79 48 81 49 41 50 84 51 78 52 77 53 42 55 68 56
REMARK SMILES IDX 51 57 67 58 52 59 55 60 66 61 82 62 53 63 54 64 65 66 83 67
REMARK SMILES IDX 56 68 43 69 44 70 49 71 45 72 46 73 48 74 50 75 47 76 69 77
REMARK SMILES IDX 70 78 75 79 71 80 72 81 74 82 76 83 73 84 57 85 58 86 63 87
REMARK SMILES IDX 59 88 60 89 62 90 64 91 61 92
REMARK H PARENT 26 6 31 35 81 54 55 65
REMARK Flexibility Score: inf
ROOT
ATOM      1  C   UNL     1       5.115   8.390  -3.846  1.00  0.00     0.023 C 
ENDROOT
BRANCH   1   2
ATOM      2  C   UNL     1       5.694   7.035  -4.244  1.00  0.00     0.116 C 
BRANCH   2   3
ATOM      3  N   UNL     1       5.839   6.187  -3.083  1.00  0.00    -0.354 N 
ATOM      4  C   UNL     1       5.225   5.030  -2.719  1.00  0.00     0.248 C 
ATOM      5  O   UNL     1       5.422   4.698  -1.543  1.00  0.00    -0.272 OA
ATOM      6  H   UNL     1       6.508   6.507  -2.434  1.00  0.00     0.163 HD
BRANCH   4   7
ATOM      7  C   UNL     1       4.390   4.133  -3.689  1.00  0.00     0.144 C 
ATOM      8  C   UNL     1       2.818   3.208  -2.296  1.00  0.00     0.149 C 
ATOM      9  N   UNL     1       2.175   4.179  -2.870  1.00  0.00    -0.169 NA
ATOM     10  C   UNL     1       4.102   2.808  -2.937  1.00  0.00     0.106 C 
ATOM     11  N   UNL     1       2.988   4.618  -3.892  1.00  0.00    -0.249 N 
ATOM     12  C   UNL     1       5.179   3.788  -4.946  1.00  0.00     0.048 C 
BRANCH   8  13
ATOM     13  C   UNL     1       2.336   2.474  -1.077  1.00  0.00     0.354 C 
ATOM     14  O   UNL     1       3.095   2.177  -0.172  1.00  0.00    -0.245 OA
BRANCH  13  15
ATOM     15  O   UNL     1       1.030   2.176  -1.196  1.00  0.00    -0.461 OA
BRANCH  15  16
ATOM     16  C   UNL     1       0.465   1.478  -0.078  1.00  0.00     0.230 C 
ATOM     17  C   UNL     1       0.757  -0.008  -0.176  1.00  0.00     0.049 C 
ENDBRANCH  15  16
ENDBRANCH  13  15
ENDBRANCH   8  13
BRANCH  11  18
ATOM     18  C   UNL     1       2.559   5.744  -4.583  1.00  0.00     0.073 A 
ATOM     19  C   UNL     1       2.119   6.867  -3.846  1.00  0.00     0.036 A 
ATOM     20  C   UNL     1       2.479   5.821  -5.987  1.00  0.00     0.088 A 
ATOM     21  C   UNL     1       1.757   8.073  -4.457  1.00  0.00     0.088 A 
ATOM     22  C   UNL     1       2.159   7.055  -6.608  1.00  0.00     0.101 A 
ATOM     23  C   UNL     1       1.822   8.176  -5.843  1.00  0.00     0.270 A 
BRANCH  20  24
ATOM     24  C   UNL     1       2.663   4.630  -6.897  1.00  0.00     0.418 C 
ATOM     25  F   UNL     1       1.790   4.646  -7.947  1.00  0.00    -0.166 F 
ATOM     26  F   UNL     1       3.902   4.613  -7.465  1.00  0.00    -0.166 F 
ATOM     27  F   UNL     1       2.495   3.414  -6.313  1.00  0.00    -0.166 F 
ENDBRANCH  20  24
BRANCH  23  28
ATOM     28  N   UNL     1       1.551   9.461  -6.499  1.00  0.00     0.062 N 
ATOM     29  O   UNL     1       1.316  10.438  -5.775  1.00  0.00    -0.258 OA
ATOM     30  O   UNL     1       1.599   9.495  -7.736  1.00  0.00    -0.258 OA
ENDBRANCH  23  28
ENDBRANCH  11  18
ENDBRANCH   4   7
ENDBRANCH   2   3
ENDBRANCH   1   2
BRANCH   1  31
ATOM     31  C   UNL     1       6.066   9.316  -3.098  1.00  0.00     0.023 C 
BRANCH  31  32
ATOM     32  C   UNL     1       7.349   9.649  -3.839  1.00  0.00     0.116 C 
BRANCH  32  33
ATOM     33  N   UNL     1       7.119  10.208  -5.163  1.00  0.00    -0.352 N 
ATOM     34  C   UNL     1       7.725  11.287  -5.758  1.00  0.00     0.251 C 
ATOM     35  H   UNL     1       6.437   9.750  -5.705  1.00  0.00     0.163 HD
ATOM     36  O   UNL     1       7.342  11.692  -6.849  1.00  0.00    -0.269 OA
BRANCH  34  37
ATOM     37  C   UNL     1       8.823  11.975  -5.052  1.00  0.00     0.039 A 
ATOM     38  C   UNL     1       8.789  13.367  -4.942  1.00  0.00     0.014 A 
ATOM     39  C   UNL     1       9.856  11.241  -4.464  1.00  0.00     0.014 A 
ATOM     40  C   UNL     1       9.761  14.019  -4.182  1.00  0.00     0.010 A 
ATOM     41  C   UNL     1      10.772  11.882  -3.641  1.00  0.00     0.010 A 
ATOM     42  C   UNL     1      10.738  13.277  -3.500  1.00  0.00    -0.014 A 
BRANCH  42  43
ATOM     43  C   UNL     1      11.761  13.938  -2.656  1.00  0.00     0.031 A 
ATOM     44  C   UNL     1      13.212  13.841  -3.038  1.00  0.00     0.074 A 
ATOM     45  C   UNL     1      11.397  14.555  -1.516  1.00  0.00     0.049 A 
ATOM     46  N   UNL     1      14.269  14.248  -2.384  1.00  0.00    -0.248 NA
ATOM     47  C   UNL     1      13.515  13.160  -4.307  1.00  0.00     0.031 C 
ATOM     48  C   UNL     1      10.028  14.670  -1.010  1.00  0.00     0.029 A 
ATOM     49  N   UNL     1      12.155  15.195  -0.569  1.00  0.00    -0.354 N 
ATOM     50  C   UNL     1      15.358  13.846  -3.146  1.00  0.00     0.074 A 
ATOM     51  C   UNL     1      14.839  13.123  -4.285  1.00  0.00     0.031 C 
ATOM     52  C   UNL     1      10.041  15.362   0.141  1.00  0.00     0.029 A 
ATOM     53  C   UNL     1      11.420  15.713   0.469  1.00  0.00     0.049 A 
ATOM     54  H   UNL     1      13.135  15.276  -0.628  1.00  0.00     0.167 HD
ATOM     55  C   UNL     1      16.674  14.080  -2.928  1.00  0.00     0.037 A 
ATOM     56  C   UNL     1      11.816  16.395   1.558  1.00  0.00     0.037 A 
ATOM     57  C   UNL     1      17.185  14.845  -1.824  1.00  0.00     0.049 A 
ATOM     58  C   UNL     1      13.278  16.689   1.748  1.00  0.00     0.074 A 
ATOM     59  C   UNL     1      18.496  15.185  -1.542  1.00  0.00     0.029 A 
ATOM     60  N   UNL     1      16.401  15.406  -0.828  1.00  0.00    -0.354 N 
ATOM     61  N   UNL     1      14.295  16.340   0.998  1.00  0.00    -0.248 NA
ATOM     62  C   UNL     1      13.646  17.481   2.930  1.00  0.00     0.031 C 
ATOM     63  C   UNL     1      18.507  15.941  -0.364  1.00  0.00     0.029 A 
ATOM     64  C   UNL     1      17.200  16.093   0.069  1.00  0.00     0.049 A 
ATOM     65  H   UNL     1      15.421  15.327  -0.768  1.00  0.00     0.167 HD
ATOM     66  C   UNL     1      15.417  16.893   1.599  1.00  0.00     0.074 A 
ATOM     67  C   UNL     1      14.956  17.607   2.771  1.00  0.00     0.031 C 
ATOM     68  C   UNL     1      16.715  16.816   1.216  1.00  0.00     0.037 A 
BRANCH  55  69
ATOM     69  C   UNL     1      17.644  13.513  -3.920  1.00  0.00     0.057 A 
ATOM     70  C   UNL     1      17.773  14.046  -5.209  1.00  0.00     0.134 A 
ATOM     71  C   UNL     1      18.466  12.432  -3.579  1.00  0.00     0.134 A 
ATOM     72  F   UNL     1      17.000  15.069  -5.601  1.00  0.00    -0.206 F 
ATOM     73  C   UNL     1      18.669  13.508  -6.134  1.00  0.00     0.040 A 
ATOM     74  C   UNL     1      19.383  11.901  -4.488  1.00  0.00     0.040 A 
ATOM     75  F   UNL     1      18.392  11.876  -2.361  1.00  0.00    -0.206 F 
ATOM     76  C   UNL     1      19.482  12.435  -5.771  1.00  0.00     0.006 A 
ENDBRANCH  55  69
BRANCH  56  77
ATOM     77  C   UNL     1      10.814  16.890   2.533  1.00  0.00     0.057 A 
ATOM     78  C   UNL     1      10.496  18.251   2.605  1.00  0.00     0.134 A 
ATOM     79  C   UNL     1      10.162  16.025   3.418  1.00  0.00     0.134 A 
ATOM     80  F   UNL     1      11.104  19.129   1.793  1.00  0.00    -0.206 F 
ATOM     81  C   UNL     1       9.580  18.739   3.537  1.00  0.00     0.040 A 
ATOM     82  C   UNL     1       9.228  16.496   4.342  1.00  0.00     0.040 A 
ATOM     83  F   UNL     1      10.418  14.709   3.391  1.00  0.00    -0.206 F 
ATOM     84  C   UNL     1       8.940  17.859   4.407  1.00  0.00     0.006 A 
ENDBRANCH  56  77
BRANCH  68  85
ATOM     85  C   UNL     1      17.716  17.559   2.044  1.00  0.00     0.057 A 
ATOM     86  C   UNL     1      18.140  17.083   3.290  1.00  0.00     0.134 A 
ATOM     87  C   UNL     1      18.288  18.746   1.570  1.00  0.00     0.134 A 
ATOM     88  F   UNL     1      17.618  15.959   3.802  1.00  0.00    -0.206 F 
ATOM     89  C   UNL     1      19.089  17.773   4.045  1.00  0.00     0.040 A 
ATOM     90  C   UNL     1      19.252  19.434   2.307  1.00  0.00     0.040 A 
ATOM     91  F   UNL     1      17.926  19.249   0.380  1.00  0.00    -0.206 F 
ATOM     92  C   UNL     1      19.651  18.949   3.551  1.00  0.00     0.006 A 
ENDBRANCH  68  85
ENDBRANCH  42  43
ENDBRANCH  34  37
ENDBRANCH  32  33
ENDBRANCH  31  32
ENDBRANCH   1  31
TORSDOF 17
