REMARK SMILES CCCc1cc2c(cc1Cl)C=C(C(=O)NCCCCNC(=O)c1ccc(-c3c4nc(c(-c5c(F)cccc5F)c5ccc([nH]5)c(-c5c(F)cccc5F)c5nc(c(-c6c(F)cccc6F)c6ccc3[nH]6)C=C5)C=C4)cc1)[C@@H](C(F)(F)F)O2
REMARK SMILES IDX 17 1 16 2 15 3 13 4 14 5 12 7 4 8 5 9 9 10 6 11 8 12 10 13
REMARK SMILES IDX 7 14 82 15 11 16 77 17 3 18 2 19 1 20 78 21 79 22 80 23
REMARK SMILES IDX 81 24 18 25 19 26 20 27 21 28 22 30 23 31 24 32 76 33 25 34
REMARK SMILES IDX 75 35 26 36 27 37 28 38 69 39 29 40 74 41 68 42 70 43 30 44
REMARK SMILES IDX 73 45 67 46 66 47 31 49 57 50 40 51 56 52 41 53 44 54 55 55
REMARK SMILES IDX 71 56 42 57 43 58 54 60 72 61 45 62 32 63 33 64 38 65 34 66
REMARK SMILES IDX 35 67 37 68 39 69 36 70 58 71 59 72 64 73 60 74 61 75 63 76
REMARK SMILES IDX 65 77 62 78 46 79 47 80 52 81 48 82 49 83 51 84 53 85 50 86
REMARK H PARENT 15 6 20 29 70 48 44 59
REMARK Flexibility Score: inf
ROOT
ATOM      1  C   UNL     1      -3.708   4.582  -5.777  1.00  0.00     0.023 C 
ENDROOT
BRANCH   1   2
ATOM      2  C   UNL     1      -2.235   4.928  -5.985  1.00  0.00     0.116 C 
BRANCH   2   3
ATOM      3  N   UNL     1      -1.830   6.095  -5.221  1.00  0.00    -0.352 N 
ATOM      4  C   UNL     1      -1.298   6.327  -3.998  1.00  0.00     0.251 C 
ATOM      5  O   UNL     1      -1.092   7.515  -3.731  1.00  0.00    -0.270 OA
ATOM      6  H   UNL     1      -1.981   6.930  -5.720  1.00  0.00     0.163 HD
BRANCH   4   7
ATOM      7  C   UNL     1      -0.964   5.277  -2.992  1.00  0.00     0.067 C 
ATOM      8  C   UNL     1       0.556   2.726   1.089  1.00  0.00    -0.026 A 
ATOM      9  C   UNL     1      -0.292   2.444   0.008  1.00  0.00     0.052 A 
ATOM     10  C   UNL     1       1.011   4.055   1.231  1.00  0.00     0.045 A 
ATOM     11  C   UNL     1      -0.590   3.424  -0.936  1.00  0.00     0.128 A 
ATOM     12  C   UNL     1       0.668   5.049   0.302  1.00  0.00     0.032 A 
ATOM     13  Cl  UNL     1       2.012   4.534   2.560  1.00  0.00    -0.084 Cl
ATOM     14  C   UNL     1      -0.122   4.729  -0.799  1.00  0.00     0.019 A 
ATOM     15  O   UNL     1      -1.363   3.043  -2.001  1.00  0.00    -0.475 OA
ATOM     16  C   UNL     1      -0.487   5.718  -1.810  1.00  0.00     0.025 C 
ATOM     17  C   UNL     1      -1.099   3.796  -3.220  1.00  0.00     0.314 C 
BRANCH   8  18
ATOM     18  C   UNL     1       0.955   1.658   2.090  1.00  0.00     0.037 C 
BRANCH  18  19
ATOM     19  C   UNL     1       0.649   0.188   1.760  1.00  0.00     0.001 C 
ATOM     20  C   UNL     1       1.494  -0.370   0.620  1.00  0.00     0.004 C 
ENDBRANCH  18  19
ENDBRANCH   8  18
BRANCH  17  21
ATOM     21  C   UNL     1       0.111   3.193  -3.964  1.00  0.00     0.429 C 
ATOM     22  F   UNL     1      -0.193   1.955  -4.430  1.00  0.00    -0.167 F 
ATOM     23  F   UNL     1       0.471   3.932  -5.041  1.00  0.00    -0.167 F 
ATOM     24  F   UNL     1       1.210   3.074  -3.187  1.00  0.00    -0.167 F 
ENDBRANCH  17  21
ENDBRANCH   4   7
ENDBRANCH   2   3
ENDBRANCH   1   2
BRANCH   1  25
ATOM     25  C   UNL     1      -4.676   5.357  -6.674  1.00  0.00     0.023 C 
BRANCH  25  26
ATOM     26  C   UNL     1      -4.433   5.217  -8.174  1.00  0.00     0.116 C 
BRANCH  26  27
ATOM     27  N   UNL     1      -4.392   3.841  -8.650  1.00  0.00    -0.352 N 
ATOM     28  C   UNL     1      -4.551   3.406  -9.947  1.00  0.00     0.251 C 
ATOM     29  H   UNL     1      -4.234   3.146  -7.971  1.00  0.00     0.163 HD
ATOM     30  O   UNL     1      -4.563   2.213 -10.225  1.00  0.00    -0.269 OA
BRANCH  28  31
ATOM     31  C   UNL     1      -4.776   4.423 -10.991  1.00  0.00     0.039 A 
ATOM     32  C   UNL     1      -3.837   5.438 -11.187  1.00  0.00     0.014 A 
ATOM     33  C   UNL     1      -5.997   4.431 -11.669  1.00  0.00     0.014 A 
ATOM     34  C   UNL     1      -4.188   6.550 -11.942  1.00  0.00     0.010 A 
ATOM     35  C   UNL     1      -6.324   5.524 -12.472  1.00  0.00     0.010 A 
ATOM     36  C   UNL     1      -5.446   6.616 -12.564  1.00  0.00    -0.014 A 
BRANCH  36  37
ATOM     37  C   UNL     1      -5.854   7.863 -13.253  1.00  0.00     0.031 A 
ATOM     38  C   UNL     1      -6.926   8.739 -12.664  1.00  0.00     0.074 A 
ATOM     39  C   UNL     1      -5.214   8.238 -14.374  1.00  0.00     0.049 A 
ATOM     40  N   UNL     1      -7.420   9.861 -13.123  1.00  0.00    -0.248 NA
ATOM     41  C   UNL     1      -7.521   8.299 -11.391  1.00  0.00     0.031 C 
ATOM     42  C   UNL     1      -4.138   7.488 -15.022  1.00  0.00     0.029 A 
ATOM     43  N   UNL     1      -5.361   9.356 -15.152  1.00  0.00    -0.354 N 
ATOM     44  C   UNL     1      -8.395  10.248 -12.213  1.00  0.00     0.074 A 
ATOM     45  C   UNL     1      -8.435   9.236 -11.179  1.00  0.00     0.031 C 
ATOM     46  C   UNL     1      -3.691   8.189 -16.076  1.00  0.00     0.029 A 
ATOM     47  C   UNL     1      -4.483   9.408 -16.205  1.00  0.00     0.049 A 
ATOM     48  H   UNL     1      -6.032  10.055 -14.973  1.00  0.00     0.167 HD
ATOM     49  C   UNL     1      -9.181  11.351 -12.233  1.00  0.00     0.037 A 
ATOM     50  C   UNL     1      -4.343  10.329 -17.174  1.00  0.00     0.037 A 
ATOM     51  C   UNL     1      -9.119  12.375 -13.242  1.00  0.00     0.049 A 
ATOM     52  C   UNL     1      -5.262  11.513 -17.203  1.00  0.00     0.074 A 
ATOM     53  C   UNL     1      -9.842  13.552 -13.325  1.00  0.00     0.029 A 
ATOM     54  N   UNL     1      -8.280  12.342 -14.344  1.00  0.00    -0.354 N 
ATOM     55  N   UNL     1      -6.192  11.855 -16.347  1.00  0.00    -0.248 NA
ATOM     56  C   UNL     1      -5.129  12.421 -18.350  1.00  0.00     0.031 C 
ATOM     57  C   UNL     1      -9.461  14.219 -14.495  1.00  0.00     0.029 A 
ATOM     58  C   UNL     1      -8.485  13.466 -15.127  1.00  0.00     0.049 A 
ATOM     59  H   UNL     1      -7.634  11.626 -14.541  1.00  0.00     0.167 HD
ATOM     60  C   UNL     1      -6.768  13.010 -16.857  1.00  0.00     0.074 A 
ATOM     61  C   UNL     1      -6.061  13.326 -18.083  1.00  0.00     0.031 C 
ATOM     62  C   UNL     1      -7.795  13.740 -16.360  1.00  0.00     0.037 A 
BRANCH  49  63
ATOM     63  C   UNL     1     -10.188  11.500 -11.135  1.00  0.00     0.057 A 
ATOM     64  C   UNL     1     -11.543  11.241 -11.372  1.00  0.00     0.134 A 
ATOM     65  C   UNL     1      -9.823  11.931  -9.854  1.00  0.00     0.134 A 
ATOM     66  F   UNL     1     -11.955  10.823 -12.579  1.00  0.00    -0.206 F 
ATOM     67  C   UNL     1     -12.503  11.409 -10.373  1.00  0.00     0.040 A 
ATOM     68  C   UNL     1     -10.773  12.091  -8.842  1.00  0.00     0.040 A 
ATOM     69  F   UNL     1      -8.538  12.180  -9.561  1.00  0.00    -0.206 F 
ATOM     70  C   UNL     1     -12.118  11.834  -9.103  1.00  0.00     0.006 A 
ENDBRANCH  49  63
BRANCH  50  71
ATOM     71  C   UNL     1      -3.303  10.147 -18.211  1.00  0.00     0.057 A 
ATOM     72  C   UNL     1      -3.441   9.184 -19.217  1.00  0.00     0.134 A 
ATOM     73  C   UNL     1      -2.138  10.919 -18.204  1.00  0.00     0.134 A 
ATOM     74  F   UNL     1      -4.538   8.414 -19.271  1.00  0.00    -0.206 F 
ATOM     75  C   UNL     1      -2.446   8.982 -20.173  1.00  0.00     0.040 A 
ATOM     76  C   UNL     1      -1.142  10.740 -19.165  1.00  0.00     0.040 A 
ATOM     77  F   UNL     1      -1.962  11.868 -17.273  1.00  0.00    -0.206 F 
ATOM     78  C   UNL     1      -1.292   9.764 -20.149  1.00  0.00     0.006 A 
ENDBRANCH  50  71
BRANCH  62  79
ATOM     79  C   UNL     1      -8.227  14.924 -17.165  1.00  0.00     0.057 A 
ATOM     80  C   UNL     1      -7.847  16.221 -16.805  1.00  0.00     0.134 A 
ATOM     81  C   UNL     1      -9.030  14.769 -18.301  1.00  0.00     0.134 A 
ATOM     82  F   UNL     1      -7.078  16.430 -15.726  1.00  0.00    -0.206 F 
ATOM     83  C   UNL     1      -8.250  17.328 -17.552  1.00  0.00     0.040 A 
ATOM     84  C   UNL     1      -9.428  15.867 -19.064  1.00  0.00     0.040 A 
ATOM     85  F   UNL     1      -9.412  13.547 -18.703  1.00  0.00    -0.206 F 
ATOM     86  C   UNL     1      -9.040  17.152 -18.687  1.00  0.00     0.006 A 
ENDBRANCH  62  79
ENDBRANCH  36  37
ENDBRANCH  28  31
ENDBRANCH  26  27
ENDBRANCH  25  26
ENDBRANCH   1  25
TORSDOF 14
