REMARK SMILES C[N@@H+]1CCN(C(=O)c2cnn3c2CCCC3)C[C@@H]1C(=O)NCCCCNC(=O)c1ccc(-c2c3nc(c(-c4c(F)cccc4F)c4ccc([nH]4)c(-c4c(F)cccc4F)c4nc(c(-c5c(F)cccc5F)c5ccc2[nH]5)C=C4)C=C3)cc1
REMARK SMILES IDX 23 1 22 2 21 3 19 4 20 5 18 7 1 8 2 9 3 10 4 12 17 13 5 14
REMARK SMILES IDX 6 15 7 16 8 17 9 18 12 19 10 20 11 21 13 22 16 23 14 24
REMARK SMILES IDX 15 25 24 26 25 27 26 28 27 29 28 31 29 32 30 33 82 34 31 35
REMARK SMILES IDX 81 36 32 37 33 38 34 39 75 40 35 41 80 42 74 43 76 44 36 45
REMARK SMILES IDX 79 46 73 47 72 48 37 50 63 51 46 52 62 53 47 54 50 55 61 56
REMARK SMILES IDX 77 57 48 58 49 59 60 61 78 62 51 63 38 64 39 65 44 66 40 67
REMARK SMILES IDX 41 68 43 69 45 70 42 71 64 72 65 73 70 74 66 75 67 76 69 77
REMARK SMILES IDX 71 78 68 79 52 80 53 81 58 82 54 83 55 84 57 85 59 86 56 87
REMARK H PARENT 21 6 2 11 26 30 76 49 50 60
REMARK Flexibility Score: inf
ROOT
ATOM      1  C   UNL     1       4.142  -1.591   1.926  1.00  0.00     0.023 C 
ENDROOT
BRANCH   1   2
ATOM      2  C   UNL     1       2.838  -2.357   1.664  1.00  0.00     0.116 C 
BRANCH   2   3
ATOM      3  N   UNL     1       1.677  -1.728   2.263  1.00  0.00    -0.351 N 
ATOM      4  C   UNL     1       0.552  -1.182   1.713  1.00  0.00     0.280 C 
ATOM      5  O   UNL     1      -0.307  -0.810   2.518  1.00  0.00    -0.268 OA
ATOM      6  H   UNL     1       1.704  -1.686   3.246  1.00  0.00     0.163 HD
BRANCH   4   7
ATOM      7  C   UNL     1       0.371  -1.045   0.178  1.00  0.00     0.293 C 
ATOM      8  C   UNL     1       2.319   0.442  -0.217  1.00  0.00     0.333 C 
ATOM      9  N   UNL     1       0.895   0.236  -0.384  1.00  0.00    -0.324 N 
ATOM     10  C   UNL     1       0.138   1.398   0.117  1.00  0.00     0.284 C 
ATOM     11  H   UNL     1       0.752   0.148  -1.390  1.00  0.00     0.348 HD
ATOM     12  C   UNL     1      -1.352   1.293  -0.228  1.00  0.00     0.181 C 
ATOM     13  C   UNL     1      -1.142  -1.170  -0.171  1.00  0.00     0.195 C 
ATOM     14  N   UNL     1      -1.926   0.021   0.200  1.00  0.00    -0.326 N 
BRANCH  14  15
ATOM     15  C   UNL     1      -3.185   0.037   0.788  1.00  0.00     0.257 C 
ATOM     16  O   UNL     1      -3.804   1.083   0.980  1.00  0.00    -0.269 OA
BRANCH  15  17
ATOM     17  C   UNL     1      -3.819  -1.233   1.078  1.00  0.00     0.081 A 
ATOM     18  C   UNL     1      -3.457  -2.266   1.972  1.00  0.00     0.149 A 
ATOM     19  C   UNL     1      -5.025  -1.653   0.550  1.00  0.00     0.051 A 
ATOM     20  N   UNL     1      -4.324  -3.287   1.964  1.00  0.00    -0.180 NA
ATOM     21  N   UNL     1      -5.283  -2.868   1.119  1.00  0.00    -0.269 N 
ATOM     22  C   UNL     1      -5.973  -1.004  -0.397  1.00  0.00     0.057 C 
ATOM     23  C   UNL     1      -6.435  -3.697   0.822  1.00  0.00     0.144 C 
ATOM     24  C   UNL     1      -6.978  -2.006  -0.968  1.00  0.00     0.008 C 
ATOM     25  C   UNL     1      -7.547  -2.900   0.137  1.00  0.00     0.024 C 
ENDBRANCH  15  17
ENDBRANCH  14  15
ENDBRANCH   4   7
ENDBRANCH   2   3
ENDBRANCH   1   2
BRANCH   1  26
ATOM     26  C   UNL     1       4.508  -1.338   3.394  1.00  0.00     0.023 C 
BRANCH  26  27
ATOM     27  C   UNL     1       4.838  -2.600   4.171  1.00  0.00     0.116 C 
BRANCH  27  28
ATOM     28  N   UNL     1       5.993  -3.306   3.619  1.00  0.00    -0.352 N 
ATOM     29  C   UNL     1       6.522  -4.522   4.010  1.00  0.00     0.251 C 
ATOM     30  H   UNL     1       6.453  -2.858   2.873  1.00  0.00     0.163 HD
ATOM     31  O   UNL     1       7.652  -4.851   3.701  1.00  0.00    -0.269 OA
BRANCH  29  32
ATOM     32  C   UNL     1       5.676  -5.414   4.819  1.00  0.00     0.039 A 
ATOM     33  C   UNL     1       6.180  -6.047   5.958  1.00  0.00     0.014 A 
ATOM     34  C   UNL     1       4.344  -5.555   4.447  1.00  0.00     0.014 A 
ATOM     35  C   UNL     1       5.302  -6.756   6.775  1.00  0.00     0.010 A 
ATOM     36  C   UNL     1       3.458  -6.117   5.328  1.00  0.00     0.010 A 
ATOM     37  C   UNL     1       3.935  -6.768   6.464  1.00  0.00    -0.014 A 
BRANCH  37  38
ATOM     38  C   UNL     1       2.962  -7.361   7.377  1.00  0.00     0.031 A 
ATOM     39  C   UNL     1       2.952  -6.790   8.757  1.00  0.00     0.074 A 
ATOM     40  C   UNL     1       1.966  -8.155   6.924  1.00  0.00     0.049 A 
ATOM     41  N   UNL     1       3.145  -7.402   9.879  1.00  0.00    -0.248 NA
ATOM     42  C   UNL     1       2.816  -5.329   8.898  1.00  0.00     0.031 C 
ATOM     43  C   UNL     1       1.663  -8.519   5.533  1.00  0.00     0.029 A 
ATOM     44  N   UNL     1       0.917  -8.693   7.601  1.00  0.00    -0.354 N 
ATOM     45  C   UNL     1       2.951  -6.448  10.880  1.00  0.00     0.074 A 
ATOM     46  C   UNL     1       2.936  -5.173  10.217  1.00  0.00     0.031 C 
ATOM     47  C   UNL     1       0.397  -8.977   5.450  1.00  0.00     0.029 A 
ATOM     48  C   UNL     1      -0.133  -9.111   6.792  1.00  0.00     0.049 A 
ATOM     49  H   UNL     1       0.902  -8.779   8.582  1.00  0.00     0.167 HD
ATOM     50  C   UNL     1       2.565  -6.812  12.137  1.00  0.00     0.037 A 
ATOM     51  C   UNL     1      -1.365  -9.504   7.195  1.00  0.00     0.037 A 
ATOM     52  C   UNL     1       2.815  -8.216  12.362  1.00  0.00     0.049 A 
ATOM     53  C   UNL     1      -1.274  -9.832   8.637  1.00  0.00     0.074 A 
ATOM     54  C   UNL     1       3.931  -9.030  12.334  1.00  0.00     0.029 A 
ATOM     55  N   UNL     1       1.739  -9.068  12.326  1.00  0.00    -0.354 N 
ATOM     56  N   UNL     1      -0.603 -10.845   9.112  1.00  0.00    -0.248 NA
ATOM     57  C   UNL     1      -1.560  -8.770   9.589  1.00  0.00     0.031 C 
ATOM     58  C   UNL     1       3.472 -10.263  11.782  1.00  0.00     0.029 A 
ATOM     59  C   UNL     1       2.098 -10.150  11.569  1.00  0.00     0.049 A 
ATOM     60  H   UNL     1       0.869  -8.926  12.764  1.00  0.00     0.167 HD
ATOM     61  C   UNL     1      -0.011 -10.361  10.269  1.00  0.00     0.074 A 
ATOM     62  C   UNL     1      -0.715  -9.115  10.565  1.00  0.00     0.031 C 
ATOM     63  C   UNL     1       1.182 -10.861  10.710  1.00  0.00     0.037 A 
BRANCH  50  64
ATOM     64  C   UNL     1       1.584  -6.036  13.000  1.00  0.00     0.057 A 
ATOM     65  C   UNL     1       1.248  -6.551  14.270  1.00  0.00     0.134 A 
ATOM     66  C   UNL     1       0.725  -5.020  12.535  1.00  0.00     0.134 A 
ATOM     67  F   UNL     1       1.996  -7.503  14.849  1.00  0.00    -0.206 F 
ATOM     68  C   UNL     1       0.077  -6.191  14.947  1.00  0.00     0.040 A 
ATOM     69  C   UNL     1      -0.421  -4.617  13.228  1.00  0.00     0.040 A 
ATOM     70  F   UNL     1       0.883  -4.420  11.351  1.00  0.00    -0.206 F 
ATOM     71  C   UNL     1      -0.775  -5.234  14.415  1.00  0.00     0.006 A 
ENDBRANCH  50  64
BRANCH  51  72
ATOM     72  C   UNL     1      -2.660  -9.345   6.496  1.00  0.00     0.057 A 
ATOM     73  C   UNL     1      -3.782 -10.096   6.870  1.00  0.00     0.134 A 
ATOM     74  C   UNL     1      -2.901  -8.265   5.628  1.00  0.00     0.134 A 
ATOM     75  F   UNL     1      -3.658 -11.123   7.724  1.00  0.00    -0.206 F 
ATOM     76  C   UNL     1      -5.073  -9.777   6.428  1.00  0.00     0.040 A 
ATOM     77  C   UNL     1      -4.183  -7.939   5.173  1.00  0.00     0.040 A 
ATOM     78  F   UNL     1      -1.911  -7.437   5.262  1.00  0.00    -0.206 F 
ATOM     79  C   UNL     1      -5.278  -8.688   5.586  1.00  0.00     0.006 A 
ENDBRANCH  51  72
BRANCH  63  80
ATOM     80  C   UNL     1       1.700 -12.119  10.070  1.00  0.00     0.057 A 
ATOM     81  C   UNL     1       2.075 -12.222   8.722  1.00  0.00     0.134 A 
ATOM     82  C   UNL     1       1.980 -13.219  10.888  1.00  0.00     0.134 A 
ATOM     83  F   UNL     1       1.941 -11.190   7.882  1.00  0.00    -0.206 F 
ATOM     84  C   UNL     1       2.661 -13.381   8.204  1.00  0.00     0.040 A 
ATOM     85  C   UNL     1       2.597 -14.369  10.391  1.00  0.00     0.040 A 
ATOM     86  F   UNL     1       1.704 -13.172  12.201  1.00  0.00    -0.206 F 
ATOM     87  C   UNL     1       2.931 -14.457   9.043  1.00  0.00     0.006 A 
ENDBRANCH  63  80
ENDBRANCH  37  38
ENDBRANCH  29  32
ENDBRANCH  27  28
ENDBRANCH  26  27
ENDBRANCH   1  26
TORSDOF 13
