REMARK SMILES CCc1cc(OCC(=O)NCCCCNC(=O)c2ccc(-c3c4nc(c(-c5c(F)cccc5F)c5ccc([nH]5)c(-c5c(F)cccc5F)c5nc(c(-c6c(F)cccc6F)c6ccc3[nH]6)C=C5)C=C4)cc2)nc(Nc2ccc(C)c(F)c2)n1
REMARK SMILES IDX 11 1 10 2 8 3 9 4 7 6 6 7 5 8 3 9 4 10 83 11 73 12 72 13
REMARK SMILES IDX 2 14 1 15 74 16 75 18 76 19 82 20 77 21 80 22 78 23 81 24
REMARK SMILES IDX 79 25 12 26 13 27 14 28 15 29 16 30 17 32 18 33 19 34 71 35
REMARK SMILES IDX 20 36 70 37 21 38 22 39 23 40 64 41 24 42 69 43 63 44 65 45
REMARK SMILES IDX 25 46 68 47 62 48 61 49 26 51 52 52 35 53 51 54 36 55 39 56
REMARK SMILES IDX 50 57 66 58 37 59 38 60 49 62 67 63 40 64 27 65 28 66 33 67
REMARK SMILES IDX 29 68 30 69 32 70 34 71 31 72 53 73 54 74 59 75 55 76 56 77
REMARK SMILES IDX 58 78 60 79 57 80 41 81 42 82 47 83 43 84 44 85 46 86 48 87
REMARK SMILES IDX 45 88
REMARK H PARENT 10 5 74 17 15 31 65 50 39 61
REMARK Flexibility Score: inf
ROOT
ATOM      1  C   UNL     1       5.044   0.772   4.677  1.00  0.00     0.116 C 
ENDROOT
BRANCH   1   2
ATOM      2  N   UNL     1       4.464   1.394   3.503  1.00  0.00    -0.353 N 
ATOM      3  C   UNL     1       3.162   1.734   3.286  1.00  0.00     0.258 C 
ATOM      4  O   UNL     1       2.859   2.278   2.222  1.00  0.00    -0.271 OA
ATOM      5  H   UNL     1       5.090   1.596   2.770  1.00  0.00     0.163 HD
BRANCH   3   6
ATOM      6  C   UNL     1       2.108   1.453   4.367  1.00  0.00     0.331 C 
BRANCH   6   7
ATOM      7  O   UNL     1       1.917   0.104   4.760  1.00  0.00    -0.467 OA
BRANCH   7   8
ATOM      8  C   UNL     1       1.525  -0.790   3.803  1.00  0.00     0.218 A 
ATOM      9  C   UNL     1       0.865  -1.480   1.666  1.00  0.00     0.050 A 
ATOM     10  C   UNL     1       1.090  -0.447   2.542  1.00  0.00     0.092 A 
ATOM     11  N   UNL     1       0.989  -2.758   2.055  1.00  0.00    -0.218 NA
ATOM     12  C   UNL     1       1.326  -3.019   3.328  1.00  0.00     0.230 A 
ATOM     13  N   UNL     1       1.611  -2.066   4.221  1.00  0.00    -0.177 NA
BRANCH   9  14
ATOM     14  C   UNL     1       0.408  -1.272   0.246  1.00  0.00     0.053 C 
ATOM     15  C   UNL     1       0.920  -0.006  -0.427  1.00  0.00     0.011 C 
ENDBRANCH   9  14
BRANCH  12  16
ATOM     16  N   UNL     1       1.293  -4.340   3.776  1.00  0.00    -0.324 N 
ATOM     17  H   UNL     1       1.454  -4.486   4.737  1.00  0.00     0.170 HD
BRANCH  16  18
ATOM     18  C   UNL     1       1.056  -5.480   2.999  1.00  0.00     0.044 A 
ATOM     19  C   UNL     1       0.013  -6.354   3.325  1.00  0.00     0.026 A 
ATOM     20  C   UNL     1       1.746  -5.686   1.799  1.00  0.00     0.065 A 
ATOM     21  C   UNL     1      -0.354  -7.388   2.452  1.00  0.00     0.008 A 
ATOM     22  C   UNL     1       1.393  -6.724   0.945  1.00  0.00     0.128 A 
ATOM     23  C   UNL     1       0.331  -7.576   1.245  1.00  0.00    -0.015 A 
ATOM     24  F   UNL     1       2.079  -6.880  -0.197  1.00  0.00    -0.207 F 
ATOM     25  C   UNL     1      -0.104  -8.634   0.278  1.00  0.00     0.047 C 
ENDBRANCH  16  18
ENDBRANCH  12  16
ENDBRANCH   7   8
ENDBRANCH   6   7
ENDBRANCH   3   6
ENDBRANCH   1   2
BRANCH   1  26
ATOM     26  C   UNL     1       5.513  -0.655   4.404  1.00  0.00     0.023 C 
BRANCH  26  27
ATOM     27  C   UNL     1       6.617  -0.786   3.351  1.00  0.00     0.023 C 
BRANCH  27  28
ATOM     28  C   UNL     1       7.852   0.081   3.575  1.00  0.00     0.116 C 
BRANCH  28  29
ATOM     29  N   UNL     1       8.512  -0.177   4.845  1.00  0.00    -0.352 N 
ATOM     30  C   UNL     1       9.845  -0.377   5.111  1.00  0.00     0.251 C 
ATOM     31  H   UNL     1       7.916  -0.214   5.628  1.00  0.00     0.163 HD
ATOM     32  O   UNL     1      10.204  -0.703   6.239  1.00  0.00    -0.269 OA
BRANCH  30  33
ATOM     33  C   UNL     1      10.848  -0.234   4.034  1.00  0.00     0.039 A 
ATOM     34  C   UNL     1      11.836  -1.213   3.901  1.00  0.00     0.014 A 
ATOM     35  C   UNL     1      10.814   0.851   3.154  1.00  0.00     0.014 A 
ATOM     36  C   UNL     1      12.745  -1.142   2.844  1.00  0.00     0.010 A 
ATOM     37  C   UNL     1      11.672   0.879   2.057  1.00  0.00     0.010 A 
ATOM     38  C   UNL     1      12.646  -0.117   1.889  1.00  0.00    -0.014 A 
BRANCH  38  39
ATOM     39  C   UNL     1      13.540  -0.083   0.702  1.00  0.00     0.031 A 
ATOM     40  C   UNL     1      14.486   1.067   0.494  1.00  0.00     0.074 A 
ATOM     41  C   UNL     1      13.447  -1.052  -0.230  1.00  0.00     0.049 A 
ATOM     42  N   UNL     1      15.292   1.304  -0.510  1.00  0.00    -0.248 NA
ATOM     43  C   UNL     1      14.508   2.102   1.538  1.00  0.00     0.031 C 
ATOM     44  C   UNL     1      12.528  -2.191  -0.177  1.00  0.00     0.029 A 
ATOM     45  N   UNL     1      14.121  -1.224  -1.414  1.00  0.00    -0.354 N 
ATOM     46  C   UNL     1      15.901   2.520  -0.228  1.00  0.00     0.074 A 
ATOM     47  C   UNL     1      15.332   2.997   1.014  1.00  0.00     0.031 C 
ATOM     48  C   UNL     1      12.706  -2.950  -1.269  1.00  0.00     0.029 A 
ATOM     49  C   UNL     1      13.720  -2.334  -2.119  1.00  0.00     0.049 A 
ATOM     50  H   UNL     1      14.824  -0.612  -1.728  1.00  0.00     0.167 HD
ATOM     51  C   UNL     1      16.859   3.171  -0.930  1.00  0.00     0.037 A 
ATOM     52  C   UNL     1      14.113  -2.796  -3.321  1.00  0.00     0.037 A 
ATOM     53  C   UNL     1      17.436   2.684  -2.156  1.00  0.00     0.049 A 
ATOM     54  C   UNL     1      15.180  -2.059  -4.081  1.00  0.00     0.074 A 
ATOM     55  C   UNL     1      18.468   3.230  -2.899  1.00  0.00     0.029 A 
ATOM     56  N   UNL     1      17.023   1.542  -2.826  1.00  0.00    -0.354 N 
ATOM     57  N   UNL     1      15.811  -0.956  -3.759  1.00  0.00    -0.248 NA
ATOM     58  C   UNL     1      15.597  -2.635  -5.367  1.00  0.00     0.031 C 
ATOM     59  C   UNL     1      18.638   2.453  -4.050  1.00  0.00     0.029 A 
ATOM     60  C   UNL     1      17.755   1.386  -3.992  1.00  0.00     0.049 A 
ATOM     61  H   UNL     1      16.314   0.932  -2.519  1.00  0.00     0.167 HD
ATOM     62  C   UNL     1      16.714  -0.719  -4.788  1.00  0.00     0.074 A 
ATOM     63  C   UNL     1      16.560  -1.802  -5.736  1.00  0.00     0.031 C 
ATOM     64  C   UNL     1      17.592   0.304  -4.932  1.00  0.00     0.037 A 
BRANCH  51  65
ATOM     65  C   UNL     1      17.336   4.491  -0.391  1.00  0.00     0.057 A 
ATOM     66  C   UNL     1      18.077   4.588   0.794  1.00  0.00     0.134 A 
ATOM     67  C   UNL     1      17.069   5.681  -1.082  1.00  0.00     0.134 A 
ATOM     68  F   UNL     1      18.361   3.490   1.511  1.00  0.00    -0.206 F 
ATOM     69  C   UNL     1      18.503   5.821   1.292  1.00  0.00     0.040 A 
ATOM     70  C   UNL     1      17.517   6.916  -0.611  1.00  0.00     0.040 A 
ATOM     71  F   UNL     1      16.372   5.663  -2.228  1.00  0.00    -0.206 F 
ATOM     72  C   UNL     1      18.228   6.989   0.585  1.00  0.00     0.006 A 
ENDBRANCH  51  65
BRANCH  52  73
ATOM     73  C   UNL     1      13.496  -4.029  -3.873  1.00  0.00     0.057 A 
ATOM     74  C   UNL     1      14.222  -5.221  -3.978  1.00  0.00     0.134 A 
ATOM     75  C   UNL     1      12.162  -4.048  -4.300  1.00  0.00     0.134 A 
ATOM     76  F   UNL     1      15.509  -5.262  -3.603  1.00  0.00    -0.206 F 
ATOM     77  C   UNL     1      13.650  -6.382  -4.501  1.00  0.00     0.040 A 
ATOM     78  C   UNL     1      11.570  -5.208  -4.799  1.00  0.00     0.040 A 
ATOM     79  F   UNL     1      11.410  -2.940  -4.218  1.00  0.00    -0.206 F 
ATOM     80  C   UNL     1      12.317  -6.379  -4.907  1.00  0.00     0.006 A 
ENDBRANCH  52  73
BRANCH  64  81
ATOM     81  C   UNL     1      18.477   0.288  -6.145  1.00  0.00     0.057 A 
ATOM     82  C   UNL     1      17.980   0.537  -7.431  1.00  0.00     0.134 A 
ATOM     83  C   UNL     1      19.854   0.060  -6.019  1.00  0.00     0.134 A 
ATOM     84  F   UNL     1      16.669   0.751  -7.624  1.00  0.00    -0.206 F 
ATOM     85  C   UNL     1      18.815   0.536  -8.549  1.00  0.00     0.040 A 
ATOM     86  C   UNL     1      20.704   0.086  -7.125  1.00  0.00     0.040 A 
ATOM     87  F   UNL     1      20.398  -0.176  -4.816  1.00  0.00    -0.206 F 
ATOM     88  C   UNL     1      20.183   0.318  -8.396  1.00  0.00     0.006 A 
ENDBRANCH  64  81
ENDBRANCH  38  39
ENDBRANCH  30  33
ENDBRANCH  28  29
ENDBRANCH  27  28
ENDBRANCH  26  27
ENDBRANCH   1  26
TORSDOF 16
