REMARK SMILES O=C(NCCCCNC(=O)[C@H]1CS[C@@H](c2cccc(OCc3ccc(Cl)cc3Cl)c2)[NH2+]1)c1ccc(-c2c3nc(c(-c4c(F)cccc4F)c4ccc([nH]4)c(-c4c(F)cccc4F)c4nc(c(-c5c(F)cccc5F)c5ccc2[nH]5)C=C4)C=C3)cc1
REMARK SMILES IDX 6 1 5 2 4 3 3 4 1 5 2 6 32 8 33 9 85 10 34 11 84 12 35 13
REMARK SMILES IDX 36 14 37 15 78 16 38 17 83 18 77 19 79 20 39 21 82 22 76 23
REMARK SMILES IDX 75 24 40 26 66 27 49 28 65 29 50 30 53 31 64 32 80 33 51 34
REMARK SMILES IDX 52 35 63 37 81 38 54 39 41 40 42 41 47 42 43 43 44 44 46 45
REMARK SMILES IDX 48 46 45 47 67 48 68 49 73 50 69 51 70 52 72 53 74 54 71 55
REMARK SMILES IDX 55 56 56 57 61 58 57 59 58 60 60 61 62 62 59 63 7 64 8 65
REMARK SMILES IDX 9 66 10 68 11 69 12 70 31 71 13 72 14 73 15 76 16 77 30 78
REMARK SMILES IDX 17 79 19 80 18 81 20 82 21 83 22 84 23 85 28 86 24 87 27 88
REMARK SMILES IDX 29 89 25 90 26 91
REMARK H PARENT 3 7 79 25 53 36 8 67 31 74 31 75
REMARK Flexibility Score: inf
ROOT
ATOM      1  C   UNL     1       4.344   3.310   2.119  1.00  0.00     0.023 C 
ENDROOT
BRANCH   1   2
ATOM      2  C   UNL     1       4.839   2.564   0.881  1.00  0.00     0.023 C 
BRANCH   2   3
ATOM      3  C   UNL     1       4.491   1.084   0.845  1.00  0.00     0.116 C 
BRANCH   3   4
ATOM      4  N   UNL     1       3.056   0.847   0.835  1.00  0.00    -0.352 N 
ATOM      5  O   UNL     1       1.098   0.093   0.003  1.00  0.00    -0.269 OA
ATOM      6  C   UNL     1       2.324   0.065  -0.025  1.00  0.00     0.251 C 
ATOM      7  H   UNL     1       2.542   1.307   1.537  1.00  0.00     0.163 HD
BRANCH   6   8
ATOM      8  C   UNL     1       3.027  -0.800  -0.994  1.00  0.00     0.039 A 
ATOM      9  C   UNL     1       4.104  -1.590  -0.582  1.00  0.00     0.014 A 
ATOM     10  C   UNL     1       2.596  -0.828  -2.323  1.00  0.00     0.014 A 
ATOM     11  C   UNL     1       4.819  -2.325  -1.519  1.00  0.00     0.010 A 
ATOM     12  C   UNL     1       3.265  -1.633  -3.248  1.00  0.00     0.010 A 
ATOM     13  C   UNL     1       4.385  -2.382  -2.852  1.00  0.00    -0.014 A 
BRANCH  13  14
ATOM     14  C   UNL     1       5.029  -3.340  -3.781  1.00  0.00     0.031 A 
ATOM     15  C   UNL     1       5.798  -2.875  -4.982  1.00  0.00     0.074 A 
ATOM     16  C   UNL     1       4.888  -4.655  -3.524  1.00  0.00     0.049 A 
ATOM     17  N   UNL     1       6.379  -3.592  -5.910  1.00  0.00    -0.248 NA
ATOM     18  C   UNL     1       5.930  -1.422  -5.176  1.00  0.00     0.031 C 
ATOM     19  C   UNL     1       4.141  -5.215  -2.393  1.00  0.00     0.029 A 
ATOM     20  N   UNL     1       5.355  -5.759  -4.189  1.00  0.00    -0.354 N 
ATOM     21  C   UNL     1       6.925  -2.685  -6.808  1.00  0.00     0.074 A 
ATOM     22  C   UNL     1       6.599  -1.361  -6.321  1.00  0.00     0.031 C 
ATOM     23  C   UNL     1       4.216  -6.553  -2.433  1.00  0.00     0.029 A 
ATOM     24  C   UNL     1       4.953  -6.946  -3.626  1.00  0.00     0.049 A 
ATOM     25  H   UNL     1       5.922  -5.706  -4.992  1.00  0.00     0.167 HD
ATOM     26  C   UNL     1       7.631  -2.944  -7.934  1.00  0.00     0.037 A 
ATOM     27  C   UNL     1       5.121  -8.213  -4.045  1.00  0.00     0.037 A 
ATOM     28  C   UNL     1       7.968  -4.268  -8.392  1.00  0.00     0.049 A 
ATOM     29  C   UNL     1       5.876  -8.460  -5.316  1.00  0.00     0.074 A 
ATOM     30  C   UNL     1       8.755  -4.630  -9.472  1.00  0.00     0.029 A 
ATOM     31  N   UNL     1       7.524  -5.445  -7.809  1.00  0.00    -0.354 N 
ATOM     32  N   UNL     1       6.453  -7.593  -6.113  1.00  0.00    -0.248 NA
ATOM     33  C   UNL     1       5.996  -9.856  -5.755  1.00  0.00     0.031 C 
ATOM     34  C   UNL     1       8.738  -6.024  -9.578  1.00  0.00     0.029 A 
ATOM     35  C   UNL     1       7.981  -6.533  -8.535  1.00  0.00     0.049 A 
ATOM     36  H   UNL     1       6.968  -5.500  -6.999  1.00  0.00     0.167 HD
ATOM     37  C   UNL     1       7.008  -8.338  -7.143  1.00  0.00     0.074 A 
ATOM     38  C   UNL     1       6.726  -9.729  -6.853  1.00  0.00     0.031 C 
ATOM     39  C   UNL     1       7.683  -7.909  -8.236  1.00  0.00     0.037 A 
BRANCH  26  40
ATOM     40  C   UNL     1       8.083  -1.786  -8.774  1.00  0.00     0.057 A 
ATOM     41  C   UNL     1       9.150  -0.963  -8.394  1.00  0.00     0.134 A 
ATOM     42  C   UNL     1       7.508  -1.559 -10.032  1.00  0.00     0.134 A 
ATOM     43  F   UNL     1       9.741  -1.125  -7.201  1.00  0.00    -0.206 F 
ATOM     44  C   UNL     1       9.628   0.045  -9.234  1.00  0.00     0.040 A 
ATOM     45  C   UNL     1       7.989  -0.568 -10.889  1.00  0.00     0.040 A 
ATOM     46  F   UNL     1       6.487  -2.317 -10.460  1.00  0.00    -0.206 F 
ATOM     47  C   UNL     1       9.054   0.237 -10.490  1.00  0.00     0.006 A 
ENDBRANCH  26  40
BRANCH  27  48
ATOM     48  C   UNL     1       4.515  -9.333  -3.283  1.00  0.00     0.057 A 
ATOM     49  C   UNL     1       5.307 -10.276  -2.620  1.00  0.00     0.134 A 
ATOM     50  C   UNL     1       3.124  -9.492  -3.210  1.00  0.00     0.134 A 
ATOM     51  F   UNL     1       6.644 -10.186  -2.667  1.00  0.00    -0.206 F 
ATOM     52  C   UNL     1       4.740 -11.350  -1.932  1.00  0.00     0.040 A 
ATOM     53  C   UNL     1       2.544 -10.542  -2.500  1.00  0.00     0.040 A 
ATOM     54  F   UNL     1       2.309  -8.616  -3.817  1.00  0.00    -0.206 F 
ATOM     55  C   UNL     1       3.354 -11.482  -1.867  1.00  0.00     0.006 A 
ENDBRANCH  27  48
BRANCH  39  56
ATOM     56  C   UNL     1       8.162  -8.957  -9.194  1.00  0.00     0.057 A 
ATOM     57  C   UNL     1       7.274  -9.636 -10.039  1.00  0.00     0.134 A 
ATOM     58  C   UNL     1       9.523  -9.266  -9.298  1.00  0.00     0.134 A 
ATOM     59  F   UNL     1       5.956  -9.397  -9.973  1.00  0.00    -0.206 F 
ATOM     60  C   UNL     1       7.724 -10.598 -10.944  1.00  0.00     0.040 A 
ATOM     61  C   UNL     1       9.987 -10.207 -10.217  1.00  0.00     0.040 A 
ATOM     62  F   UNL     1      10.424  -8.648  -8.520  1.00  0.00    -0.206 F 
ATOM     63  C   UNL     1       9.085 -10.879 -11.040  1.00  0.00     0.006 A 
ENDBRANCH  39  56
ENDBRANCH  13  14
ENDBRANCH   6   8
ENDBRANCH   3   4
ENDBRANCH   2   3
ENDBRANCH   1   2
BRANCH   1  64
ATOM     64  C   UNL     1       4.786   2.722   3.457  1.00  0.00     0.116 C 
BRANCH  64  65
ATOM     65  N   UNL     1       6.229   2.729   3.590  1.00  0.00    -0.351 N 
ATOM     66  C   UNL     1       7.038   3.404   4.450  1.00  0.00     0.279 C 
ATOM     67  H   UNL     1       6.703   2.149   2.951  1.00  0.00     0.163 HD
ATOM     68  O   UNL     1       8.257   3.308   4.278  1.00  0.00    -0.268 OA
BRANCH  66  69
ATOM     69  C   UNL     1       6.463   4.269   5.583  1.00  0.00     0.283 C 
ATOM     70  C   UNL     1       7.056   3.798   6.916  1.00  0.00     0.151 C 
ATOM     71  N   UNL     1       6.833   5.681   5.321  1.00  0.00    -0.321 N 
ATOM     72  S   UNL     1       7.492   5.295   7.832  1.00  0.00    -0.088 SA
ATOM     73  C   UNL     1       6.771   6.392   6.601  1.00  0.00     0.274 C 
ATOM     74  H   UNL     1       6.178   6.096   4.659  1.00  0.00     0.348 HD
ATOM     75  H   UNL     1       7.769   5.741   4.919  1.00  0.00     0.348 HD
BRANCH  73  76
ATOM     76  C   UNL     1       7.359   7.784   6.464  1.00  0.00     0.024 A 
ATOM     77  C   UNL     1       8.610   8.178   6.955  1.00  0.00     0.011 A 
ATOM     78  C   UNL     1       6.614   8.725   5.721  1.00  0.00     0.057 A 
ATOM     79  C   UNL     1       9.092   9.468   6.714  1.00  0.00     0.004 A 
ATOM     80  C   UNL     1       7.113   9.990   5.421  1.00  0.00     0.120 A 
ATOM     81  C   UNL     1       8.349  10.363   5.944  1.00  0.00     0.046 A 
BRANCH  80  82
ATOM     82  O   UNL     1       6.514  10.925   4.625  1.00  0.00    -0.489 OA
BRANCH  82  83
ATOM     83  C   UNL     1       5.344  10.573   3.878  1.00  0.00     0.267 C 
BRANCH  83  84
ATOM     84  C   UNL     1       5.571   9.543   2.789  1.00  0.00     0.008 A 
ATOM     85  C   UNL     1       4.806   8.362   2.810  1.00  0.00     0.010 A 
ATOM     86  C   UNL     1       6.521   9.702   1.768  1.00  0.00     0.049 A 
ATOM     87  C   UNL     1       5.037   7.346   1.886  1.00  0.00     0.021 A 
ATOM     88  C   UNL     1       6.753   8.679   0.842  1.00  0.00     0.041 A 
ATOM     89  Cl  UNL     1       7.426  11.161   1.586  1.00  0.00    -0.084 Cl
ATOM     90  C   UNL     1       6.022   7.498   0.918  1.00  0.00     0.042 A 
ATOM     91  Cl  UNL     1       6.328   6.219  -0.192  1.00  0.00    -0.084 Cl
ENDBRANCH  83  84
ENDBRANCH  82  83
ENDBRANCH  80  82
ENDBRANCH  73  76
ENDBRANCH  66  69
ENDBRANCH  64  65
ENDBRANCH   1  64
TORSDOF 15
