REMARK SMILES CC[C@H]1CCCC[C@@H]1Sc1csc(C(=O)NCCCCNC(=O)c2ccc(-c3c4nc(c(-c5c(F)cccc5F)c5ccc([nH]5)c(-c5c(F)cccc5F)c5nc(c(-c6c(F)cccc6F)c6ccc3[nH]6)C=C5)C=C4)cc2)c1
REMARK SMILES IDX 18 1 17 2 16 3 14 4 15 5 13 7 10 8 11 9 78 10 12 11 9 12
REMARK SMILES IDX 8 13 3 14 4 15 5 16 7 17 6 18 2 19 1 20 19 21 20 22 21 23
REMARK SMILES IDX 22 24 23 26 24 27 25 28 77 29 26 30 76 31 27 32 28 33 29 34
REMARK SMILES IDX 70 35 30 36 75 37 69 38 71 39 31 40 74 41 68 42 67 43 32 45
REMARK SMILES IDX 58 46 41 47 57 48 42 49 45 50 56 51 72 52 43 53 44 54 55 56
REMARK SMILES IDX 73 57 46 58 33 59 34 60 39 61 35 62 36 63 38 64 40 65 37 66
REMARK SMILES IDX 59 67 60 68 65 69 61 70 62 71 64 72 66 73 63 74 47 75 48 76
REMARK SMILES IDX 53 77 49 78 50 79 52 80 54 81 51 82
REMARK H PARENT 16 6 21 25 71 44 45 55
REMARK Flexibility Score: inf
ROOT
ATOM      1  C   UNL     1       2.574   6.649   5.924  1.00  0.00     0.023 C 
ENDROOT
BRANCH   1   2
ATOM      2  C   UNL     1       1.052   6.534   6.041  1.00  0.00     0.116 C 
BRANCH   2   3
ATOM      3  N   UNL     1       0.406   7.790   5.707  1.00  0.00    -0.351 N 
ATOM      4  C   UNL     1      -0.233   8.209   4.559  1.00  0.00     0.261 C 
ATOM      5  O   UNL     1      -0.757   9.323   4.619  1.00  0.00    -0.268 OA
ATOM      6  H   UNL     1       0.428   8.461   6.427  1.00  0.00     0.163 HD
BRANCH   4   7
ATOM      7  C   UNL     1      -0.299   7.349   3.386  1.00  0.00     0.093 A 
ATOM      8  C   UNL     1       0.005   5.609   1.852  1.00  0.00     0.019 A 
ATOM      9  C   UNL     1      -1.149   6.171   1.368  1.00  0.00     0.080 A 
ATOM     10  C   UNL     1       0.543   6.350   2.939  1.00  0.00     0.040 A 
ATOM     11  S   UNL     1      -1.608   7.548   2.282  1.00  0.00    -0.137 S 
BRANCH   8  12
ATOM     12  S   UNL     1       0.785   4.121   1.372  1.00  0.00    -0.122 SA
BRANCH  12  13
ATOM     13  C   UNL     1       0.388   3.870  -0.398  1.00  0.00     0.055 C 
ATOM     14  C   UNL     1       0.984   2.489  -0.806  1.00  0.00     0.002 C 
ATOM     15  C   UNL     1       2.528   2.544  -0.871  1.00  0.00     0.005 C 
ATOM     16  C   UNL     1       3.056   3.687  -1.737  1.00  0.00     0.000 C 
ATOM     17  C   UNL     1       0.934   4.994  -1.292  1.00  0.00     0.015 C 
ATOM     18  C   UNL     1       2.460   5.036  -1.351  1.00  0.00     0.001 C 
BRANCH  14  19
ATOM     19  C   UNL     1       0.361   1.984  -2.129  1.00  0.00     0.001 C 
ATOM     20  C   UNL     1       0.645   0.509  -2.394  1.00  0.00     0.004 C 
ENDBRANCH  14  19
ENDBRANCH  12  13
ENDBRANCH   8  12
ENDBRANCH   4   7
ENDBRANCH   2   3
ENDBRANCH   1   2
BRANCH   1  21
ATOM     21  C   UNL     1       3.242   7.329   7.123  1.00  0.00     0.023 C 
BRANCH  21  22
ATOM     22  C   UNL     1       3.110   6.583   8.449  1.00  0.00     0.116 C 
BRANCH  22  23
ATOM     23  N   UNL     1       3.674   5.242   8.419  1.00  0.00    -0.352 N 
ATOM     24  C   UNL     1       4.297   4.550   9.433  1.00  0.00     0.251 C 
ATOM     25  H   UNL     1       3.600   4.767   7.560  1.00  0.00     0.163 HD
ATOM     26  O   UNL     1       4.804   3.459   9.224  1.00  0.00    -0.269 OA
BRANCH  24  27
ATOM     27  C   UNL     1       4.389   5.168  10.773  1.00  0.00     0.039 A 
ATOM     28  C   UNL     1       5.641   5.258  11.385  1.00  0.00     0.014 A 
ATOM     29  C   UNL     1       3.256   5.700  11.393  1.00  0.00     0.014 A 
ATOM     30  C   UNL     1       5.773   5.962  12.583  1.00  0.00     0.010 A 
ATOM     31  C   UNL     1       3.398   6.450  12.556  1.00  0.00     0.010 A 
ATOM     32  C   UNL     1       4.660   6.603  13.151  1.00  0.00    -0.014 A 
BRANCH  32  33
ATOM     33  C   UNL     1       4.800   7.481  14.339  1.00  0.00     0.031 A 
ATOM     34  C   UNL     1       4.138   7.115  15.635  1.00  0.00     0.074 A 
ATOM     35  C   UNL     1       5.449   8.656  14.218  1.00  0.00     0.049 A 
ATOM     36  N   UNL     1       4.060   7.804  16.745  1.00  0.00    -0.248 NA
ATOM     37  C   UNL     1       3.450   5.816  15.681  1.00  0.00     0.031 C 
ATOM     38  C   UNL     1       6.093   9.146  12.998  1.00  0.00     0.029 A 
ATOM     39  N   UNL     1       5.657   9.661  15.129  1.00  0.00    -0.354 N 
ATOM     40  C   UNL     1       3.303   7.031  17.615  1.00  0.00     0.074 A 
ATOM     41  C   UNL     1       2.910   5.840  16.891  1.00  0.00     0.031 C 
ATOM     42  C   UNL     1       6.633  10.351  13.239  1.00  0.00     0.029 A 
ATOM     43  C   UNL     1       6.342  10.735  14.617  1.00  0.00     0.049 A 
ATOM     44  H   UNL     1       5.344   9.616  16.062  1.00  0.00     0.167 HD
ATOM     45  C   UNL     1       2.981   7.283  18.906  1.00  0.00     0.037 A 
ATOM     46  C   UNL     1       6.685  11.905  15.188  1.00  0.00     0.037 A 
ATOM     47  C   UNL     1       3.394   8.456  19.631  1.00  0.00     0.049 A 
ATOM     48  C   UNL     1       6.305  12.166  16.617  1.00  0.00     0.074 A 
ATOM     49  C   UNL     1       3.183   8.765  20.963  1.00  0.00     0.029 A 
ATOM     50  N   UNL     1       4.099   9.516  19.081  1.00  0.00    -0.354 N 
ATOM     51  N   UNL     1       5.651  11.395  17.451  1.00  0.00    -0.248 NA
ATOM     52  C   UNL     1       6.709  13.460  17.186  1.00  0.00     0.031 C 
ATOM     53  C   UNL     1       3.724  10.031  21.209  1.00  0.00     0.029 A 
ATOM     54  C   UNL     1       4.307  10.493  20.041  1.00  0.00     0.049 A 
ATOM     55  H   UNL     1       4.406   9.567  18.147  1.00  0.00     0.167 HD
ATOM     56  C   UNL     1       5.581  12.099  18.645  1.00  0.00     0.074 A 
ATOM     57  C   UNL     1       6.272  13.354  18.433  1.00  0.00     0.031 C 
ATOM     58  C   UNL     1       4.995  11.738  19.813  1.00  0.00     0.037 A 
BRANCH  45  59
ATOM     59  C   UNL     1       2.141   6.266  19.619  1.00  0.00     0.057 A 
ATOM     60  C   UNL     1       2.657   5.020  20.000  1.00  0.00     0.134 A 
ATOM     61  C   UNL     1       0.813   6.547  19.960  1.00  0.00     0.134 A 
ATOM     62  F   UNL     1       3.920   4.685  19.693  1.00  0.00    -0.206 F 
ATOM     63  C   UNL     1       1.874   4.081  20.672  1.00  0.00     0.040 A 
ATOM     64  C   UNL     1       0.027   5.625  20.654  1.00  0.00     0.040 A 
ATOM     65  F   UNL     1       0.259   7.724  19.631  1.00  0.00    -0.206 F 
ATOM     66  C   UNL     1       0.556   4.385  21.007  1.00  0.00     0.006 A 
ENDBRANCH  45  59
BRANCH  46  67
ATOM     67  C   UNL     1       7.440  12.916  14.407  1.00  0.00     0.057 A 
ATOM     68  C   UNL     1       8.787  13.177  14.681  1.00  0.00     0.134 A 
ATOM     69  C   UNL     1       6.838  13.642  13.373  1.00  0.00     0.134 A 
ATOM     70  F   UNL     1       9.412  12.525  15.673  1.00  0.00    -0.206 F 
ATOM     71  C   UNL     1       9.507  14.133  13.963  1.00  0.00     0.040 A 
ATOM     72  C   UNL     1       7.551  14.586  12.633  1.00  0.00     0.040 A 
ATOM     73  F   UNL     1       5.551  13.433  13.059  1.00  0.00    -0.206 F 
ATOM     74  C   UNL     1       8.889  14.838  12.932  1.00  0.00     0.006 A 
ENDBRANCH  46  67
BRANCH  58  75
ATOM     75  C   UNL     1       5.091  12.704  20.955  1.00  0.00     0.057 A 
ATOM     76  C   UNL     1       4.321  13.872  20.996  1.00  0.00     0.134 A 
ATOM     77  C   UNL     1       5.929  12.439  22.046  1.00  0.00     0.134 A 
ATOM     78  F   UNL     1       3.511  14.188  19.974  1.00  0.00    -0.206 F 
ATOM     79  C   UNL     1       4.390  14.752  22.077  1.00  0.00     0.040 A 
ATOM     80  C   UNL     1       5.990  13.300  23.143  1.00  0.00     0.040 A 
ATOM     81  F   UNL     1       6.688  11.334  22.070  1.00  0.00    -0.206 F 
ATOM     82  C   UNL     1       5.221  14.462  23.158  1.00  0.00     0.006 A 
ENDBRANCH  58  75
ENDBRANCH  32  33
ENDBRANCH  24  27
ENDBRANCH  22  23
ENDBRANCH  21  22
ENDBRANCH   1  21
TORSDOF 14
