REMARK SMILES Cc1nn([C@H]2CCS(=O)(=O)C2)c(C)c1[C@@H]([NH3+])C(=O)NCCCCNC(=O)c1ccc(-c2c3nc(c(-c4c(F)cccc4F)c4ccc([nH]4)c(-c4c(F)cccc4F)c4nc(c(-c5c(F)cccc5F)c5ccc2[nH]5)C=C4)C=C3)cc1
REMARK SMILES IDX 21 1 20 2 19 3 17 4 18 5 15 7 14 8 1 9 2 10 3 11 4 12 12 13
REMARK SMILES IDX 13 14 5 15 6 16 11 17 7 18 8 19 9 20 10 21 16 22 22 26 23 27
REMARK SMILES IDX 24 28 25 29 26 31 27 32 28 33 80 34 29 35 79 36 30 37 31 38
REMARK SMILES IDX 32 39 73 40 33 41 78 42 72 43 74 44 34 45 77 46 71 47 70 48
REMARK SMILES IDX 35 50 61 51 44 52 60 53 45 54 48 55 59 56 75 57 46 58 47 59
REMARK SMILES IDX 58 61 76 62 49 63 36 64 37 65 42 66 38 67 39 68 41 69 43 70
REMARK SMILES IDX 40 71 62 72 63 73 68 74 64 75 65 76 67 77 69 78 66 79 50 80
REMARK SMILES IDX 51 81 56 82 52 83 53 84 55 85 57 86 54 87
REMARK H PARENT 19 6 16 23 16 24 16 25 24 30 74 49 48 60
REMARK Flexibility Score: inf
ROOT
ATOM      1  C   UNL     1       1.705  -6.160   6.348  1.00  0.00     0.023 C 
ENDROOT
BRANCH   1   2
ATOM      2  C   UNL     1       3.023  -6.908   6.140  1.00  0.00     0.116 C 
BRANCH   2   3
ATOM      3  N   UNL     1       2.848  -8.184   5.480  1.00  0.00    -0.351 N 
ATOM      4  C   UNL     1       2.971  -8.516   4.157  1.00  0.00     0.283 C 
ATOM      5  O   UNL     1       2.842  -9.716   3.877  1.00  0.00    -0.268 OA
ATOM      6  H   UNL     1       2.601  -8.930   6.074  1.00  0.00     0.163 HD
BRANCH   4   7
ATOM      7  C   UNL     1       3.311  -7.493   3.029  1.00  0.00     0.306 C 
BRANCH   7   8
ATOM      8  C   UNL     1       2.246  -6.446   2.817  1.00  0.00     0.063 A 
ATOM      9  C   UNL     1       0.789  -7.679   0.998  1.00  0.00     0.069 C 
ATOM     10  C   UNL     1       1.092  -6.611   1.989  1.00  0.00     0.069 A 
ATOM     11  N   UNL     1       0.233  -5.597   2.128  1.00  0.00    -0.177 NA
ATOM     12  N   UNL     1       0.831  -4.760   2.994  1.00  0.00    -0.265 N 
ATOM     13  C   UNL     1       2.153  -5.104   3.199  1.00  0.00     0.046 A 
ATOM     14  C   UNL     1       3.182  -4.160   3.712  1.00  0.00     0.067 C 
BRANCH  12  15
ATOM     15  C   UNL     1       0.032  -3.652   3.525  1.00  0.00     0.123 C 
ATOM     16  C   UNL     1      -1.406  -4.099   3.896  1.00  0.00     0.044 C 
ATOM     17  C   UNL     1       0.570  -3.038   4.808  1.00  0.00     0.164 C 
ATOM     18  C   UNL     1      -2.068  -2.973   4.680  1.00  0.00     0.139 C 
ATOM     19  S   UNL     1      -0.757  -2.154   5.552  1.00  0.00     0.152 S 
ATOM     20  O   UNL     1      -0.684  -0.776   5.100  1.00  0.00    -0.229 OA
ATOM     21  O   UNL     1      -0.803  -2.527   6.947  1.00  0.00    -0.229 OA
ENDBRANCH  12  15
ENDBRANCH   7   8
BRANCH   7  22
ATOM     22  N   UNL     1       4.652  -6.917   3.217  1.00  0.00    -0.343 N 
ATOM     23  H   UNL     1       4.672  -6.381   4.084  1.00  0.00     0.345 HD
ATOM     24  H   UNL     1       4.872  -6.304   2.433  1.00  0.00     0.345 HD
ATOM     25  H   UNL     1       5.340  -7.668   3.266  1.00  0.00     0.345 HD
ENDBRANCH   7  22
ENDBRANCH   4   7
ENDBRANCH   2   3
ENDBRANCH   1   2
BRANCH   1  26
ATOM     26  C   UNL     1       0.970  -6.319   7.684  1.00  0.00     0.023 C 
BRANCH  26  27
ATOM     27  C   UNL     1       1.610  -5.547   8.836  1.00  0.00     0.116 C 
BRANCH  27  28
ATOM     28  N   UNL     1       1.502  -4.079   8.736  1.00  0.00    -0.352 N 
ATOM     29  C   UNL     1       2.194  -3.141   9.495  1.00  0.00     0.251 C 
ATOM     30  H   UNL     1       0.876  -3.728   8.063  1.00  0.00     0.163 HD
ATOM     31  O   UNL     1       1.819  -1.984   9.625  1.00  0.00    -0.269 OA
BRANCH  29  32
ATOM     32  C   UNL     1       3.442  -3.580  10.133  1.00  0.00     0.039 A 
ATOM     33  C   UNL     1       3.699  -3.404  11.497  1.00  0.00     0.014 A 
ATOM     34  C   UNL     1       4.282  -4.333   9.323  1.00  0.00     0.014 A 
ATOM     35  C   UNL     1       4.768  -4.095  12.065  1.00  0.00     0.010 A 
ATOM     36  C   UNL     1       5.172  -5.173   9.924  1.00  0.00     0.010 A 
ATOM     37  C   UNL     1       5.480  -5.005  11.271  1.00  0.00    -0.014 A 
BRANCH  37  38
ATOM     38  C   UNL     1       6.476  -5.915  11.820  1.00  0.00     0.031 A 
ATOM     39  C   UNL     1       5.987  -6.783  12.927  1.00  0.00     0.074 A 
ATOM     40  C   UNL     1       7.641  -6.139  11.170  1.00  0.00     0.049 A 
ATOM     41  N   UNL     1       6.376  -6.774  14.158  1.00  0.00    -0.248 NA
ATOM     42  C   UNL     1       4.830  -7.662  12.682  1.00  0.00     0.031 C 
ATOM     43  C   UNL     1       8.101  -5.564   9.897  1.00  0.00     0.029 A 
ATOM     44  N   UNL     1       8.617  -7.045  11.445  1.00  0.00    -0.354 N 
ATOM     45  C   UNL     1       5.683  -7.805  14.789  1.00  0.00     0.074 A 
ATOM     46  C   UNL     1       4.611  -8.165  13.900  1.00  0.00     0.031 C 
ATOM     47  C   UNL     1       9.112  -6.305   9.396  1.00  0.00     0.029 A 
ATOM     48  C   UNL     1       9.492  -7.290  10.387  1.00  0.00     0.049 A 
ATOM     49  H   UNL     1       8.698  -7.492  12.319  1.00  0.00     0.167 HD
ATOM     50  C   UNL     1       6.219  -8.449  15.864  1.00  0.00     0.037 A 
ATOM     51  C   UNL     1      10.436  -8.264  10.336  1.00  0.00     0.037 A 
ATOM     52  C   UNL     1       7.331  -7.702  16.404  1.00  0.00     0.049 A 
ATOM     53  C   UNL     1      10.699  -8.677  11.740  1.00  0.00     0.074 A 
ATOM     54  C   UNL     1       7.485  -6.424  16.907  1.00  0.00     0.029 A 
ATOM     55  N   UNL     1       8.598  -8.133  16.089  1.00  0.00    -0.354 N 
ATOM     56  N   UNL     1      11.258  -7.894  12.623  1.00  0.00    -0.248 NA
ATOM     57  C   UNL     1       9.879  -9.750  12.285  1.00  0.00     0.031 C 
ATOM     58  C   UNL     1       8.736  -5.978  16.387  1.00  0.00     0.029 A 
ATOM     59  C   UNL     1       9.317  -7.037  15.688  1.00  0.00     0.049 A 
ATOM     60  H   UNL     1       8.928  -9.060  16.142  1.00  0.00     0.167 HD
ATOM     61  C   UNL     1      10.518  -8.087  13.782  1.00  0.00     0.074 A 
ATOM     62  C   UNL     1       9.724  -9.291  13.531  1.00  0.00     0.031 C 
ATOM     63  C   UNL     1      10.375  -7.090  14.705  1.00  0.00     0.037 A 
BRANCH  50  64
ATOM     64  C   UNL     1       6.024  -9.913  16.186  1.00  0.00     0.057 A 
ATOM     65  C   UNL     1       6.560 -10.421  17.385  1.00  0.00     0.134 A 
ATOM     66  C   UNL     1       5.614 -10.890  15.257  1.00  0.00     0.134 A 
ATOM     67  F   UNL     1       6.987  -9.596  18.354  1.00  0.00    -0.206 F 
ATOM     68  C   UNL     1       6.766 -11.790  17.597  1.00  0.00     0.040 A 
ATOM     69  C   UNL     1       5.768 -12.261  15.481  1.00  0.00     0.040 A 
ATOM     70  F   UNL     1       5.141 -10.582  14.045  1.00  0.00    -0.206 F 
ATOM     71  C   UNL     1       6.380 -12.715  16.638  1.00  0.00     0.006 A 
ENDBRANCH  50  64
BRANCH  51  72
ATOM     72  C   UNL     1      10.874  -9.067   9.167  1.00  0.00     0.057 A 
ATOM     73  C   UNL     1      12.011  -9.886   9.235  1.00  0.00     0.134 A 
ATOM     74  C   UNL     1      10.041  -9.269   8.051  1.00  0.00     0.134 A 
ATOM     75  F   UNL     1      12.852  -9.797  10.276  1.00  0.00    -0.206 F 
ATOM     76  C   UNL     1      12.285 -10.869   8.272  1.00  0.00     0.040 A 
ATOM     77  C   UNL     1      10.306 -10.242   7.080  1.00  0.00     0.040 A 
ATOM     78  F   UNL     1       8.893  -8.592   7.908  1.00  0.00    -0.206 F 
ATOM     79  C   UNL     1      11.423 -11.059   7.197  1.00  0.00     0.006 A 
ENDBRANCH  51  72
BRANCH  63  80
ATOM     80  C   UNL     1      11.215  -5.848  14.557  1.00  0.00     0.057 A 
ATOM     81  C   UNL     1      11.136  -4.962  13.470  1.00  0.00     0.134 A 
ATOM     82  C   UNL     1      12.002  -5.443  15.639  1.00  0.00     0.134 A 
ATOM     83  F   UNL     1      10.333  -5.206  12.430  1.00  0.00    -0.206 F 
ATOM     84  C   UNL     1      11.837  -3.751  13.448  1.00  0.00     0.040 A 
ATOM     85  C   UNL     1      12.681  -4.222  15.644  1.00  0.00     0.040 A 
ATOM     86  F   UNL     1      12.081  -6.207  16.739  1.00  0.00    -0.206 F 
ATOM     87  C   UNL     1      12.607  -3.374  14.542  1.00  0.00     0.006 A 
ENDBRANCH  63  80
ENDBRANCH  37  38
ENDBRANCH  29  32
ENDBRANCH  27  28
ENDBRANCH  26  27
ENDBRANCH   1  26
TORSDOF 14
