REMARK SMILES O=C(NCCCCNC(=O)[C@H](c1c[nH]c2cc(F)ccc12)[NH+]1CCN(c2ccccc2)CC1)c1ccc(-c2c3nc(c(-c4c(F)cccc4F)c4ccc([nH]4)c(-c4c(F)cccc4F)c4nc(c(-c5c(F)cccc5F)c5ccc2[nH]5)C=C4)C=C3)cc1
REMARK SMILES IDX 5 1 4 2 3 3 1 4 2 5 34 7 35 8 87 9 36 10 86 11 37 12 38 13
REMARK SMILES IDX 39 14 80 15 40 16 85 17 79 18 81 19 41 20 84 21 78 22 77 23
REMARK SMILES IDX 42 25 68 26 51 27 67 28 52 29 55 30 66 31 82 32 53 33 54 34
REMARK SMILES IDX 65 36 83 37 56 38 43 39 44 40 49 41 45 42 46 43 48 44 50 45
REMARK SMILES IDX 47 46 69 47 70 48 75 49 71 50 72 51 74 52 76 53 73 54 57 55
REMARK SMILES IDX 58 56 63 57 59 58 60 59 62 60 64 61 61 62 6 63 7 64 8 65
REMARK SMILES IDX 9 66 10 68 11 69 22 70 23 71 33 72 24 74 32 75 25 76 26 77
REMARK SMILES IDX 27 78 31 79 28 80 30 81 29 82 12 83 13 84 21 85 14 86 15 87
REMARK SMILES IDX 20 88 16 90 19 91 17 92 18 93
REMARK H PARENT 3 6 81 24 55 35 8 67 22 73 14 89
REMARK Flexibility Score: inf
ROOT
ATOM      1  C   UNL     1       4.699   7.301  -8.548  1.00  0.00     0.023 C 
ENDROOT
BRANCH   1   2
ATOM      2  C   UNL     1       3.332   7.708  -8.011  1.00  0.00     0.116 C 
BRANCH   2   3
ATOM      3  N   UNL     1       3.133   9.148  -7.932  1.00  0.00    -0.352 N 
ATOM      4  O   UNL     1       2.356  11.190  -8.494  1.00  0.00    -0.269 OA
ATOM      5  C   UNL     1       2.309   9.978  -8.664  1.00  0.00     0.251 C 
ATOM      6  H   UNL     1       3.673   9.602  -7.246  1.00  0.00     0.163 HD
BRANCH   5   7
ATOM      7  C   UNL     1       1.398   9.414  -9.686  1.00  0.00     0.039 A 
ATOM      8  C   UNL     1       0.630   8.285  -9.413  1.00  0.00     0.014 A 
ATOM      9  C   UNL     1       1.325  10.016 -10.947  1.00  0.00     0.014 A 
ATOM     10  C   UNL     1      -0.034   7.639 -10.448  1.00  0.00     0.010 A 
ATOM     11  C   UNL     1       0.562   9.425 -11.962  1.00  0.00     0.010 A 
ATOM     12  C   UNL     1      -0.082   8.200 -11.736  1.00  0.00    -0.014 A 
BRANCH  12  13
ATOM     13  C   UNL     1      -0.849   7.490 -12.794  1.00  0.00     0.031 A 
ATOM     14  C   UNL     1      -0.173   6.935 -14.020  1.00  0.00     0.074 A 
ATOM     15  C   UNL     1      -2.163   7.269 -12.593  1.00  0.00     0.049 A 
ATOM     16  N   UNL     1      -0.689   6.215 -14.987  1.00  0.00    -0.248 NA
ATOM     17  C   UNL     1       1.258   7.227 -14.193  1.00  0.00     0.031 C 
ATOM     18  C   UNL     1      -2.934   7.774 -11.454  1.00  0.00     0.029 A 
ATOM     19  N   UNL     1      -3.072   6.531 -13.306  1.00  0.00    -0.354 N 
ATOM     20  C   UNL     1       0.344   5.984 -15.887  1.00  0.00     0.074 A 
ATOM     21  C   UNL     1       1.514   6.658 -15.365  1.00  0.00     0.031 C 
ATOM     22  C   UNL     1      -4.175   7.269 -11.503  1.00  0.00     0.029 A 
ATOM     23  C   UNL     1      -4.306   6.458 -12.708  1.00  0.00     0.049 A 
ATOM     24  H   UNL     1      -2.860   6.095 -14.163  1.00  0.00     0.167 HD
ATOM     25  C   UNL     1       0.320   5.270 -17.038  1.00  0.00     0.037 A 
ATOM     26  C   UNL     1      -5.426   5.815 -13.085  1.00  0.00     0.037 A 
ATOM     27  C   UNL     1      -0.840   4.581 -17.547  1.00  0.00     0.049 A 
ATOM     28  C   UNL     1      -5.415   5.015 -14.352  1.00  0.00     0.074 A 
ATOM     29  C   UNL     1      -0.958   3.826 -18.702  1.00  0.00     0.029 A 
ATOM     30  N   UNL     1      -2.079   4.557 -16.927  1.00  0.00    -0.354 N 
ATOM     31  N   UNL     1      -4.427   4.808 -15.188  1.00  0.00    -0.248 NA
ATOM     32  C   UNL     1      -6.676   4.365 -14.733  1.00  0.00     0.031 C 
ATOM     33  C   UNL     1      -2.277   3.368 -18.794  1.00  0.00     0.029 A 
ATOM     34  C   UNL     1      -2.970   3.807 -17.679  1.00  0.00     0.049 A 
ATOM     35  H   UNL     1      -2.295   5.005 -16.077  1.00  0.00     0.167 HD
ATOM     36  C   UNL     1      -4.947   4.012 -16.197  1.00  0.00     0.074 A 
ATOM     37  C   UNL     1      -6.327   3.740 -15.848  1.00  0.00     0.031 C 
ATOM     38  C   UNL     1      -4.342   3.560 -17.322  1.00  0.00     0.037 A 
BRANCH  25  39
ATOM     39  C   UNL     1       1.586   5.195 -17.841  1.00  0.00     0.057 A 
ATOM     40  C   UNL     1       2.659   4.383 -17.452  1.00  0.00     0.134 A 
ATOM     41  C   UNL     1       1.706   5.886 -19.054  1.00  0.00     0.134 A 
ATOM     42  F   UNL     1       2.612   3.704 -16.296  1.00  0.00    -0.206 F 
ATOM     43  C   UNL     1       3.809   4.268 -18.236  1.00  0.00     0.040 A 
ATOM     44  C   UNL     1       2.842   5.764 -19.856  1.00  0.00     0.040 A 
ATOM     45  F   UNL     1       0.711   6.675 -19.489  1.00  0.00    -0.206 F 
ATOM     46  C   UNL     1       3.899   4.953 -19.447  1.00  0.00     0.006 A 
ENDBRANCH  25  39
BRANCH  26  47
ATOM     47  C   UNL     1      -6.649   5.916 -12.252  1.00  0.00     0.057 A 
ATOM     48  C   UNL     1      -7.133   4.818 -11.535  1.00  0.00     0.134 A 
ATOM     49  C   UNL     1      -7.353   7.122 -12.144  1.00  0.00     0.134 A 
ATOM     50  F   UNL     1      -6.511   3.632 -11.613  1.00  0.00    -0.206 F 
ATOM     51  C   UNL     1      -8.282   4.910 -10.747  1.00  0.00     0.040 A 
ATOM     52  C   UNL     1      -8.486   7.236 -11.339  1.00  0.00     0.040 A 
ATOM     53  F   UNL     1      -6.933   8.213 -12.801  1.00  0.00    -0.206 F 
ATOM     54  C   UNL     1      -8.957   6.125 -10.642  1.00  0.00     0.006 A 
ENDBRANCH  26  47
BRANCH  38  55
ATOM     55  C   UNL     1      -5.181   2.732 -18.247  1.00  0.00     0.057 A 
ATOM     56  C   UNL     1      -6.173   3.311 -19.048  1.00  0.00     0.134 A 
ATOM     57  C   UNL     1      -4.999   1.347 -18.335  1.00  0.00     0.134 A 
ATOM     58  F   UNL     1      -6.405   4.632 -18.995  1.00  0.00    -0.206 F 
ATOM     59  C   UNL     1      -6.976   2.536 -19.885  1.00  0.00     0.040 A 
ATOM     60  C   UNL     1      -5.782   0.565 -19.185  1.00  0.00     0.040 A 
ATOM     61  F   UNL     1      -4.062   0.734 -17.597  1.00  0.00    -0.206 F 
ATOM     62  C   UNL     1      -6.779   1.159 -19.956  1.00  0.00     0.006 A 
ENDBRANCH  38  55
ENDBRANCH  12  13
ENDBRANCH   5   7
ENDBRANCH   2   3
ENDBRANCH   1   2
BRANCH   1  63
ATOM     63  C   UNL     1       5.896   7.590  -7.644  1.00  0.00     0.023 C 
BRANCH  63  64
ATOM     64  C   UNL     1       5.754   7.203  -6.175  1.00  0.00     0.116 C 
BRANCH  64  65
ATOM     65  N   UNL     1       5.326   5.843  -5.931  1.00  0.00    -0.351 N 
ATOM     66  C   UNL     1       5.395   5.113  -4.766  1.00  0.00     0.283 C 
ATOM     67  H   UNL     1       4.931   5.377  -6.702  1.00  0.00     0.163 HD
ATOM     68  O   UNL     1       4.661   4.119  -4.723  1.00  0.00    -0.268 OA
BRANCH  66  69
ATOM     69  C   UNL     1       6.361   5.541  -3.599  1.00  0.00     0.307 C 
BRANCH  69  70
ATOM     70  N   UNL     1       5.609   6.159  -2.463  1.00  0.00    -0.318 N 
ATOM     71  C   UNL     1       6.474   6.486  -1.292  1.00  0.00     0.284 C 
ATOM     72  C   UNL     1       4.883   7.397  -2.824  1.00  0.00     0.284 C 
ATOM     73  H   UNL     1       4.939   5.431  -2.215  1.00  0.00     0.349 HD
ATOM     74  C   UNL     1       7.425   7.696  -1.468  1.00  0.00     0.178 C 
ATOM     75  C   UNL     1       5.762   8.655  -3.034  1.00  0.00     0.178 C 
ATOM     76  N   UNL     1       6.649   8.867  -1.889  1.00  0.00    -0.360 N 
BRANCH  76  77
ATOM     77  C   UNL     1       6.941  10.143  -1.453  1.00  0.00     0.037 A 
ATOM     78  C   UNL     1       8.238  10.542  -1.103  1.00  0.00     0.026 A 
ATOM     79  C   UNL     1       5.922  11.099  -1.307  1.00  0.00     0.026 A 
ATOM     80  C   UNL     1       8.506  11.835  -0.635  1.00  0.00     0.002 A 
ATOM     81  C   UNL     1       6.179  12.389  -0.836  1.00  0.00     0.002 A 
ATOM     82  C   UNL     1       7.475  12.759  -0.501  1.00  0.00     0.000 A 
ENDBRANCH  76  77
ENDBRANCH  69  70
BRANCH  69  83
ATOM     83  C   UNL     1       7.080   4.297  -3.085  1.00  0.00     0.044 A 
ATOM     84  C   UNL     1       6.500   3.219  -2.432  1.00  0.00     0.094 A 
ATOM     85  C   UNL     1       8.493   4.040  -3.106  1.00  0.00     0.009 A 
ATOM     86  N   UNL     1       7.481   2.354  -2.046  1.00  0.00    -0.361 N 
ATOM     87  C   UNL     1       8.710   2.837  -2.424  1.00  0.00     0.049 A 
ATOM     88  C   UNL     1       9.614   4.735  -3.610  1.00  0.00     0.014 A 
ATOM     89  H   UNL     1       7.331   1.508  -1.565  1.00  0.00     0.166 HD
ATOM     90  C   UNL     1       9.987   2.305  -2.208  1.00  0.00     0.065 A 
ATOM     91  C   UNL     1      10.898   4.212  -3.409  1.00  0.00     0.040 A 
ATOM     92  C   UNL     1      11.068   3.022  -2.714  1.00  0.00     0.125 A 
ATOM     93  F   UNL     1      12.307   2.550  -2.522  1.00  0.00    -0.207 F 
ENDBRANCH  69  83
ENDBRANCH  66  69
ENDBRANCH  64  65
ENDBRANCH  63  64
ENDBRANCH   1  63
TORSDOF 14
