REMARK SMILES CC[C@@H](C)c1ccccc1NC(=O)[C@@H]1[C@@H](C(=O)NCCCCNC(=O)c2ccc(-c3c4nc(c(-c5c(F)cccc5F)c5ccc([nH]5)c(-c5c(F)cccc5F)c5nc(c(-c6c(F)cccc6F)c6ccc3[nH]6)C=C5)C=C4)cc2)[C@@H]2C=C[C@H]1C2
REMARK SMILES IDX 19 1 18 2 16 3 17 4 15 6 14 7 83 8 80 9 82 10 84 11 81 12
REMARK SMILES IDX 12 13 11 14 13 16 10 17 5 18 6 19 7 20 9 21 8 22 3 23 4 24
REMARK SMILES IDX 2 25 1 26 20 27 21 28 22 29 23 30 24 31 25 33 26 34 27 35
REMARK SMILES IDX 79 36 28 37 78 38 29 39 30 40 31 41 72 42 32 43 77 44 71 45
REMARK SMILES IDX 73 46 33 47 76 48 70 49 69 50 34 52 60 53 43 54 59 55 44 56
REMARK SMILES IDX 47 57 58 58 74 59 45 60 46 61 57 63 75 64 48 65 35 66 36 67
REMARK SMILES IDX 41 68 37 69 38 70 40 71 42 72 39 73 61 74 62 75 67 76 63 77
REMARK SMILES IDX 64 78 66 79 68 80 65 81 49 82 50 83 55 84 51 85 52 86 54 87
REMARK SMILES IDX 56 88 53 89
REMARK H PARENT 18 5 11 15 23 32 73 51 47 62
REMARK Flexibility Score: inf
ROOT
ATOM      1  C   UNL     1      -2.647   3.325  -8.320  1.00  0.00     0.116 C 
ENDROOT
BRANCH   1   2
ATOM      2  N   UNL     1      -2.453   4.415  -7.374  1.00  0.00    -0.356 N 
ATOM      3  C   UNL     1      -2.501   4.516  -6.019  1.00  0.00     0.224 C 
ATOM      4  O   UNL     1      -2.199   5.628  -5.566  1.00  0.00    -0.275 OA
ATOM      5  H   UNL     1      -2.240   5.269  -7.814  1.00  0.00     0.163 HD
BRANCH   3   6
ATOM      6  C   UNL     1      -2.953   3.417  -5.042  1.00  0.00     0.098 C 
ATOM      7  C   UNL     1      -2.830   1.935  -5.490  1.00  0.00     0.099 C 
ATOM      8  C   UNL     1      -4.353   1.525  -5.529  1.00  0.00     0.025 C 
ATOM      9  C   UNL     1      -4.468   3.614  -4.765  1.00  0.00     0.025 C 
ATOM     10  C   UNL     1      -4.846   1.454  -4.095  1.00  0.00    -0.027 C 
ATOM     11  C   UNL     1      -5.094   2.815  -5.902  1.00  0.00     0.017 C 
ATOM     12  C   UNL     1      -4.875   2.710  -3.625  1.00  0.00    -0.027 C 
BRANCH   7  13
ATOM     13  C   UNL     1      -2.054   0.899  -4.668  1.00  0.00     0.228 C 
ATOM     14  N   UNL     1      -0.884   1.081  -4.011  1.00  0.00    -0.326 N 
ATOM     15  H   UNL     1      -0.631   0.283  -3.494  1.00  0.00     0.169 HD
ATOM     16  O   UNL     1      -2.473  -0.270  -4.636  1.00  0.00    -0.274 OA
BRANCH  14  17
ATOM     17  C   UNL     1       0.060   2.106  -3.874  1.00  0.00     0.044 A 
ATOM     18  C   UNL     1       0.964   2.099  -2.787  1.00  0.00    -0.022 A 
ATOM     19  C   UNL     1       1.665   3.297  -2.508  1.00  0.00     0.006 A 
ATOM     20  C   UNL     1       1.569   4.413  -3.333  1.00  0.00     0.000 A 
ATOM     21  C   UNL     1       0.122   3.160  -4.785  1.00  0.00     0.026 A 
ATOM     22  C   UNL     1       0.839   4.324  -4.505  1.00  0.00     0.002 A 
BRANCH  18  23
ATOM     23  C   UNL     1       1.293   0.926  -1.855  1.00  0.00     0.018 C 
ATOM     24  C   UNL     1       1.243  -0.485  -2.461  1.00  0.00     0.013 C 
BRANCH  23  25
ATOM     25  C   UNL     1       0.523   1.028  -0.524  1.00  0.00     0.005 C 
ATOM     26  C   UNL     1       0.962  -0.013   0.500  1.00  0.00     0.004 C 
ENDBRANCH  23  25
ENDBRANCH  18  23
ENDBRANCH  14  17
ENDBRANCH   7  13
ENDBRANCH   3   6
ENDBRANCH   1   2
BRANCH   1  27
ATOM     27  C   UNL     1      -3.241   3.777  -9.649  1.00  0.00     0.023 C 
BRANCH  27  28
ATOM     28  C   UNL     1      -2.284   4.544 -10.554  1.00  0.00     0.023 C 
BRANCH  28  29
ATOM     29  C   UNL     1      -0.970   3.831 -10.851  1.00  0.00     0.116 C 
BRANCH  29  30
ATOM     30  N   UNL     1      -1.151   2.518 -11.458  1.00  0.00    -0.352 N 
ATOM     31  C   UNL     1      -0.799   2.067 -12.710  1.00  0.00     0.251 C 
ATOM     32  H   UNL     1      -1.592   1.851 -10.884  1.00  0.00     0.163 HD
ATOM     33  O   UNL     1      -1.164   0.965 -13.096  1.00  0.00    -0.269 OA
BRANCH  31  34
ATOM     34  C   UNL     1      -0.008   2.939 -13.601  1.00  0.00     0.039 A 
ATOM     35  C   UNL     1      -0.419   3.111 -14.924  1.00  0.00     0.014 A 
ATOM     36  C   UNL     1       1.113   3.616 -13.116  1.00  0.00     0.014 A 
ATOM     37  C   UNL     1       0.238   4.040 -15.733  1.00  0.00     0.010 A 
ATOM     38  C   UNL     1       1.700   4.610 -13.888  1.00  0.00     0.010 A 
ATOM     39  C   UNL     1       1.269   4.834 -15.204  1.00  0.00    -0.014 A 
BRANCH  39  40
ATOM     40  C   UNL     1       1.910   5.908 -16.003  1.00  0.00     0.031 A 
ATOM     41  C   UNL     1       3.381   5.844 -16.305  1.00  0.00     0.074 A 
ATOM     42  C   UNL     1       1.187   6.977 -16.389  1.00  0.00     0.049 A 
ATOM     43  N   UNL     1       4.140   6.720 -16.914  1.00  0.00    -0.248 NA
ATOM     44  C   UNL     1       4.102   4.653 -15.828  1.00  0.00     0.031 C 
ATOM     45  C   UNL     1      -0.236   7.184 -16.113  1.00  0.00     0.029 A 
ATOM     46  N   UNL     1       1.554   8.097 -17.091  1.00  0.00    -0.354 N 
ATOM     47  C   UNL     1       5.425   6.193 -16.878  1.00  0.00     0.074 A 
ATOM     48  C   UNL     1       5.355   4.957 -16.131  1.00  0.00     0.031 C 
ATOM     49  C   UNL     1      -0.628   8.341 -16.671  1.00  0.00     0.029 A 
ATOM     50  C   UNL     1       0.521   8.976 -17.307  1.00  0.00     0.049 A 
ATOM     51  H   UNL     1       2.472   8.256 -17.411  1.00  0.00     0.167 HD
ATOM     52  C   UNL     1       6.556   6.679 -17.441  1.00  0.00     0.037 A 
ATOM     53  C   UNL     1       0.503  10.162 -17.945  1.00  0.00     0.037 A 
ATOM     54  C   UNL     1       6.619   7.897 -18.204  1.00  0.00     0.049 A 
ATOM     55  C   UNL     1       1.773  10.687 -18.553  1.00  0.00     0.074 A 
ATOM     56  C   UNL     1       7.703   8.448 -18.864  1.00  0.00     0.029 A 
ATOM     57  N   UNL     1       5.548   8.754 -18.409  1.00  0.00    -0.354 N 
ATOM     58  N   UNL     1       2.968  10.148 -18.567  1.00  0.00    -0.248 NA
ATOM     59  C   UNL     1       1.691  11.985 -19.238  1.00  0.00     0.031 C 
ATOM     60  C   UNL     1       7.298   9.660 -19.433  1.00  0.00     0.029 A 
ATOM     61  C   UNL     1       5.950   9.840 -19.169  1.00  0.00     0.049 A 
ATOM     62  H   UNL     1       4.636   8.611 -18.066  1.00  0.00     0.167 HD
ATOM     63  C   UNL     1       3.772  11.023 -19.285  1.00  0.00     0.074 A 
ATOM     64  C   UNL     1       2.925  12.123 -19.699  1.00  0.00     0.031 C 
ATOM     65  C   UNL     1       5.092  10.924 -19.577  1.00  0.00     0.037 A 
BRANCH  52  66
ATOM     66  C   UNL     1       7.814   5.881 -17.250  1.00  0.00     0.057 A 
ATOM     67  C   UNL     1       7.993   4.629 -17.856  1.00  0.00     0.134 A 
ATOM     68  C   UNL     1       8.858   6.367 -16.454  1.00  0.00     0.134 A 
ATOM     69  F   UNL     1       7.026   4.099 -18.619  1.00  0.00    -0.206 F 
ATOM     70  C   UNL     1       9.149   3.874 -17.648  1.00  0.00     0.040 A 
ATOM     71  C   UNL     1      10.031   5.634 -16.262  1.00  0.00     0.040 A 
ATOM     72  F   UNL     1       8.756   7.559 -15.848  1.00  0.00    -0.206 F 
ATOM     73  C   UNL     1      10.174   4.380 -16.852  1.00  0.00     0.006 A 
ENDBRANCH  52  66
BRANCH  53  74
ATOM     74  C   UNL     1      -0.770  10.914 -18.078  1.00  0.00     0.057 A 
ATOM     75  C   UNL     1      -1.412  11.021 -19.317  1.00  0.00     0.134 A 
ATOM     76  C   UNL     1      -1.375  11.538 -16.981  1.00  0.00     0.134 A 
ATOM     77  F   UNL     1      -0.871  10.458 -20.407  1.00  0.00    -0.206 F 
ATOM     78  C   UNL     1      -2.603  11.733 -19.465  1.00  0.00     0.040 A 
ATOM     79  C   UNL     1      -2.578  12.235 -17.110  1.00  0.00     0.040 A 
ATOM     80  F   UNL     1      -0.813  11.466 -15.765  1.00  0.00    -0.206 F 
ATOM     81  C   UNL     1      -3.192  12.339 -18.357  1.00  0.00     0.006 A 
ENDBRANCH  53  74
BRANCH  65  82
ATOM     82  C   UNL     1       5.693  12.015 -20.413  1.00  0.00     0.057 A 
ATOM     83  C   UNL     1       5.929  13.297 -19.900  1.00  0.00     0.134 A 
ATOM     84  C   UNL     1       6.073  11.768 -21.738  1.00  0.00     0.134 A 
ATOM     85  F   UNL     1       5.575  13.601 -18.642  1.00  0.00    -0.206 F 
ATOM     86  C   UNL     1       6.503  14.300 -20.682  1.00  0.00     0.040 A 
ATOM     87  C   UNL     1       6.672  12.755 -22.522  1.00  0.00     0.040 A 
ATOM     88  F   UNL     1       5.882  10.560 -22.288  1.00  0.00    -0.206 F 
ATOM     89  C   UNL     1       6.882  14.028 -21.995  1.00  0.00     0.006 A 
ENDBRANCH  65  82
ENDBRANCH  39  40
ENDBRANCH  31  34
ENDBRANCH  29  30
ENDBRANCH  28  29
ENDBRANCH  27  28
ENDBRANCH   1  27
TORSDOF 15
