REMARK SMILES Cc1onc2c(=O)n(C)nc(C(=O)NCCCCNC(=O)c3ccc(-c4c5nc(c(-c6c(F)cccc6F)c6ccc([nH]6)c(-c6c(F)cccc6F)c6nc(c(-c7c(F)cccc7F)c7ccc4[nH]7)C=C6)C=C5)cc3)c12
REMARK SMILES IDX 17 1 16 2 15 3 14 4 12 5 13 6 11 8 1 9 2 10 3 11 76 12 4 13
REMARK SMILES IDX 5 14 6 15 10 16 7 17 8 18 9 19 18 20 19 21 20 22 21 24 22 25
REMARK SMILES IDX 23 26 75 27 24 28 74 29 25 30 26 31 27 32 68 33 28 34 73 35
REMARK SMILES IDX 67 36 69 37 29 38 72 39 66 40 65 41 30 43 56 44 39 45 55 46
REMARK SMILES IDX 40 47 43 48 54 49 70 50 41 51 42 52 53 54 71 55 44 56 31 57
REMARK SMILES IDX 32 58 37 59 33 60 34 61 36 62 38 63 35 64 57 65 58 66 63 67
REMARK SMILES IDX 59 68 60 69 62 70 64 71 61 72 45 73 46 74 51 75 47 76 48 77
REMARK SMILES IDX 50 78 52 79 49 80
REMARK H PARENT 14 7 19 23 69 42 43 53
REMARK Flexibility Score: inf
ROOT
ATOM      1  C   UNL     1      -2.846   4.019   4.347  1.00  0.00     0.023 C 
ENDROOT
BRANCH   1   2
ATOM      2  C   UNL     1      -2.888   2.488   4.491  1.00  0.00     0.023 C 
BRANCH   2   3
ATOM      3  C   UNL     1      -3.282   1.726   3.228  1.00  0.00     0.116 C 
BRANCH   3   4
ATOM      4  N   UNL     1      -2.284   1.857   2.181  1.00  0.00    -0.351 N 
ATOM      5  C   UNL     1      -1.540   0.930   1.487  1.00  0.00     0.272 C 
ATOM      6  O   UNL     1      -0.831   1.338   0.572  1.00  0.00    -0.267 OA
ATOM      7  H   UNL     1      -2.104   2.789   1.917  1.00  0.00     0.163 HD
BRANCH   5   8
ATOM      8  C   UNL     1      -1.573  -0.576   1.794  1.00  0.00     0.161 A 
ATOM      9  C   UNL     1       1.357  -0.360  -0.074  1.00  0.00     0.091 C 
ATOM     10  C   UNL     1       0.539  -1.435   0.521  1.00  0.00     0.144 A 
ATOM     11  O   UNL     1       1.016  -2.698   0.307  1.00  0.00    -0.360 OA
ATOM     12  C   UNL     1      -0.612  -1.520   1.270  1.00  0.00     0.083 A 
ATOM     13  N   UNL     1       0.204  -3.622   0.940  1.00  0.00    -0.074 NA
ATOM     14  C   UNL     1      -0.757  -2.899   1.522  1.00  0.00     0.183 A 
ATOM     15  C   UNL     1      -1.826  -3.416   2.347  1.00  0.00     0.296 A 
ATOM     16  N   UNL     1      -2.538  -1.042   2.542  1.00  0.00    -0.164 NA
ATOM     17  O   UNL     1      -1.986  -4.613   2.603  1.00  0.00    -0.265 OA
ATOM     18  N   UNL     1      -2.654  -2.398   2.850  1.00  0.00    -0.230 N 
ATOM     19  C   UNL     1      -3.729  -2.762   3.752  1.00  0.00     0.178 C 
ENDBRANCH   5   8
ENDBRANCH   3   4
ENDBRANCH   2   3
ENDBRANCH   1   2
BRANCH   1  20
ATOM     20  C   UNL     1      -4.151   4.676   3.876  1.00  0.00     0.116 C 
BRANCH  20  21
ATOM     21  N   UNL     1      -5.249   4.314   4.750  1.00  0.00    -0.352 N 
ATOM     22  C   UNL     1      -6.186   5.084   5.374  1.00  0.00     0.251 C 
ATOM     23  H   UNL     1      -5.333   3.349   4.923  1.00  0.00     0.163 HD
ATOM     24  O   UNL     1      -6.774   4.612   6.346  1.00  0.00    -0.269 OA
BRANCH  22  25
ATOM     25  C   UNL     1      -6.548   6.436   4.903  1.00  0.00     0.039 A 
ATOM     26  C   UNL     1      -6.981   7.346   5.873  1.00  0.00     0.014 A 
ATOM     27  C   UNL     1      -6.658   6.753   3.544  1.00  0.00     0.014 A 
ATOM     28  C   UNL     1      -7.535   8.560   5.490  1.00  0.00     0.010 A 
ATOM     29  C   UNL     1      -7.207   7.979   3.159  1.00  0.00     0.010 A 
ATOM     30  C   UNL     1      -7.655   8.880   4.133  1.00  0.00    -0.014 A 
BRANCH  30  31
ATOM     31  C   UNL     1      -8.215  10.206   3.830  1.00  0.00     0.031 A 
ATOM     32  C   UNL     1      -7.437  11.005   2.823  1.00  0.00     0.074 A 
ATOM     33  C   UNL     1      -9.554  10.364   3.847  1.00  0.00     0.049 A 
ATOM     34  N   UNL     1      -7.519  10.879   1.532  1.00  0.00    -0.248 NA
ATOM     35  C   UNL     1      -6.325  11.854   3.258  1.00  0.00     0.031 C 
ATOM     36  C   UNL     1     -10.540   9.476   3.230  1.00  0.00     0.029 A 
ATOM     37  N   UNL     1     -10.293  11.421   4.322  1.00  0.00    -0.354 N 
ATOM     38  C   UNL     1      -6.487  11.623   0.977  1.00  0.00     0.074 A 
ATOM     39  C   UNL     1      -5.760  12.192   2.089  1.00  0.00     0.031 C 
ATOM     40  C   UNL     1     -11.729  10.112   3.199  1.00  0.00     0.029 A 
ATOM     41  C   UNL     1     -11.609  11.407   3.867  1.00  0.00     0.049 A 
ATOM     42  H   UNL     1      -9.931  12.115   4.920  1.00  0.00     0.167 HD
ATOM     43  C   UNL     1      -6.306  11.761  -0.364  1.00  0.00     0.037 A 
ATOM     44  C   UNL     1     -12.288  12.544   3.538  1.00  0.00     0.037 A 
ATOM     45  C   UNL     1      -7.307  11.137  -1.175  1.00  0.00     0.049 A 
ATOM     46  C   UNL     1     -11.769  12.767   2.131  1.00  0.00     0.074 A 
ATOM     47  C   UNL     1      -7.481   9.959  -1.863  1.00  0.00     0.029 A 
ATOM     48  N   UNL     1      -8.486  11.823  -1.345  1.00  0.00    -0.354 N 
ATOM     49  N   UNL     1     -12.122  12.095   1.064  1.00  0.00    -0.248 NA
ATOM     50  C   UNL     1     -10.504  13.495   1.992  1.00  0.00     0.031 C 
ATOM     51  C   UNL     1      -8.897   9.810  -1.996  1.00  0.00     0.029 A 
ATOM     52  C   UNL     1      -9.490  10.894  -1.348  1.00  0.00     0.049 A 
ATOM     53  H   UNL     1      -8.588  12.797  -1.446  1.00  0.00     0.167 HD
ATOM     54  C   UNL     1     -10.983  12.064   0.251  1.00  0.00     0.074 A 
ATOM     55  C   UNL     1     -10.042  12.981   0.860  1.00  0.00     0.031 C 
ATOM     56  C   UNL     1     -10.778  11.148  -0.742  1.00  0.00     0.037 A 
BRANCH  43  57
ATOM     57  C   UNL     1      -5.333  12.656  -1.029  1.00  0.00     0.057 A 
ATOM     58  C   UNL     1      -5.818  13.836  -1.613  1.00  0.00     0.134 A 
ATOM     59  C   UNL     1      -4.034  12.260  -1.349  1.00  0.00     0.134 A 
ATOM     60  F   UNL     1      -7.062  14.262  -1.339  1.00  0.00    -0.206 F 
ATOM     61  C   UNL     1      -5.071  14.559  -2.539  1.00  0.00     0.040 A 
ATOM     62  C   UNL     1      -3.265  12.989  -2.264  1.00  0.00     0.040 A 
ATOM     63  F   UNL     1      -3.515  11.136  -0.834  1.00  0.00    -0.206 F 
ATOM     64  C   UNL     1      -3.793  14.126  -2.880  1.00  0.00     0.006 A 
ENDBRANCH  43  57
BRANCH  44  65
ATOM     65  C   UNL     1     -12.306  13.577   4.624  1.00  0.00     0.057 A 
ATOM     66  C   UNL     1     -12.697  13.162   5.915  1.00  0.00     0.134 A 
ATOM     67  C   UNL     1     -11.900  14.911   4.518  1.00  0.00     0.134 A 
ATOM     68  F   UNL     1     -13.229  11.944   6.102  1.00  0.00    -0.206 F 
ATOM     69  C   UNL     1     -12.516  13.956   7.049  1.00  0.00     0.040 A 
ATOM     70  C   UNL     1     -11.695  15.714   5.649  1.00  0.00     0.040 A 
ATOM     71  F   UNL     1     -11.664  15.479   3.328  1.00  0.00    -0.206 F 
ATOM     72  C   UNL     1     -11.969  15.225   6.922  1.00  0.00     0.006 A 
ENDBRANCH  44  65
BRANCH  56  73
ATOM     73  C   UNL     1     -11.905  10.218  -1.028  1.00  0.00     0.057 A 
ATOM     74  C   UNL     1     -13.070  10.679  -1.645  1.00  0.00     0.134 A 
ATOM     75  C   UNL     1     -11.810   8.844  -0.763  1.00  0.00     0.134 A 
ATOM     76  F   UNL     1     -13.219  11.981  -1.936  1.00  0.00    -0.206 F 
ATOM     77  C   UNL     1     -14.091   9.802  -2.013  1.00  0.00     0.040 A 
ATOM     78  C   UNL     1     -12.809   7.954  -1.155  1.00  0.00     0.040 A 
ATOM     79  F   UNL     1     -10.730   8.330  -0.151  1.00  0.00    -0.206 F 
ATOM     80  C   UNL     1     -13.954   8.433  -1.785  1.00  0.00     0.006 A 
ENDBRANCH  56  73
ENDBRANCH  30  31
ENDBRANCH  22  25
ENDBRANCH  20  21
ENDBRANCH   1  20
TORSDOF 11
