REMARK SMILES Cc1cc2c(c(C)c1Br)C=C(C(=O)NCCCCNC(=O)c1ccc(-c3c4nc(c(-c5c(F)cccc5F)c5ccc([nH]5)c(-c5c(F)cccc5F)c5nc(c(-c6c(F)cccc6F)c6ccc3[nH]6)C=C5)C=C4)cc1)[C@@H](C(F)(F)F)O2
REMARK SMILES IDX 17 1 16 2 15 3 14 4 12 5 13 6 11 8 1 9 2 10 3 11 8 12 4 13
REMARK SMILES IDX 6 14 9 15 5 16 81 17 7 18 10 19 76 20 77 21 78 22 79 23
REMARK SMILES IDX 80 24 18 25 19 26 20 27 21 29 22 30 23 31 75 32 24 33 74 34
REMARK SMILES IDX 25 35 26 36 27 37 68 38 28 39 73 40 67 41 69 42 29 43 72 44
REMARK SMILES IDX 66 45 65 46 30 48 56 49 39 50 55 51 40 52 43 53 54 54 70 55
REMARK SMILES IDX 41 56 42 57 53 59 71 60 44 61 31 62 32 63 37 64 33 65 34 66
REMARK SMILES IDX 36 67 38 68 35 69 57 70 58 71 63 72 59 73 60 74 62 75 64 76
REMARK SMILES IDX 61 77 45 78 46 79 51 80 47 81 48 82 50 83 52 84 49 85
REMARK H PARENT 14 7 19 28 69 47 43 58
REMARK Flexibility Score: inf
ROOT
ATOM      1  C   UNL     1      -5.398   6.446  -6.297  1.00  0.00     0.023 C 
ENDROOT
BRANCH   1   2
ATOM      2  C   UNL     1      -4.640   5.307  -5.611  1.00  0.00     0.023 C 
BRANCH   2   3
ATOM      3  C   UNL     1      -3.144   5.281  -5.914  1.00  0.00     0.116 C 
BRANCH   3   4
ATOM      4  N   UNL     1      -2.398   6.159  -5.030  1.00  0.00    -0.352 N 
ATOM      5  C   UNL     1      -1.566   6.022  -3.971  1.00  0.00     0.251 C 
ATOM      6  O   UNL     1      -1.147   7.084  -3.498  1.00  0.00    -0.270 OA
ATOM      7  H   UNL     1      -2.533   7.106  -5.263  1.00  0.00     0.163 HD
BRANCH   5   8
ATOM      8  C   UNL     1      -1.137   4.725  -3.365  1.00  0.00     0.067 C 
ATOM      9  C   UNL     1       1.228  -0.163   0.233  1.00  0.00     0.046 C 
ATOM     10  C   UNL     1       0.858   1.169  -0.365  1.00  0.00    -0.033 A 
ATOM     11  C   UNL     1      -0.041   1.181  -1.435  1.00  0.00     0.051 A 
ATOM     12  C   UNL     1       1.366   2.397   0.113  1.00  0.00     0.024 A 
ATOM     13  C   UNL     1      -0.420   2.380  -2.029  1.00  0.00     0.128 A 
ATOM     14  C   UNL     1       0.985   3.628  -0.483  1.00  0.00    -0.026 A 
ATOM     15  Br  UNL     1       2.569   2.358   1.602  1.00  0.00    -0.050 Br
ATOM     16  C   UNL     1       0.071   3.604  -1.567  1.00  0.00     0.021 A 
ATOM     17  O   UNL     1      -1.326   2.267  -3.044  1.00  0.00    -0.475 OA
ATOM     18  C   UNL     1       1.511   4.959   0.002  1.00  0.00     0.046 C 
ATOM     19  C   UNL     1      -0.433   4.818  -2.221  1.00  0.00     0.026 C 
ATOM     20  C   UNL     1      -1.407   3.380  -3.969  1.00  0.00     0.314 C 
BRANCH  20  21
ATOM     21  C   UNL     1      -0.528   3.088  -5.198  1.00  0.00     0.429 C 
ATOM     22  F   UNL     1      -1.024   2.035  -5.895  1.00  0.00    -0.167 F 
ATOM     23  F   UNL     1      -0.483   4.129  -6.063  1.00  0.00    -0.167 F 
ATOM     24  F   UNL     1       0.749   2.793  -4.870  1.00  0.00    -0.167 F 
ENDBRANCH  20  21
ENDBRANCH   5   8
ENDBRANCH   3   4
ENDBRANCH   2   3
ENDBRANCH   1   2
BRANCH   1  25
ATOM     25  C   UNL     1      -5.250   6.511  -7.816  1.00  0.00     0.116 C 
BRANCH  25  26
ATOM     26  N   UNL     1      -5.539   5.253  -8.491  1.00  0.00    -0.352 N 
ATOM     27  C   UNL     1      -6.050   5.068  -9.753  1.00  0.00     0.251 C 
ATOM     28  H   UNL     1      -5.345   4.435  -7.979  1.00  0.00     0.163 HD
ATOM     29  O   UNL     1      -6.317   3.945 -10.165  1.00  0.00    -0.269 OA
BRANCH  27  30
ATOM     30  C   UNL     1      -6.317   6.252 -10.589  1.00  0.00     0.039 A 
ATOM     31  C   UNL     1      -7.606   6.443 -11.093  1.00  0.00     0.014 A 
ATOM     32  C   UNL     1      -5.313   7.198 -10.811  1.00  0.00     0.014 A 
ATOM     33  C   UNL     1      -7.912   7.630 -11.757  1.00  0.00     0.010 A 
ATOM     34  C   UNL     1      -5.634   8.403 -11.424  1.00  0.00     0.010 A 
ATOM     35  C   UNL     1      -6.938   8.633 -11.891  1.00  0.00    -0.014 A 
BRANCH  35  36
ATOM     36  C   UNL     1      -7.258   9.943 -12.505  1.00  0.00     0.031 A 
ATOM     37  C   UNL     1      -6.622  10.333 -13.806  1.00  0.00     0.074 A 
ATOM     38  C   UNL     1      -8.056  10.807 -11.850  1.00  0.00     0.049 A 
ATOM     39  N   UNL     1      -6.673  11.475 -14.440  1.00  0.00    -0.248 NA
ATOM     40  C   UNL     1      -5.799   9.309 -14.468  1.00  0.00     0.031 C 
ATOM     41  C   UNL     1      -8.710  10.551 -10.565  1.00  0.00     0.029 A 
ATOM     42  N   UNL     1      -8.441  12.084 -12.171  1.00  0.00    -0.354 N 
ATOM     43  C   UNL     1      -5.879  11.313 -15.567  1.00  0.00     0.074 A 
ATOM     44  C   UNL     1      -5.324   9.978 -15.508  1.00  0.00     0.031 C 
ATOM     45  C   UNL     1      -9.430  11.630 -10.217  1.00  0.00     0.029 A 
ATOM     46  C   UNL     1      -9.258  12.664 -11.232  1.00  0.00     0.049 A 
ATOM     47  H   UNL     1      -8.159  12.541 -12.996  1.00  0.00     0.167 HD
ATOM     48  C   UNL     1      -5.650  12.192 -16.570  1.00  0.00     0.037 A 
ATOM     49  C   UNL     1      -9.801  13.896 -11.192  1.00  0.00     0.037 A 
ATOM     50  C   UNL     1      -6.219  13.512 -16.635  1.00  0.00     0.049 A 
ATOM     51  C   UNL     1      -9.524  14.858 -12.312  1.00  0.00     0.074 A 
ATOM     52  C   UNL     1      -6.069  14.468 -17.623  1.00  0.00     0.029 A 
ATOM     53  N   UNL     1      -7.054  14.059 -15.671  1.00  0.00    -0.354 N 
ATOM     54  N   UNL     1      -8.787  14.687 -13.383  1.00  0.00    -0.248 NA
ATOM     55  C   UNL     1     -10.153  16.182 -12.220  1.00  0.00     0.031 C 
ATOM     56  C   UNL     1      -6.792  15.605 -17.244  1.00  0.00     0.029 A 
ATOM     57  C   UNL     1      -7.422  15.342 -16.039  1.00  0.00     0.049 A 
ATOM     58  H   UNL     1      -7.342  13.602 -14.848  1.00  0.00     0.167 HD
ATOM     59  C   UNL     1      -8.881  15.870 -14.102  1.00  0.00     0.074 A 
ATOM     60  C   UNL     1      -9.755  16.748 -13.351  1.00  0.00     0.031 C 
ATOM     61  C   UNL     1      -8.296  16.199 -15.280  1.00  0.00     0.037 A 
BRANCH  48  62
ATOM     62  C   UNL     1      -4.748  11.747 -17.681  1.00  0.00     0.057 A 
ATOM     63  C   UNL     1      -5.159  10.795 -18.623  1.00  0.00     0.134 A 
ATOM     64  C   UNL     1      -3.467  12.293 -17.830  1.00  0.00     0.134 A 
ATOM     65  F   UNL     1      -6.368  10.222 -18.526  1.00  0.00    -0.206 F 
ATOM     66  C   UNL     1      -4.321  10.386 -19.661  1.00  0.00     0.040 A 
ATOM     67  C   UNL     1      -2.629  11.910 -18.878  1.00  0.00     0.040 A 
ATOM     68  F   UNL     1      -3.013  13.211 -16.963  1.00  0.00    -0.206 F 
ATOM     69  C   UNL     1      -3.053  10.950 -19.794  1.00  0.00     0.006 A 
ENDBRANCH  48  62
BRANCH  49  70
ATOM     70  C   UNL     1     -10.688  14.272 -10.065  1.00  0.00     0.057 A 
ATOM     71  C   UNL     1     -12.072  14.377 -10.248  1.00  0.00     0.134 A 
ATOM     72  C   UNL     1     -10.185  14.512  -8.781  1.00  0.00     0.134 A 
ATOM     73  F   UNL     1     -12.608  14.175 -11.461  1.00  0.00    -0.206 F 
ATOM     74  C   UNL     1     -12.925  14.712  -9.196  1.00  0.00     0.040 A 
ATOM     75  C   UNL     1     -11.029  14.829  -7.715  1.00  0.00     0.040 A 
ATOM     76  F   UNL     1      -8.869  14.420  -8.541  1.00  0.00    -0.206 F 
ATOM     77  C   UNL     1     -12.403  14.933  -7.923  1.00  0.00     0.006 A 
ENDBRANCH  49  70
BRANCH  61  78
ATOM     78  C   UNL     1      -8.603  17.553 -15.844  1.00  0.00     0.057 A 
ATOM     79  C   UNL     1      -8.036  18.718 -15.313  1.00  0.00     0.134 A 
ATOM     80  C   UNL     1      -9.432  17.686 -16.964  1.00  0.00     0.134 A 
ATOM     81  F   UNL     1      -7.243  18.657 -14.233  1.00  0.00    -0.206 F 
ATOM     82  C   UNL     1      -8.296  19.971 -15.869  1.00  0.00     0.040 A 
ATOM     83  C   UNL     1      -9.682  18.931 -17.542  1.00  0.00     0.040 A 
ATOM     84  F   UNL     1      -9.999  16.607 -17.524  1.00  0.00    -0.206 F 
ATOM     85  C   UNL     1      -9.115  20.079 -16.991  1.00  0.00     0.006 A 
ENDBRANCH  61  78
ENDBRANCH  35  36
ENDBRANCH  27  30
ENDBRANCH  25  26
ENDBRANCH   1  25
TORSDOF 12
