REMARK SMILES COCC[C@]1(C(=O)NCCCCNC(=O)c2ccc(-c3c4nc(c(-c5c(F)cccc5F)c5ccc([nH]5)c(-c5c(F)cccc5F)c5nc(c(-c6c(F)cccc6F)c6ccc3[nH]6)C=C5)C=C4)cc2)CCCN(C(=O)Cc2c(C)nc(C)[nH]c2=O)C1
REMARK SMILES IDX 10 1 9 2 8 3 6 4 7 5 5 7 70 8 86 9 71 10 73 11 72 12 4 13
REMARK SMILES IDX 3 14 2 15 1 16 74 17 75 18 76 19 77 20 78 21 84 22 79 23
REMARK SMILES IDX 80 24 83 25 85 26 81 27 82 29 11 30 12 31 13 32 14 33 15 35
REMARK SMILES IDX 16 36 17 37 69 38 18 39 68 40 19 41 20 42 21 43 62 44 22 45
REMARK SMILES IDX 67 46 61 47 63 48 23 49 66 50 60 51 59 52 24 54 50 55 33 56
REMARK SMILES IDX 49 57 34 58 37 59 48 60 64 61 35 62 36 63 47 65 65 66 38 67
REMARK SMILES IDX 25 68 26 69 31 70 27 71 28 72 30 73 32 74 29 75 51 76 52 77
REMARK SMILES IDX 57 78 53 79 54 80 56 81 58 82 55 83 39 84 40 85 45 86 41 87
REMARK SMILES IDX 42 88 44 89 46 90 43 91
REMARK H PARENT 8 6 83 28 13 34 63 53 37 64
REMARK Flexibility Score: inf
ROOT
ATOM      1  C   UNL     1       1.044   4.765   0.774  1.00  0.00     0.023 C 
ENDROOT
BRANCH   1   2
ATOM      2  C   UNL     1       2.057   3.842   0.093  1.00  0.00     0.116 C 
BRANCH   2   3
ATOM      3  N   UNL     1       1.705   2.450   0.296  1.00  0.00    -0.356 N 
ATOM      4  C   UNL     1       0.854   1.691  -0.445  1.00  0.00     0.228 C 
ATOM      5  O   UNL     1       0.036   1.038   0.207  1.00  0.00    -0.274 OA
ATOM      6  H   UNL     1       2.134   2.001   1.060  1.00  0.00     0.163 HD
BRANCH   4   7
ATOM      7  C   UNL     1       0.812   1.751  -1.981  1.00  0.00     0.069 C 
ATOM      8  C   UNL     1      -0.175   2.928  -2.300  1.00  0.00     0.021 C 
ATOM      9  C   UNL     1       2.220   1.956  -2.617  1.00  0.00     0.136 C 
ATOM     10  C   UNL     1      -0.010   3.586  -3.666  1.00  0.00     0.023 C 
ATOM     11  N   UNL     1       2.133   2.549  -3.952  1.00  0.00    -0.341 N 
ATOM     12  C   UNL     1       1.457   3.833  -3.972  1.00  0.00     0.119 C 
BRANCH   7  13
ATOM     13  C   UNL     1       0.172   0.422  -2.527  1.00  0.00     0.047 C 
BRANCH  13  14
ATOM     14  C   UNL     1       0.984  -0.886  -2.418  1.00  0.00     0.161 C 
BRANCH  14  15
ATOM     15  O   UNL     1       0.527  -1.751  -1.379  1.00  0.00    -0.385 OA
ATOM     16  C   UNL     1       1.154  -1.557  -0.120  1.00  0.00     0.194 C 
ENDBRANCH  14  15
ENDBRANCH  13  14
ENDBRANCH   7  13
BRANCH  11  17
ATOM     17  C   UNL     1       2.496   1.809  -5.071  1.00  0.00     0.227 C 
ATOM     18  O   UNL     1       2.991   0.684  -4.955  1.00  0.00    -0.275 OA
BRANCH  17  19
ATOM     19  C   UNL     1       2.269   2.395  -6.473  1.00  0.00     0.143 C 
BRANCH  19  20
ATOM     20  C   UNL     1       0.810   2.430  -6.850  1.00  0.00     0.048 A 
ATOM     21  C   UNL     1      -0.034   1.381  -6.940  1.00  0.00     0.049 A 
ATOM     22  C   UNL     1       0.221   3.770  -7.109  1.00  0.00     0.254 A 
ATOM     23  C   UNL     1       0.407  -0.055  -6.814  1.00  0.00     0.067 C 
ATOM     24  N   UNL     1      -1.396   1.507  -7.111  1.00  0.00    -0.240 NA
ATOM     25  N   UNL     1      -1.134   3.819  -7.208  1.00  0.00    -0.311 N 
ATOM     26  O   UNL     1       0.898   4.789  -7.192  1.00  0.00    -0.269 OA
ATOM     27  C   UNL     1      -1.895   2.694  -7.204  1.00  0.00     0.105 A 
ATOM     28  H   UNL     1      -1.576   4.695  -7.286  1.00  0.00     0.171 HD
ATOM     29  C   UNL     1      -3.379   2.892  -7.305  1.00  0.00     0.087 C 
ENDBRANCH  19  20
ENDBRANCH  17  19
ENDBRANCH  11  17
ENDBRANCH   4   7
ENDBRANCH   2   3
ENDBRANCH   1   2
BRANCH   1  30
ATOM     30  C   UNL     1       0.983   4.631   2.293  1.00  0.00     0.023 C 
BRANCH  30  31
ATOM     31  C   UNL     1       2.326   4.756   2.994  1.00  0.00     0.116 C 
BRANCH  31  32
ATOM     32  N   UNL     1       3.031   5.979   2.641  1.00  0.00    -0.352 N 
ATOM     33  C   UNL     1       3.650   6.885   3.464  1.00  0.00     0.251 C 
ATOM     34  H   UNL     1       3.068   6.185   1.679  1.00  0.00     0.163 HD
ATOM     35  O   UNL     1       4.074   7.944   3.014  1.00  0.00    -0.269 OA
BRANCH  33  36
ATOM     36  C   UNL     1       3.770   6.582   4.902  1.00  0.00     0.039 A 
ATOM     37  C   UNL     1       3.400   7.558   5.828  1.00  0.00     0.014 A 
ATOM     38  C   UNL     1       4.204   5.324   5.328  1.00  0.00     0.014 A 
ATOM     39  C   UNL     1       3.404   7.248   7.187  1.00  0.00     0.010 A 
ATOM     40  C   UNL     1       4.125   4.990   6.674  1.00  0.00     0.010 A 
ATOM     41  C   UNL     1       3.730   5.951   7.617  1.00  0.00    -0.014 A 
BRANCH  41  42
ATOM     42  C   UNL     1       3.666   5.580   9.051  1.00  0.00     0.031 A 
ATOM     43  C   UNL     1       4.916   5.166   9.776  1.00  0.00     0.074 A 
ATOM     44  C   UNL     1       2.476   5.557   9.680  1.00  0.00     0.049 A 
ATOM     45  N   UNL     1       5.057   4.753  11.009  1.00  0.00    -0.248 NA
ATOM     46  C   UNL     1       6.169   5.192   9.004  1.00  0.00     0.031 C 
ATOM     47  C   UNL     1       1.187   5.886   9.068  1.00  0.00     0.029 A 
ATOM     48  N   UNL     1       2.155   5.233  10.974  1.00  0.00    -0.354 N 
ATOM     49  C   UNL     1       6.407   4.459  11.155  1.00  0.00     0.074 A 
ATOM     50  C   UNL     1       7.031   4.682   9.870  1.00  0.00     0.031 C 
ATOM     51  C   UNL     1       0.220   5.774   9.993  1.00  0.00     0.029 A 
ATOM     52  C   UNL     1       0.813   5.327  11.249  1.00  0.00     0.049 A 
ATOM     53  H   UNL     1       2.824   4.959  11.643  1.00  0.00     0.167 HD
ATOM     54  C   UNL     1       7.070   4.064  12.268  1.00  0.00     0.037 A 
ATOM     55  C   UNL     1       0.137   5.076  12.386  1.00  0.00     0.037 A 
ATOM     56  C   UNL     1       6.447   3.865  13.549  1.00  0.00     0.049 A 
ATOM     57  C   UNL     1       0.895   4.630  13.605  1.00  0.00     0.074 A 
ATOM     58  C   UNL     1       7.040   3.524  14.752  1.00  0.00     0.029 A 
ATOM     59  N   UNL     1       5.086   3.984  13.792  1.00  0.00    -0.354 N 
ATOM     60  N   UNL     1       2.183   4.428  13.750  1.00  0.00    -0.248 NA
ATOM     61  C   UNL     1       0.108   4.382  14.821  1.00  0.00     0.031 C 
ATOM     62  C   UNL     1       6.032   3.389  15.712  1.00  0.00     0.029 A 
ATOM     63  C   UNL     1       4.818   3.700  15.121  1.00  0.00     0.049 A 
ATOM     64  H   UNL     1       4.412   4.234  13.120  1.00  0.00     0.167 HD
ATOM     65  C   UNL     1       2.364   4.059  15.077  1.00  0.00     0.074 A 
ATOM     66  C   UNL     1       1.055   4.081  15.697  1.00  0.00     0.031 C 
ATOM     67  C   UNL     1       3.509   3.732  15.724  1.00  0.00     0.037 A 
BRANCH  54  68
ATOM     68  C   UNL     1       8.547   3.827  12.144  1.00  0.00     0.057 A 
ATOM     69  C   UNL     1       9.451   4.878  11.939  1.00  0.00     0.134 A 
ATOM     70  C   UNL     1       9.077   2.535  12.262  1.00  0.00     0.134 A 
ATOM     71  F   UNL     1       9.010   6.138  11.803  1.00  0.00    -0.206 F 
ATOM     72  C   UNL     1      10.824   4.651  11.826  1.00  0.00     0.040 A 
ATOM     73  C   UNL     1      10.450   2.299  12.181  1.00  0.00     0.040 A 
ATOM     74  F   UNL     1       8.270   1.483  12.464  1.00  0.00    -0.206 F 
ATOM     75  C   UNL     1      11.327   3.358  11.955  1.00  0.00     0.006 A 
ENDBRANCH  54  68
BRANCH  55  76
ATOM     76  C   UNL     1      -1.336   5.261  12.433  1.00  0.00     0.057 A 
ATOM     77  C   UNL     1      -1.910   6.293  13.184  1.00  0.00     0.134 A 
ATOM     78  C   UNL     1      -2.204   4.409  11.741  1.00  0.00     0.134 A 
ATOM     79  F   UNL     1      -1.132   7.132  13.884  1.00  0.00    -0.206 F 
ATOM     80  C   UNL     1      -3.294   6.459  13.264  1.00  0.00     0.040 A 
ATOM     81  C   UNL     1      -3.589   4.579  11.789  1.00  0.00     0.040 A 
ATOM     82  F   UNL     1      -1.717   3.406  10.995  1.00  0.00    -0.206 F 
ATOM     83  C   UNL     1      -4.138   5.601  12.560  1.00  0.00     0.006 A 
ENDBRANCH  55  76
BRANCH  67  84
ATOM     84  C   UNL     1       3.404   3.407  17.185  1.00  0.00     0.057 A 
ATOM     85  C   UNL     1       2.819   2.219  17.640  1.00  0.00     0.134 A 
ATOM     86  C   UNL     1       3.931   4.279  18.147  1.00  0.00     0.134 A 
ATOM     87  F   UNL     1       2.284   1.348  16.772  1.00  0.00    -0.206 F 
ATOM     88  C   UNL     1       2.741   1.920  19.002  1.00  0.00     0.040 A 
ATOM     89  C   UNL     1       3.885   3.978  19.509  1.00  0.00     0.040 A 
ATOM     90  F   UNL     1       4.514   5.430  17.778  1.00  0.00    -0.206 F 
ATOM     91  C   UNL     1       3.282   2.798  19.939  1.00  0.00     0.006 A 
ENDBRANCH  67  84
ENDBRANCH  41  42
ENDBRANCH  33  36
ENDBRANCH  31  32
ENDBRANCH  30  31
ENDBRANCH   1  30
TORSDOF 17
