REMARK SMILES O=C(Cc1ccc(=O)n(C(F)F)c1)NCCCCNC(=O)c1ccc(-c2c3nc(c(-c4c(F)cccc4F)c4ccc([nH]4)c(-c4c(F)cccc4F)c4nc(c(-c5c(F)cccc5F)c5ccc2[nH]5)C=C4)C=C3)cc1
REMARK SMILES IDX 16 1 15 2 14 3 1 4 2 5 3 7 4 8 5 9 13 10 6 11 9 12 7 13 8 14
REMARK SMILES IDX 10 15 11 16 12 17 17 18 18 19 19 20 20 21 21 23 22 24 23 25
REMARK SMILES IDX 75 26 24 27 74 28 25 29 26 30 27 31 68 32 28 33 73 34 67 35
REMARK SMILES IDX 69 36 29 37 72 38 66 39 65 40 30 42 56 43 39 44 55 45 40 46
REMARK SMILES IDX 43 47 54 48 70 49 41 50 42 51 53 53 71 54 44 55 31 56 32 57
REMARK SMILES IDX 37 58 33 59 34 60 36 61 38 62 35 63 57 64 58 65 63 66 59 67
REMARK SMILES IDX 60 68 62 69 64 70 61 71 45 72 46 73 51 74 47 75 48 76 50 77
REMARK SMILES IDX 52 78 49 79
REMARK H PARENT 14 6 19 22 69 41 43 52
REMARK Flexibility Score: inf
ROOT
ATOM      1  C   UNL     1       2.198   3.418  -0.965  1.00  0.00     0.023 C 
ENDROOT
BRANCH   1   2
ATOM      2  C   UNL     1       1.886   1.949  -1.248  1.00  0.00     0.116 C 
BRANCH   2   3
ATOM      3  N   UNL     1       2.635   1.043  -0.399  1.00  0.00    -0.356 N 
ATOM      4  O   UNL     1       1.008  -0.581  -0.299  1.00  0.00    -0.275 OA
ATOM      5  C   UNL     1       2.135  -0.187  -0.019  1.00  0.00     0.224 C 
ATOM      6  H   UNL     1       3.527   1.314  -0.083  1.00  0.00     0.163 HD
BRANCH   5   7
ATOM      7  C   UNL     1       3.133  -1.047   0.749  1.00  0.00     0.137 C 
BRANCH   7   8
ATOM      8  C   UNL     1       3.796  -2.024  -0.187  1.00  0.00    -0.022 A 
ATOM      9  C   UNL     1       4.795  -1.527  -1.113  1.00  0.00     0.011 A 
ATOM     10  C   UNL     1       3.509  -3.337  -0.193  1.00  0.00     0.099 A 
ATOM     11  C   UNL     1       5.384  -2.345  -1.994  1.00  0.00     0.072 A 
ATOM     12  N   UNL     1       4.125  -4.210  -1.074  1.00  0.00    -0.258 N 
ATOM     13  C   UNL     1       5.044  -3.793  -2.024  1.00  0.00     0.254 A 
ATOM     14  O   UNL     1       5.594  -4.505  -2.858  1.00  0.00    -0.269 OA
BRANCH  12  15
ATOM     15  C   UNL     1       3.799  -5.613  -1.061  1.00  0.00     0.451 C 
ATOM     16  F   UNL     1       3.205  -5.985  -2.221  1.00  0.00    -0.185 F 
ATOM     17  F   UNL     1       4.911  -6.371  -0.897  1.00  0.00    -0.185 F 
ENDBRANCH  12  15
ENDBRANCH   7   8
ENDBRANCH   5   7
ENDBRANCH   2   3
ENDBRANCH   1   2
BRANCH   1  18
ATOM     18  C   UNL     1       3.670   3.820  -1.102  1.00  0.00     0.023 C 
BRANCH  18  19
ATOM     19  C   UNL     1       4.299   3.558  -2.466  1.00  0.00     0.116 C 
BRANCH  19  20
ATOM     20  N   UNL     1       3.784   4.432  -3.508  1.00  0.00    -0.352 N 
ATOM     21  C   UNL     1       4.464   5.266  -4.368  1.00  0.00     0.251 C 
ATOM     22  H   UNL     1       2.806   4.426  -3.615  1.00  0.00     0.163 HD
ATOM     23  O   UNL     1       3.843   6.039  -5.092  1.00  0.00    -0.269 OA
BRANCH  21  24
ATOM     24  C   UNL     1       5.945   5.268  -4.390  1.00  0.00     0.039 A 
ATOM     25  C   UNL     1       6.667   4.073  -4.386  1.00  0.00     0.014 A 
ATOM     26  C   UNL     1       6.622   6.491  -4.392  1.00  0.00     0.014 A 
ATOM     27  C   UNL     1       8.046   4.100  -4.194  1.00  0.00     0.010 A 
ATOM     28  C   UNL     1       8.017   6.516  -4.284  1.00  0.00     0.010 A 
ATOM     29  C   UNL     1       8.736   5.321  -4.120  1.00  0.00    -0.014 A 
BRANCH  29  30
ATOM     30  C   UNL     1      10.195   5.324  -3.832  1.00  0.00     0.031 A 
ATOM     31  C   UNL     1      10.724   5.908  -2.547  1.00  0.00     0.074 A 
ATOM     32  C   UNL     1      11.047   4.741  -4.697  1.00  0.00     0.049 A 
ATOM     33  N   UNL     1      11.956   5.950  -2.100  1.00  0.00    -0.248 NA
ATOM     34  C   UNL     1       9.743   6.531  -1.645  1.00  0.00     0.031 C 
ATOM     35  C   UNL     1      10.668   4.126  -5.969  1.00  0.00     0.029 A 
ATOM     36  N   UNL     1      12.403   4.544  -4.623  1.00  0.00    -0.354 N 
ATOM     37  C   UNL     1      11.900   6.619  -0.884  1.00  0.00     0.074 A 
ATOM     38  C   UNL     1      10.518   6.993  -0.674  1.00  0.00     0.031 C 
ATOM     39  C   UNL     1      11.753   3.568  -6.527  1.00  0.00     0.029 A 
ATOM     40  C   UNL     1      12.912   3.834  -5.682  1.00  0.00     0.049 A 
ATOM     41  H   UNL     1      12.957   4.880  -3.882  1.00  0.00     0.167 HD
ATOM     42  C   UNL     1      12.903   6.889  -0.013  1.00  0.00     0.037 A 
ATOM     43  C   UNL     1      14.172   3.443  -5.946  1.00  0.00     0.037 A 
ATOM     44  C   UNL     1      14.277   6.502  -0.205  1.00  0.00     0.049 A 
ATOM     45  C   UNL     1      15.274   3.805  -4.992  1.00  0.00     0.074 A 
ATOM     46  C   UNL     1      15.354   6.689   0.644  1.00  0.00     0.029 A 
ATOM     47  N   UNL     1      14.764   5.855  -1.330  1.00  0.00    -0.354 N 
ATOM     48  N   UNL     1      15.199   4.412  -3.833  1.00  0.00    -0.248 NA
ATOM     49  C   UNL     1      16.638   3.438  -5.395  1.00  0.00     0.031 C 
ATOM     50  C   UNL     1      16.502   6.195   0.012  1.00  0.00     0.029 A 
ATOM     51  C   UNL     1      16.132   5.663  -1.212  1.00  0.00     0.049 A 
ATOM     52  H   UNL     1      14.219   5.573  -2.100  1.00  0.00     0.167 HD
ATOM     53  C   UNL     1      16.502   4.484  -3.359  1.00  0.00     0.074 A 
ATOM     54  C   UNL     1      17.344   3.843  -4.349  1.00  0.00     0.031 C 
ATOM     55  C   UNL     1      16.960   5.033  -2.208  1.00  0.00     0.037 A 
BRANCH  42  56
ATOM     56  C   UNL     1      12.548   7.667   1.223  1.00  0.00     0.057 A 
ATOM     57  C   UNL     1      12.961   8.998   1.368  1.00  0.00     0.134 A 
ATOM     58  C   UNL     1      11.809   7.102   2.271  1.00  0.00     0.134 A 
ATOM     59  F   UNL     1      13.678   9.598   0.406  1.00  0.00    -0.206 F 
ATOM     60  C   UNL     1      12.645   9.741   2.507  1.00  0.00     0.040 A 
ATOM     61  C   UNL     1      11.466   7.843   3.404  1.00  0.00     0.040 A 
ATOM     62  F   UNL     1      11.371   5.837   2.189  1.00  0.00    -0.206 F 
ATOM     63  C   UNL     1      11.887   9.165   3.525  1.00  0.00     0.006 A 
ENDBRANCH  42  56
BRANCH  43  64
ATOM     64  C   UNL     1      14.463   2.655  -7.168  1.00  0.00     0.057 A 
ATOM     65  C   UNL     1      14.388   3.225  -8.444  1.00  0.00     0.134 A 
ATOM     66  C   UNL     1      14.828   1.307  -7.082  1.00  0.00     0.134 A 
ATOM     67  F   UNL     1      14.042   4.513  -8.591  1.00  0.00    -0.206 F 
ATOM     68  C   UNL     1      14.654   2.480  -9.593  1.00  0.00     0.040 A 
ATOM     69  C   UNL     1      15.119   0.555  -8.222  1.00  0.00     0.040 A 
ATOM     70  F   UNL     1      14.937   0.712  -5.885  1.00  0.00    -0.206 F 
ATOM     71  C   UNL     1      15.026   1.142  -9.483  1.00  0.00     0.006 A 
ENDBRANCH  43  64
BRANCH  55  72
ATOM     72  C   UNL     1      18.436   4.945  -1.955  1.00  0.00     0.057 A 
ATOM     73  C   UNL     1      18.945   4.069  -0.988  1.00  0.00     0.134 A 
ATOM     74  C   UNL     1      19.354   5.729  -2.666  1.00  0.00     0.134 A 
ATOM     75  F   UNL     1      18.120   3.293  -0.269  1.00  0.00    -0.206 F 
ATOM     76  C   UNL     1      20.315   3.974  -0.739  1.00  0.00     0.040 A 
ATOM     77  C   UNL     1      20.728   5.626  -2.443  1.00  0.00     0.040 A 
ATOM     78  F   UNL     1      18.930   6.575  -3.618  1.00  0.00    -0.206 F 
ATOM     79  C   UNL     1      21.211   4.749  -1.474  1.00  0.00     0.006 A 
ENDBRANCH  55  72
ENDBRANCH  29  30
ENDBRANCH  21  24
ENDBRANCH  19  20
ENDBRANCH  18  19
ENDBRANCH   1  18
TORSDOF 13
