REMARK SMILES O=C(NCCCCNC(=O)[C@@H]1C=C[C@H](NC(=O)[C@@H]2CCSC2)C1)c1ccc(-c2c3nc(c(-c4c(F)cccc4F)c4ccc([nH]4)c(-c4c(F)cccc4F)c4nc(c(-c5c(F)cccc5F)c5ccc2[nH]5)C=C4)C=C3)cc1
REMARK SMILES IDX 5 1 4 2 3 3 1 4 2 5 24 7 25 8 77 9 26 10 76 11 27 12 28 13
REMARK SMILES IDX 29 14 70 15 30 16 75 17 69 18 71 19 31 20 74 21 68 22 67 23
REMARK SMILES IDX 32 25 58 26 41 27 57 28 42 29 45 30 56 31 72 32 43 33 44 34
REMARK SMILES IDX 55 36 73 37 46 38 33 39 34 40 39 41 35 42 36 43 38 44 40 45
REMARK SMILES IDX 37 46 59 47 60 48 65 49 61 50 62 51 64 52 66 53 63 54 47 55
REMARK SMILES IDX 48 56 53 57 49 58 50 59 52 60 54 61 51 62 6 63 7 64 8 65
REMARK SMILES IDX 9 66 10 68 11 69 12 70 23 71 13 72 14 73 15 74 16 75 17 77
REMARK SMILES IDX 18 78 19 79 22 80 20 81 21 82
REMARK H PARENT 3 6 71 24 45 35 8 67 15 76
REMARK Flexibility Score: inf
ROOT
ATOM      1  C   UNL     1       1.758   7.938   0.338  1.00  0.00     0.023 C 
ENDROOT
BRANCH   1   2
ATOM      2  C   UNL     1       1.303   8.552   1.657  1.00  0.00     0.116 C 
BRANCH   2   3
ATOM      3  N   UNL     1       1.227  10.000   1.668  1.00  0.00    -0.352 N 
ATOM      4  O   UNL     1       0.309  12.049   1.890  1.00  0.00    -0.269 OA
ATOM      5  C   UNL     1       0.160  10.829   1.922  1.00  0.00     0.251 C 
ATOM      6  H   UNL     1       2.072  10.462   1.461  1.00  0.00     0.163 HD
BRANCH   5   7
ATOM      7  C   UNL     1      -1.188  10.269   2.172  1.00  0.00     0.039 A 
ATOM      8  C   UNL     1      -1.408   9.274   3.126  1.00  0.00     0.014 A 
ATOM      9  C   UNL     1      -2.264  10.775   1.435  1.00  0.00     0.014 A 
ATOM     10  C   UNL     1      -2.667   8.683   3.237  1.00  0.00     0.010 A 
ATOM     11  C   UNL     1      -3.541  10.230   1.597  1.00  0.00     0.010 A 
ATOM     12  C   UNL     1      -3.748   9.154   2.473  1.00  0.00    -0.014 A 
BRANCH  12  13
ATOM     13  C   UNL     1      -5.103   8.561   2.636  1.00  0.00     0.031 A 
ATOM     14  C   UNL     1      -5.773   7.824   1.506  1.00  0.00     0.074 A 
ATOM     15  C   UNL     1      -5.745   8.710   3.811  1.00  0.00     0.049 A 
ATOM     16  N   UNL     1      -6.970   7.291   1.464  1.00  0.00    -0.248 NA
ATOM     17  C   UNL     1      -5.008   7.671   0.259  1.00  0.00     0.031 C 
ATOM     18  C   UNL     1      -5.215   9.420   4.977  1.00  0.00     0.029 A 
ATOM     19  N   UNL     1      -6.983   8.280   4.218  1.00  0.00    -0.354 N 
ATOM     20  C   UNL     1      -7.109   6.759   0.188  1.00  0.00     0.074 A 
ATOM     21  C   UNL     1      -5.881   7.047  -0.523  1.00  0.00     0.031 C 
ATOM     22  C   UNL     1      -6.114   9.365   5.971  1.00  0.00     0.029 A 
ATOM     23  C   UNL     1      -7.302   8.663   5.498  1.00  0.00     0.049 A 
ATOM     24  H   UNL     1      -7.585   7.750   3.647  1.00  0.00     0.167 HD
ATOM     25  C   UNL     1      -8.161   6.087  -0.338  1.00  0.00     0.037 A 
ATOM     26  C   UNL     1      -8.433   8.494   6.207  1.00  0.00     0.037 A 
ATOM     27  C   UNL     1      -9.373   5.776   0.377  1.00  0.00     0.049 A 
ATOM     28  C   UNL     1      -9.590   7.766   5.588  1.00  0.00     0.074 A 
ATOM     29  C   UNL     1     -10.462   5.037  -0.054  1.00  0.00     0.029 A 
ATOM     30  N   UNL     1      -9.660   6.191   1.668  1.00  0.00    -0.354 N 
ATOM     31  N   UNL     1      -9.683   7.221   4.400  1.00  0.00    -0.248 NA
ATOM     32  C   UNL     1     -10.803   7.633   6.407  1.00  0.00     0.031 C 
ATOM     33  C   UNL     1     -11.428   5.044   0.958  1.00  0.00     0.029 A 
ATOM     34  C   UNL     1     -10.922   5.751   2.035  1.00  0.00     0.049 A 
ATOM     35  H   UNL     1      -9.057   6.720   2.239  1.00  0.00     0.167 HD
ATOM     36  C   UNL     1     -10.955   6.670   4.334  1.00  0.00     0.074 A 
ATOM     37  C   UNL     1     -11.591   6.926   5.609  1.00  0.00     0.031 C 
ATOM     38  C   UNL     1     -11.546   6.016   3.305  1.00  0.00     0.037 A 
BRANCH  25  39
ATOM     39  C   UNL     1      -8.070   5.635  -1.767  1.00  0.00     0.057 A 
ATOM     40  C   UNL     1      -7.291   4.535  -2.145  1.00  0.00     0.134 A 
ATOM     41  C   UNL     1      -8.851   6.246  -2.757  1.00  0.00     0.134 A 
ATOM     42  F   UNL     1      -6.517   3.908  -1.246  1.00  0.00    -0.206 F 
ATOM     43  C   UNL     1      -7.289   4.061  -3.459  1.00  0.00     0.040 A 
ATOM     44  C   UNL     1      -8.871   5.770  -4.069  1.00  0.00     0.040 A 
ATOM     45  F   UNL     1      -9.627   7.299  -2.458  1.00  0.00    -0.206 F 
ATOM     46  C   UNL     1      -8.088   4.673  -4.423  1.00  0.00     0.006 A 
ENDBRANCH  25  39
BRANCH  26  47
ATOM     47  C   UNL     1      -8.537   9.050   7.579  1.00  0.00     0.057 A 
ATOM     48  C   UNL     1      -8.588   8.213   8.699  1.00  0.00     0.134 A 
ATOM     49  C   UNL     1      -8.600  10.431   7.800  1.00  0.00     0.134 A 
ATOM     50  F   UNL     1      -8.553   6.880   8.548  1.00  0.00    -0.206 F 
ATOM     51  C   UNL     1      -8.717   8.728   9.989  1.00  0.00     0.040 A 
ATOM     52  C   UNL     1      -8.702  10.961   9.086  1.00  0.00     0.040 A 
ATOM     53  F   UNL     1      -8.552  11.285   6.767  1.00  0.00    -0.206 F 
ATOM     54  C   UNL     1      -8.769  10.107  10.185  1.00  0.00     0.006 A 
ENDBRANCH  26  47
BRANCH  38  55
ATOM     55  C   UNL     1     -12.943   5.520   3.527  1.00  0.00     0.057 A 
ATOM     56  C   UNL     1     -14.037   6.395   3.558  1.00  0.00     0.134 A 
ATOM     57  C   UNL     1     -13.201   4.154   3.693  1.00  0.00     0.134 A 
ATOM     58  F   UNL     1     -13.853   7.717   3.421  1.00  0.00    -0.206 F 
ATOM     59  C   UNL     1     -15.335   5.930   3.770  1.00  0.00     0.040 A 
ATOM     60  C   UNL     1     -14.498   3.675   3.882  1.00  0.00     0.040 A 
ATOM     61  F   UNL     1     -12.198   3.263   3.667  1.00  0.00    -0.206 F 
ATOM     62  C   UNL     1     -15.569   4.565   3.928  1.00  0.00     0.006 A 
ENDBRANCH  38  55
ENDBRANCH  12  13
ENDBRANCH   5   7
ENDBRANCH   2   3
ENDBRANCH   1   2
BRANCH   1  63
ATOM     63  C   UNL     1       3.184   8.248  -0.122  1.00  0.00     0.023 C 
BRANCH  63  64
ATOM     64  C   UNL     1       4.330   7.927   0.840  1.00  0.00     0.116 C 
BRANCH  64  65
ATOM     65  N   UNL     1       4.468   6.532   1.202  1.00  0.00    -0.356 N 
ATOM     66  C   UNL     1       5.424   5.874   1.917  1.00  0.00     0.227 C 
ATOM     67  H   UNL     1       3.742   5.955   0.871  1.00  0.00     0.163 HD
ATOM     68  O   UNL     1       5.198   4.673   2.120  1.00  0.00    -0.274 OA
BRANCH  66  69
ATOM     69  C   UNL     1       6.754   6.495   2.409  1.00  0.00     0.103 C 
ATOM     70  C   UNL     1       7.069   6.018   3.817  1.00  0.00    -0.016 C 
ATOM     71  C   UNL     1       6.922   7.999   2.610  1.00  0.00     0.047 C 
ATOM     72  C   UNL     1       6.961   6.998   4.728  1.00  0.00    -0.006 C 
ATOM     73  C   UNL     1       6.611   8.284   4.083  1.00  0.00     0.106 C 
BRANCH  73  74
ATOM     74  N   UNL     1       5.251   8.740   4.336  1.00  0.00    -0.350 N 
ATOM     75  C   UNL     1       4.030   8.171   4.524  1.00  0.00     0.224 C 
ATOM     76  H   UNL     1       5.203   9.722   4.385  1.00  0.00     0.164 HD
ATOM     77  O   UNL     1       3.067   8.942   4.481  1.00  0.00    -0.275 OA
BRANCH  75  78
ATOM     78  C   UNL     1       3.842   6.697   4.853  1.00  0.00     0.089 C 
ATOM     79  C   UNL     1       2.639   6.040   4.179  1.00  0.00     0.025 C 
ATOM     80  C   UNL     1       3.688   6.509   6.356  1.00  0.00     0.083 C 
ATOM     81  C   UNL     1       1.391   6.377   4.967  1.00  0.00     0.070 C 
ATOM     82  S   UNL     1       1.911   6.301   6.695  1.00  0.00    -0.161 SA
ENDBRANCH  75  78
ENDBRANCH  73  74
ENDBRANCH  66  69
ENDBRANCH  64  65
ENDBRANCH  63  64
ENDBRANCH   1  63
TORSDOF 13
