REMARK SMILES O=C(NCCCCNC(=O)[C@H]1C[C@@H](C(=O)N2CCCC2)C[N@@H+](Cc2cccnc2)C1)c1ccc(-c2c3nc(c(-c4c(F)cccc4F)c4ccc([nH]4)c(-c4c(F)cccc4F)c4nc(c(-c5c(F)cccc5F)c5ccc2[nH]5)C=C4)C=C3)cc1
REMARK SMILES IDX 5 1 4 2 3 3 1 4 2 5 31 7 32 8 84 9 33 10 83 11 34 12 35 13
REMARK SMILES IDX 36 14 77 15 37 16 82 17 76 18 78 19 38 20 81 21 75 22 74 23
REMARK SMILES IDX 39 25 65 26 48 27 64 28 49 29 52 30 63 31 79 32 50 33 51 34
REMARK SMILES IDX 62 36 80 37 53 38 40 39 41 40 46 41 42 42 43 43 45 44 47 45
REMARK SMILES IDX 44 46 66 47 67 48 72 49 68 50 69 51 71 52 73 53 70 54 54 55
REMARK SMILES IDX 55 56 60 57 56 58 57 59 59 60 61 61 58 62 6 63 7 64 8 65
REMARK SMILES IDX 9 66 10 68 11 69 12 70 30 71 13 72 22 73 21 74 14 76 15 77
REMARK SMILES IDX 16 78 17 79 20 80 18 81 19 82 23 83 24 84 25 85 29 86 26 87
REMARK SMILES IDX 28 88 27 89
REMARK H PARENT 3 6 78 24 52 35 8 67 22 75
REMARK Flexibility Score: inf
ROOT
ATOM      1  C   UNL     1       5.332  -3.876   4.189  1.00  0.00     0.023 C 
ENDROOT
BRANCH   1   2
ATOM      2  C   UNL     1       6.572  -3.440   4.962  1.00  0.00     0.116 C 
BRANCH   2   3
ATOM      3  N   UNL     1       6.865  -2.028   4.805  1.00  0.00    -0.352 N 
ATOM      4  O   UNL     1       7.183   0.103   5.461  1.00  0.00    -0.269 OA
ATOM      5  C   UNL     1       7.082  -1.074   5.772  1.00  0.00     0.251 C 
ATOM      6  H   UNL     1       6.917  -1.708   3.876  1.00  0.00     0.163 HD
BRANCH   5   7
ATOM      7  C   UNL     1       7.165  -1.474   7.197  1.00  0.00     0.039 A 
ATOM      8  C   UNL     1       7.928  -2.575   7.593  1.00  0.00     0.014 A 
ATOM      9  C   UNL     1       6.479  -0.719   8.151  1.00  0.00     0.014 A 
ATOM     10  C   UNL     1       7.901  -2.995   8.919  1.00  0.00     0.010 A 
ATOM     11  C   UNL     1       6.519  -1.094   9.497  1.00  0.00     0.010 A 
ATOM     12  C   UNL     1       7.212  -2.250   9.889  1.00  0.00    -0.014 A 
BRANCH  12  13
ATOM     13  C   UNL     1       7.291  -2.656  11.316  1.00  0.00     0.031 A 
ATOM     14  C   UNL     1       6.072  -3.106  12.072  1.00  0.00     0.074 A 
ATOM     15  C   UNL     1       8.491  -2.625  11.929  1.00  0.00     0.049 A 
ATOM     16  N   UNL     1       5.974  -3.496  13.318  1.00  0.00    -0.248 NA
ATOM     17  C   UNL     1       4.798  -3.114  11.339  1.00  0.00     0.031 C 
ATOM     18  C   UNL     1       9.743  -2.192  11.304  1.00  0.00     0.029 A 
ATOM     19  N   UNL     1       8.860  -2.974  13.203  1.00  0.00    -0.354 N 
ATOM     20  C   UNL     1       4.630  -3.783  13.524  1.00  0.00     0.074 A 
ATOM     21  C   UNL     1       3.945  -3.493  12.282  1.00  0.00     0.031 C 
ATOM     22  C   UNL     1      10.746  -2.338  12.181  1.00  0.00     0.029 A 
ATOM     23  C   UNL     1      10.202  -2.814  13.447  1.00  0.00     0.049 A 
ATOM     24  H   UNL     1       8.224  -3.306  13.877  1.00  0.00     0.167 HD
ATOM     25  C   UNL     1       4.027  -4.252  14.644  1.00  0.00     0.037 A 
ATOM     26  C   UNL     1      10.915  -3.008  14.571  1.00  0.00     0.037 A 
ATOM     27  C   UNL     1       4.717  -4.545  15.876  1.00  0.00     0.049 A 
ATOM     28  C   UNL     1      10.215  -3.494  15.806  1.00  0.00     0.074 A 
ATOM     29  C   UNL     1       4.199  -5.061  17.052  1.00  0.00     0.029 A 
ATOM     30  N   UNL     1       6.072  -4.342  16.093  1.00  0.00    -0.354 N 
ATOM     31  N   UNL     1       8.952  -3.800  15.972  1.00  0.00    -0.248 NA
ATOM     32  C   UNL     1      11.040  -3.659  17.010  1.00  0.00     0.031 C 
ATOM     33  C   UNL     1       5.230  -5.120  17.997  1.00  0.00     0.029 A 
ATOM     34  C   UNL     1       6.402  -4.695  17.393  1.00  0.00     0.049 A 
ATOM     35  H   UNL     1       6.706  -3.998  15.423  1.00  0.00     0.167 HD
ATOM     36  C   UNL     1       8.832  -4.211  17.292  1.00  0.00     0.074 A 
ATOM     37  C   UNL     1      10.156  -4.136  17.875  1.00  0.00     0.031 C 
ATOM     38  C   UNL     1       7.724  -4.612  17.962  1.00  0.00     0.037 A 
BRANCH  25  39
ATOM     39  C   UNL     1       2.540  -4.463  14.600  1.00  0.00     0.057 A 
ATOM     40  C   UNL     1       1.960  -5.503  13.863  1.00  0.00     0.134 A 
ATOM     41  C   UNL     1       1.681  -3.645  15.345  1.00  0.00     0.134 A 
ATOM     42  F   UNL     1       2.723  -6.319  13.120  1.00  0.00    -0.206 F 
ATOM     43  C   UNL     1       0.578  -5.709  13.851  1.00  0.00     0.040 A 
ATOM     44  C   UNL     1       0.301  -3.856  15.363  1.00  0.00     0.040 A 
ATOM     45  F   UNL     1       2.169  -2.635  16.082  1.00  0.00    -0.206 F 
ATOM     46  C   UNL     1      -0.255  -4.888  14.609  1.00  0.00     0.006 A 
ENDBRANCH  25  39
BRANCH  26  47
ATOM     47  C   UNL     1      12.374  -2.733  14.575  1.00  0.00     0.057 A 
ATOM     48  C   UNL     1      13.307  -3.769  14.690  1.00  0.00     0.134 A 
ATOM     49  C   UNL     1      12.868  -1.428  14.455  1.00  0.00     0.134 A 
ATOM     50  F   UNL     1      12.894  -5.037  14.824  1.00  0.00    -0.206 F 
ATOM     51  C   UNL     1      14.680  -3.517  14.700  1.00  0.00     0.040 A 
ATOM     52  C   UNL     1      14.238  -1.164  14.435  1.00  0.00     0.040 A 
ATOM     53  F   UNL     1      12.025  -0.392  14.333  1.00  0.00    -0.206 F 
ATOM     54  C   UNL     1      15.148  -2.211  14.565  1.00  0.00     0.006 A 
ENDBRANCH  26  47
BRANCH  38  55
ATOM     55  C   UNL     1       7.905  -5.027  19.392  1.00  0.00     0.057 A 
ATOM     56  C   UNL     1       8.171  -4.096  20.404  1.00  0.00     0.134 A 
ATOM     57  C   UNL     1       7.791  -6.372  19.765  1.00  0.00     0.134 A 
ATOM     58  F   UNL     1       8.309  -2.794  20.112  1.00  0.00    -0.206 F 
ATOM     59  C   UNL     1       8.343  -4.491  21.732  1.00  0.00     0.040 A 
ATOM     60  C   UNL     1       7.933  -6.777  21.093  1.00  0.00     0.040 A 
ATOM     61  F   UNL     1       7.531  -7.315  18.846  1.00  0.00    -0.206 F 
ATOM     62  C   UNL     1       8.217  -5.835  22.080  1.00  0.00     0.006 A 
ENDBRANCH  38  55
ENDBRANCH  12  13
ENDBRANCH   5   7
ENDBRANCH   2   3
ENDBRANCH   1   2
BRANCH   1  63
ATOM     63  C   UNL     1       5.429  -3.772   2.660  1.00  0.00     0.023 C 
BRANCH  63  64
ATOM     64  C   UNL     1       6.678  -4.411   2.038  1.00  0.00     0.116 C 
BRANCH  64  65
ATOM     65  N   UNL     1       6.857  -5.764   2.524  1.00  0.00    -0.356 N 
ATOM     66  C   UNL     1       6.376  -6.942   2.055  1.00  0.00     0.228 C 
ATOM     67  H   UNL     1       7.421  -5.841   3.327  1.00  0.00     0.163 HD
ATOM     68  O   UNL     1       5.949  -7.711   2.923  1.00  0.00    -0.275 OA
BRANCH  66  69
ATOM     69  C   UNL     1       6.584  -7.388   0.607  1.00  0.00     0.134 C 
ATOM     70  C   UNL     1       6.187  -8.881   0.529  1.00  0.00     0.038 C 
ATOM     71  C   UNL     1       5.854  -6.608  -0.496  1.00  0.00     0.276 C 
ATOM     72  C   UNL     1       6.418  -9.444  -0.862  1.00  0.00     0.134 C 
ATOM     73  N   UNL     1       6.154  -7.173  -1.826  1.00  0.00    -0.330 N 
ATOM     74  C   UNL     1       5.731  -8.577  -1.920  1.00  0.00     0.276 C 
ATOM     75  H   UNL     1       7.170  -7.138  -1.911  1.00  0.00     0.348 HD
BRANCH  72  76
ATOM     76  C   UNL     1       5.826 -10.838  -1.000  1.00  0.00     0.231 C 
ATOM     77  O   UNL     1       4.605 -11.013  -0.997  1.00  0.00    -0.274 OA
ATOM     78  N   UNL     1       6.689 -11.868  -1.270  1.00  0.00    -0.342 N 
ATOM     79  C   UNL     1       8.103 -11.986  -0.974  1.00  0.00     0.119 C 
ATOM     80  C   UNL     1       6.225 -13.019  -2.019  1.00  0.00     0.119 C 
ATOM     81  C   UNL     1       8.625 -12.731  -2.185  1.00  0.00     0.023 C 
ATOM     82  C   UNL     1       7.497 -13.714  -2.500  1.00  0.00     0.023 C 
ENDBRANCH  72  76
BRANCH  73  83
ATOM     83  C   UNL     1       5.656  -6.371  -2.960  1.00  0.00     0.300 C 
BRANCH  83  84
ATOM     84  C   UNL     1       4.173  -6.427  -3.223  1.00  0.00     0.025 A 
ATOM     85  C   UNL     1       3.264  -5.648  -2.503  1.00  0.00     0.013 A 
ATOM     86  C   UNL     1       3.647  -7.304  -4.171  1.00  0.00     0.120 A 
ATOM     87  C   UNL     1       1.898  -5.800  -2.724  1.00  0.00     0.021 A 
ATOM     88  N   UNL     1       2.327  -7.461  -4.417  1.00  0.00    -0.264 NA
ATOM     89  C   UNL     1       1.482  -6.715  -3.676  1.00  0.00     0.111 A 
ENDBRANCH  83  84
ENDBRANCH  73  83
ENDBRANCH  66  69
ENDBRANCH  64  65
ENDBRANCH  63  64
ENDBRANCH   1  63
TORSDOF 14
