REMARK SMILES COc1cc2c(cc1OC)[C@H](C(=O)NCCCCNC(=O)c1ccc(-c3c4nc(c(-c5c(F)cccc5F)c5ccc([nH]5)c(-c5c(F)cccc5F)c5nc(c(-c6c(F)cccc6F)c6ccc3[nH]6)C=C5)C=C4)cc1)[C@H](c1cccc(Cl)c1)N(C)C2=O
REMARK SMILES IDX 17 1 16 2 15 3 14 4 12 5 13 6 11 8 3 9 4 10 8 11 5 12 7 13
REMARK SMILES IDX 6 14 86 15 84 16 87 17 76 18 85 19 2 20 1 21 9 22 10 23
REMARK SMILES IDX 77 24 78 25 83 26 79 27 81 28 80 29 82 30 18 31 19 32 20 33
REMARK SMILES IDX 21 35 22 36 23 37 75 38 24 39 74 40 25 41 26 42 27 43 68 44
REMARK SMILES IDX 28 45 73 46 67 47 69 48 29 49 72 50 66 51 65 52 30 54 56 55
REMARK SMILES IDX 39 56 55 57 40 58 43 59 54 60 70 61 41 62 42 63 53 65 71 66
REMARK SMILES IDX 44 67 31 68 32 69 37 70 33 71 34 72 36 73 38 74 35 75 57 76
REMARK SMILES IDX 58 77 63 78 59 79 60 80 62 81 64 82 61 83 45 84 46 85 51 86
REMARK SMILES IDX 47 87 48 88 50 89 52 90 49 91
REMARK H PARENT 14 7 19 34 69 53 43 64
REMARK Flexibility Score: inf
ROOT
ATOM      1  C   UNL     1      -3.021  -3.607  -5.329  1.00  0.00     0.023 C 
ENDROOT
BRANCH   1   2
ATOM      2  C   UNL     1      -1.692  -2.899  -5.125  1.00  0.00     0.023 C 
BRANCH   2   3
ATOM      3  C   UNL     1      -0.456  -3.806  -5.102  1.00  0.00     0.116 C 
BRANCH   3   4
ATOM      4  N   UNL     1       0.273  -3.639  -6.343  1.00  0.00    -0.355 N 
ATOM      5  C   UNL     1       1.298  -2.844  -6.725  1.00  0.00     0.230 C 
ATOM      6  O   UNL     1       1.512  -2.860  -7.949  1.00  0.00    -0.274 OA
ATOM      7  H   UNL     1      -0.047  -4.230  -7.062  1.00  0.00     0.163 HD
BRANCH   5   8
ATOM      8  C   UNL     1       2.279  -2.077  -5.844  1.00  0.00     0.136 C 
ATOM      9  C   UNL     1       1.458  -0.852  -1.783  1.00  0.00     0.161 A 
ATOM     10  C   UNL     1       2.771  -1.002  -2.231  1.00  0.00     0.064 A 
ATOM     11  C   UNL     1       0.412  -0.850  -2.708  1.00  0.00     0.161 A 
ATOM     12  C   UNL     1       3.016  -1.285  -3.578  1.00  0.00     0.048 A 
ATOM     13  C   UNL     1       0.699  -1.081  -4.064  1.00  0.00     0.056 A 
ATOM     14  C   UNL     1       1.958  -1.508  -4.476  1.00  0.00    -0.016 A 
ATOM     15  C   UNL     1       4.421  -1.275  -4.083  1.00  0.00     0.254 C 
ATOM     16  N   UNL     1       4.653  -1.974  -5.261  1.00  0.00    -0.333 N 
ATOM     17  O   UNL     1       5.289  -0.668  -3.466  1.00  0.00    -0.269 OA
ATOM     18  C   UNL     1       3.622  -2.885  -5.788  1.00  0.00     0.132 C 
ATOM     19  C   UNL     1       5.973  -1.961  -5.862  1.00  0.00     0.147 C 
BRANCH   9  20
ATOM     20  O   UNL     1       1.229  -0.772  -0.439  1.00  0.00    -0.493 OA
ATOM     21  C   UNL     1       1.543   0.521   0.072  1.00  0.00     0.278 C 
ENDBRANCH   9  20
BRANCH  11  22
ATOM     22  O   UNL     1      -0.916  -0.630  -2.453  1.00  0.00    -0.493 OA
ATOM     23  C   UNL     1      -1.409  -1.056  -1.184  1.00  0.00     0.278 C 
ENDBRANCH  11  22
BRANCH  18  24
ATOM     24  C   UNL     1       3.607  -4.230  -5.029  1.00  0.00    -0.023 A 
ATOM     25  C   UNL     1       2.955  -5.348  -5.579  1.00  0.00     0.006 A 
ATOM     26  C   UNL     1       4.272  -4.423  -3.799  1.00  0.00     0.026 A 
ATOM     27  C   UNL     1       2.909  -6.574  -4.901  1.00  0.00     0.002 A 
ATOM     28  C   UNL     1       4.231  -5.647  -3.128  1.00  0.00     0.041 A 
ATOM     29  C   UNL     1       3.541  -6.721  -3.669  1.00  0.00     0.020 A 
ATOM     30  Cl  UNL     1       5.052  -5.823  -1.625  1.00  0.00    -0.084 Cl
ENDBRANCH  18  24
ENDBRANCH   5   8
ENDBRANCH   3   4
ENDBRANCH   2   3
ENDBRANCH   1   2
BRANCH   1  31
ATOM     31  C   UNL     1      -3.421  -4.519  -4.179  1.00  0.00     0.116 C 
BRANCH  31  32
ATOM     32  N   UNL     1      -3.443  -3.865  -2.876  1.00  0.00    -0.352 N 
ATOM     33  C   UNL     1      -4.316  -4.069  -1.829  1.00  0.00     0.251 C 
ATOM     34  H   UNL     1      -2.743  -3.190  -2.724  1.00  0.00     0.163 HD
ATOM     35  O   UNL     1      -4.247  -3.406  -0.807  1.00  0.00    -0.269 OA
BRANCH  33  36
ATOM     36  C   UNL     1      -5.377  -5.080  -2.005  1.00  0.00     0.039 A 
ATOM     37  C   UNL     1      -6.708  -4.695  -1.845  1.00  0.00     0.014 A 
ATOM     38  C   UNL     1      -5.047  -6.355  -2.468  1.00  0.00     0.014 A 
ATOM     39  C   UNL     1      -7.720  -5.563  -2.253  1.00  0.00     0.010 A 
ATOM     40  C   UNL     1      -6.050  -7.175  -2.962  1.00  0.00     0.010 A 
ATOM     41  C   UNL     1      -7.395  -6.783  -2.868  1.00  0.00    -0.014 A 
BRANCH  41  42
ATOM     42  C   UNL     1      -8.437  -7.670  -3.437  1.00  0.00     0.031 A 
ATOM     43  C   UNL     1      -8.606  -9.059  -2.893  1.00  0.00     0.074 A 
ATOM     44  C   UNL     1      -9.158  -7.263  -4.499  1.00  0.00     0.049 A 
ATOM     45  N   UNL     1      -9.370 -10.029  -3.323  1.00  0.00    -0.248 NA
ATOM     46  C   UNL     1      -7.771  -9.418  -1.735  1.00  0.00     0.031 C 
ATOM     47  C   UNL     1      -9.042  -5.959  -5.157  1.00  0.00     0.029 A 
ATOM     48  N   UNL     1     -10.126  -7.912  -5.221  1.00  0.00    -0.354 N 
ATOM     49  C   UNL     1      -9.087 -11.117  -2.509  1.00  0.00     0.074 A 
ATOM     50  C   UNL     1      -8.040 -10.706  -1.599  1.00  0.00     0.031 C 
ATOM     51  C   UNL     1      -9.932  -5.892  -6.161  1.00  0.00     0.029 A 
ATOM     52  C   UNL     1     -10.652  -7.159  -6.242  1.00  0.00     0.049 A 
ATOM     53  H   UNL     1     -10.417  -8.832  -5.026  1.00  0.00     0.167 HD
ATOM     54  C   UNL     1      -9.666 -12.340  -2.499  1.00  0.00     0.037 A 
ATOM     55  C   UNL     1     -11.608  -7.458  -7.140  1.00  0.00     0.037 A 
ATOM     56  C   UNL     1     -10.737 -12.729  -3.375  1.00  0.00     0.049 A 
ATOM     57  C   UNL     1     -12.254  -8.815  -7.097  1.00  0.00     0.074 A 
ATOM     58  C   UNL     1     -11.442 -13.919  -3.403  1.00  0.00     0.029 A 
ATOM     59  N   UNL     1     -11.262 -11.928  -4.378  1.00  0.00    -0.354 N 
ATOM     60  N   UNL     1     -12.017  -9.816  -6.285  1.00  0.00    -0.248 NA
ATOM     61  C   UNL     1     -13.299  -9.082  -8.095  1.00  0.00     0.031 C 
ATOM     62  C   UNL     1     -12.378 -13.847  -4.441  1.00  0.00     0.029 A 
ATOM     63  C   UNL     1     -12.276 -12.601  -5.039  1.00  0.00     0.049 A 
ATOM     64  H   UNL     1     -10.959 -11.015  -4.589  1.00  0.00     0.167 HD
ATOM     65  C   UNL     1     -12.897 -10.823  -6.657  1.00  0.00     0.074 A 
ATOM     66  C   UNL     1     -13.680 -10.307  -7.762  1.00  0.00     0.031 C 
ATOM     67  C   UNL     1     -13.044 -12.064  -6.132  1.00  0.00     0.037 A 
BRANCH  54  68
ATOM     68  C   UNL     1      -9.150 -13.329  -1.497  1.00  0.00     0.057 A 
ATOM     69  C   UNL     1      -9.383 -13.175  -0.123  1.00  0.00     0.134 A 
ATOM     70  C   UNL     1      -8.398 -14.437  -1.905  1.00  0.00     0.134 A 
ATOM     71  F   UNL     1     -10.080 -12.124   0.334  1.00  0.00    -0.206 F 
ATOM     72  C   UNL     1      -8.856 -14.067   0.811  1.00  0.00     0.040 A 
ATOM     73  C   UNL     1      -7.888 -15.351  -0.982  1.00  0.00     0.040 A 
ATOM     74  F   UNL     1      -8.139 -14.643  -3.205  1.00  0.00    -0.206 F 
ATOM     75  C   UNL     1      -8.108 -15.162   0.381  1.00  0.00     0.006 A 
ENDBRANCH  54  68
BRANCH  55  76
ATOM     76  C   UNL     1     -12.048  -6.439  -8.124  1.00  0.00     0.057 A 
ATOM     77  C   UNL     1     -13.287  -5.803  -7.986  1.00  0.00     0.134 A 
ATOM     78  C   UNL     1     -11.249  -6.071  -9.212  1.00  0.00     0.134 A 
ATOM     79  F   UNL     1     -14.102  -6.128  -6.971  1.00  0.00    -0.206 F 
ATOM     80  C   UNL     1     -13.723  -4.845  -8.902  1.00  0.00     0.040 A 
ATOM     81  C   UNL     1     -11.665  -5.101 -10.126  1.00  0.00     0.040 A 
ATOM     82  F   UNL     1     -10.049  -6.640  -9.394  1.00  0.00    -0.206 F 
ATOM     83  C   UNL     1     -12.908  -4.489  -9.974  1.00  0.00     0.006 A 
ENDBRANCH  55  76
BRANCH  67  84
ATOM     84  C   UNL     1     -14.108 -12.934  -6.730  1.00  0.00     0.057 A 
ATOM     85  C   UNL     1     -13.938 -13.553  -7.974  1.00  0.00     0.134 A 
ATOM     86  C   UNL     1     -15.297 -13.185  -6.034  1.00  0.00     0.134 A 
ATOM     87  F   UNL     1     -12.826 -13.339  -8.694  1.00  0.00    -0.206 F 
ATOM     88  C   UNL     1     -14.923 -14.381  -8.514  1.00  0.00     0.040 A 
ATOM     89  C   UNL     1     -16.279 -14.027  -6.554  1.00  0.00     0.040 A 
ATOM     90  F   UNL     1     -15.515 -12.625  -4.835  1.00  0.00    -0.206 F 
ATOM     91  C   UNL     1     -16.095 -14.625  -7.799  1.00  0.00     0.006 A 
ENDBRANCH  67  84
ENDBRANCH  41  42
ENDBRANCH  33  36
ENDBRANCH  31  32
ENDBRANCH   1  31
TORSDOF 14
