REMARK SMILES Cc1oc2c(c1C(=O)NCCCC(=O)NCCCCNC(=O)c1ccc(-c3c4nc(c(-c5c(F)cccc5F)c5ccc([nH]5)c(-c5c(F)cccc5F)c5nc(c(-c6c(F)cccc6F)c6ccc3[nH]6)C=C5)C=C4)cc1)CCCC2
REMARK SMILES IDX 16 1 15 2 13 3 14 4 12 6 11 7 10 8 9 9 7 10 8 11 6 13 1 14
REMARK SMILES IDX 2 15 3 16 4 17 5 18 80 19 77 20 79 21 78 22 17 23 18 24
REMARK SMILES IDX 19 25 20 26 21 27 22 29 23 30 24 31 76 32 25 33 75 34 26 35
REMARK SMILES IDX 27 36 28 37 69 38 29 39 74 40 68 41 70 42 30 43 73 44 67 45
REMARK SMILES IDX 66 46 31 48 57 49 40 50 56 51 41 52 44 53 55 54 71 55 42 56
REMARK SMILES IDX 43 57 54 59 72 60 45 61 32 62 33 63 38 64 34 65 35 66 37 67
REMARK SMILES IDX 39 68 36 69 58 70 59 71 64 72 60 73 61 74 63 75 65 76 62 77
REMARK SMILES IDX 46 78 47 79 52 80 48 81 49 82 51 83 53 84 50 85
REMARK H PARENT 15 5 9 12 20 28 70 47 44 58
REMARK Flexibility Score: inf
ROOT
ATOM      1  C   UNL     1      -0.796   4.109   0.843  1.00  0.00     0.116 C 
ENDROOT
BRANCH   1   2
ATOM      2  N   UNL     1       0.143   4.466   1.892  1.00  0.00    -0.356 N 
ATOM      3  C   UNL     1       1.493   4.635   1.844  1.00  0.00     0.220 C 
ATOM      4  O   UNL     1       2.099   4.770   2.909  1.00  0.00    -0.275 OA
ATOM      5  H   UNL     1      -0.262   4.610   2.779  1.00  0.00     0.163 HD
BRANCH   3   6
ATOM      6  C   UNL     1       2.232   4.701   0.519  1.00  0.00     0.102 C 
BRANCH   6   7
ATOM      7  C   UNL     1       2.894   3.398   0.066  1.00  0.00     0.031 C 
BRANCH   7   8
ATOM      8  C   UNL     1       1.999   2.351  -0.592  1.00  0.00     0.116 C 
BRANCH   8   9
ATOM      9  N   UNL     1       1.168   2.818  -1.671  1.00  0.00    -0.352 N 
ATOM     10  C   UNL     1       0.304   2.151  -2.505  1.00  0.00     0.255 C 
ATOM     11  O   UNL     1      -0.336   2.874  -3.274  1.00  0.00    -0.269 OA
ATOM     12  H   UNL     1       1.229   3.786  -1.841  1.00  0.00     0.163 HD
BRANCH  10  13
ATOM     13  C   UNL     1       0.177   0.691  -2.567  1.00  0.00     0.084 A 
ATOM     14  C   UNL     1       0.723  -0.462  -0.201  1.00  0.00     0.088 C 
ATOM     15  C   UNL     1       0.389  -0.331  -1.633  1.00  0.00     0.114 A 
ATOM     16  O   UNL     1       0.198  -1.558  -2.204  1.00  0.00    -0.465 OA
ATOM     17  C   UNL     1      -0.197  -1.349  -3.465  1.00  0.00     0.108 A 
ATOM     18  C   UNL     1      -0.296  -0.011  -3.742  1.00  0.00     0.007 A 
ATOM     19  C   UNL     1      -0.486  -2.500  -4.343  1.00  0.00     0.076 C 
ATOM     20  C   UNL     1      -0.759   0.467  -5.081  1.00  0.00     0.040 C 
ATOM     21  C   UNL     1      -0.552  -1.999  -5.795  1.00  0.00     0.008 C 
ATOM     22  C   UNL     1      -1.364  -0.693  -5.912  1.00  0.00     0.005 C 
ENDBRANCH  10  13
ENDBRANCH   8   9
ENDBRANCH   7   8
ENDBRANCH   6   7
ENDBRANCH   3   6
ENDBRANCH   1   2
BRANCH   1  23
ATOM     23  C   UNL     1      -1.202   2.635   0.957  1.00  0.00     0.023 C 
BRANCH  23  24
ATOM     24  C   UNL     1      -2.317   2.283   1.947  1.00  0.00     0.023 C 
BRANCH  24  25
ATOM     25  C   UNL     1      -3.689   2.795   1.553  1.00  0.00     0.116 C 
BRANCH  25  26
ATOM     26  N   UNL     1      -4.234   2.191   0.327  1.00  0.00    -0.352 N 
ATOM     27  C   UNL     1      -5.413   2.543  -0.332  1.00  0.00     0.251 C 
ATOM     28  H   UNL     1      -3.709   1.460  -0.072  1.00  0.00     0.163 HD
ATOM     29  O   UNL     1      -5.989   1.796  -1.094  1.00  0.00    -0.269 OA
BRANCH  27  30
ATOM     30  C   UNL     1      -5.905   3.912  -0.097  1.00  0.00     0.039 A 
ATOM     31  C   UNL     1      -7.226   4.233   0.234  1.00  0.00     0.014 A 
ATOM     32  C   UNL     1      -4.902   4.865  -0.074  1.00  0.00     0.014 A 
ATOM     33  C   UNL     1      -7.499   5.534   0.662  1.00  0.00     0.010 A 
ATOM     34  C   UNL     1      -5.116   5.985   0.658  1.00  0.00     0.010 A 
ATOM     35  C   UNL     1      -6.421   6.400   0.875  1.00  0.00    -0.014 A 
BRANCH  35  36
ATOM     36  C   UNL     1      -6.531   7.764   1.367  1.00  0.00     0.031 A 
ATOM     37  C   UNL     1      -7.082   7.895   2.741  1.00  0.00     0.074 A 
ATOM     38  C   UNL     1      -5.833   8.745   0.742  1.00  0.00     0.049 A 
ATOM     39  N   UNL     1      -8.161   8.499   3.111  1.00  0.00    -0.248 NA
ATOM     40  C   UNL     1      -6.425   7.144   3.826  1.00  0.00     0.031 C 
ATOM     41  C   UNL     1      -4.958   8.640  -0.444  1.00  0.00     0.029 A 
ATOM     42  N   UNL     1      -5.634  10.032   1.126  1.00  0.00    -0.354 N 
ATOM     43  C   UNL     1      -8.194   8.404   4.502  1.00  0.00     0.074 A 
ATOM     44  C   UNL     1      -7.242   7.385   4.853  1.00  0.00     0.031 C 
ATOM     45  C   UNL     1      -4.151   9.719  -0.521  1.00  0.00     0.029 A 
ATOM     46  C   UNL     1      -4.579  10.674   0.477  1.00  0.00     0.049 A 
ATOM     47  H   UNL     1      -6.190  10.476   1.806  1.00  0.00     0.167 HD
ATOM     48  C   UNL     1      -8.795   9.366   5.258  1.00  0.00     0.037 A 
ATOM     49  C   UNL     1      -4.087  11.901   0.780  1.00  0.00     0.037 A 
ATOM     50  C   UNL     1      -9.645  10.199   4.441  1.00  0.00     0.049 A 
ATOM     51  C   UNL     1      -5.133  12.591   1.578  1.00  0.00     0.074 A 
ATOM     52  C   UNL     1     -10.746   9.974   3.637  1.00  0.00     0.029 A 
ATOM     53  N   UNL     1      -9.153  11.424   4.057  1.00  0.00    -0.354 N 
ATOM     54  N   UNL     1      -6.302  12.920   1.095  1.00  0.00    -0.248 NA
ATOM     55  C   UNL     1      -5.075  12.434   3.024  1.00  0.00     0.031 C 
ATOM     56  C   UNL     1     -10.542  10.809   2.497  1.00  0.00     0.029 A 
ATOM     57  C   UNL     1      -9.382  11.555   2.711  1.00  0.00     0.049 A 
ATOM     58  H   UNL     1      -8.716  12.085   4.641  1.00  0.00     0.167 HD
ATOM     59  C   UNL     1      -7.206  12.603   2.101  1.00  0.00     0.074 A 
ATOM     60  C   UNL     1      -6.383  12.357   3.286  1.00  0.00     0.031 C 
ATOM     61  C   UNL     1      -8.500  12.267   1.814  1.00  0.00     0.037 A 
BRANCH  48  62
ATOM     62  C   UNL     1      -8.316   9.820   6.620  1.00  0.00     0.057 A 
ATOM     63  C   UNL     1      -9.076  10.781   7.316  1.00  0.00     0.134 A 
ATOM     64  C   UNL     1      -7.022   9.604   7.137  1.00  0.00     0.134 A 
ATOM     65  F   UNL     1     -10.330  11.072   6.938  1.00  0.00    -0.206 F 
ATOM     66  C   UNL     1      -8.550  11.544   8.365  1.00  0.00     0.040 A 
ATOM     67  C   UNL     1      -6.505  10.326   8.217  1.00  0.00     0.040 A 
ATOM     68  F   UNL     1      -6.148   8.761   6.578  1.00  0.00    -0.206 F 
ATOM     69  C   UNL     1      -7.253  11.329   8.809  1.00  0.00     0.006 A 
ENDBRANCH  48  62
BRANCH  49  70
ATOM     70  C   UNL     1      -2.676  12.351   0.738  1.00  0.00     0.057 A 
ATOM     71  C   UNL     1      -2.340  13.711   0.742  1.00  0.00     0.134 A 
ATOM     72  C   UNL     1      -1.616  11.454   0.969  1.00  0.00     0.134 A 
ATOM     73  F   UNL     1      -3.289  14.644   0.574  1.00  0.00    -0.206 F 
ATOM     74  C   UNL     1      -1.031  14.156   0.978  1.00  0.00     0.040 A 
ATOM     75  C   UNL     1      -0.305  11.884   1.205  1.00  0.00     0.040 A 
ATOM     76  F   UNL     1      -1.835  10.134   1.062  1.00  0.00    -0.206 F 
ATOM     77  C   UNL     1      -0.010  13.241   1.222  1.00  0.00     0.006 A 
ENDBRANCH  49  70
BRANCH  61  78
ATOM     78  C   UNL     1      -8.979  12.432   0.394  1.00  0.00     0.057 A 
ATOM     79  C   UNL     1      -8.502  11.680  -0.692  1.00  0.00     0.134 A 
ATOM     80  C   UNL     1     -10.083  13.251   0.147  1.00  0.00     0.134 A 
ATOM     81  F   UNL     1      -7.515  10.793  -0.540  1.00  0.00    -0.206 F 
ATOM     82  C   UNL     1      -9.073  11.763  -1.967  1.00  0.00     0.040 A 
ATOM     83  C   UNL     1     -10.684  13.323  -1.113  1.00  0.00     0.040 A 
ATOM     84  F   UNL     1     -10.636  13.955   1.147  1.00  0.00    -0.206 F 
ATOM     85  C   UNL     1     -10.175  12.583  -2.178  1.00  0.00     0.006 A 
ENDBRANCH  61  78
ENDBRANCH  35  36
ENDBRANCH  27  30
ENDBRANCH  25  26
ENDBRANCH  24  25
ENDBRANCH  23  24
ENDBRANCH   1  23
TORSDOF 15
