REMARK SMILES CC[C@H](C)[N@@H+]1[C@@H](C(=O)NCCCCNC(=O)c2ccc(-c3c4nc(c(-c5c(F)cccc5F)c5ccc([nH]5)c(-c5c(F)cccc5F)c5nc(c(-c6c(F)cccc6F)c6ccc3[nH]6)C=C5)C=C4)cc2)CC[C@H]2CCCC[C@H]21
REMARK SMILES IDX 11 1 10 2 9 3 7 4 8 5 6 7 5 8 78 9 71 11 73 12 77 13 72 14
REMARK SMILES IDX 74 15 76 16 75 17 3 18 4 19 2 20 1 21 12 22 13 23 14 24
REMARK SMILES IDX 15 25 16 27 17 28 18 29 70 30 19 31 69 32 20 33 21 34 22 35
REMARK SMILES IDX 63 36 23 37 68 38 62 39 64 40 24 41 67 42 61 43 60 44 25 46
REMARK SMILES IDX 51 47 34 48 50 49 35 50 38 51 49 52 65 53 36 54 37 55 48 57
REMARK SMILES IDX 66 58 39 59 26 60 27 61 32 62 28 63 29 64 31 65 33 66 30 67
REMARK SMILES IDX 52 68 53 69 58 70 54 71 55 72 57 73 59 74 56 75 40 76 41 77
REMARK SMILES IDX 46 78 42 79 43 80 45 81 47 82 44 83
REMARK H PARENT 9 6 5 10 14 26 64 45 38 56
REMARK Flexibility Score: inf
ROOT
ATOM      1  C   UNL     1       2.740   5.014  -5.492  1.00  0.00     0.023 C 
ENDROOT
BRANCH   1   2
ATOM      2  C   UNL     1       2.386   3.767  -4.684  1.00  0.00     0.116 C 
BRANCH   2   3
ATOM      3  N   UNL     1       3.204   3.659  -3.493  1.00  0.00    -0.351 N 
ATOM      4  C   UNL     1       2.833   3.758  -2.181  1.00  0.00     0.278 C 
ATOM      5  O   UNL     1       3.718   3.653  -1.326  1.00  0.00    -0.268 OA
ATOM      6  H   UNL     1       4.161   3.490  -3.650  1.00  0.00     0.163 HD
BRANCH   4   7
ATOM      7  C   UNL     1       1.356   3.998  -1.771  1.00  0.00     0.274 C 
ATOM      8  N   UNL     1       0.457   2.918  -2.326  1.00  0.00    -0.320 N 
ATOM      9  C   UNL     1      -0.984   3.281  -2.227  1.00  0.00     0.187 C 
ATOM     10  H   UNL     1       0.591   2.821  -3.333  1.00  0.00     0.349 HD
ATOM     11  C   UNL     1       1.007   5.455  -2.099  1.00  0.00     0.076 C 
ATOM     12  C   UNL     1      -1.319   4.737  -2.667  1.00  0.00     0.048 C 
ATOM     13  C   UNL     1      -1.939   2.406  -3.060  1.00  0.00     0.065 C 
ATOM     14  C   UNL     1      -0.467   5.744  -1.898  1.00  0.00     0.016 C 
ATOM     15  C   UNL     1      -1.250   4.998  -4.189  1.00  0.00     0.010 C 
ATOM     16  C   UNL     1      -1.645   2.474  -4.551  1.00  0.00     0.006 C 
ATOM     17  C   UNL     1      -1.751   3.884  -5.106  1.00  0.00     0.001 C 
BRANCH   8  18
ATOM     18  C   UNL     1       0.853   1.589  -1.720  1.00  0.00     0.181 C 
ATOM     19  C   UNL     1       0.545   1.412  -0.224  1.00  0.00     0.075 C 
BRANCH  18  20
ATOM     20  C   UNL     1       0.505   0.330  -2.563  1.00  0.00     0.061 C 
ATOM     21  C   UNL     1      -0.546  -0.625  -2.005  1.00  0.00     0.010 C 
ENDBRANCH  18  20
ENDBRANCH   8  18
ENDBRANCH   4   7
ENDBRANCH   2   3
ENDBRANCH   1   2
BRANCH   1  22
ATOM     22  C   UNL     1       4.113   4.959  -6.159  1.00  0.00     0.023 C 
BRANCH  22  23
ATOM     23  C   UNL     1       4.313   3.785  -7.108  1.00  0.00     0.116 C 
BRANCH  23  24
ATOM     24  N   UNL     1       3.355   3.775  -8.204  1.00  0.00    -0.352 N 
ATOM     25  C   UNL     1       3.583   3.572  -9.543  1.00  0.00     0.251 C 
ATOM     26  H   UNL     1       2.417   3.935  -7.952  1.00  0.00     0.163 HD
ATOM     27  O   UNL     1       2.682   3.738 -10.360  1.00  0.00    -0.269 OA
BRANCH  25  28
ATOM     28  C   UNL     1       4.933   3.183  -9.998  1.00  0.00     0.039 A 
ATOM     29  C   UNL     1       5.505   3.863 -11.075  1.00  0.00     0.014 A 
ATOM     30  C   UNL     1       5.644   2.175  -9.340  1.00  0.00     0.014 A 
ATOM     31  C   UNL     1       6.820   3.579 -11.448  1.00  0.00     0.010 A 
ATOM     32  C   UNL     1       6.978   1.951  -9.662  1.00  0.00     0.010 A 
ATOM     33  C   UNL     1       7.580   2.650 -10.719  1.00  0.00    -0.014 A 
BRANCH  33  34
ATOM     34  C   UNL     1       9.007   2.401 -11.043  1.00  0.00     0.031 A 
ATOM     35  C   UNL     1       9.452   1.038 -11.499  1.00  0.00     0.074 A 
ATOM     36  C   UNL     1       9.913   3.381 -10.859  1.00  0.00     0.049 A 
ATOM     37  N   UNL     1      10.660   0.609 -11.764  1.00  0.00    -0.248 NA
ATOM     38  C   UNL     1       8.406   0.014 -11.651  1.00  0.00     0.031 C 
ATOM     39  C   UNL     1       9.616   4.729 -10.369  1.00  0.00     0.029 A 
ATOM     40  N   UNL     1      11.273   3.392 -11.050  1.00  0.00    -0.354 N 
ATOM     41  C   UNL     1      10.521  -0.733 -12.092  1.00  0.00     0.074 A 
ATOM     42  C   UNL     1       9.120  -1.062 -11.947  1.00  0.00     0.031 C 
ATOM     43  C   UNL     1      10.754   5.440 -10.317  1.00  0.00     0.029 A 
ATOM     44  C   UNL     1      11.866   4.589 -10.730  1.00  0.00     0.049 A 
ATOM     45  H   UNL     1      11.775   2.614 -11.384  1.00  0.00     0.167 HD
ATOM     46  C   UNL     1      11.473  -1.607 -12.497  1.00  0.00     0.037 A 
ATOM     47  C   UNL     1      13.161   4.957 -10.755  1.00  0.00     0.037 A 
ATOM     48  C   UNL     1      12.860  -1.268 -12.671  1.00  0.00     0.049 A 
ATOM     49  C   UNL     1      14.197   3.965 -11.210  1.00  0.00     0.074 A 
ATOM     50  C   UNL     1      13.886  -2.061 -13.155  1.00  0.00     0.029 A 
ATOM     51  N   UNL     1      13.419  -0.038 -12.359  1.00  0.00    -0.354 N 
ATOM     52  N   UNL     1      14.037   2.725 -11.604  1.00  0.00    -0.248 NA
ATOM     53  C   UNL     1      15.592   4.426 -11.231  1.00  0.00     0.031 C 
ATOM     54  C   UNL     1      15.075  -1.329 -13.085  1.00  0.00     0.029 A 
ATOM     55  C   UNL     1      14.780  -0.061 -12.612  1.00  0.00     0.049 A 
ATOM     56  H   UNL     1      12.921   0.737 -12.010  1.00  0.00     0.167 HD
ATOM     57  C   UNL     1      15.304   2.269 -11.948  1.00  0.00     0.074 A 
ATOM     58  C   UNL     1      16.218   3.371 -11.732  1.00  0.00     0.031 C 
ATOM     59  C   UNL     1      15.676   1.047 -12.402  1.00  0.00     0.037 A 
BRANCH  46  60
ATOM     60  C   UNL     1      11.048  -3.019 -12.782  1.00  0.00     0.057 A 
ATOM     61  C   UNL     1      10.260  -3.347 -13.893  1.00  0.00     0.134 A 
ATOM     62  C   UNL     1      11.477  -4.071 -11.962  1.00  0.00     0.134 A 
ATOM     63  F   UNL     1       9.806  -2.387 -14.713  1.00  0.00    -0.206 F 
ATOM     64  C   UNL     1       9.896  -4.667 -14.166  1.00  0.00     0.040 A 
ATOM     65  C   UNL     1      11.144  -5.397 -12.241  1.00  0.00     0.040 A 
ATOM     66  F   UNL     1      12.240  -3.828 -10.886  1.00  0.00    -0.206 F 
ATOM     67  C   UNL     1      10.346  -5.697 -13.343  1.00  0.00     0.006 A 
ENDBRANCH  46  60
BRANCH  47  68
ATOM     68  C   UNL     1      13.559   6.329 -10.345  1.00  0.00     0.057 A 
ATOM     69  C   UNL     1      14.063   7.245 -11.276  1.00  0.00     0.134 A 
ATOM     70  C   UNL     1      13.470   6.749  -9.013  1.00  0.00     0.134 A 
ATOM     71  F   UNL     1      14.190   6.896 -12.565  1.00  0.00    -0.206 F 
ATOM     72  C   UNL     1      14.492   8.517 -10.894  1.00  0.00     0.040 A 
ATOM     73  C   UNL     1      13.868   8.028  -8.620  1.00  0.00     0.040 A 
ATOM     74  F   UNL     1      12.988   5.923  -8.072  1.00  0.00    -0.206 F 
ATOM     75  C   UNL     1      14.391   8.912  -9.561  1.00  0.00     0.006 A 
ENDBRANCH  47  68
BRANCH  59  76
ATOM     76  C   UNL     1      17.127   0.849 -12.735  1.00  0.00     0.057 A 
ATOM     77  C   UNL     1      18.112   0.772 -11.742  1.00  0.00     0.134 A 
ATOM     78  C   UNL     1      17.536   0.693 -14.066  1.00  0.00     0.134 A 
ATOM     79  F   UNL     1      17.789   0.926 -10.449  1.00  0.00    -0.206 F 
ATOM     80  C   UNL     1      19.456   0.572 -12.064  1.00  0.00     0.040 A 
ATOM     81  C   UNL     1      18.871   0.463 -14.397  1.00  0.00     0.040 A 
ATOM     82  F   UNL     1      16.642   0.746 -15.064  1.00  0.00    -0.206 F 
ATOM     83  C   UNL     1      19.837   0.408 -13.394  1.00  0.00     0.006 A 
ENDBRANCH  59  76
ENDBRANCH  33  34
ENDBRANCH  25  28
ENDBRANCH  23  24
ENDBRANCH  22  23
ENDBRANCH   1  22
TORSDOF 13
