REMARK SMILES C[C@H](NC(=O)N1CC[C@@H](C(=O)NCCCCNC(=O)c2ccc(-c3c4nc(c(-c5c(F)cccc5F)c5ccc([nH]5)c(-c5c(F)cccc5F)c5nc(c(-c6c(F)cccc6F)c6ccc3[nH]6)C=C5)C=C4)cc2)[C@H]1C)c1ccc(Cl)cc1
REMARK SMILES IDX 14 1 13 2 12 3 10 4 11 5 9 7 6 8 7 9 74 10 8 11 75 12 4 13
REMARK SMILES IDX 3 14 5 16 2 17 1 18 76 19 77 20 82 21 78 22 81 23 79 24
REMARK SMILES IDX 80 25 15 26 16 27 17 28 18 29 19 31 20 32 21 33 73 34 22 35
REMARK SMILES IDX 72 36 23 37 24 38 25 39 66 40 26 41 71 42 65 43 67 44 27 45
REMARK SMILES IDX 70 46 64 47 63 48 28 50 54 51 37 52 53 53 38 54 41 55 52 56
REMARK SMILES IDX 68 57 39 58 40 59 51 61 69 62 42 63 29 64 30 65 35 66 31 67
REMARK SMILES IDX 32 68 34 69 36 70 33 71 55 72 56 73 61 74 57 75 58 76 60 77
REMARK SMILES IDX 62 78 59 79 43 80 44 81 49 82 45 83 46 84 48 85 50 86 47 87
REMARK H PARENT 12 6 3 15 17 30 67 49 41 60
REMARK Flexibility Score: inf
ROOT
ATOM      1  C   UNL     1       0.208   4.435   2.830  1.00  0.00     0.023 C 
ENDROOT
BRANCH   1   2
ATOM      2  C   UNL     1       0.390   5.051   1.445  1.00  0.00     0.116 C 
BRANCH   2   3
ATOM      3  N   UNL     1       1.662   5.727   1.299  1.00  0.00    -0.356 N 
ATOM      4  C   UNL     1       2.672   5.543   0.410  1.00  0.00     0.225 C 
ATOM      5  O   UNL     1       3.661   6.273   0.534  1.00  0.00    -0.275 OA
ATOM      6  H   UNL     1       1.822   6.443   1.956  1.00  0.00     0.163 HD
BRANCH   4   7
ATOM      7  C   UNL     1       2.643   4.494  -0.696  1.00  0.00     0.102 C 
ATOM      8  N   UNL     1       1.584   2.318  -0.800  1.00  0.00    -0.321 N 
ATOM      9  C   UNL     1       1.062   3.132  -1.898  1.00  0.00     0.122 C 
ATOM     10  C   UNL     1       2.784   3.011  -0.298  1.00  0.00     0.096 C 
ATOM     11  C   UNL     1       1.433   4.577  -1.620  1.00  0.00     0.037 C 
ATOM     12  C   UNL     1       3.098   2.745   1.159  1.00  0.00     0.032 C 
BRANCH   8  13
ATOM     13  C   UNL     1       1.715   0.993  -1.141  1.00  0.00     0.318 C 
ATOM     14  N   UNL     1       1.192   0.007  -0.400  1.00  0.00    -0.331 N 
ATOM     15  H   UNL     1       1.329  -0.851  -0.861  1.00  0.00     0.165 HD
ATOM     16  O   UNL     1       2.286   0.651  -2.180  1.00  0.00    -0.249 OA
BRANCH  14  17
ATOM     17  C   UNL     1       0.488  -0.231   0.856  1.00  0.00     0.111 C 
ATOM     18  C   UNL     1       1.177   0.239   2.130  1.00  0.00     0.036 C 
BRANCH  17  19
ATOM     19  C   UNL     1      -0.998   0.070   0.870  1.00  0.00    -0.026 A 
ATOM     20  C   UNL     1      -1.492   1.380   0.828  1.00  0.00     0.007 A 
ATOM     21  C   UNL     1      -1.911  -0.983   1.067  1.00  0.00     0.007 A 
ATOM     22  C   UNL     1      -2.855   1.635   1.019  1.00  0.00     0.021 A 
ATOM     23  C   UNL     1      -3.273  -0.732   1.251  1.00  0.00     0.021 A 
ATOM     24  C   UNL     1      -3.737   0.579   1.238  1.00  0.00     0.041 A 
ATOM     25  Cl  UNL     1      -5.406   0.893   1.510  1.00  0.00    -0.084 Cl
ENDBRANCH  17  19
ENDBRANCH  14  17
ENDBRANCH   8  13
ENDBRANCH   4   7
ENDBRANCH   2   3
ENDBRANCH   1   2
BRANCH   1  26
ATOM     26  C   UNL     1       0.027   5.422   3.972  1.00  0.00     0.023 C 
BRANCH  26  27
ATOM     27  C   UNL     1      -1.163   6.355   3.834  1.00  0.00     0.116 C 
BRANCH  27  28
ATOM     28  N   UNL     1      -2.429   5.665   3.645  1.00  0.00    -0.352 N 
ATOM     29  C   UNL     1      -3.635   5.860   4.293  1.00  0.00     0.251 C 
ATOM     30  H   UNL     1      -2.427   4.960   2.958  1.00  0.00     0.163 HD
ATOM     31  O   UNL     1      -4.584   5.134   4.068  1.00  0.00    -0.269 OA
BRANCH  29  32
ATOM     32  C   UNL     1      -3.732   6.939   5.298  1.00  0.00     0.039 A 
ATOM     33  C   UNL     1      -4.267   6.647   6.554  1.00  0.00     0.014 A 
ATOM     34  C   UNL     1      -3.222   8.208   5.023  1.00  0.00     0.014 A 
ATOM     35  C   UNL     1      -4.203   7.607   7.567  1.00  0.00     0.010 A 
ATOM     36  C   UNL     1      -3.062   9.120   6.056  1.00  0.00     0.010 A 
ATOM     37  C   UNL     1      -3.555   8.832   7.339  1.00  0.00    -0.014 A 
BRANCH  37  38
ATOM     38  C   UNL     1      -3.398   9.847   8.410  1.00  0.00     0.031 A 
ATOM     39  C   UNL     1      -4.002  11.213   8.228  1.00  0.00     0.074 A 
ATOM     40  C   UNL     1      -2.647   9.576   9.495  1.00  0.00     0.049 A 
ATOM     41  N   UNL     1      -3.872  12.283   8.971  1.00  0.00    -0.248 NA
ATOM     42  C   UNL     1      -4.825  11.417   7.024  1.00  0.00     0.031 C 
ATOM     43  C   UNL     1      -1.958   8.311   9.761  1.00  0.00     0.029 A 
ATOM     44  N   UNL     1      -2.325  10.360  10.575  1.00  0.00    -0.354 N 
ATOM     45  C   UNL     1      -4.566  13.286   8.307  1.00  0.00     0.074 A 
ATOM     46  C   UNL     1      -5.064  12.718   7.075  1.00  0.00     0.031 C 
ATOM     47  C   UNL     1      -1.322   8.395  10.942  1.00  0.00     0.029 A 
ATOM     48  C   UNL     1      -1.526   9.728  11.498  1.00  0.00     0.049 A 
ATOM     49  H   UNL     1      -2.639  11.287  10.680  1.00  0.00     0.167 HD
ATOM     50  C   UNL     1      -4.799  14.559   8.704  1.00  0.00     0.037 A 
ATOM     51  C   UNL     1      -1.015  10.179  12.659  1.00  0.00     0.037 A 
ATOM     52  C   UNL     1      -4.354  15.105   9.957  1.00  0.00     0.049 A 
ATOM     53  C   UNL     1      -1.320  11.586  13.096  1.00  0.00     0.074 A 
ATOM     54  C   UNL     1      -4.591  16.362  10.483  1.00  0.00     0.029 A 
ATOM     55  N   UNL     1      -3.593  14.415  10.888  1.00  0.00    -0.354 N 
ATOM     56  N   UNL     1      -2.025  12.507  12.485  1.00  0.00    -0.248 NA
ATOM     57  C   UNL     1      -0.765  12.014  14.388  1.00  0.00     0.031 C 
ATOM     58  C   UNL     1      -3.953  16.440  11.726  1.00  0.00     0.029 A 
ATOM     59  C   UNL     1      -3.348  15.221  11.986  1.00  0.00     0.049 A 
ATOM     60  H   UNL     1      -3.273  13.489  10.783  1.00  0.00     0.167 HD
ATOM     61  C   UNL     1      -2.024  13.609  13.329  1.00  0.00     0.074 A 
ATOM     62  C   UNL     1      -1.258  13.239  14.501  1.00  0.00     0.031 C 
ATOM     63  C   UNL     1      -2.603  14.821  13.150  1.00  0.00     0.037 A 
BRANCH  50  64
ATOM     64  C   UNL     1      -5.590  15.435   7.779  1.00  0.00     0.057 A 
ATOM     65  C   UNL     1      -6.961  15.232   7.566  1.00  0.00     0.134 A 
ATOM     66  C   UNL     1      -4.984  16.504   7.108  1.00  0.00     0.134 A 
ATOM     67  F   UNL     1      -7.598  14.215   8.166  1.00  0.00    -0.206 F 
ATOM     68  C   UNL     1      -7.693  16.042   6.697  1.00  0.00     0.040 A 
ATOM     69  C   UNL     1      -5.712  17.338   6.258  1.00  0.00     0.040 A 
ATOM     70  F   UNL     1      -3.676  16.756   7.269  1.00  0.00    -0.206 F 
ATOM     71  C   UNL     1      -7.069  17.104   6.045  1.00  0.00     0.006 A 
ENDBRANCH  50  64
BRANCH  51  72
ATOM     72  C   UNL     1      -0.194   9.285  13.515  1.00  0.00     0.057 A 
ATOM     73  C   UNL     1      -0.690   8.802  14.732  1.00  0.00     0.134 A 
ATOM     74  C   UNL     1       1.106   8.912  13.155  1.00  0.00     0.134 A 
ATOM     75  F   UNL     1      -1.923   9.141  15.139  1.00  0.00    -0.206 F 
ATOM     76  C   UNL     1       0.084   8.001  15.573  1.00  0.00     0.040 A 
ATOM     77  C   UNL     1       1.883   8.092  13.976  1.00  0.00     0.040 A 
ATOM     78  F   UNL     1       1.636   9.334  11.999  1.00  0.00    -0.206 F 
ATOM     79  C   UNL     1       1.375   7.642  15.193  1.00  0.00     0.006 A 
ENDBRANCH  51  72
BRANCH  63  80
ATOM     80  C   UNL     1      -2.470  15.815  14.264  1.00  0.00     0.057 A 
ATOM     81  C   UNL     1      -1.269  16.488  14.513  1.00  0.00     0.134 A 
ATOM     82  C   UNL     1      -3.573  16.133  15.066  1.00  0.00     0.134 A 
ATOM     83  F   UNL     1      -0.174  16.217  13.787  1.00  0.00    -0.206 F 
ATOM     84  C   UNL     1      -1.164  17.433  15.535  1.00  0.00     0.040 A 
ATOM     85  C   UNL     1      -3.487  17.092  16.075  1.00  0.00     0.040 A 
ATOM     86  F   UNL     1      -4.755  15.528  14.872  1.00  0.00    -0.206 F 
ATOM     87  C   UNL     1      -2.278  17.742  16.314  1.00  0.00     0.006 A 
ENDBRANCH  63  80
ENDBRANCH  37  38
ENDBRANCH  29  32
ENDBRANCH  27  28
ENDBRANCH  26  27
ENDBRANCH   1  26
TORSDOF 14
