REMARK SMILES C[C@@]1(CN2C(=O)c3ccc(C(=O)NCCCCNC(=O)c4ccc(-c5c6nc(c(-c7c(F)cccc7F)c7ccc([nH]7)c(-c7c(F)cccc7F)c7nc(c(-c8c(F)cccc8F)c8ccc5[nH]8)C=C7)C=C6)cc4)cc3C2=O)CCCO1
REMARK SMILES IDX 15 1 14 2 13 3 11 4 12 5 10 7 4 8 5 9 77 10 6 11 7 12 76 13
REMARK SMILES IDX 78 14 8 15 75 16 9 17 3 18 2 19 1 20 79 21 82 22 80 23 81 24
REMARK SMILES IDX 16 25 17 26 18 27 19 28 20 30 21 31 22 32 74 33 23 34 73 35
REMARK SMILES IDX 24 36 25 37 26 38 67 39 27 40 72 41 66 42 68 43 28 44 71 45
REMARK SMILES IDX 65 46 64 47 29 49 55 50 38 51 54 52 39 53 42 54 53 55 69 56
REMARK SMILES IDX 40 57 41 58 52 60 70 61 43 62 30 63 31 64 36 65 32 66 33 67
REMARK SMILES IDX 35 68 37 69 34 70 56 71 57 72 62 73 58 74 59 75 61 76 63 77
REMARK SMILES IDX 60 78 44 79 45 80 50 81 46 82 47 83 49 84 51 85 48 86
REMARK H PARENT 13 6 18 29 68 48 42 59
REMARK Flexibility Score: inf
ROOT
ATOM      1  C   UNL     1      -2.274   6.715   5.665  1.00  0.00     0.023 C 
ENDROOT
BRANCH   1   2
ATOM      2  C   UNL     1      -1.368   5.654   6.297  1.00  0.00     0.116 C 
BRANCH   2   3
ATOM      3  N   UNL     1      -2.150   4.532   6.773  1.00  0.00    -0.352 N 
ATOM      4  C   UNL     1      -2.489   3.330   6.208  1.00  0.00     0.251 C 
ATOM      5  O   UNL     1      -3.157   2.557   6.895  1.00  0.00    -0.269 OA
ATOM      6  H   UNL     1      -2.509   4.658   7.681  1.00  0.00     0.163 HD
BRANCH   4   7
ATOM      7  C   UNL     1      -2.083   2.901   4.834  1.00  0.00     0.040 A 
ATOM      8  N   UNL     1      -1.310  -0.093   1.418  1.00  0.00    -0.271 N 
ATOM      9  C   UNL     1      -1.155   1.223   1.098  1.00  0.00     0.261 C 
ATOM     10  C   UNL     1      -1.752  -0.255   2.706  1.00  0.00     0.261 C 
ATOM     11  O   UNL     1      -0.875   1.738   0.030  1.00  0.00    -0.269 OA
ATOM     12  C   UNL     1      -1.413   1.976   2.313  1.00  0.00     0.053 A 
ATOM     13  C   UNL     1      -1.793   1.086   3.297  1.00  0.00     0.054 A 
ATOM     14  O   UNL     1      -2.100  -1.264   3.284  1.00  0.00    -0.269 OA
ATOM     15  C   UNL     1      -1.346   3.331   2.529  1.00  0.00     0.015 A 
ATOM     16  C   UNL     1      -2.136   1.517   4.565  1.00  0.00     0.028 A 
ATOM     17  C   UNL     1      -1.710   3.788   3.797  1.00  0.00     0.015 A 
BRANCH   8  18
ATOM     18  C   UNL     1      -1.059  -1.175   0.483  1.00  0.00     0.164 C 
BRANCH  18  19
ATOM     19  C   UNL     1       0.446  -1.556   0.371  1.00  0.00     0.084 C 
ATOM     20  C   UNL     1       1.340  -0.381  -0.031  1.00  0.00     0.044 C 
ATOM     21  C   UNL     1       0.637  -2.726  -0.597  1.00  0.00     0.039 C 
ATOM     22  O   UNL     1       0.902  -2.044   1.651  1.00  0.00    -0.373 OA
ATOM     23  C   UNL     1       0.407  -3.928   0.283  1.00  0.00     0.031 C 
ATOM     24  C   UNL     1       0.971  -3.476   1.614  1.00  0.00     0.161 C 
ENDBRANCH  18  19
ENDBRANCH   8  18
ENDBRANCH   4   7
ENDBRANCH   2   3
ENDBRANCH   1   2
BRANCH   1  25
ATOM     25  C   UNL     1      -2.937   7.653   6.676  1.00  0.00     0.023 C 
BRANCH  25  26
ATOM     26  C   UNL     1      -1.963   8.460   7.526  1.00  0.00     0.116 C 
BRANCH  26  27
ATOM     27  N   UNL     1      -1.021   9.238   6.737  1.00  0.00    -0.352 N 
ATOM     28  C   UNL     1      -0.456  10.452   7.036  1.00  0.00     0.251 C 
ATOM     29  H   UNL     1      -0.754   8.841   5.876  1.00  0.00     0.163 HD
ATOM     30  O   UNL     1       0.226  11.041   6.204  1.00  0.00    -0.269 OA
BRANCH  28  31
ATOM     31  C   UNL     1      -0.713  11.060   8.356  1.00  0.00     0.039 A 
ATOM     32  C   UNL     1      -1.090  12.402   8.413  1.00  0.00     0.014 A 
ATOM     33  C   UNL     1      -0.616  10.301   9.525  1.00  0.00     0.014 A 
ATOM     34  C   UNL     1      -1.423  12.967   9.642  1.00  0.00     0.010 A 
ATOM     35  C   UNL     1      -1.035  10.840  10.736  1.00  0.00     0.010 A 
ATOM     36  C   UNL     1      -1.432  12.182  10.809  1.00  0.00    -0.014 A 
BRANCH  36  37
ATOM     37  C   UNL     1      -1.857  12.766  12.105  1.00  0.00     0.031 A 
ATOM     38  C   UNL     1      -0.891  12.861  13.254  1.00  0.00     0.074 A 
ATOM     39  C   UNL     1      -3.127  13.191  12.251  1.00  0.00     0.049 A 
ATOM     40  N   UNL     1      -1.072  13.377  14.443  1.00  0.00    -0.248 NA
ATOM     41  C   UNL     1       0.446  12.280  13.051  1.00  0.00     0.031 C 
ATOM     42  C   UNL     1      -4.175  13.092  11.233  1.00  0.00     0.029 A 
ATOM     43  N   UNL     1      -3.750  13.801  13.310  1.00  0.00    -0.354 N 
ATOM     44  C   UNL     1       0.121  13.181  15.126  1.00  0.00     0.074 A 
ATOM     45  C   UNL     1       0.995  12.438  14.246  1.00  0.00     0.031 C 
ATOM     46  C   UNL     1      -5.296  13.665  11.698  1.00  0.00     0.029 A 
ATOM     47  C   UNL     1      -5.058  14.138  13.058  1.00  0.00     0.049 A 
ATOM     48  H   UNL     1      -3.303  13.981  14.168  1.00  0.00     0.167 HD
ATOM     49  C   UNL     1       0.470  13.609  16.363  1.00  0.00     0.037 A 
ATOM     50  C   UNL     1      -5.962  14.764  13.834  1.00  0.00     0.037 A 
ATOM     51  C   UNL     1      -0.401  14.355  17.233  1.00  0.00     0.049 A 
ATOM     52  C   UNL     1      -5.551  15.226  15.204  1.00  0.00     0.074 A 
ATOM     53  C   UNL     1      -0.130  14.877  18.485  1.00  0.00     0.029 A 
ATOM     54  N   UNL     1      -1.719  14.678  16.943  1.00  0.00    -0.354 N 
ATOM     55  N   UNL     1      -4.392  15.107  15.806  1.00  0.00    -0.248 NA
ATOM     56  C   UNL     1      -6.571  15.924  15.997  1.00  0.00     0.031 C 
ATOM     57  C   UNL     1      -1.300  15.465  18.977  1.00  0.00     0.029 A 
ATOM     58  C   UNL     1      -2.281  15.372  18.004  1.00  0.00     0.049 A 
ATOM     59  H   UNL     1      -2.186  14.449  16.108  1.00  0.00     0.167 HD
ATOM     60  C   UNL     1      -4.533  15.743  17.034  1.00  0.00     0.074 A 
ATOM     61  C   UNL     1      -5.884  16.265  17.077  1.00  0.00     0.031 C 
ATOM     62  C   UNL     1      -3.628  15.883  18.034  1.00  0.00     0.037 A 
BRANCH  49  63
ATOM     63  C   UNL     1       1.855  13.279  16.844  1.00  0.00     0.057 A 
ATOM     64  C   UNL     1       2.998  13.849  16.265  1.00  0.00     0.134 A 
ATOM     65  C   UNL     1       2.050  12.401  17.918  1.00  0.00     0.134 A 
ATOM     66  F   UNL     1       2.886  14.688  15.223  1.00  0.00    -0.206 F 
ATOM     67  C   UNL     1       4.282  13.534  16.714  1.00  0.00     0.040 A 
ATOM     68  C   UNL     1       3.328  12.104  18.398  1.00  0.00     0.040 A 
ATOM     69  F   UNL     1       1.003  11.822  18.524  1.00  0.00    -0.206 F 
ATOM     70  C   UNL     1       4.449  12.665  17.790  1.00  0.00     0.006 A 
ENDBRANCH  49  63
BRANCH  50  71
ATOM     71  C   UNL     1      -7.333  15.023  13.323  1.00  0.00     0.057 A 
ATOM     72  C   UNL     1      -7.776  16.325  13.061  1.00  0.00     0.134 A 
ATOM     73  C   UNL     1      -8.238  13.978  13.100  1.00  0.00     0.134 A 
ATOM     74  F   UNL     1      -6.962  17.370  13.270  1.00  0.00    -0.206 F 
ATOM     75  C   UNL     1      -9.076  16.582  12.623  1.00  0.00     0.040 A 
ATOM     76  C   UNL     1      -9.531  14.218  12.632  1.00  0.00     0.040 A 
ATOM     77  F   UNL     1      -7.873  12.707  13.320  1.00  0.00    -0.206 F 
ATOM     78  C   UNL     1      -9.957  15.525  12.403  1.00  0.00     0.006 A 
ENDBRANCH  50  71
BRANCH  62  79
ATOM     79  C   UNL     1      -4.062  16.670  19.240  1.00  0.00     0.057 A 
ATOM     80  C   UNL     1      -5.043  16.201  20.125  1.00  0.00     0.134 A 
ATOM     81  C   UNL     1      -3.489  17.918  19.517  1.00  0.00     0.134 A 
ATOM     82  F   UNL     1      -5.641  15.019  19.913  1.00  0.00    -0.206 F 
ATOM     83  C   UNL     1      -5.470  16.965  21.212  1.00  0.00     0.040 A 
ATOM     84  C   UNL     1      -3.881  18.674  20.622  1.00  0.00     0.040 A 
ATOM     85  F   UNL     1      -2.534  18.422  18.721  1.00  0.00    -0.206 F 
ATOM     86  C   UNL     1      -4.885  18.204  21.465  1.00  0.00     0.006 A 
ENDBRANCH  62  79
ENDBRANCH  36  37
ENDBRANCH  28  31
ENDBRANCH  26  27
ENDBRANCH  25  26
ENDBRANCH   1  25
TORSDOF 13
