REMARK SMILES O=C(NCCCCNC(=O)c1ccc(N2C(=O)/C(=C\C3=Cc4ccccc4OC3)SC2=S)cc1)c1ccc(-c2c3nc(c(-c4c(F)cccc4F)c4ccc([nH]4)c(-c4c(F)cccc4F)c4nc(c(-c5c(F)cccc5F)c5ccc2[nH]5)C=C4)C=C3)cc1
REMARK SMILES IDX 5 1 4 2 3 3 1 4 2 5 35 7 36 8 88 9 37 10 87 11 38 12 39 13
REMARK SMILES IDX 40 14 81 15 41 16 86 17 80 18 82 19 42 20 85 21 79 22 78 23
REMARK SMILES IDX 43 25 69 26 52 27 68 28 53 29 56 30 67 31 83 32 54 33 55 34
REMARK SMILES IDX 66 36 84 37 57 38 44 39 45 40 50 41 46 42 47 43 49 44 51 45
REMARK SMILES IDX 48 46 70 47 71 48 76 49 72 50 73 51 75 52 77 53 74 54 58 55
REMARK SMILES IDX 59 56 64 57 60 58 61 59 63 60 65 61 62 62 6 63 7 64 8 65
REMARK SMILES IDX 9 66 10 68 11 69 12 70 34 71 13 72 33 73 14 74 15 75 16 76
REMARK SMILES IDX 31 77 17 78 18 79 30 80 32 81 19 82 20 83 21 84 29 85 22 86
REMARK SMILES IDX 28 87 23 88 27 89 24 90 26 91 25 92
REMARK H PARENT 3 6 82 24 56 35 8 67
REMARK Flexibility Score: inf
ROOT
ATOM      1  C   UNL     1       4.868   2.835   0.331  1.00  0.00     0.023 C 
ENDROOT
BRANCH   1   2
ATOM      2  C   UNL     1       4.527   1.388   0.667  1.00  0.00     0.116 C 
BRANCH   2   3
ATOM      3  N   UNL     1       3.098   1.126   0.643  1.00  0.00    -0.352 N 
ATOM      4  O   UNL     1       1.174   0.178  -0.041  1.00  0.00    -0.269 OA
ATOM      5  C   UNL     1       2.401   0.150  -0.028  1.00  0.00     0.251 C 
ATOM      6  H   UNL     1       2.549   1.737   1.187  1.00  0.00     0.163 HD
BRANCH   5   7
ATOM      7  C   UNL     1       3.118  -0.926  -0.752  1.00  0.00     0.039 A 
ATOM      8  C   UNL     1       4.208  -1.584  -0.176  1.00  0.00     0.014 A 
ATOM      9  C   UNL     1       2.654  -1.320  -2.012  1.00  0.00     0.014 A 
ATOM     10  C   UNL     1       4.893  -2.560  -0.896  1.00  0.00     0.010 A 
ATOM     11  C   UNL     1       3.300  -2.347  -2.707  1.00  0.00     0.010 A 
ATOM     12  C   UNL     1       4.433  -2.967  -2.159  1.00  0.00    -0.014 A 
BRANCH  12  13
ATOM     13  C   UNL     1       5.080  -4.120  -2.835  1.00  0.00     0.031 A 
ATOM     14  C   UNL     1       5.852  -3.951  -4.112  1.00  0.00     0.074 A 
ATOM     15  C   UNL     1       4.955  -5.340  -2.276  1.00  0.00     0.049 A 
ATOM     16  N   UNL     1       6.471  -4.860  -4.823  1.00  0.00    -0.248 NA
ATOM     17  C   UNL     1       5.938  -2.593  -4.670  1.00  0.00     0.031 C 
ATOM     18  C   UNL     1       4.203  -5.631  -1.052  1.00  0.00     0.029 A 
ATOM     19  N   UNL     1       5.453  -6.559  -2.656  1.00  0.00    -0.354 N 
ATOM     20  C   UNL     1       7.005  -4.193  -5.916  1.00  0.00     0.074 A 
ATOM     21  C   UNL     1       6.626  -2.801  -5.786  1.00  0.00     0.031 C 
ATOM     22  C   UNL     1       4.309  -6.937  -0.771  1.00  0.00     0.029 A 
ATOM     23  C   UNL     1       5.089  -7.585  -1.818  1.00  0.00     0.049 A 
ATOM     24  H   UNL     1       6.017  -6.687  -3.453  1.00  0.00     0.167 HD
ATOM     25  C   UNL     1       7.749  -4.698  -6.930  1.00  0.00     0.037 A 
ATOM     26  C   UNL     1       5.334  -8.906  -1.895  1.00  0.00     0.037 A 
ATOM     27  C   UNL     1       8.145  -6.079  -7.040  1.00  0.00     0.049 A 
ATOM     28  C   UNL     1       6.142  -9.435  -3.042  1.00  0.00     0.074 A 
ATOM     29  C   UNL     1       8.972  -6.664  -7.985  1.00  0.00     0.029 A 
ATOM     30  N   UNL     1       7.735  -7.091  -6.188  1.00  0.00    -0.354 N 
ATOM     31  N   UNL     1       6.701  -8.778  -4.028  1.00  0.00    -0.248 NA
ATOM     32  C   UNL     1       6.346 -10.889  -3.093  1.00  0.00     0.031 C 
ATOM     33  C   UNL     1       9.024  -8.038  -7.732  1.00  0.00     0.029 A 
ATOM     34  C   UNL     1       8.259  -8.303  -6.607  1.00  0.00     0.049 A 
ATOM     35  H   UNL     1       7.157  -6.968  -5.401  1.00  0.00     0.167 HD
ATOM     36  C   UNL     1       7.323  -9.735  -4.816  1.00  0.00     0.074 A 
ATOM     37  C   UNL     1       7.099 -11.016  -4.177  1.00  0.00     0.031 C 
ATOM     38  C   UNL     1       8.013  -9.569  -5.970  1.00  0.00     0.037 A 
BRANCH  25  39
ATOM     39  C   UNL     1       8.188  -3.764  -8.018  1.00  0.00     0.057 A 
ATOM     40  C   UNL     1       9.242  -2.862  -7.835  1.00  0.00     0.134 A 
ATOM     41  C   UNL     1       7.614  -3.841  -9.294  1.00  0.00     0.134 A 
ATOM     42  F   UNL     1       9.831  -2.738  -6.636  1.00  0.00    -0.206 F 
ATOM     43  C   UNL     1       9.710  -2.067  -8.884  1.00  0.00     0.040 A 
ATOM     44  C   UNL     1       8.083  -3.063 -10.353  1.00  0.00     0.040 A 
ATOM     45  F   UNL     1       6.605  -4.692  -9.536  1.00  0.00    -0.206 F 
ATOM     46  C   UNL     1       9.136  -2.173 -10.150  1.00  0.00     0.006 A 
ENDBRANCH  25  39
BRANCH  26  47
ATOM     47  C   UNL     1       4.776  -9.821  -0.870  1.00  0.00     0.057 A 
ATOM     48  C   UNL     1       5.603 -10.470   0.053  1.00  0.00     0.134 A 
ATOM     49  C   UNL     1       3.400 -10.072  -0.795  1.00  0.00     0.134 A 
ATOM     50  F   UNL     1       6.931 -10.283   0.017  1.00  0.00    -0.206 F 
ATOM     51  C   UNL     1       5.084 -11.348   1.005  1.00  0.00     0.040 A 
ATOM     52  C   UNL     1       2.865 -10.927   0.169  1.00  0.00     0.040 A 
ATOM     53  F   UNL     1       2.555  -9.476  -1.649  1.00  0.00    -0.206 F 
ATOM     54  C   UNL     1       3.710 -11.574   1.068  1.00  0.00     0.006 A 
ENDBRANCH  26  47
BRANCH  38  55
ATOM     55  C   UNL     1       8.564 -10.805  -6.612  1.00  0.00     0.057 A 
ATOM     56  C   UNL     1       7.734 -11.707  -7.289  1.00  0.00     0.134 A 
ATOM     57  C   UNL     1       9.935 -11.086  -6.573  1.00  0.00     0.134 A 
ATOM     58  F   UNL     1       6.409 -11.501  -7.346  1.00  0.00    -0.206 F 
ATOM     59  C   UNL     1       8.246 -12.858  -7.889  1.00  0.00     0.040 A 
ATOM     60  C   UNL     1      10.462 -12.222  -7.189  1.00  0.00     0.040 A 
ATOM     61  F   UNL     1      10.783 -10.259  -5.944  1.00  0.00    -0.206 F 
ATOM     62  C   UNL     1       9.616 -13.114  -7.845  1.00  0.00     0.006 A 
ENDBRANCH  38  55
ENDBRANCH  12  13
ENDBRANCH   5   7
ENDBRANCH   2   3
ENDBRANCH   1   2
BRANCH   1  63
ATOM     63  C   UNL     1       4.402   3.879   1.347  1.00  0.00     0.023 C 
BRANCH  63  64
ATOM     64  C   UNL     1       4.859   3.659   2.790  1.00  0.00     0.116 C 
BRANCH  64  65
ATOM     65  N   UNL     1       6.302   3.569   2.918  1.00  0.00    -0.352 N 
ATOM     66  C   UNL     1       7.173   4.252   3.729  1.00  0.00     0.251 C 
ATOM     67  H   UNL     1       6.727   2.909   2.324  1.00  0.00     0.163 HD
ATOM     68  O   UNL     1       8.381   4.101   3.571  1.00  0.00    -0.269 OA
BRANCH  66  69
ATOM     69  C   UNL     1       6.689   5.186   4.771  1.00  0.00     0.039 A 
ATOM     70  C   UNL     1       7.329   6.418   4.904  1.00  0.00     0.016 A 
ATOM     71  C   UNL     1       5.662   4.854   5.653  1.00  0.00     0.016 A 
ATOM     72  C   UNL     1       6.901   7.338   5.872  1.00  0.00     0.027 A 
ATOM     73  C   UNL     1       5.229   5.785   6.610  1.00  0.00     0.027 A 
ATOM     74  C   UNL     1       5.839   7.046   6.742  1.00  0.00     0.051 A 
BRANCH  74  75
ATOM     75  N   UNL     1       5.324   8.025   7.662  1.00  0.00    -0.261 N 
ATOM     76  C   UNL     1       5.316   9.379   7.322  1.00  0.00     0.270 C 
ATOM     77  C   UNL     1       4.845   7.760   8.940  1.00  0.00     0.152 C 
ATOM     78  O   UNL     1       6.080   9.978   6.583  1.00  0.00    -0.268 OA
ATOM     79  C   UNL     1       4.296  10.083   8.150  1.00  0.00     0.081 C 
ATOM     80  S   UNL     1       4.166   9.239   9.648  1.00  0.00    -0.054 SA
ATOM     81  S   UNL     1       4.913   6.363   9.862  1.00  0.00    -0.051 S 
ATOM     82  C   UNL     1       3.419  11.040   7.806  1.00  0.00     0.028 C 
BRANCH  82  83
ATOM     83  C   UNL     1       3.070  11.559   6.477  1.00  0.00    -0.009 C 
ATOM     84  C   UNL     1       3.892  11.537   5.409  1.00  0.00     0.019 C 
ATOM     85  C   UNL     1       1.630  11.213   6.111  1.00  0.00     0.265 C 
ATOM     86  C   UNL     1       3.720  10.268   4.641  1.00  0.00     0.017 A 
ATOM     87  O   UNL     1       1.545   9.839   5.677  1.00  0.00    -0.488 OA
ATOM     88  C   UNL     1       4.737   9.822   3.794  1.00  0.00     0.012 A 
ATOM     89  C   UNL     1       2.586   9.460   4.856  1.00  0.00     0.127 A 
ATOM     90  C   UNL     1       4.652   8.554   3.216  1.00  0.00     0.001 A 
ATOM     91  C   UNL     1       2.513   8.190   4.291  1.00  0.00     0.047 A 
ATOM     92  C   UNL     1       3.551   7.736   3.477  1.00  0.00     0.004 A 
ENDBRANCH  82  83
ENDBRANCH  74  75
ENDBRANCH  66  69
ENDBRANCH  64  65
ENDBRANCH  63  64
ENDBRANCH   1  63
TORSDOF 13
