REMARK SMILES COCC[NH2+]CC(=O)N1CCCCC[C@@H]1C(=O)NCCCCNC(=O)c1ccc(-c2c3nc(c(-c4c(F)cccc4F)c4ccc([nH]4)c(-c4c(F)cccc4F)c4nc(c(-c5c(F)cccc5F)c5ccc2[nH]5)C=C4)C=C3)cc1
REMARK SMILES IDX 16 1 17 2 18 3 15 5 9 6 7 7 8 8 6 9 5 10 4 13 3 14 2 15 1 16
REMARK SMILES IDX 10 17 11 18 14 20 13 21 12 22 19 24 20 25 21 26 22 27 23 28
REMARK SMILES IDX 24 29 25 31 26 32 27 33 79 34 28 35 78 36 29 37 30 38 31 39
REMARK SMILES IDX 72 40 32 41 77 42 71 43 73 44 33 45 76 46 70 47 69 48 34 50
REMARK SMILES IDX 60 51 43 52 59 53 44 54 47 55 58 56 74 57 45 58 46 59 57 61
REMARK SMILES IDX 75 62 48 63 35 64 36 65 41 66 37 67 38 68 40 69 42 70 39 71
REMARK SMILES IDX 61 72 62 73 67 74 63 75 64 76 66 77 68 78 65 79 49 80 50 81
REMARK SMILES IDX 55 82 51 83 52 84 54 85 56 86 53 87
REMARK H PARENT 18 4 5 11 5 12 23 30 73 49 47 60
REMARK Flexibility Score: 100.00
ROOT
ATOM      1  C   UNL     1      -1.656  -0.640  -1.358  1.00  0.00     0.242 C 
ATOM      2  O   UNL     1      -0.649  -0.020  -0.989  1.00  0.00    -0.273 OA
ATOM      3  N   UNL     1      -2.784  -0.231  -0.750  1.00  0.00    -0.354 N 
ATOM      4  H   UNL     1      -2.637   0.347   0.033  1.00  0.00     0.163 HD
ENDROOT
BRANCH   1   5
ATOM      5  C   UNL     1      -1.555  -1.637  -2.552  1.00  0.00     0.174 C 
BRANCH   5   6
ATOM      6  N   UNL     1      -1.703  -0.917  -3.819  1.00  0.00    -0.326 N 
BRANCH   6   7
ATOM      7  C   UNL     1      -0.803   0.100  -4.184  1.00  0.00     0.278 C 
ATOM      8  O   UNL     1      -1.219   1.112  -4.758  1.00  0.00    -0.268 OA
BRANCH   7   9
ATOM      9  C   UNL     1       0.715  -0.214  -4.166  1.00  0.00     0.362 C 
BRANCH   9  10
ATOM     10  N   UNL     1       1.385  -0.210  -2.855  1.00  0.00    -0.337 N 
ATOM     11  H   UNL     1       2.038   0.574  -2.821  1.00  0.00     0.346 HD
ATOM     12  H   UNL     1       0.669  -0.123  -2.135  1.00  0.00     0.346 HD
BRANCH  10  13
ATOM     13  C   UNL     1       2.126  -1.456  -2.614  1.00  0.00     0.289 C 
BRANCH  13  14
ATOM     14  C   UNL     1       2.762  -1.567  -1.216  1.00  0.00     0.221 C 
BRANCH  14  15
ATOM     15  O   UNL     1       1.804  -1.410  -0.168  1.00  0.00    -0.379 OA
ATOM     16  C   UNL     1       1.969  -0.169   0.514  1.00  0.00     0.195 C 
ENDBRANCH  14  15
ENDBRANCH  13  14
ENDBRANCH  10  13
ENDBRANCH   9  10
ENDBRANCH   7   9
ENDBRANCH   6   7
BRANCH   6  17
ATOM     17  C   UNL     1      -2.565  -1.407  -4.888  1.00  0.00     0.120 C 
BRANCH  17  18
ATOM     18  C   UNL     1      -4.012  -1.690  -4.526  1.00  0.00     0.022 CG0
ATOM     19  G   UNL     1      -4.238  -3.075  -3.931  1.00  0.00     0.000 G0
ENDBRANCH  17  18
ENDBRANCH   6  17
ENDBRANCH   5   6
BRANCH   5  20
ATOM     20  C   UNL     1      -2.108  -3.064  -2.427  1.00  0.00     0.035 C 
BRANCH  20  21
ATOM     21  C   UNL     1      -3.581  -3.401  -2.597  1.00  0.00     0.003 C 
BRANCH  21  22
ATOM     22  C   UNL     1      -4.238  -3.075  -3.931  1.00  0.00     0.002 CG0
ATOM     23  G   UNL     1      -4.012  -1.690  -4.526  1.00  0.00     0.000 G0
ENDBRANCH  21  22
ENDBRANCH  20  21
ENDBRANCH   5  20
ENDBRANCH   1   5
BRANCH   3  24
ATOM     24  C   UNL     1      -4.158  -0.490  -1.044  1.00  0.00     0.116 C 
BRANCH  24  25
ATOM     25  C   UNL     1      -4.820  -1.268   0.087  1.00  0.00     0.023 C 
BRANCH  25  26
ATOM     26  C   UNL     1      -4.984  -0.463   1.373  1.00  0.00     0.023 C 
BRANCH  26  27
ATOM     27  C   UNL     1      -5.603   0.912   1.175  1.00  0.00     0.116 C 
BRANCH  27  28
ATOM     28  N   UNL     1      -6.820   0.876   0.374  1.00  0.00    -0.352 N 
ATOM     29  C   UNL     1      -8.004   1.539   0.582  1.00  0.00     0.251 C 
ATOM     30  H   UNL     1      -6.788   0.300  -0.423  1.00  0.00     0.163 HD
ATOM     31  O   UNL     1      -8.978   1.331  -0.117  1.00  0.00    -0.269 OA
BRANCH  29  32
ATOM     32  C   UNL     1      -8.069   2.483   1.710  1.00  0.00     0.039 A 
ATOM     33  C   UNL     1      -9.062   2.307   2.672  1.00  0.00     0.014 A 
ATOM     34  C   UNL     1      -7.085   3.466   1.851  1.00  0.00     0.014 A 
ATOM     35  C   UNL     1      -9.033   3.091   3.822  1.00  0.00     0.010 A 
ATOM     36  C   UNL     1      -7.009   4.183   3.035  1.00  0.00     0.010 A 
ATOM     37  C   UNL     1      -7.989   4.008   4.024  1.00  0.00    -0.014 A 
BRANCH  37  38
ATOM     38  C   UNL     1      -7.924   4.827   5.255  1.00  0.00     0.031 A 
ATOM     39  C   UNL     1      -8.062   6.318   5.154  1.00  0.00     0.074 A 
ATOM     40  C   UNL     1      -7.691   4.234   6.441  1.00  0.00     0.049 A 
ATOM     41  N   UNL     1      -7.972   7.221   6.095  1.00  0.00    -0.248 NA
ATOM     42  C   UNL     1      -8.298   6.872   3.809  1.00  0.00     0.031 C 
ATOM     43  C   UNL     1      -7.479   2.799   6.647  1.00  0.00     0.029 A 
ATOM     44  N   UNL     1      -7.584   4.769   7.698  1.00  0.00    -0.354 N 
ATOM     45  C   UNL     1      -8.131   8.443   5.455  1.00  0.00     0.074 A 
ATOM     46  C   UNL     1      -8.252   8.174   4.041  1.00  0.00     0.031 C 
ATOM     47  C   UNL     1      -7.290   2.566   7.956  1.00  0.00     0.029 A 
ATOM     48  C   UNL     1      -7.340   3.835   8.675  1.00  0.00     0.049 A 
ATOM     49  H   UNL     1      -7.674   5.731   7.883  1.00  0.00     0.167 HD
ATOM     50  C   UNL     1      -8.206   9.678   6.003  1.00  0.00     0.037 A 
ATOM     51  C   UNL     1      -7.177   3.991  10.002  1.00  0.00     0.037 A 
ATOM     52  C   UNL     1      -8.115   9.935   7.414  1.00  0.00     0.049 A 
ATOM     53  C   UNL     1      -7.289   5.371  10.589  1.00  0.00     0.074 A 
ATOM     54  C   UNL     1      -8.210  11.143   8.080  1.00  0.00     0.029 A 
ATOM     55  N   UNL     1      -7.917   8.957   8.378  1.00  0.00    -0.354 N 
ATOM     56  N   UNL     1      -7.495   6.514   9.979  1.00  0.00    -0.248 NA
ATOM     57  C   UNL     1      -7.159   5.484  12.048  1.00  0.00     0.031 C 
ATOM     58  C   UNL     1      -8.047  10.899   9.448  1.00  0.00     0.029 A 
ATOM     59  C   UNL     1      -7.887   9.535   9.635  1.00  0.00     0.049 A 
ATOM     60  H   UNL     1      -7.814   7.996   8.195  1.00  0.00     0.167 HD
ATOM     61  C   UNL     1      -7.546   7.475  10.979  1.00  0.00     0.074 A 
ATOM     62  C   UNL     1      -7.365   6.779  12.237  1.00  0.00     0.031 C 
ATOM     63  C   UNL     1      -7.722   8.815  10.870  1.00  0.00     0.037 A 
BRANCH  50  64
ATOM     64  C   UNL     1      -8.422  10.831   5.070  1.00  0.00     0.057 A 
ATOM     65  C   UNL     1      -9.648  11.024   4.417  1.00  0.00     0.134 A 
ATOM     66  C   UNL     1      -7.409  11.766   4.832  1.00  0.00     0.134 A 
ATOM     67  F   UNL     1     -10.654  10.152   4.588  1.00  0.00    -0.206 F 
ATOM     68  C   UNL     1      -9.850  12.092   3.543  1.00  0.00     0.040 A 
ATOM     69  C   UNL     1      -7.607  12.854   3.979  1.00  0.00     0.040 A 
ATOM     70  F   UNL     1      -6.212  11.640   5.425  1.00  0.00    -0.206 F 
ATOM     71  C   UNL     1      -8.829  13.015   3.327  1.00  0.00     0.006 A 
ENDBRANCH  50  64
BRANCH  51  72
ATOM     72  C   UNL     1      -6.920   2.814  10.868  1.00  0.00     0.057 A 
ATOM     73  C   UNL     1      -7.890   2.348  11.762  1.00  0.00     0.134 A 
ATOM     74  C   UNL     1      -5.695   2.136  10.834  1.00  0.00     0.134 A 
ATOM     75  F   UNL     1      -9.078   2.965  11.851  1.00  0.00    -0.206 F 
ATOM     76  C   UNL     1      -7.644   1.267  12.611  1.00  0.00     0.040 A 
ATOM     77  C   UNL     1      -5.444   1.039  11.660  1.00  0.00     0.040 A 
ATOM     78  F   UNL     1      -4.728   2.526   9.991  1.00  0.00    -0.206 F 
ATOM     79  C   UNL     1      -6.418   0.608  12.559  1.00  0.00     0.006 A 
ENDBRANCH  51  72
BRANCH  63  80
ATOM     80  C   UNL     1      -7.763   9.604  12.143  1.00  0.00     0.057 A 
ATOM     81  C   UNL     1      -6.606   9.865  12.886  1.00  0.00     0.134 A 
ATOM     82  C   UNL     1      -8.969  10.146  12.604  1.00  0.00     0.134 A 
ATOM     83  F   UNL     1      -5.423   9.363  12.501  1.00  0.00    -0.206 F 
ATOM     84  C   UNL     1      -6.650  10.623  14.056  1.00  0.00     0.040 A 
ATOM     85  C   UNL     1      -9.022  10.925  13.760  1.00  0.00     0.040 A 
ATOM     86  F   UNL     1     -10.111   9.938  11.931  1.00  0.00    -0.206 F 
ATOM     87  C   UNL     1      -7.860  11.161  14.492  1.00  0.00     0.006 A 
ENDBRANCH  63  80
ENDBRANCH  37  38
ENDBRANCH  29  32
ENDBRANCH  27  28
ENDBRANCH  26  27
ENDBRANCH  25  26
ENDBRANCH  24  25
ENDBRANCH   3  24
TORSDOF 17
