REMARK SMILES Cc1ccc([C@H]2NC(=O)N(C)C3=C2C(=O)N(c2cccc(C(=O)NCCCCNC(=O)c4ccc(-c5c6nc(c(-c7c(F)cccc7F)c7ccc([nH]7)c(-c7c(F)cccc7F)c7nc(c(-c8c(F)cccc8F)c8ccc5[nH]8)C=C7)C=C6)cc4)c2)C3)cc1
REMARK SMILES IDX 26 1 25 2 24 3 22 4 23 5 21 7 17 8 18 9 86 10 19 11 20 12
REMARK SMILES IDX 16 13 6 14 7 15 13 16 8 17 12 19 14 20 9 21 10 22 87 23
REMARK SMILES IDX 15 24 11 25 5 26 1 27 2 28 3 29 89 30 4 31 88 32 27 33 28 34
REMARK SMILES IDX 29 35 30 36 31 38 32 39 33 40 85 41 34 42 84 43 35 44 36 45
REMARK SMILES IDX 37 46 78 47 38 48 83 49 77 50 79 51 39 52 82 53 76 54 75 55
REMARK SMILES IDX 40 57 66 58 49 59 65 60 50 61 53 62 64 63 80 64 51 65 52 66
REMARK SMILES IDX 63 68 81 69 54 70 41 71 42 72 47 73 43 74 44 75 46 76 48 77
REMARK SMILES IDX 45 78 67 79 68 80 73 81 69 82 70 83 72 84 74 85 71 86 55 87
REMARK SMILES IDX 56 88 61 89 57 90 58 91 60 92 62 93 59 94
REMARK H PARENT 24 6 7 18 29 37 79 56 53 67
REMARK Flexibility Score: inf
ROOT
ATOM      1  C   UNL     1      -5.834   2.189  10.623  1.00  0.00     0.023 C 
ENDROOT
BRANCH   1   2
ATOM      2  C   UNL     1      -5.778   0.764  10.069  1.00  0.00     0.116 C 
BRANCH   2   3
ATOM      3  N   UNL     1      -6.636   0.563   8.913  1.00  0.00    -0.352 N 
ATOM      4  C   UNL     1      -6.457   0.576   7.551  1.00  0.00     0.251 C 
ATOM      5  O   UNL     1      -7.477   0.440   6.870  1.00  0.00    -0.269 OA
ATOM      6  H   UNL     1      -7.568   0.371   9.166  1.00  0.00     0.163 HD
BRANCH   4   7
ATOM      7  C   UNL     1      -5.150   0.747   6.843  1.00  0.00     0.041 A 
ATOM      8  C   UNL     1      -4.030   1.076   4.692  1.00  0.00     0.045 A 
ATOM      9  C   UNL     1      -2.794   0.900   5.316  1.00  0.00     0.026 A 
ATOM     10  C   UNL     1      -5.200   1.053   5.464  1.00  0.00     0.040 A 
ATOM     11  C   UNL     1      -2.725   0.636   6.674  1.00  0.00     0.003 A 
ATOM     12  C   UNL     1      -3.898   0.505   7.413  1.00  0.00     0.014 A 
BRANCH   8  13
ATOM     13  N   UNL     1      -4.070   1.169   3.290  1.00  0.00    -0.303 N 
ATOM     14  C   UNL     1      -3.373  -0.062  -0.129  1.00  0.00     0.152 C 
ATOM     15  N   UNL     1      -3.732   0.774  -1.268  1.00  0.00    -0.327 N 
ATOM     16  C   UNL     1      -3.707   0.686   1.091  1.00  0.00     0.066 C 
ATOM     17  C   UNL     1      -4.574   1.853  -1.259  1.00  0.00     0.322 C 
ATOM     18  H   UNL     1      -3.327   0.538  -2.134  1.00  0.00     0.166 HD
ATOM     19  C   UNL     1      -4.545   1.719   1.151  1.00  0.00     0.053 C 
ATOM     20  C   UNL     1      -3.302   0.367   2.450  1.00  0.00     0.258 C 
ATOM     21  O   UNL     1      -4.871   2.386  -2.325  1.00  0.00    -0.248 OA
ATOM     22  N   UNL     1      -5.010   2.298  -0.009  1.00  0.00    -0.299 N 
ATOM     23  C   UNL     1      -4.918   2.074   2.553  1.00  0.00     0.180 C 
ATOM     24  O   UNL     1      -2.475  -0.492   2.724  1.00  0.00    -0.269 OA
ATOM     25  C   UNL     1      -5.889   3.453   0.058  1.00  0.00     0.155 C 
BRANCH  14  26
ATOM     26  C   UNL     1      -4.062  -1.425  -0.240  1.00  0.00    -0.021 A 
ATOM     27  C   UNL     1      -5.897  -5.342  -0.589  1.00  0.00     0.044 C 
ATOM     28  C   UNL     1      -5.268  -3.986  -0.471  1.00  0.00    -0.051 A 
ATOM     29  C   UNL     1      -4.298  -3.568  -1.388  1.00  0.00     0.004 A 
ATOM     30  C   UNL     1      -5.644  -3.117   0.552  1.00  0.00     0.004 A 
ATOM     31  C   UNL     1      -3.698  -2.307  -1.271  1.00  0.00     0.006 A 
ATOM     32  C   UNL     1      -5.057  -1.854   0.659  1.00  0.00     0.006 A 
ENDBRANCH  14  26
ENDBRANCH   8  13
ENDBRANCH   4   7
ENDBRANCH   2   3
ENDBRANCH   1   2
BRANCH   1  33
ATOM     33  C   UNL     1      -7.079   2.512  11.445  1.00  0.00     0.023 C 
BRANCH  33  34
ATOM     34  C   UNL     1      -7.263   1.651  12.685  1.00  0.00     0.116 C 
BRANCH  34  35
ATOM     35  N   UNL     1      -6.367   1.919  13.802  1.00  0.00    -0.352 N 
ATOM     36  C   UNL     1      -6.259   1.273  15.026  1.00  0.00     0.251 C 
ATOM     37  H   UNL     1      -5.746   2.671  13.669  1.00  0.00     0.163 HD
ATOM     38  O   UNL     1      -5.490   1.724  15.873  1.00  0.00    -0.269 OA
BRANCH  36  39
ATOM     39  C   UNL     1      -6.906  -0.050  15.257  1.00  0.00     0.039 A 
ATOM     40  C   UNL     1      -6.192  -0.991  16.015  1.00  0.00     0.014 A 
ATOM     41  C   UNL     1      -7.954  -0.474  14.457  1.00  0.00     0.014 A 
ATOM     42  C   UNL     1      -6.277  -2.335  15.675  1.00  0.00     0.010 A 
ATOM     43  C   UNL     1      -7.917  -1.757  13.985  1.00  0.00     0.010 A 
ATOM     44  C   UNL     1      -7.031  -2.664  14.557  1.00  0.00    -0.014 A 
BRANCH  44  45
ATOM     45  C   UNL     1      -7.051  -3.963  13.929  1.00  0.00     0.031 A 
ATOM     46  C   UNL     1      -8.083  -4.894  14.393  1.00  0.00     0.074 A 
ATOM     47  C   UNL     1      -6.250  -4.180  12.864  1.00  0.00     0.049 A 
ATOM     48  N   UNL     1      -7.961  -6.169  14.384  1.00  0.00    -0.248 NA
ATOM     49  C   UNL     1      -9.348  -4.439  14.969  1.00  0.00     0.031 C 
ATOM     50  C   UNL     1      -6.268  -5.291  11.922  1.00  0.00     0.029 A 
ATOM     51  N   UNL     1      -5.094  -3.464  12.526  1.00  0.00    -0.354 N 
ATOM     52  C   UNL     1      -9.214  -6.692  14.620  1.00  0.00     0.074 A 
ATOM     53  C   UNL     1     -10.008  -5.592  15.104  1.00  0.00     0.031 C 
ATOM     54  C   UNL     1      -5.057  -5.382  11.340  1.00  0.00     0.029 A 
ATOM     55  C   UNL     1      -4.193  -4.406  11.986  1.00  0.00     0.049 A 
ATOM     56  H   UNL     1      -4.942  -2.498  12.641  1.00  0.00     0.167 HD
ATOM     57  C   UNL     1      -9.475  -7.957  14.191  1.00  0.00     0.037 A 
ATOM     58  C   UNL     1      -3.042  -4.702  12.661  1.00  0.00     0.037 A 
ATOM     59  C   UNL     1      -8.286  -8.505  13.541  1.00  0.00     0.049 A 
ATOM     60  C   UNL     1      -3.037  -6.123  13.176  1.00  0.00     0.074 A 
ATOM     61  C   UNL     1      -7.899  -8.536  12.210  1.00  0.00     0.029 A 
ATOM     62  N   UNL     1      -7.135  -8.713  14.291  1.00  0.00    -0.354 N 
ATOM     63  N   UNL     1      -4.118  -6.818  13.410  1.00  0.00    -0.248 NA
ATOM     64  C   UNL     1      -1.818  -6.894  13.398  1.00  0.00     0.031 C 
ATOM     65  C   UNL     1      -6.493  -8.716  12.167  1.00  0.00     0.029 A 
ATOM     66  C   UNL     1      -6.029  -8.810  13.468  1.00  0.00     0.049 A 
ATOM     67  H   UNL     1      -7.111  -8.782  15.273  1.00  0.00     0.167 HD
ATOM     68  C   UNL     1      -3.774  -8.099  13.766  1.00  0.00     0.074 A 
ATOM     69  C   UNL     1      -2.323  -8.093  13.740  1.00  0.00     0.031 C 
ATOM     70  C   UNL     1      -4.709  -9.065  14.026  1.00  0.00     0.037 A 
BRANCH  57  71
ATOM     71  C   UNL     1     -10.856  -8.548  14.058  1.00  0.00     0.057 A 
ATOM     72  C   UNL     1     -11.130  -9.509  13.064  1.00  0.00     0.134 A 
ATOM     73  C   UNL     1     -11.962  -8.210  14.858  1.00  0.00     0.134 A 
ATOM     74  F   UNL     1     -10.170  -9.992  12.265  1.00  0.00    -0.206 F 
ATOM     75  C   UNL     1     -12.409 -10.030  12.834  1.00  0.00     0.040 A 
ATOM     76  C   UNL     1     -13.257  -8.693  14.613  1.00  0.00     0.040 A 
ATOM     77  F   UNL     1     -11.833  -7.440  15.946  1.00  0.00    -0.206 F 
ATOM     78  C   UNL     1     -13.486  -9.604  13.593  1.00  0.00     0.006 A 
ENDBRANCH  57  71
BRANCH  58  79
ATOM     79  C   UNL     1      -2.474  -3.494  13.332  1.00  0.00     0.057 A 
ATOM     80  C   UNL     1      -2.031  -2.450  12.493  1.00  0.00     0.134 A 
ATOM     81  C   UNL     1      -2.842  -3.142  14.634  1.00  0.00     0.134 A 
ATOM     82  F   UNL     1      -1.627  -2.721  11.241  1.00  0.00    -0.206 F 
ATOM     83  C   UNL     1      -2.146  -1.106  12.859  1.00  0.00     0.040 A 
ATOM     84  C   UNL     1      -2.933  -1.796  15.018  1.00  0.00     0.040 A 
ATOM     85  F   UNL     1      -3.263  -4.073  15.502  1.00  0.00    -0.206 F 
ATOM     86  C   UNL     1      -2.652  -0.775  14.110  1.00  0.00     0.006 A 
ENDBRANCH  58  79
BRANCH  70  87
ATOM     87  C   UNL     1      -4.476 -10.391  14.726  1.00  0.00     0.057 A 
ATOM     88  C   UNL     1      -3.365 -10.683  15.528  1.00  0.00     0.134 A 
ATOM     89  C   UNL     1      -5.481 -11.394  14.731  1.00  0.00     0.134 A 
ATOM     90  F   UNL     1      -2.390  -9.792  15.739  1.00  0.00    -0.206 F 
ATOM     91  C   UNL     1      -3.228 -11.897  16.216  1.00  0.00     0.040 A 
ATOM     92  C   UNL     1      -5.390 -12.571  15.478  1.00  0.00     0.040 A 
ATOM     93  F   UNL     1      -6.620 -11.274  14.035  1.00  0.00    -0.206 F 
ATOM     94  C   UNL     1      -4.247 -12.839  16.207  1.00  0.00     0.006 A 
ENDBRANCH  70  87
ENDBRANCH  44  45
ENDBRANCH  36  39
ENDBRANCH  34  35
ENDBRANCH  33  34
ENDBRANCH   1  33
TORSDOF 13
