REMARK SMILES O=C(NCCCCNC(=O)C1CCN(S(=O)(=O)c2ccc3nc(O)sc3c2)CC1)c1ccc(-c2c3nc(c(-c4c(F)cccc4F)c4ccc([nH]4)c(-c4c(F)cccc4F)c4nc(c(-c5c(F)cccc5F)c5ccc2[nH]5)C=C4)C=C3)cc1
REMARK SMILES IDX 6 1 5 2 4 3 3 4 1 5 2 6 30 8 31 9 83 10 32 11 82 12 33 13
REMARK SMILES IDX 34 14 35 15 76 16 36 17 81 18 75 19 77 20 37 21 80 22 74 23
REMARK SMILES IDX 73 24 38 26 64 27 47 28 63 29 48 30 51 31 62 32 78 33 49 34
REMARK SMILES IDX 50 35 61 37 79 38 52 39 39 40 40 41 45 42 41 43 42 44 44 45
REMARK SMILES IDX 46 46 43 47 65 48 66 49 71 50 67 51 68 52 70 53 72 54 69 55
REMARK SMILES IDX 53 56 54 57 59 58 55 59 56 60 58 61 60 62 57 63 7 64 8 65
REMARK SMILES IDX 9 66 10 68 11 69 12 70 29 71 13 72 28 73 14 74 15 75 16 76
REMARK SMILES IDX 17 77 18 78 19 79 27 80 20 81 26 82 21 83 25 84 22 85 23 86
REMARK SMILES IDX 24 87
REMARK H PARENT 3 7 77 25 51 36 8 67 24 88
REMARK Flexibility Score: inf
ROOT
ATOM      1  C   UNL     1       4.436   0.921  -3.274  1.00  0.00     0.023 C 
ENDROOT
BRANCH   1   2
ATOM      2  C   UNL     1       4.939   0.091  -2.078  1.00  0.00     0.023 C 
BRANCH   2   3
ATOM      3  C   UNL     1       4.424   0.531  -0.699  1.00  0.00     0.116 C 
BRANCH   3   4
ATOM      4  N   UNL     1       2.983   0.385  -0.622  1.00  0.00    -0.352 N 
ATOM      5  O   UNL     1       1.021  -0.408   0.056  1.00  0.00    -0.269 OA
ATOM      6  C   UNL     1       2.167  -0.086   0.368  1.00  0.00     0.251 C 
ATOM      7  H   UNL     1       2.505   0.680  -1.430  1.00  0.00     0.163 HD
BRANCH   6   8
ATOM      8  C   UNL     1       2.579  -0.198   1.787  1.00  0.00     0.039 A 
ATOM      9  C   UNL     1       1.932  -1.176   2.557  1.00  0.00     0.014 A 
ATOM     10  C   UNL     1       3.425   0.721   2.414  1.00  0.00     0.014 A 
ATOM     11  C   UNL     1       2.123  -1.236   3.936  1.00  0.00     0.010 A 
ATOM     12  C   UNL     1       3.623   0.655   3.800  1.00  0.00     0.010 A 
ATOM     13  C   UNL     1       2.972  -0.323   4.567  1.00  0.00    -0.014 A 
BRANCH  13  14
ATOM     14  C   UNL     1       3.213  -0.523   6.013  1.00  0.00     0.031 A 
ATOM     15  C   UNL     1       4.668  -0.561   6.380  1.00  0.00     0.074 A 
ATOM     16  C   UNL     1       2.339  -0.067   6.938  1.00  0.00     0.049 A 
ATOM     17  N   UNL     1       5.396   0.509   6.521  1.00  0.00    -0.248 NA
ATOM     18  C   UNL     1       5.452  -1.795   6.322  1.00  0.00     0.031 C 
ATOM     19  C   UNL     1       1.605   1.197   6.826  1.00  0.00     0.029 A 
ATOM     20  N   UNL     1       2.064  -0.505   8.217  1.00  0.00    -0.354 N 
ATOM     21  C   UNL     1       6.723   0.113   6.530  1.00  0.00     0.074 A 
ATOM     22  C   UNL     1       6.709  -1.327   6.409  1.00  0.00     0.031 C 
ATOM     23  C   UNL     1       1.099   1.512   8.035  1.00  0.00     0.029 A 
ATOM     24  C   UNL     1       1.362   0.427   8.984  1.00  0.00     0.049 A 
ATOM     25  H   UNL     1       2.336  -1.388   8.557  1.00  0.00     0.167 HD
ATOM     26  C   UNL     1       7.747   1.002   6.635  1.00  0.00     0.037 A 
ATOM     27  C   UNL     1       1.571   0.634  10.316  1.00  0.00     0.037 A 
ATOM     28  C   UNL     1       7.347   2.371   6.773  1.00  0.00     0.049 A 
ATOM     29  C   UNL     1       2.899   1.337  10.318  1.00  0.00     0.074 A 
ATOM     30  C   UNL     1       7.211   3.482   5.972  1.00  0.00     0.029 A 
ATOM     31  N   UNL     1       6.937   2.781   8.018  1.00  0.00    -0.354 N 
ATOM     32  N   UNL     1       3.081   2.600  10.042  1.00  0.00    -0.248 NA
ATOM     33  C   UNL     1       4.109   0.518  10.251  1.00  0.00     0.031 C 
ATOM     34  C   UNL     1       6.298   4.337   6.667  1.00  0.00     0.029 A 
ATOM     35  C   UNL     1       5.915   3.671   7.830  1.00  0.00     0.049 A 
ATOM     36  H   UNL     1       7.308   2.489   8.883  1.00  0.00     0.167 HD
ATOM     37  C   UNL     1       4.356   2.676   9.480  1.00  0.00     0.074 A 
ATOM     38  C   UNL     1       4.954   1.371   9.684  1.00  0.00     0.031 C 
ATOM     39  C   UNL     1       4.766   3.721   8.702  1.00  0.00     0.037 A 
BRANCH  26  40
ATOM     40  C   UNL     1       9.182   0.688   6.797  1.00  0.00     0.057 A 
ATOM     41  C   UNL     1      10.047   0.510   5.718  1.00  0.00     0.134 A 
ATOM     42  C   UNL     1       9.750   0.885   8.064  1.00  0.00     0.134 A 
ATOM     43  F   UNL     1       9.568   0.335   4.477  1.00  0.00    -0.206 F 
ATOM     44  C   UNL     1      11.435   0.583   5.890  1.00  0.00     0.040 A 
ATOM     45  C   UNL     1      11.127   0.978   8.246  1.00  0.00     0.040 A 
ATOM     46  F   UNL     1       8.958   1.070   9.135  1.00  0.00    -0.206 F 
ATOM     47  C   UNL     1      11.975   0.844   7.152  1.00  0.00     0.006 A 
ENDBRANCH  26  40
BRANCH  27  48
ATOM     48  C   UNL     1       1.185  -0.461  11.250  1.00  0.00     0.057 A 
ATOM     49  C   UNL     1       1.999  -1.062  12.219  1.00  0.00     0.134 A 
ATOM     50  C   UNL     1      -0.140  -0.935  11.192  1.00  0.00     0.134 A 
ATOM     51  F   UNL     1       3.237  -0.618  12.469  1.00  0.00    -0.206 F 
ATOM     52  C   UNL     1       1.568  -2.156  12.981  1.00  0.00     0.040 A 
ATOM     53  C   UNL     1      -0.593  -2.010  11.963  1.00  0.00     0.040 A 
ATOM     54  F   UNL     1      -1.034  -0.347  10.381  1.00  0.00    -0.206 F 
ATOM     55  C   UNL     1       0.274  -2.646  12.841  1.00  0.00     0.006 A 
ENDBRANCH  27  48
BRANCH  39  56
ATOM     56  C   UNL     1       3.787   4.837   8.576  1.00  0.00     0.057 A 
ATOM     57  C   UNL     1       3.112   5.090   7.372  1.00  0.00     0.134 A 
ATOM     58  C   UNL     1       3.506   5.669   9.662  1.00  0.00     0.134 A 
ATOM     59  F   UNL     1       3.311   4.319   6.291  1.00  0.00    -0.206 F 
ATOM     60  C   UNL     1       2.219   6.154   7.246  1.00  0.00     0.040 A 
ATOM     61  C   UNL     1       2.592   6.718   9.556  1.00  0.00     0.040 A 
ATOM     62  F   UNL     1       4.124   5.485  10.840  1.00  0.00    -0.206 F 
ATOM     63  C   UNL     1       1.954   6.970   8.342  1.00  0.00     0.006 A 
ENDBRANCH  39  56
ENDBRANCH  13  14
ENDBRANCH   6   8
ENDBRANCH   3   4
ENDBRANCH   2   3
ENDBRANCH   1   2
BRANCH   1  64
ATOM     64  C   UNL     1       4.890   2.380  -3.295  1.00  0.00     0.116 C 
BRANCH  64  65
ATOM     65  N   UNL     1       6.326   2.490  -3.475  1.00  0.00    -0.356 N 
ATOM     66  C   UNL     1       7.050   3.055  -4.481  1.00  0.00     0.223 C 
ATOM     67  H   UNL     1       6.864   2.092  -2.753  1.00  0.00     0.163 HD
ATOM     68  O   UNL     1       8.270   2.900  -4.460  1.00  0.00    -0.275 OA
BRANCH  66  69
ATOM     69  C   UNL     1       6.347   3.872  -5.565  1.00  0.00     0.081 C 
ATOM     70  C   UNL     1       7.259   4.160  -6.763  1.00  0.00     0.030 C 
ATOM     71  C   UNL     1       5.827   5.199  -5.014  1.00  0.00     0.030 C 
ATOM     72  C   UNL     1       8.357   5.181  -6.463  1.00  0.00     0.103 C 
ATOM     73  C   UNL     1       6.962   6.162  -4.677  1.00  0.00     0.103 C 
ATOM     74  N   UNL     1       7.801   6.450  -5.875  1.00  0.00    -0.198 NA
BRANCH  74  75
ATOM     75  S   UNL     1       9.104   7.561  -5.571  1.00  0.00     0.243 S 
ATOM     76  O   UNL     1       9.798   7.116  -4.383  1.00  0.00    -0.207 OA
ATOM     77  O   UNL     1       9.816   7.740  -6.823  1.00  0.00    -0.207 OA
BRANCH  75  78
ATOM     78  C   UNL     1       8.344   9.127  -5.172  1.00  0.00     0.084 A 
ATOM     79  C   UNL     1       7.802   9.320  -3.899  1.00  0.00     0.024 A 
ATOM     80  C   UNL     1       8.471  10.197  -6.071  1.00  0.00     0.043 A 
ATOM     81  C   UNL     1       7.310  10.573  -3.521  1.00  0.00     0.031 A 
ATOM     82  C   UNL     1       8.026  11.464  -5.650  1.00  0.00     0.059 A 
ATOM     83  C   UNL     1       7.439  11.669  -4.396  1.00  0.00     0.085 A 
ATOM     84  S   UNL     1       8.107  12.979  -6.473  1.00  0.00    -0.077 S 
ATOM     85  N   UNL     1       7.058  12.972  -4.120  1.00  0.00    -0.203 NA
ATOM     86  C   UNL     1       7.383  13.727  -5.133  1.00  0.00     0.271 A 
BRANCH  86  87
ATOM     87  O   UNL     1       7.144  15.023  -5.069  1.00  0.00    -0.486 OA
ATOM     88  H   UNL     1       6.742  15.388  -4.306  1.00  0.00     0.296 HD
ENDBRANCH  86  87
ENDBRANCH  75  78
ENDBRANCH  74  75
ENDBRANCH  66  69
ENDBRANCH  64  65
ENDBRANCH   1  64
TORSDOF 14
