REMARK SMILES CC1(C)[C@H](C(=O)NCCCCNC(=O)c2ccc(-c3c4nc(c(-c5c(F)cccc5F)c5ccc([nH]5)c(-c5c(F)cccc5F)c5nc(c(-c6c(F)cccc6F)c6ccc3[nH]6)C=C5)C=C4)cc2)[C@H]1C(=O)Nc1cccc2[nH]ccc12
REMARK SMILES IDX 9 1 8 2 7 3 5 4 6 5 4 7 1 8 2 9 3 10 69 11 70 12 71 13 72 14
REMARK SMILES IDX 73 16 74 17 81 18 75 19 77 20 80 21 76 22 78 23 79 24 10 26
REMARK SMILES IDX 11 27 12 28 13 29 14 31 15 32 16 33 68 34 17 35 67 36 18 37
REMARK SMILES IDX 19 38 20 39 61 40 21 41 66 42 60 43 62 44 22 45 65 46 59 47
REMARK SMILES IDX 58 48 23 50 49 51 32 52 48 53 33 54 36 55 47 56 63 57 34 58
REMARK SMILES IDX 35 59 46 61 64 62 37 63 24 64 25 65 30 66 26 67 27 68 29 69
REMARK SMILES IDX 31 70 28 71 50 72 51 73 56 74 52 75 53 76 55 77 57 78 54 79
REMARK SMILES IDX 38 80 39 81 44 82 40 83 41 84 43 85 45 86 42 87
REMARK H PARENT 7 6 72 15 78 25 12 30 62 49 36 60
REMARK Flexibility Score: inf
ROOT
ATOM      1  C   UNL     1      -0.387   3.930  -0.789  1.00  0.00     0.023 C 
ENDROOT
BRANCH   1   2
ATOM      2  C   UNL     1      -1.623   3.173  -0.307  1.00  0.00     0.116 C 
BRANCH   2   3
ATOM      3  N   UNL     1      -2.054   2.195  -1.269  1.00  0.00    -0.356 N 
ATOM      4  C   UNL     1      -1.771   0.874  -1.457  1.00  0.00     0.224 C 
ATOM      5  O   UNL     1      -2.377   0.337  -2.387  1.00  0.00    -0.275 OA
ATOM      6  H   UNL     1      -2.687   2.554  -1.931  1.00  0.00     0.163 HD
BRANCH   4   7
ATOM      7  C   UNL     1      -0.830   0.018  -0.684  1.00  0.00     0.098 C 
ATOM      8  C   UNL     1       1.615  -0.482  -0.349  1.00  0.00     0.013 C 
ATOM      9  C   UNL     1       0.443   0.347   0.111  1.00  0.00    -0.011 C 
ATOM     10  C   UNL     1       0.968   1.582   0.789  1.00  0.00     0.013 C 
ATOM     11  C   UNL     1      -0.842  -0.180   0.785  1.00  0.00     0.098 C 
BRANCH  11  12
ATOM     12  C   UNL     1      -0.852  -1.407   1.637  1.00  0.00     0.228 C 
ATOM     13  O   UNL     1      -0.735  -1.243   2.851  1.00  0.00    -0.274 OA
ATOM     14  N   UNL     1      -1.264  -2.632   1.173  1.00  0.00    -0.325 N 
ATOM     15  H   UNL     1      -1.919  -3.106   1.735  1.00  0.00     0.169 HD
BRANCH  14  16
ATOM     16  C   UNL     1      -0.871  -3.292   0.005  1.00  0.00     0.050 A 
ATOM     17  C   UNL     1      -1.872  -3.798  -0.830  1.00  0.00     0.027 A 
ATOM     18  C   UNL     1       0.478  -3.592  -0.293  1.00  0.00     0.023 A 
ATOM     19  C   UNL     1      -1.545  -4.414  -2.036  1.00  0.00     0.004 A 
ATOM     20  C   UNL     1       0.776  -4.153  -1.538  1.00  0.00     0.047 A 
ATOM     21  C   UNL     1       1.716  -3.519   0.415  1.00  0.00     0.030 A 
ATOM     22  C   UNL     1      -0.215  -4.550  -2.441  1.00  0.00     0.027 A 
ATOM     23  N   UNL     1       2.148  -4.198  -1.649  1.00  0.00    -0.361 N 
ATOM     24  C   UNL     1       2.727  -3.854  -0.457  1.00  0.00     0.083 A 
ATOM     25  H   UNL     1       2.640  -4.442  -2.466  1.00  0.00     0.166 HD
ENDBRANCH  14  16
ENDBRANCH  11  12
ENDBRANCH   4   7
ENDBRANCH   2   3
ENDBRANCH   1   2
BRANCH   1  26
ATOM     26  C   UNL     1      -0.663   5.142  -1.671  1.00  0.00     0.023 C 
BRANCH  26  27
ATOM     27  C   UNL     1      -1.533   6.219  -1.039  1.00  0.00     0.116 C 
BRANCH  27  28
ATOM     28  N   UNL     1      -1.060   6.685   0.259  1.00  0.00    -0.352 N 
ATOM     29  C   UNL     1      -1.111   7.963   0.768  1.00  0.00     0.251 C 
ATOM     30  H   UNL     1      -0.653   6.003   0.841  1.00  0.00     0.163 HD
ATOM     31  O   UNL     1      -0.613   8.235   1.855  1.00  0.00    -0.269 OA
BRANCH  29  32
ATOM     32  C   UNL     1      -1.734   9.014  -0.055  1.00  0.00     0.039 A 
ATOM     33  C   UNL     1      -0.975  10.131  -0.409  1.00  0.00     0.014 A 
ATOM     34  C   UNL     1      -3.011   8.815  -0.586  1.00  0.00     0.014 A 
ATOM     35  C   UNL     1      -1.457  10.998  -1.389  1.00  0.00     0.010 A 
ATOM     36  C   UNL     1      -3.451   9.633  -1.617  1.00  0.00     0.010 A 
ATOM     37  C   UNL     1      -2.668  10.718  -2.043  1.00  0.00    -0.014 A 
BRANCH  37  38
ATOM     38  C   UNL     1      -3.123  11.513  -3.209  1.00  0.00     0.031 A 
ATOM     39  C   UNL     1      -4.409  12.281  -3.135  1.00  0.00     0.074 A 
ATOM     40  C   UNL     1      -2.431  11.453  -4.364  1.00  0.00     0.049 A 
ATOM     41  N   UNL     1      -5.040  12.928  -4.080  1.00  0.00    -0.248 NA
ATOM     42  C   UNL     1      -5.093  12.296  -1.832  1.00  0.00     0.031 C 
ATOM     43  C   UNL     1      -1.192  10.700  -4.574  1.00  0.00     0.029 A 
ATOM     44  N   UNL     1      -2.682  12.022  -5.587  1.00  0.00    -0.354 N 
ATOM     45  C   UNL     1      -6.200  13.414  -3.491  1.00  0.00     0.074 A 
ATOM     46  C   UNL     1      -6.212  12.942  -2.123  1.00  0.00     0.031 C 
ATOM     47  C   UNL     1      -0.783  10.868  -5.841  1.00  0.00     0.029 A 
ATOM     48  C   UNL     1      -1.752  11.701  -6.546  1.00  0.00     0.049 A 
ATOM     49  H   UNL     1      -3.456  12.605  -5.761  1.00  0.00     0.167 HD
ATOM     50  C   UNL     1      -7.156  14.200  -4.037  1.00  0.00     0.037 A 
ATOM     51  C   UNL     1      -1.695  12.029  -7.851  1.00  0.00     0.037 A 
ATOM     52  C   UNL     1      -7.126  14.685  -5.390  1.00  0.00     0.049 A 
ATOM     53  C   UNL     1      -2.785  12.879  -8.441  1.00  0.00     0.074 A 
ATOM     54  C   UNL     1      -8.007  15.550  -6.015  1.00  0.00     0.029 A 
ATOM     55  N   UNL     1      -6.166  14.341  -6.330  1.00  0.00    -0.354 N 
ATOM     56  N   UNL     1      -3.840  13.392  -7.854  1.00  0.00    -0.248 NA
ATOM     57  C   UNL     1      -2.684  13.188  -9.874  1.00  0.00     0.031 C 
ATOM     58  C   UNL     1      -7.606  15.692  -7.348  1.00  0.00     0.029 A 
ATOM     59  C   UNL     1      -6.452  14.950  -7.540  1.00  0.00     0.049 A 
ATOM     60  H   UNL     1      -5.396  13.751  -6.162  1.00  0.00     0.167 HD
ATOM     61  C   UNL     1      -4.516  14.099  -8.839  1.00  0.00     0.074 A 
ATOM     62  C   UNL     1      -3.746  13.961 -10.058  1.00  0.00     0.031 C 
ATOM     63  C   UNL     1      -5.674  14.797  -8.743  1.00  0.00     0.037 A 
BRANCH  50  64
ATOM     64  C   UNL     1      -8.311  14.586  -3.162  1.00  0.00     0.057 A 
ATOM     65  C   UNL     1      -8.161  15.481  -2.093  1.00  0.00     0.134 A 
ATOM     66  C   UNL     1      -9.593  14.076  -3.402  1.00  0.00     0.134 A 
ATOM     67  F   UNL     1      -6.956  15.995  -1.802  1.00  0.00    -0.206 F 
ATOM     68  C   UNL     1      -9.238  15.832  -1.278  1.00  0.00     0.040 A 
ATOM     69  C   UNL     1     -10.683  14.440  -2.610  1.00  0.00     0.040 A 
ATOM     70  F   UNL     1      -9.807  13.218  -4.410  1.00  0.00    -0.206 F 
ATOM     71  C   UNL     1     -10.505  15.315  -1.540  1.00  0.00     0.006 A 
ENDBRANCH  50  64
BRANCH  51  72
ATOM     72  C   UNL     1      -0.563  11.558  -8.688  1.00  0.00     0.057 A 
ATOM     73  C   UNL     1       0.411  12.451  -9.147  1.00  0.00     0.134 A 
ATOM     74  C   UNL     1      -0.425  10.212  -9.047  1.00  0.00     0.134 A 
ATOM     75  F   UNL     1       0.322  13.757  -8.852  1.00  0.00    -0.206 F 
ATOM     76  C   UNL     1       1.475  12.027  -9.944  1.00  0.00     0.040 A 
ATOM     77  C   UNL     1       0.647   9.770  -9.825  1.00  0.00     0.040 A 
ATOM     78  F   UNL     1      -1.322   9.305  -8.634  1.00  0.00    -0.206 F 
ATOM     79  C   UNL     1       1.598  10.681 -10.281  1.00  0.00     0.006 A 
ENDBRANCH  51  72
BRANCH  63  80
ATOM     80  C   UNL     1      -6.171  15.475  -9.985  1.00  0.00     0.057 A 
ATOM     81  C   UNL     1      -6.758  14.752 -11.030  1.00  0.00     0.134 A 
ATOM     82  C   UNL     1      -6.115  16.869 -10.110  1.00  0.00     0.134 A 
ATOM     83  F   UNL     1      -6.828  13.414 -10.976  1.00  0.00    -0.206 F 
ATOM     84  C   UNL     1      -7.263  15.392 -12.163  1.00  0.00     0.040 A 
ATOM     85  C   UNL     1      -6.638  17.521 -11.227  1.00  0.00     0.040 A 
ATOM     86  F   UNL     1      -5.571  17.619  -9.140  1.00  0.00    -0.206 F 
ATOM     87  C   UNL     1      -7.212  16.781 -12.259  1.00  0.00     0.006 A 
ENDBRANCH  63  80
ENDBRANCH  37  38
ENDBRANCH  29  32
ENDBRANCH  27  28
ENDBRANCH  26  27
ENDBRANCH   1  26
TORSDOF 13
