REMARK SMILES CC(=O)Oc1ccccc1C(=O)NCCCCNC(=O)c1ccc(-c2c3nc(c(-c4c(F)cccc4F)c4ccc([nH]4)c(-c4c(F)cccc4F)c4nc(c(-c5c(F)cccc5F)c5ccc2[nH]5)C=C4)C=C3)cc1
REMARK SMILES IDX 15 1 14 2 13 3 11 4 12 5 10 7 5 8 6 9 7 10 9 11 8 12 4 13
REMARK SMILES IDX 2 14 1 15 3 16 16 17 17 18 18 19 19 20 20 22 21 23 22 24
REMARK SMILES IDX 74 25 23 26 73 27 24 28 25 29 26 30 67 31 27 32 72 33 66 34
REMARK SMILES IDX 68 35 28 36 71 37 65 38 64 39 29 41 55 42 38 43 54 44 39 45
REMARK SMILES IDX 42 46 53 47 69 48 40 49 41 50 52 52 70 53 43 54 30 55 31 56
REMARK SMILES IDX 36 57 32 58 33 59 35 60 37 61 34 62 56 63 57 64 62 65 58 66
REMARK SMILES IDX 59 67 61 68 63 69 60 70 44 71 45 72 50 73 46 74 47 75 49 76
REMARK SMILES IDX 51 77 48 78
REMARK H PARENT 13 6 18 21 68 40 42 51
REMARK Flexibility Score: inf
ROOT
ATOM      1  C   UNL     1      -0.555  -0.242  -2.162  1.00  0.00     0.023 C 
ENDROOT
BRANCH   1   2
ATOM      2  C   UNL     1      -0.300  -1.231  -1.035  1.00  0.00     0.116 C 
BRANCH   2   3
ATOM      3  N   UNL     1      -1.428  -1.524  -0.184  1.00  0.00    -0.352 N 
ATOM      4  C   UNL     1      -1.693  -2.638   0.581  1.00  0.00     0.255 C 
ATOM      5  O   UNL     1      -2.732  -2.627   1.245  1.00  0.00    -0.269 OA
ATOM      6  H   UNL     1      -2.114  -0.819  -0.145  1.00  0.00     0.163 HD
BRANCH   4   7
ATOM      7  C   UNL     1      -0.860  -3.878   0.573  1.00  0.00     0.082 A 
ATOM      8  C   UNL     1       0.537  -3.974   0.524  1.00  0.00     0.143 A 
ATOM      9  C   UNL     1       1.177  -5.221   0.447  1.00  0.00     0.048 A 
ATOM     10  C   UNL     1       0.432  -6.397   0.481  1.00  0.00     0.004 A 
ATOM     11  C   UNL     1      -1.588  -5.084   0.642  1.00  0.00     0.018 A 
ATOM     12  C   UNL     1      -0.952  -6.329   0.595  1.00  0.00     0.001 A 
BRANCH   8  13
ATOM     13  O   UNL     1       1.406  -2.878   0.450  1.00  0.00    -0.426 OA
BRANCH  13  14
ATOM     14  C   UNL     1       1.621  -2.169   1.625  1.00  0.00     0.308 C 
ATOM     15  C   UNL     1       2.575  -1.042   1.340  1.00  0.00     0.139 C 
ATOM     16  O   UNL     1       1.136  -2.411   2.722  1.00  0.00    -0.252 OA
ENDBRANCH  13  14
ENDBRANCH   8  13
ENDBRANCH   4   7
ENDBRANCH   2   3
ENDBRANCH   1   2
BRANCH   1  17
ATOM     17  C   UNL     1      -0.887   1.193  -1.755  1.00  0.00     0.023 C 
BRANCH  17  18
ATOM     18  C   UNL     1      -0.015   1.849  -0.686  1.00  0.00     0.116 C 
BRANCH  18  19
ATOM     19  N   UNL     1       1.408   1.897  -0.995  1.00  0.00    -0.352 N 
ATOM     20  C   UNL     1       2.292   2.952  -0.907  1.00  0.00     0.251 C 
ATOM     21  H   UNL     1       1.796   1.051  -1.314  1.00  0.00     0.163 HD
ATOM     22  O   UNL     1       3.472   2.790  -1.200  1.00  0.00    -0.269 OA
BRANCH  20  23
ATOM     23  C   UNL     1       1.804   4.299  -0.530  1.00  0.00     0.039 A 
ATOM     24  C   UNL     1       2.111   5.376  -1.367  1.00  0.00     0.014 A 
ATOM     25  C   UNL     1       0.989   4.490   0.587  1.00  0.00     0.014 A 
ATOM     26  C   UNL     1       1.496   6.613  -1.157  1.00  0.00     0.010 A 
ATOM     27  C   UNL     1       0.317   5.700   0.748  1.00  0.00     0.010 A 
ATOM     28  C   UNL     1       0.540   6.765  -0.139  1.00  0.00    -0.014 A 
BRANCH  28  29
ATOM     29  C   UNL     1      -0.276   8.003  -0.030  1.00  0.00     0.031 A 
ATOM     30  C   UNL     1      -0.198   8.867   1.196  1.00  0.00     0.074 A 
ATOM     31  C   UNL     1      -1.155   8.306  -1.007  1.00  0.00     0.049 A 
ATOM     32  N   UNL     1      -0.878   9.946   1.492  1.00  0.00    -0.248 NA
ATOM     33  C   UNL     1       0.750   8.449   2.239  1.00  0.00     0.031 C 
ATOM     34  C   UNL     1      -1.377   7.518  -2.222  1.00  0.00     0.029 A 
ATOM     35  N   UNL     1      -2.037   9.352  -1.129  1.00  0.00    -0.354 N 
ATOM     36  C   UNL     1      -0.451  10.327   2.757  1.00  0.00     0.074 A 
ATOM     37  C   UNL     1       0.507   9.334   3.194  1.00  0.00     0.031 C 
ATOM     38  C   UNL     1      -2.311   8.120  -2.975  1.00  0.00     0.029 A 
ATOM     39  C   UNL     1      -2.783   9.314  -2.283  1.00  0.00     0.049 A 
ATOM     40  H   UNL     1      -2.127  10.062  -0.453  1.00  0.00     0.167 HD
ATOM     41  C   UNL     1      -0.807  11.416   3.480  1.00  0.00     0.037 A 
ATOM     42  C   UNL     1      -3.743  10.145  -2.734  1.00  0.00     0.037 A 
ATOM     43  C   UNL     1      -1.748  12.412   3.038  1.00  0.00     0.049 A 
ATOM     44  C   UNL     1      -4.122  11.346  -1.913  1.00  0.00     0.074 A 
ATOM     45  C   UNL     1      -2.126  13.583   3.671  1.00  0.00     0.029 A 
ATOM     46  N   UNL     1      -2.467  12.350   1.853  1.00  0.00    -0.354 N 
ATOM     47  N   UNL     1      -3.650  11.737  -0.754  1.00  0.00    -0.248 NA
ATOM     48  C   UNL     1      -5.162  12.226  -2.466  1.00  0.00     0.031 C 
ATOM     49  C   UNL     1      -3.105  14.207   2.891  1.00  0.00     0.029 A 
ATOM     50  C   UNL     1      -3.302  13.450   1.748  1.00  0.00     0.049 A 
ATOM     51  H   UNL     1      -2.394  11.630   1.185  1.00  0.00     0.167 HD
ATOM     52  C   UNL     1      -4.314  12.919  -0.452  1.00  0.00     0.074 A 
ATOM     53  C   UNL     1      -5.212  13.188  -1.556  1.00  0.00     0.031 C 
ATOM     54  C   UNL     1      -4.189  13.710   0.642  1.00  0.00     0.037 A 
BRANCH  41  55
ATOM     55  C   UNL     1      -0.170  11.584   4.829  1.00  0.00     0.057 A 
ATOM     56  C   UNL     1       1.189  11.897   4.970  1.00  0.00     0.134 A 
ATOM     57  C   UNL     1      -0.926  11.452   6.000  1.00  0.00     0.134 A 
ATOM     58  F   UNL     1       1.972  12.027   3.889  1.00  0.00    -0.206 F 
ATOM     59  C   UNL     1       1.779  12.040   6.227  1.00  0.00     0.040 A 
ATOM     60  C   UNL     1      -0.353  11.621   7.262  1.00  0.00     0.040 A 
ATOM     61  F   UNL     1      -2.234  11.161   5.939  1.00  0.00    -0.206 F 
ATOM     62  C   UNL     1       1.006  11.907   7.378  1.00  0.00     0.006 A 
ENDBRANCH  41  55
BRANCH  42  63
ATOM     63  C   UNL     1      -4.396   9.885  -4.042  1.00  0.00     0.057 A 
ATOM     64  C   UNL     1      -4.151  10.710  -5.146  1.00  0.00     0.134 A 
ATOM     65  C   UNL     1      -5.280   8.814  -4.221  1.00  0.00     0.134 A 
ATOM     66  F   UNL     1      -3.329  11.763  -5.032  1.00  0.00    -0.206 F 
ATOM     67  C   UNL     1      -4.771  10.489  -6.377  1.00  0.00     0.040 A 
ATOM     68  C   UNL     1      -5.889   8.567  -5.453  1.00  0.00     0.040 A 
ATOM     69  F   UNL     1      -5.552   7.983  -3.204  1.00  0.00    -0.206 F 
ATOM     70  C   UNL     1      -5.640   9.411  -6.534  1.00  0.00     0.006 A 
ENDBRANCH  42  63
BRANCH  54  71
ATOM     71  C   UNL     1      -5.019  14.959   0.685  1.00  0.00     0.057 A 
ATOM     72  C   UNL     1      -6.402  14.922   0.901  1.00  0.00     0.134 A 
ATOM     73  C   UNL     1      -4.419  16.218   0.550  1.00  0.00     0.134 A 
ATOM     74  F   UNL     1      -7.040  13.748   1.024  1.00  0.00    -0.206 F 
ATOM     75  C   UNL     1      -7.162  16.092   0.959  1.00  0.00     0.040 A 
ATOM     76  C   UNL     1      -5.164  17.395   0.634  1.00  0.00     0.040 A 
ATOM     77  F   UNL     1      -3.097  16.324   0.350  1.00  0.00    -0.206 F 
ATOM     78  C   UNL     1      -6.541  17.333   0.833  1.00  0.00     0.006 A 
ENDBRANCH  54  71
ENDBRANCH  28  29
ENDBRANCH  20  23
ENDBRANCH  18  19
ENDBRANCH  17  18
ENDBRANCH   1  17
TORSDOF 13
