REMARK SMILES CCN(C(=O)Cc1c(C(=O)NCCCCNC(=O)c2ccc(-c3c4nc(c(-c5c(F)cccc5F)c5ccc([nH]5)c(-c5c(F)cccc5F)c5nc(c(-c6c(F)cccc6F)c6ccc3[nH]6)C=C5)C=C4)cc2)[nH]c2ccc(Cl)cc12)c1ccc(C)c(C)c1
REMARK SMILES IDX 12 1 11 2 9 3 10 4 8 6 7 7 80 8 73 9 74 10 79 11 75 13 77 14
REMARK SMILES IDX 76 15 78 16 6 17 4 18 5 19 3 20 2 21 1 22 81 23 82 24 88 25
REMARK SMILES IDX 83 26 86 27 84 28 87 29 85 30 13 31 14 32 15 33 16 34 17 35
REMARK SMILES IDX 18 37 19 38 20 39 72 40 21 41 71 42 22 43 23 44 24 45 65 46
REMARK SMILES IDX 25 47 70 48 64 49 66 50 26 51 69 52 63 53 62 54 27 56 53 57
REMARK SMILES IDX 36 58 52 59 37 60 40 61 51 62 67 63 38 64 39 65 50 67 68 68
REMARK SMILES IDX 41 69 28 70 29 71 34 72 30 73 31 74 33 75 35 76 32 77 54 78
REMARK SMILES IDX 55 79 60 80 56 81 57 82 59 83 61 84 58 85 42 86 43 87 48 88
REMARK SMILES IDX 44 89 45 90 47 91 49 92 46 93
REMARK H PARENT 11 5 73 12 16 36 66 55 40 66
REMARK Flexibility Score: inf
ROOT
ATOM      1  C   UNL     1      -1.257  -0.158   5.167  1.00  0.00     0.116 C 
ENDROOT
BRANCH   1   2
ATOM      2  N   UNL     1      -0.846   1.159   4.732  1.00  0.00    -0.351 N 
ATOM      3  C   UNL     1      -1.143   1.895   3.611  1.00  0.00     0.268 C 
ATOM      4  O   UNL     1      -0.883   3.101   3.677  1.00  0.00    -0.268 OA
ATOM      5  H   UNL     1      -0.238   1.614   5.359  1.00  0.00     0.163 HD
BRANCH   3   6
ATOM      6  C   UNL     1      -1.799   1.355   2.425  1.00  0.00     0.109 A 
ATOM      7  C   UNL     1      -1.790   0.142   1.731  1.00  0.00    -0.000 A 
ATOM      8  C   UNL     1      -2.660   0.270   0.600  1.00  0.00     0.005 A 
ATOM      9  N   UNL     1      -2.445   2.243   1.576  1.00  0.00    -0.350 N 
ATOM     10  C   UNL     1      -2.932   1.622   0.454  1.00  0.00     0.046 A 
ATOM     11  C   UNL     1      -3.116  -0.630  -0.386  1.00  0.00     0.031 A 
ATOM     12  H   UNL     1      -2.543   3.205   1.759  1.00  0.00     0.167 HD
ATOM     13  C   UNL     1      -3.551   2.147  -0.686  1.00  0.00     0.028 A 
ATOM     14  C   UNL     1      -3.771  -0.127  -1.509  1.00  0.00     0.041 A 
ATOM     15  C   UNL     1      -3.958   1.242  -1.675  1.00  0.00     0.022 A 
ATOM     16  Cl  UNL     1      -4.315  -1.222  -2.722  1.00  0.00    -0.084 Cl
BRANCH   7  17
ATOM     17  C   UNL     1      -0.917  -1.053   1.915  1.00  0.00     0.139 C 
BRANCH  17  18
ATOM     18  C   UNL     1       0.560  -0.652   1.864  1.00  0.00     0.231 C 
ATOM     19  O   UNL     1       0.995   0.311   2.504  1.00  0.00    -0.274 OA
BRANCH  18  20
ATOM     20  N   UNL     1       1.416  -1.458   1.115  1.00  0.00    -0.312 N 
BRANCH  20  21
ATOM     21  C   UNL     1       1.104  -1.744  -0.282  1.00  0.00     0.122 C 
ATOM     22  C   UNL     1       0.944  -0.489  -1.137  1.00  0.00     0.028 C 
ENDBRANCH  20  21
BRANCH  20  23
ATOM     23  C   UNL     1       2.774  -1.443   1.532  1.00  0.00     0.044 A 
ATOM     24  C   UNL     1       3.140  -2.216   2.636  1.00  0.00     0.026 A 
ATOM     25  C   UNL     1       3.668  -0.499   1.027  1.00  0.00     0.030 A 
ATOM     26  C   UNL     1       4.405  -2.069   3.205  1.00  0.00     0.006 A 
ATOM     27  C   UNL     1       4.926  -0.306   1.621  1.00  0.00    -0.046 A 
ATOM     28  C   UNL     1       5.313  -1.120   2.704  1.00  0.00    -0.048 A 
ATOM     29  C   UNL     1       5.793   0.809   1.108  1.00  0.00     0.044 C 
ATOM     30  C   UNL     1       6.628  -0.957   3.415  1.00  0.00     0.044 C 
ENDBRANCH  20  23
ENDBRANCH  18  20
ENDBRANCH  17  18
ENDBRANCH   7  17
ENDBRANCH   3   6
ENDBRANCH   1   2
BRANCH   1  31
ATOM     31  C   UNL     1      -0.143  -1.202   5.074  1.00  0.00     0.023 C 
BRANCH  31  32
ATOM     32  C   UNL     1       0.902  -1.212   6.171  1.00  0.00     0.023 C 
BRANCH  32  33
ATOM     33  C   UNL     1       0.409  -1.833   7.457  1.00  0.00     0.116 C 
BRANCH  33  34
ATOM     34  N   UNL     1      -0.059  -3.208   7.305  1.00  0.00    -0.352 N 
ATOM     35  C   UNL     1       0.053  -4.257   8.189  1.00  0.00     0.251 C 
ATOM     36  H   UNL     1      -0.515  -3.412   6.457  1.00  0.00     0.163 HD
ATOM     37  O   UNL     1      -0.322  -5.377   7.888  1.00  0.00    -0.269 OA
BRANCH  35  38
ATOM     38  C   UNL     1       0.689  -3.998   9.495  1.00  0.00     0.039 A 
ATOM     39  C   UNL     1       1.688  -4.861   9.946  1.00  0.00     0.014 A 
ATOM     40  C   UNL     1       0.365  -2.844  10.209  1.00  0.00     0.014 A 
ATOM     41  C   UNL     1       2.414  -4.520  11.085  1.00  0.00     0.010 A 
ATOM     42  C   UNL     1       1.177  -2.440  11.253  1.00  0.00     0.010 A 
ATOM     43  C   UNL     1       2.189  -3.288  11.721  1.00  0.00    -0.014 A 
BRANCH  43  44
ATOM     44  C   UNL     1       2.954  -2.882  12.921  1.00  0.00     0.031 A 
ATOM     45  C   UNL     1       2.215  -2.624  14.206  1.00  0.00     0.074 A 
ATOM     46  C   UNL     1       4.281  -2.676  12.836  1.00  0.00     0.049 A 
ATOM     47  N   UNL     1       2.670  -2.180  15.348  1.00  0.00    -0.248 NA
ATOM     48  C   UNL     1       0.757  -2.845  14.191  1.00  0.00     0.031 C 
ATOM     49  C   UNL     1       5.090  -2.818  11.622  1.00  0.00     0.029 A 
ATOM     50  N   UNL     1       5.185  -2.297  13.793  1.00  0.00    -0.354 N 
ATOM     51  C   UNL     1       1.556  -2.041  16.165  1.00  0.00     0.074 A 
ATOM     52  C   UNL     1       0.396  -2.368  15.370  1.00  0.00     0.031 C 
ATOM     53  C   UNL     1       6.376  -2.572  11.920  1.00  0.00     0.029 A 
ATOM     54  C   UNL     1       6.477  -2.224  13.333  1.00  0.00     0.049 A 
ATOM     55  H   UNL     1       4.933  -2.096  14.724  1.00  0.00     0.167 HD
ATOM     56  C   UNL     1       1.505  -1.710  17.476  1.00  0.00     0.037 A 
ATOM     57  C   UNL     1       7.612  -1.920  13.988  1.00  0.00     0.037 A 
ATOM     58  C   UNL     1       2.670  -1.448  18.274  1.00  0.00     0.049 A 
ATOM     59  C   UNL     1       7.539  -1.610  15.458  1.00  0.00     0.074 A 
ATOM     60  C   UNL     1       2.747  -1.179  19.628  1.00  0.00     0.029 A 
ATOM     61  N   UNL     1       3.968  -1.438  17.785  1.00  0.00    -0.354 N 
ATOM     62  N   UNL     1       6.487  -1.554  16.239  1.00  0.00    -0.248 NA
ATOM     63  C   UNL     1       8.810  -1.335  16.140  1.00  0.00     0.031 C 
ATOM     64  C   UNL     1       4.093  -0.978  19.953  1.00  0.00     0.029 A 
ATOM     65  C   UNL     1       4.855  -1.161  18.809  1.00  0.00     0.049 A 
ATOM     66  H   UNL     1       4.220  -1.604  16.848  1.00  0.00     0.167 HD
ATOM     67  C   UNL     1       6.970  -1.266  17.508  1.00  0.00     0.074 A 
ATOM     68  C   UNL     1       8.412  -1.174  17.394  1.00  0.00     0.031 C 
ATOM     69  C   UNL     1       6.286  -1.090  18.666  1.00  0.00     0.037 A 
BRANCH  56  70
ATOM     70  C   UNL     1       0.150  -1.642  18.117  1.00  0.00     0.057 A 
ATOM     71  C   UNL     1      -0.628  -2.790  18.327  1.00  0.00     0.134 A 
ATOM     72  C   UNL     1      -0.387  -0.416  18.527  1.00  0.00     0.134 A 
ATOM     73  F   UNL     1      -0.181  -3.994  17.938  1.00  0.00    -0.206 F 
ATOM     74  C   UNL     1      -1.903  -2.717  18.889  1.00  0.00     0.040 A 
ATOM     75  C   UNL     1      -1.649  -0.334  19.119  1.00  0.00     0.040 A 
ATOM     76  F   UNL     1       0.303   0.722  18.357  1.00  0.00    -0.206 F 
ATOM     77  C   UNL     1      -2.414  -1.485  19.293  1.00  0.00     0.006 A 
ENDBRANCH  56  70
BRANCH  57  78
ATOM     78  C   UNL     1       8.915  -1.948  13.277  1.00  0.00     0.057 A 
ATOM     79  C   UNL     1       9.852  -2.956  13.534  1.00  0.00     0.134 A 
ATOM     80  C   UNL     1       9.256  -0.977  12.329  1.00  0.00     0.134 A 
ATOM     81  F   UNL     1       9.588  -3.907  14.441  1.00  0.00    -0.206 F 
ATOM     82  C   UNL     1      11.091  -2.985  12.891  1.00  0.00     0.040 A 
ATOM     83  C   UNL     1      10.483  -1.007  11.661  1.00  0.00     0.040 A 
ATOM     84  F   UNL     1       8.398   0.008  12.028  1.00  0.00    -0.206 F 
ATOM     85  C   UNL     1      11.407  -2.009  11.948  1.00  0.00     0.006 A 
ENDBRANCH  57  78
BRANCH  69  86
ATOM     86  C   UNL     1       7.093  -0.820  19.899  1.00  0.00     0.057 A 
ATOM     87  C   UNL     1       7.714   0.415  20.119  1.00  0.00     0.134 A 
ATOM     88  C   UNL     1       7.211  -1.795  20.897  1.00  0.00     0.134 A 
ATOM     89  F   UNL     1       7.645   1.385  19.194  1.00  0.00    -0.206 F 
ATOM     90  C   UNL     1       8.446   0.663  21.280  1.00  0.00     0.040 A 
ATOM     91  C   UNL     1       7.918  -1.550  22.074  1.00  0.00     0.040 A 
ATOM     92  F   UNL     1       6.630  -2.995  20.751  1.00  0.00    -0.206 F 
ATOM     93  C   UNL     1       8.543  -0.319  22.265  1.00  0.00     0.006 A 
ENDBRANCH  69  86
ENDBRANCH  43  44
ENDBRANCH  35  38
ENDBRANCH  33  34
ENDBRANCH  32  33
ENDBRANCH  31  32
ENDBRANCH   1  31
TORSDOF 16
