REMARK SMILES Nc1nc(SCc2c(C(=O)NCCCCNC(=O)c3ccc(-c4c5nc(c(-c6c(F)cccc6F)c6ccc([nH]6)c(-c6c(F)cccc6F)c6nc(c(-c7c(F)cccc7F)c7ccc4[nH]7)C=C6)C=C5)cc3)sc3cccc(F)c23)n[nH]1
REMARK SMILES IDX 12 1 11 2 9 3 10 4 8 6 7 7 80 8 73 9 74 10 78 11 75 12 77 13
REMARK SMILES IDX 79 14 76 15 6 16 5 17 4 18 2 19 3 20 82 21 81 22 1 24 13 27
REMARK SMILES IDX 14 28 15 29 16 30 17 31 18 33 19 34 20 35 72 36 21 37 71 38
REMARK SMILES IDX 22 39 23 40 24 41 65 42 25 43 70 44 64 45 66 46 26 47 69 48
REMARK SMILES IDX 63 49 62 50 27 52 53 53 36 54 52 55 37 56 40 57 51 58 67 59
REMARK SMILES IDX 38 60 39 61 50 63 68 64 41 65 28 66 29 67 34 68 30 69 31 70
REMARK SMILES IDX 33 71 35 72 32 73 54 74 55 75 60 76 56 77 57 78 59 79 61 80
REMARK SMILES IDX 58 81 42 82 43 83 48 84 44 85 45 86 47 87 49 88 46 89
REMARK H PARENT 11 5 82 23 1 25 1 26 16 32 66 51 40 62
REMARK Flexibility Score: inf
ROOT
ATOM      1  C   UNL     1       0.585   2.691   1.197  1.00  0.00     0.116 C 
ENDROOT
BRANCH   1   2
ATOM      2  N   UNL     1      -0.378   2.016   0.343  1.00  0.00    -0.351 N 
ATOM      3  C   UNL     1      -0.552   1.985  -1.026  1.00  0.00     0.261 C 
ATOM      4  O   UNL     1      -1.401   1.193  -1.452  1.00  0.00    -0.268 OA
ATOM      5  H   UNL     1      -1.034   1.475   0.838  1.00  0.00     0.163 HD
BRANCH   3   6
ATOM      6  C   UNL     1       0.157   2.909  -1.876  1.00  0.00     0.097 A 
ATOM      7  C   UNL     1       1.435   3.448  -1.887  1.00  0.00    -0.003 A 
ATOM      8  C   UNL     1       1.226   4.854  -2.262  1.00  0.00     0.033 A 
ATOM      9  S   UNL     1      -0.647   3.467  -3.299  1.00  0.00    -0.130 S 
ATOM     10  C   UNL     1       0.139   4.982  -3.135  1.00  0.00     0.038 A 
ATOM     11  C   UNL     1       1.873   6.060  -1.897  1.00  0.00     0.132 A 
ATOM     12  C   UNL     1      -0.241   6.203  -3.724  1.00  0.00     0.020 A 
ATOM     13  C   UNL     1       1.413   7.302  -2.358  1.00  0.00     0.040 A 
ATOM     14  F   UNL     1       2.855   6.042  -0.983  1.00  0.00    -0.206 F 
ATOM     15  C   UNL     1       0.382   7.370  -3.286  1.00  0.00     0.005 A 
BRANCH   7  16
ATOM     16  C   UNL     1       2.710   2.865  -1.327  1.00  0.00     0.116 C 
BRANCH  16  17
ATOM     17  S   UNL     1       3.176   1.165  -1.767  1.00  0.00    -0.080 SA
BRANCH  17  18
ATOM     18  C   UNL     1       2.069  -0.049  -1.175  1.00  0.00     0.210 A 
ATOM     19  C   UNL     1       0.471  -1.040  -0.207  1.00  0.00     0.216 A 
ATOM     20  N   UNL     1       1.250   0.013  -0.080  1.00  0.00    -0.186 NA
ATOM     21  N   UNL     1       0.987  -1.831  -1.190  1.00  0.00    -0.245 N 
ATOM     22  N   UNL     1       2.015  -1.230  -1.809  1.00  0.00    -0.145 NA
ATOM     23  H   UNL     1       0.649  -2.727  -1.416  1.00  0.00     0.193 HD
BRANCH  19  24
ATOM     24  N   UNL     1      -0.694  -1.336   0.396  1.00  0.00    -0.368 N 
ATOM     25  H   UNL     1      -1.045  -0.749   1.103  1.00  0.00     0.159 HD
ATOM     26  H   UNL     1      -1.195  -2.141   0.130  1.00  0.00     0.159 HD
ENDBRANCH  19  24
ENDBRANCH  17  18
ENDBRANCH  16  17
ENDBRANCH   7  16
ENDBRANCH   3   6
ENDBRANCH   1   2
BRANCH   1  27
ATOM     27  C   UNL     1       0.489   2.305   2.682  1.00  0.00     0.023 C 
BRANCH  27  28
ATOM     28  C   UNL     1       1.014   0.907   3.073  1.00  0.00     0.023 C 
BRANCH  28  29
ATOM     29  C   UNL     1       2.495   0.620   2.806  1.00  0.00     0.116 C 
BRANCH  29  30
ATOM     30  N   UNL     1       3.386   1.149   3.828  1.00  0.00    -0.352 N 
ATOM     31  C   UNL     1       4.615   0.694   4.244  1.00  0.00     0.251 C 
ATOM     32  H   UNL     1       3.059   1.954   4.292  1.00  0.00     0.163 HD
ATOM     33  O   UNL     1       5.103   1.173   5.274  1.00  0.00    -0.269 OA
BRANCH  31  34
ATOM     34  C   UNL     1       5.391  -0.326   3.491  1.00  0.00     0.039 A 
ATOM     35  C   UNL     1       6.368  -1.071   4.172  1.00  0.00     0.014 A 
ATOM     36  C   UNL     1       5.257  -0.482   2.107  1.00  0.00     0.014 A 
ATOM     37  C   UNL     1       7.199  -1.940   3.467  1.00  0.00     0.010 A 
ATOM     38  C   UNL     1       6.046  -1.381   1.411  1.00  0.00     0.010 A 
ATOM     39  C   UNL     1       7.046  -2.072   2.080  1.00  0.00    -0.014 A 
BRANCH  39  40
ATOM     40  C   UNL     1       7.892  -2.999   1.342  1.00  0.00     0.031 A 
ATOM     41  C   UNL     1       7.694  -4.430   1.685  1.00  0.00     0.074 A 
ATOM     42  C   UNL     1       8.691  -2.642   0.317  1.00  0.00     0.049 A 
ATOM     43  N   UNL     1       8.489  -5.193   2.358  1.00  0.00    -0.248 NA
ATOM     44  C   UNL     1       6.411  -5.058   1.341  1.00  0.00     0.031 C 
ATOM     45  C   UNL     1       8.785  -1.355  -0.377  1.00  0.00     0.029 A 
ATOM     46  N   UNL     1       9.570  -3.422  -0.371  1.00  0.00    -0.354 N 
ATOM     47  C   UNL     1       7.899  -6.455   2.373  1.00  0.00     0.074 A 
ATOM     48  C   UNL     1       6.560  -6.273   1.875  1.00  0.00     0.031 C 
ATOM     49  C   UNL     1       9.521  -1.504  -1.504  1.00  0.00     0.029 A 
ATOM     50  C   UNL     1      10.077  -2.847  -1.529  1.00  0.00     0.049 A 
ATOM     51  H   UNL     1       9.827  -4.324  -0.071  1.00  0.00     0.167 HD
ATOM     52  C   UNL     1       8.644  -7.574   2.598  1.00  0.00     0.037 A 
ATOM     53  C   UNL     1      10.876  -3.451  -2.445  1.00  0.00     0.037 A 
ATOM     54  C   UNL     1       9.944  -7.232   3.124  1.00  0.00     0.049 A 
ATOM     55  C   UNL     1      11.515  -4.615  -1.781  1.00  0.00     0.074 A 
ATOM     56  C   UNL     1      10.405  -6.586   4.255  1.00  0.00     0.029 A 
ATOM     57  N   UNL     1      11.005  -7.247   2.250  1.00  0.00    -0.354 N 
ATOM     58  N   UNL     1      12.412  -4.510  -0.842  1.00  0.00    -0.248 NA
ATOM     59  C   UNL     1      10.823  -5.894  -1.842  1.00  0.00     0.031 C 
ATOM     60  C   UNL     1      11.522  -5.817   3.808  1.00  0.00     0.029 A 
ATOM     61  C   UNL     1      11.711  -6.091   2.453  1.00  0.00     0.049 A 
ATOM     62  H   UNL     1      11.217  -7.955   1.601  1.00  0.00     0.167 HD
ATOM     63  C   UNL     1      12.088  -5.505   0.067  1.00  0.00     0.074 A 
ATOM     64  C   UNL     1      11.161  -6.383  -0.645  1.00  0.00     0.031 C 
ATOM     65  C   UNL     1      12.376  -5.369   1.395  1.00  0.00     0.037 A 
BRANCH  52  66
ATOM     66  C   UNL     1       8.382  -8.936   1.994  1.00  0.00     0.057 A 
ATOM     67  C   UNL     1       7.599  -9.162   0.847  1.00  0.00     0.134 A 
ATOM     68  C   UNL     1       9.209 -10.013   2.373  1.00  0.00     0.134 A 
ATOM     69  F   UNL     1       6.784  -8.234   0.335  1.00  0.00    -0.206 F 
ATOM     70  C   UNL     1       7.688 -10.335   0.091  1.00  0.00     0.040 A 
ATOM     71  C   UNL     1       9.342 -11.169   1.596  1.00  0.00     0.040 A 
ATOM     72  F   UNL     1       9.989  -9.935   3.463  1.00  0.00    -0.206 F 
ATOM     73  C   UNL     1       8.594 -11.325   0.438  1.00  0.00     0.006 A 
ENDBRANCH  52  66
BRANCH  53  74
ATOM     74  C   UNL     1      10.920  -3.271  -3.913  1.00  0.00     0.057 A 
ATOM     75  C   UNL     1       9.767  -2.917  -4.634  1.00  0.00     0.134 A 
ATOM     76  C   UNL     1      12.006  -3.729  -4.674  1.00  0.00     0.134 A 
ATOM     77  F   UNL     1       8.648  -2.534  -4.001  1.00  0.00    -0.206 F 
ATOM     78  C   UNL     1       9.687  -3.037  -6.026  1.00  0.00     0.040 A 
ATOM     79  C   UNL     1      11.938  -3.856  -6.069  1.00  0.00     0.040 A 
ATOM     80  F   UNL     1      13.137  -4.129  -4.075  1.00  0.00    -0.206 F 
ATOM     81  C   UNL     1      10.770  -3.523  -6.747  1.00  0.00     0.006 A 
ENDBRANCH  53  74
BRANCH  65  82
ATOM     82  C   UNL     1      13.270  -4.230   1.802  1.00  0.00     0.057 A 
ATOM     83  C   UNL     1      14.442  -4.515   2.509  1.00  0.00     0.134 A 
ATOM     84  C   UNL     1      12.948  -2.875   1.629  1.00  0.00     0.134 A 
ATOM     85  F   UNL     1      14.785  -5.787   2.765  1.00  0.00    -0.206 F 
ATOM     86  C   UNL     1      15.268  -3.504   3.005  1.00  0.00     0.040 A 
ATOM     87  C   UNL     1      13.784  -1.853   2.090  1.00  0.00     0.040 A 
ATOM     88  F   UNL     1      11.797  -2.501   1.056  1.00  0.00    -0.206 F 
ATOM     89  C   UNL     1      14.947  -2.167   2.785  1.00  0.00     0.006 A 
ENDBRANCH  65  82
ENDBRANCH  39  40
ENDBRANCH  31  34
ENDBRANCH  29  30
ENDBRANCH  28  29
ENDBRANCH  27  28
ENDBRANCH   1  27
TORSDOF 15
