REMARK SMILES CC(C)CCN(C(=O)N[C@H](C(=O)NCCCCNC(=O)c1ccc(-c2c3nc(c(-c4c(F)cccc4F)c4ccc([nH]4)c(-c4c(F)cccc4F)c4nc(c(-c5c(F)cccc5F)c5ccc2[nH]5)C=C4)C=C3)cc1)[C@H](C)O)C1CCCC1
REMARK SMILES IDX 14 1 13 2 11 3 12 4 10 6 9 7 7 8 8 9 6 11 5 12 4 13 2 14
REMARK SMILES IDX 1 15 3 16 78 17 79 18 82 19 80 20 81 21 75 22 76 23 77 24
REMARK SMILES IDX 15 26 16 27 17 28 18 29 19 30 20 32 21 33 22 34 74 35 23 36
REMARK SMILES IDX 73 37 24 38 25 39 26 40 67 41 27 42 72 43 66 44 68 45 28 46
REMARK SMILES IDX 71 47 65 48 64 49 29 51 55 52 38 53 54 54 39 55 42 56 53 57
REMARK SMILES IDX 69 58 40 59 41 60 52 62 70 63 43 64 30 65 31 66 36 67 32 68
REMARK SMILES IDX 33 69 35 70 37 71 34 72 56 73 57 74 62 75 58 76 59 77 61 78
REMARK SMILES IDX 63 79 60 80 44 81 45 82 50 83 46 84 47 85 49 86 51 87 48 88
REMARK H PARENT 13 5 9 10 77 25 18 31 68 50 42 61
REMARK Flexibility Score: inf
ROOT
ATOM      1  C   UNL     1      -4.239   0.007  -5.368  1.00  0.00     0.116 C 
ENDROOT
BRANCH   1   2
ATOM      2  N   UNL     1      -4.462  -1.422  -5.328  1.00  0.00    -0.354 N 
ATOM      3  C   UNL     1      -4.638  -2.207  -4.221  1.00  0.00     0.245 C 
ATOM      4  O   UNL     1      -4.992  -3.376  -4.390  1.00  0.00    -0.273 OA
ATOM      5  H   UNL     1      -4.491  -1.883  -6.198  1.00  0.00     0.163 HD
BRANCH   3   6
ATOM      6  C   UNL     1      -4.391  -1.641  -2.801  1.00  0.00     0.201 C 
BRANCH   6   7
ATOM      7  N   UNL     1      -2.953  -1.335  -2.699  1.00  0.00    -0.324 N 
ATOM      8  C   UNL     1      -2.049  -0.940  -1.784  1.00  0.00     0.318 C 
ATOM      9  O   UNL     1      -0.892  -0.892  -2.211  1.00  0.00    -0.249 OA
ATOM     10  H   UNL     1      -2.518  -1.459  -3.574  1.00  0.00     0.166 HD
BRANCH   8  11
ATOM     11  N   UNL     1      -2.385  -0.549  -0.514  1.00  0.00    -0.322 N 
BRANCH  11  12
ATOM     12  C   UNL     1      -3.617  -0.943   0.168  1.00  0.00     0.122 C 
BRANCH  12  13
ATOM     13  C   UNL     1      -3.546  -1.485   1.601  1.00  0.00     0.024 C 
BRANCH  13  14
ATOM     14  C   UNL     1      -3.541  -0.477   2.768  1.00  0.00    -0.016 C 
ATOM     15  C   UNL     1      -4.496   0.704   2.582  1.00  0.00     0.007 C 
ATOM     16  C   UNL     1      -3.898  -1.215   4.063  1.00  0.00     0.007 C 
ENDBRANCH  13  14
ENDBRANCH  12  13
ENDBRANCH  11  12
BRANCH  11  17
ATOM     17  C   UNL     1      -1.473   0.333   0.223  1.00  0.00     0.087 C 
ATOM     18  C   UNL     1      -0.260  -0.349   0.848  1.00  0.00     0.025 C 
ATOM     19  C   UNL     1      -0.843   1.518  -0.526  1.00  0.00     0.025 C 
ATOM     20  C   UNL     1       0.543   0.834   1.379  1.00  0.00     0.002 C 
ATOM     21  C   UNL     1       0.283   1.984   0.402  1.00  0.00     0.002 C 
ENDBRANCH  11  17
ENDBRANCH   8  11
ENDBRANCH   6   7
BRANCH   6  22
ATOM     22  C   UNL     1      -5.472  -0.563  -2.473  1.00  0.00     0.143 C 
ATOM     23  C   UNL     1      -5.025   0.890  -2.301  1.00  0.00     0.041 C 
BRANCH  22  24
ATOM     24  O   UNL     1      -6.193  -0.931  -1.280  1.00  0.00    -0.391 OA
ATOM     25  H   UNL     1      -5.593  -0.903  -0.518  1.00  0.00     0.211 HD
ENDBRANCH  22  24
ENDBRANCH   6  22
ENDBRANCH   3   6
ENDBRANCH   1   2
BRANCH   1  26
ATOM     26  C   UNL     1      -3.585   0.505  -6.646  1.00  0.00     0.023 C 
BRANCH  26  27
ATOM     27  C   UNL     1      -4.409   0.322  -7.917  1.00  0.00     0.023 C 
BRANCH  27  28
ATOM     28  C   UNL     1      -5.854   0.805  -7.848  1.00  0.00     0.116 C 
BRANCH  28  29
ATOM     29  N   UNL     1      -5.985   2.212  -7.498  1.00  0.00    -0.352 N 
ATOM     30  C   UNL     1      -6.572   3.245  -8.196  1.00  0.00     0.251 C 
ATOM     31  H   UNL     1      -5.594   2.465  -6.630  1.00  0.00     0.163 HD
ATOM     32  O   UNL     1      -6.495   4.392  -7.784  1.00  0.00    -0.269 OA
BRANCH  30  33
ATOM     33  C   UNL     1      -7.256   2.961  -9.476  1.00  0.00     0.039 A 
ATOM     34  C   UNL     1      -6.934   3.732 -10.594  1.00  0.00     0.014 A 
ATOM     35  C   UNL     1      -8.166   1.907  -9.582  1.00  0.00     0.014 A 
ATOM     36  C   UNL     1      -7.448   3.379 -11.843  1.00  0.00     0.010 A 
ATOM     37  C   UNL     1      -8.604   1.502 -10.839  1.00  0.00     0.010 A 
ATOM     38  C   UNL     1      -8.241   2.227 -11.984  1.00  0.00    -0.014 A 
BRANCH  38  39
ATOM     39  C   UNL     1      -8.669   1.754 -13.325  1.00  0.00     0.031 A 
ATOM     40  C   UNL     1     -10.127   1.675 -13.678  1.00  0.00     0.074 A 
ATOM     41  C   UNL     1      -7.739   1.331 -14.206  1.00  0.00     0.049 A 
ATOM     42  N   UNL     1     -10.688   1.261 -14.786  1.00  0.00    -0.248 NA
ATOM     43  C   UNL     1     -11.085   2.086 -12.639  1.00  0.00     0.031 C 
ATOM     44  C   UNL     1      -6.295   1.290 -13.960  1.00  0.00     0.029 A 
ATOM     45  N   UNL     1      -7.869   0.853 -15.486  1.00  0.00    -0.354 N 
ATOM     46  C   UNL     1     -12.057   1.353 -14.574  1.00  0.00     0.074 A 
ATOM     47  C   UNL     1     -12.245   1.802 -13.211  1.00  0.00     0.031 C 
ATOM     48  C   UNL     1      -5.673   0.846 -15.064  1.00  0.00     0.029 A 
ATOM     49  C   UNL     1      -6.671   0.540 -16.082  1.00  0.00     0.049 A 
ATOM     50  H   UNL     1      -8.739   0.744 -15.934  1.00  0.00     0.167 HD
ATOM     51  C   UNL     1     -13.067   1.113 -15.443  1.00  0.00     0.037 A 
ATOM     52  C   UNL     1      -6.407   0.062 -17.313  1.00  0.00     0.037 A 
ATOM     53  C   UNL     1     -12.878   0.690 -16.806  1.00  0.00     0.049 A 
ATOM     54  C   UNL     1      -7.545  -0.186 -18.263  1.00  0.00     0.074 A 
ATOM     55  C   UNL     1     -13.833   0.488 -17.787  1.00  0.00     0.029 A 
ATOM     56  N   UNL     1     -11.649   0.401 -17.379  1.00  0.00    -0.354 N 
ATOM     57  N   UNL     1      -8.831  -0.013 -18.076  1.00  0.00    -0.248 NA
ATOM     58  C   UNL     1      -7.194  -0.690 -19.598  1.00  0.00     0.031 C 
ATOM     59  C   UNL     1     -13.186   0.033 -18.941  1.00  0.00     0.029 A 
ATOM     60  C   UNL     1     -11.823  -0.001 -18.694  1.00  0.00     0.049 A 
ATOM     61  H   UNL     1     -10.781   0.471 -16.920  1.00  0.00     0.167 HD
ATOM     62  C   UNL     1      -9.440  -0.363 -19.274  1.00  0.00     0.074 A 
ATOM     63  C   UNL     1      -8.380  -0.739 -20.187  1.00  0.00     0.031 C 
ATOM     64  C   UNL     1     -10.758  -0.374 -19.589  1.00  0.00     0.037 A 
BRANCH  51  65
ATOM     65  C   UNL     1     -14.469   1.315 -14.946  1.00  0.00     0.057 A 
ATOM     66  C   UNL     1     -14.977   2.592 -14.669  1.00  0.00     0.134 A 
ATOM     67  C   UNL     1     -15.332   0.226 -14.770  1.00  0.00     0.134 A 
ATOM     68  F   UNL     1     -14.199   3.677 -14.804  1.00  0.00    -0.206 F 
ATOM     69  C   UNL     1     -16.282   2.776 -14.209  1.00  0.00     0.040 A 
ATOM     70  C   UNL     1     -16.647   0.400 -14.337  1.00  0.00     0.040 A 
ATOM     71  F   UNL     1     -14.912  -1.023 -15.021  1.00  0.00    -0.206 F 
ATOM     72  C   UNL     1     -17.124   1.677 -14.049  1.00  0.00     0.006 A 
ENDBRANCH  51  65
BRANCH  52  73
ATOM     73  C   UNL     1      -5.003  -0.181 -17.732  1.00  0.00     0.057 A 
ATOM     74  C   UNL     1      -4.386   0.630 -18.691  1.00  0.00     0.134 A 
ATOM     75  C   UNL     1      -4.249  -1.230 -17.192  1.00  0.00     0.134 A 
ATOM     76  F   UNL     1      -5.063   1.639 -19.258  1.00  0.00    -0.206 F 
ATOM     77  C   UNL     1      -3.076   0.396 -19.115  1.00  0.00     0.040 A 
ATOM     78  C   UNL     1      -2.930  -1.461 -17.588  1.00  0.00     0.040 A 
ATOM     79  F   UNL     1      -4.780  -2.038 -16.263  1.00  0.00    -0.206 F 
ATOM     80  C   UNL     1      -2.343  -0.650 -18.558  1.00  0.00     0.006 A 
ENDBRANCH  52  73
BRANCH  64  81
ATOM     81  C   UNL     1     -11.123  -0.785 -20.985  1.00  0.00     0.057 A 
ATOM     82  C   UNL     1     -11.018  -2.114 -21.415  1.00  0.00     0.134 A 
ATOM     83  C   UNL     1     -11.611   0.155 -21.901  1.00  0.00     0.134 A 
ATOM     84  F   UNL     1     -10.545  -3.061 -20.590  1.00  0.00    -0.206 F 
ATOM     85  C   UNL     1     -11.360  -2.489 -22.715  1.00  0.00     0.040 A 
ATOM     86  C   UNL     1     -11.982  -0.212 -23.195  1.00  0.00     0.040 A 
ATOM     87  F   UNL     1     -11.745   1.443 -21.551  1.00  0.00    -0.206 F 
ATOM     88  C   UNL     1     -11.850  -1.537 -23.608  1.00  0.00     0.006 A 
ENDBRANCH  64  81
ENDBRANCH  38  39
ENDBRANCH  30  33
ENDBRANCH  28  29
ENDBRANCH  27  28
ENDBRANCH  26  27
ENDBRANCH   1  26
TORSDOF 19
