REMARK SMILES CC[N@@H+](C[C@@H]1CCCO1)[C@@H](C)c1ccc(C(=O)NCCCCNC(=O)c2ccc(-c3c4nc(c(-c5c(F)cccc5F)c5ccc([nH]5)c(-c5c(F)cccc5F)c5nc(c(-c6c(F)cccc6F)c6ccc3[nH]6)C=C5)C=C4)cc2)o1
REMARK SMILES IDX 19 1 18 2 16 3 17 4 15 6 12 7 13 8 80 9 14 10 10 11 11 12
REMARK SMILES IDX 3 13 2 15 1 16 4 17 5 18 6 19 9 20 7 21 8 22 20 23 21 24
REMARK SMILES IDX 22 25 23 26 24 27 25 29 26 30 27 31 79 32 28 33 78 34 29 35
REMARK SMILES IDX 30 36 31 37 72 38 32 39 77 40 71 41 73 42 33 43 76 44 70 45
REMARK SMILES IDX 69 46 34 48 60 49 43 50 59 51 44 52 47 53 58 54 74 55 45 56
REMARK SMILES IDX 46 57 57 59 75 60 48 61 35 62 36 63 41 64 37 65 38 66 40 67
REMARK SMILES IDX 42 68 39 69 61 70 62 71 67 72 63 73 64 74 66 75 68 76 65 77
REMARK SMILES IDX 49 78 50 79 55 80 51 81 52 82 54 83 56 84 53 85
REMARK H PARENT 18 5 3 14 23 28 73 47 47 58
REMARK Flexibility Score: inf
ROOT
ATOM      1  C   UNL     1       3.560   4.348  -0.842  1.00  0.00     0.116 C 
ENDROOT
BRANCH   1   2
ATOM      2  N   UNL     1       4.307   3.228  -1.365  1.00  0.00    -0.349 N 
ATOM      3  C   UNL     1       4.484   1.969  -0.840  1.00  0.00     0.287 C 
ATOM      4  O   UNL     1       5.132   1.182  -1.534  1.00  0.00    -0.266 OA
ATOM      5  H   UNL     1       4.757   3.389  -2.225  1.00  0.00     0.163 HD
BRANCH   3   6
ATOM      6  C   UNL     1       3.891   1.603   0.432  1.00  0.00     0.191 A 
ATOM      7  C   UNL     1       2.989   0.109   1.796  1.00  0.00     0.161 A 
ATOM      8  C   UNL     1       2.891   1.323   2.438  1.00  0.00     0.053 A 
ATOM      9  O   UNL     1       3.629   0.271   0.606  1.00  0.00    -0.450 OA
ATOM     10  C   UNL     1       3.488   2.274   1.575  1.00  0.00     0.057 A 
BRANCH   7  11
ATOM     11  C   UNL     1       2.565  -1.284   2.155  1.00  0.00     0.248 C 
ATOM     12  C   UNL     1       3.500  -2.316   1.508  1.00  0.00     0.084 C 
BRANCH  11  13
ATOM     13  N   UNL     1       1.102  -1.486   1.987  1.00  0.00    -0.324 N 
ATOM     14  H   UNL     1       0.726  -0.615   2.360  1.00  0.00     0.348 HD
BRANCH  13  15
ATOM     15  C   UNL     1       0.560  -1.499   0.622  1.00  0.00     0.259 C 
ATOM     16  C   UNL     1       0.568  -0.170  -0.125  1.00  0.00     0.071 C 
ENDBRANCH  13  15
BRANCH  13  17
ATOM     17  C   UNL     1       0.601  -2.628   2.789  1.00  0.00     0.295 C 
BRANCH  17  18
ATOM     18  C   UNL     1       0.756  -4.052   2.214  1.00  0.00     0.173 C 
ATOM     19  C   UNL     1      -0.408  -4.581   1.394  1.00  0.00     0.040 C 
ATOM     20  O   UNL     1       0.914  -5.008   3.282  1.00  0.00    -0.372 OA
ATOM     21  C   UNL     1      -0.106  -6.061   1.409  1.00  0.00     0.031 C 
ATOM     22  C   UNL     1       0.426  -6.275   2.813  1.00  0.00     0.161 C 
ENDBRANCH  17  18
ENDBRANCH  13  17
ENDBRANCH  11  13
ENDBRANCH   7  11
ENDBRANCH   3   6
ENDBRANCH   1   2
BRANCH   1  23
ATOM     23  C   UNL     1       4.466   5.270  -0.029  1.00  0.00     0.023 C 
BRANCH  23  24
ATOM     24  C   UNL     1       5.392   6.141  -0.881  1.00  0.00     0.023 C 
BRANCH  24  25
ATOM     25  C   UNL     1       4.678   7.100  -1.825  1.00  0.00     0.116 C 
BRANCH  25  26
ATOM     26  N   UNL     1       3.755   7.997  -1.146  1.00  0.00    -0.352 N 
ATOM     27  C   UNL     1       3.419   9.285  -1.488  1.00  0.00     0.251 C 
ATOM     28  H   UNL     1       3.317   7.636  -0.341  1.00  0.00     0.163 HD
ATOM     29  O   UNL     1       2.697   9.960  -0.768  1.00  0.00    -0.269 OA
BRANCH  27  30
ATOM     30  C   UNL     1       3.986   9.855  -2.725  1.00  0.00     0.039 A 
ATOM     31  C   UNL     1       4.700  11.053  -2.648  1.00  0.00     0.014 A 
ATOM     32  C   UNL     1       3.870   9.166  -3.935  1.00  0.00     0.014 A 
ATOM     33  C   UNL     1       5.367  11.525  -3.778  1.00  0.00     0.010 A 
ATOM     34  C   UNL     1       4.585   9.606  -5.042  1.00  0.00     0.010 A 
ATOM     35  C   UNL     1       5.347  10.783  -4.971  1.00  0.00    -0.014 A 
BRANCH  35  36
ATOM     36  C   UNL     1       6.124  11.208  -6.159  1.00  0.00     0.031 A 
ATOM     37  C   UNL     1       5.407  11.600  -7.419  1.00  0.00     0.074 A 
ATOM     38  C   UNL     1       7.469  11.151  -6.131  1.00  0.00     0.049 A 
ATOM     39  N   UNL     1       5.900  11.876  -8.598  1.00  0.00    -0.248 NA
ATOM     40  C   UNL     1       3.938  11.658  -7.349  1.00  0.00     0.031 C 
ATOM     41  C   UNL     1       8.278  10.744  -4.981  1.00  0.00     0.029 A 
ATOM     42  N   UNL     1       8.394  11.418  -7.109  1.00  0.00    -0.354 N 
ATOM     43  C   UNL     1       4.804  12.117  -9.415  1.00  0.00     0.074 A 
ATOM     44  C   UNL     1       3.620  11.914  -8.609  1.00  0.00     0.031 C 
ATOM     45  C   UNL     1       9.577  10.800  -5.315  1.00  0.00     0.029 A 
ATOM     46  C   UNL     1       9.692  11.210  -6.711  1.00  0.00     0.049 A 
ATOM     47  H   UNL     1       8.150  11.729  -8.011  1.00  0.00     0.167 HD
ATOM     48  C   UNL     1       4.788  12.493 -10.716  1.00  0.00     0.037 A 
ATOM     49  C   UNL     1      10.843  11.326  -7.399  1.00  0.00     0.037 A 
ATOM     50  C   UNL     1       5.968  12.727 -11.505  1.00  0.00     0.049 A 
ATOM     51  C   UNL     1      10.798  11.751  -8.840  1.00  0.00     0.074 A 
ATOM     52  C   UNL     1       6.057  13.171 -12.812  1.00  0.00     0.029 A 
ATOM     53  N   UNL     1       7.266  12.539 -11.055  1.00  0.00    -0.354 N 
ATOM     54  N   UNL     1       9.757  12.031  -9.586  1.00  0.00    -0.248 NA
ATOM     55  C   UNL     1      12.087  11.879  -9.535  1.00  0.00     0.031 C 
ATOM     56  C   UNL     1       7.410  13.222 -13.164  1.00  0.00     0.029 A 
ATOM     57  C   UNL     1       8.163  12.845 -12.064  1.00  0.00     0.049 A 
ATOM     58  H   UNL     1       7.513  12.233 -10.152  1.00  0.00     0.167 HD
ATOM     59  C   UNL     1      10.265  12.393 -10.827  1.00  0.00     0.074 A 
ATOM     60  C   UNL     1      11.707  12.305 -10.731  1.00  0.00     0.031 C 
ATOM     61  C   UNL     1       9.596  12.765 -11.945  1.00  0.00     0.037 A 
BRANCH  48  62
ATOM     62  C   UNL     1       3.448  12.678 -11.363  1.00  0.00     0.057 A 
ATOM     63  C   UNL     1       2.622  13.764 -11.046  1.00  0.00     0.134 A 
ATOM     64  C   UNL     1       2.990  11.776 -12.331  1.00  0.00     0.134 A 
ATOM     65  F   UNL     1       2.997  14.655 -10.116  1.00  0.00    -0.206 F 
ATOM     66  C   UNL     1       1.376  13.933 -11.651  1.00  0.00     0.040 A 
ATOM     67  C   UNL     1       1.756  11.948 -12.961  1.00  0.00     0.040 A 
ATOM     68  F   UNL     1       3.734  10.717 -12.682  1.00  0.00    -0.206 F 
ATOM     69  C   UNL     1       0.943  13.026 -12.617  1.00  0.00     0.006 A 
ENDBRANCH  48  62
BRANCH  49  70
ATOM     70  C   UNL     1      12.139  11.055  -6.730  1.00  0.00     0.057 A 
ATOM     71  C   UNL     1      13.018  12.099  -6.419  1.00  0.00     0.134 A 
ATOM     72  C   UNL     1      12.533   9.756  -6.393  1.00  0.00     0.134 A 
ATOM     73  F   UNL     1      12.702  13.363  -6.735  1.00  0.00    -0.206 F 
ATOM     74  C   UNL     1      14.251  11.859  -5.811  1.00  0.00     0.040 A 
ATOM     75  C   UNL     1      13.754   9.503  -5.766  1.00  0.00     0.040 A 
ATOM     76  F   UNL     1      11.731   8.714  -6.660  1.00  0.00    -0.206 F 
ATOM     77  C   UNL     1      14.620  10.557  -5.479  1.00  0.00     0.006 A 
ENDBRANCH  49  70
BRANCH  61  78
ATOM     78  C   UNL     1      10.416  13.143 -13.141  1.00  0.00     0.057 A 
ATOM     79  C   UNL     1      11.055  12.179 -13.931  1.00  0.00     0.134 A 
ATOM     80  C   UNL     1      10.523  14.482 -13.535  1.00  0.00     0.134 A 
ATOM     81  F   UNL     1      10.999  10.881 -13.597  1.00  0.00    -0.206 F 
ATOM     82  C   UNL     1      11.784  12.537 -15.065  1.00  0.00     0.040 A 
ATOM     83  C   UNL     1      11.232  14.850 -14.679  1.00  0.00     0.040 A 
ATOM     84  F   UNL     1       9.928  15.451 -12.824  1.00  0.00    -0.206 F 
ATOM     85  C   UNL     1      11.867  13.875 -15.446  1.00  0.00     0.006 A 
ENDBRANCH  61  78
ENDBRANCH  35  36
ENDBRANCH  27  30
ENDBRANCH  25  26
ENDBRANCH  24  25
ENDBRANCH  23  24
ENDBRANCH   1  23
TORSDOF 16
