REMARK SMILES Cc1cccc2c(C(=O)NCCCCNC(=O)c3ccc(-c4c5nc(c(-c6c(F)cccc6F)c6ccc([nH]6)c(-c6c(F)cccc6F)c6nc(c(-c7c(F)cccc7F)c7ccc4[nH]7)C=C6)C=C5)cc3)cc(=O)[nH]c12
REMARK SMILES IDX 13 1 12 2 11 3 10 4 8 5 9 6 7 8 1 9 2 10 3 11 76 12 4 13
REMARK SMILES IDX 6 14 75 15 5 16 73 17 72 19 74 20 14 21 15 22 16 23 17 25
REMARK SMILES IDX 18 26 19 27 71 28 20 29 70 30 21 31 22 32 23 33 64 34 24 35
REMARK SMILES IDX 69 36 63 37 65 38 25 39 68 40 62 41 61 42 26 44 52 45 35 46
REMARK SMILES IDX 51 47 36 48 39 49 50 50 66 51 37 52 38 53 49 55 67 56 40 57
REMARK SMILES IDX 27 58 28 59 33 60 29 61 30 62 32 63 34 64 31 65 53 66 54 67
REMARK SMILES IDX 59 68 55 69 56 70 58 71 60 72 57 73 41 74 42 75 47 76 43 77
REMARK SMILES IDX 44 78 46 79 48 80 45 81
REMARK H PARENT 10 7 75 18 15 24 65 43 39 54
REMARK Flexibility Score: inf
ROOT
ATOM      1  C   UNL     1      -1.099   9.132   2.119  1.00  0.00     0.023 C 
ENDROOT
BRANCH   1   2
ATOM      2  C   UNL     1      -0.544   8.022   1.222  1.00  0.00     0.023 C 
BRANCH   2   3
ATOM      3  C   UNL     1       0.750   7.382   1.737  1.00  0.00     0.116 C 
BRANCH   3   4
ATOM      4  N   UNL     1       0.462   6.502   2.853  1.00  0.00    -0.352 N 
ATOM      5  C   UNL     1       0.114   5.191   2.973  1.00  0.00     0.252 C 
ATOM      6  O   UNL     1      -0.205   4.855   4.115  1.00  0.00    -0.269 OA
ATOM      7  H   UNL     1       0.534   6.956   3.724  1.00  0.00     0.163 HD
BRANCH   5   8
ATOM      8  C   UNL     1       0.166   4.186   1.843  1.00  0.00     0.054 A 
ATOM      9  C   UNL     1       0.815  -0.482  -0.033  1.00  0.00     0.046 C 
ATOM     10  C   UNL     1       0.561   0.444   1.124  1.00  0.00    -0.027 A 
ATOM     11  C   UNL     1       0.445  -0.101   2.406  1.00  0.00     0.005 A 
ATOM     12  C   UNL     1       0.457   1.843   0.970  1.00  0.00     0.052 A 
ATOM     13  C   UNL     1       0.233   0.724   3.503  1.00  0.00     0.001 A 
ATOM     14  C   UNL     1       0.273   2.707   2.075  1.00  0.00     0.011 A 
ATOM     15  N   UNL     1       0.490   2.390  -0.318  1.00  0.00    -0.322 N 
ATOM     16  C   UNL     1       0.160   2.110   3.339  1.00  0.00     0.011 A 
ATOM     17  C   UNL     1       0.252   3.697  -0.587  1.00  0.00     0.249 A 
ATOM     18  H   UNL     1       0.697   1.792  -1.072  1.00  0.00     0.170 HD
ATOM     19  C   UNL     1       0.045   4.586   0.567  1.00  0.00     0.086 A 
ATOM     20  O   UNL     1       0.230   4.144  -1.728  1.00  0.00    -0.270 OA
ENDBRANCH   5   8
ENDBRANCH   3   4
ENDBRANCH   2   3
ENDBRANCH   1   2
BRANCH   1  21
ATOM     21  C   UNL     1      -0.180  10.333   2.292  1.00  0.00     0.116 C 
BRANCH  21  22
ATOM     22  N   UNL     1       0.204  10.967   1.038  1.00  0.00    -0.352 N 
ATOM     23  C   UNL     1       0.527  12.289   0.819  1.00  0.00     0.251 C 
ATOM     24  H   UNL     1       0.237  10.378   0.249  1.00  0.00     0.163 HD
ATOM     25  O   UNL     1       0.748  12.707  -0.306  1.00  0.00    -0.269 OA
BRANCH  23  26
ATOM     26  C   UNL     1       0.544  13.204   1.979  1.00  0.00     0.039 A 
ATOM     27  C   UNL     1       1.231  12.846   3.138  1.00  0.00     0.014 A 
ATOM     28  C   UNL     1      -0.219  14.373   1.937  1.00  0.00     0.014 A 
ATOM     29  C   UNL     1       0.996  13.548   4.311  1.00  0.00     0.010 A 
ATOM     30  C   UNL     1      -0.374  15.135   3.098  1.00  0.00     0.010 A 
ATOM     31  C   UNL     1       0.180  14.693   4.310  1.00  0.00    -0.014 A 
BRANCH  31  32
ATOM     32  C   UNL     1      -0.085  15.381   5.600  1.00  0.00     0.031 A 
ATOM     33  C   UNL     1      -1.473  15.433   6.182  1.00  0.00     0.074 A 
ATOM     34  C   UNL     1       0.956  15.878   6.295  1.00  0.00     0.049 A 
ATOM     35  N   UNL     1      -1.865  15.909   7.339  1.00  0.00    -0.248 NA
ATOM     36  C   UNL     1      -2.566  14.889   5.362  1.00  0.00     0.031 C 
ATOM     37  C   UNL     1       2.347  15.887   5.837  1.00  0.00     0.029 A 
ATOM     38  N   UNL     1       1.014  16.431   7.548  1.00  0.00    -0.354 N 
ATOM     39  C   UNL     1      -3.243  15.736   7.378  1.00  0.00     0.074 A 
ATOM     40  C   UNL     1      -3.627  15.144   6.114  1.00  0.00     0.031 C 
ATOM     41  C   UNL     1       3.130  16.350   6.822  1.00  0.00     0.029 A 
ATOM     42  C   UNL     1       2.292  16.729   7.954  1.00  0.00     0.049 A 
ATOM     43  H   UNL     1       0.219  16.599   8.102  1.00  0.00     0.167 HD
ATOM     44  C   UNL     1      -4.109  16.030   8.379  1.00  0.00     0.037 A 
ATOM     45  C   UNL     1       2.741  17.250   9.109  1.00  0.00     0.037 A 
ATOM     46  C   UNL     1      -3.726  16.606   9.642  1.00  0.00     0.049 A 
ATOM     47  C   UNL     1       1.757  17.589  10.189  1.00  0.00     0.074 A 
ATOM     48  C   UNL     1      -4.527  16.930  10.725  1.00  0.00     0.029 A 
ATOM     49  N   UNL     1      -2.428  16.945   9.995  1.00  0.00    -0.354 N 
ATOM     50  N   UNL     1       0.459  17.405  10.214  1.00  0.00    -0.248 NA
ATOM     51  C   UNL     1       2.303  18.212  11.401  1.00  0.00     0.031 C 
ATOM     52  C   UNL     1      -3.719  17.500  11.716  1.00  0.00     0.029 A 
ATOM     53  C   UNL     1      -2.407  17.488  11.270  1.00  0.00     0.049 A 
ATOM     54  H   UNL     1      -1.636  16.818   9.422  1.00  0.00     0.167 HD
ATOM     55  C   UNL     1       0.035  17.875  11.450  1.00  0.00     0.074 A 
ATOM     56  C   UNL     1       1.219  18.324  12.154  1.00  0.00     0.031 C 
ATOM     57  C   UNL     1      -1.222  17.935  11.955  1.00  0.00     0.037 A 
BRANCH  44  58
ATOM     58  C   UNL     1      -5.566  15.747   8.137  1.00  0.00     0.057 A 
ATOM     59  C   UNL     1      -6.480  16.796   7.971  1.00  0.00     0.134 A 
ATOM     60  C   UNL     1      -6.070  14.441   8.093  1.00  0.00     0.134 A 
ATOM     61  F   UNL     1      -6.067  18.072   8.009  1.00  0.00    -0.206 F 
ATOM     62  C   UNL     1      -7.840  16.556   7.770  1.00  0.00     0.040 A 
ATOM     63  C   UNL     1      -7.425  14.187   7.866  1.00  0.00     0.040 A 
ATOM     64  F   UNL     1      -5.248  13.389   8.231  1.00  0.00    -0.206 F 
ATOM     65  C   UNL     1      -8.315  15.247   7.709  1.00  0.00     0.006 A 
ENDBRANCH  44  58
BRANCH  45  66
ATOM     66  C   UNL     1       4.194  17.483   9.305  1.00  0.00     0.057 A 
ATOM     67  C   UNL     1       4.879  18.463   8.577  1.00  0.00     0.134 A 
ATOM     68  C   UNL     1       4.927  16.739  10.236  1.00  0.00     0.134 A 
ATOM     69  F   UNL     1       4.233  19.205   7.665  1.00  0.00    -0.206 F 
ATOM     70  C   UNL     1       6.242  18.691   8.762  1.00  0.00     0.040 A 
ATOM     71  C   UNL     1       6.285  16.975  10.452  1.00  0.00     0.040 A 
ATOM     72  F   UNL     1       4.322  15.797  10.975  1.00  0.00    -0.206 F 
ATOM     73  C   UNL     1       6.947  17.951   9.710  1.00  0.00     0.006 A 
ENDBRANCH  45  66
BRANCH  57  74
ATOM     74  C   UNL     1      -1.361  18.480  13.346  1.00  0.00     0.057 A 
ATOM     75  C   UNL     1      -1.673  17.633  14.416  1.00  0.00     0.134 A 
ATOM     76  C   UNL     1      -1.168  19.839  13.630  1.00  0.00     0.134 A 
ATOM     77  F   UNL     1      -1.877  16.323  14.212  1.00  0.00    -0.206 F 
ATOM     78  C   UNL     1      -1.776  18.116  15.721  1.00  0.00     0.040 A 
ATOM     79  C   UNL     1      -1.240  20.328  14.935  1.00  0.00     0.040 A 
ATOM     80  F   UNL     1      -0.849  20.700  12.651  1.00  0.00    -0.206 F 
ATOM     81  C   UNL     1      -1.548  19.465  15.985  1.00  0.00     0.006 A 
ENDBRANCH  57  74
ENDBRANCH  31  32
ENDBRANCH  23  26
ENDBRANCH  21  22
ENDBRANCH   1  21
TORSDOF 11
