REMARK SMILES COc1cc(NC(=O)c2ccc([N+](=O)[O-])cc2)c(C(=O)NCCCCNC(=O)c2ccc(-c3c4nc(c(-c5c(F)cccc5F)c5ccc([nH]5)c(-c5c(F)cccc5F)c5nc(c(-c6c(F)cccc6F)c6ccc3[nH]6)C=C5)C=C4)cc2)cc1OC
REMARK SMILES IDX 23 1 22 2 21 3 19 4 20 5 18 7 3 8 4 9 84 10 5 11 83 12 2 13
REMARK SMILES IDX 1 14 85 15 86 16 6 17 7 18 8 20 9 21 10 22 17 23 11 24 16 25
REMARK SMILES IDX 12 26 13 27 14 28 15 29 24 30 25 31 26 32 27 33 28 35 29 36
REMARK SMILES IDX 30 37 82 38 31 39 81 40 32 41 33 42 34 43 75 44 35 45 80 46
REMARK SMILES IDX 74 47 76 48 36 49 79 50 73 51 72 52 37 54 63 55 46 56 62 57
REMARK SMILES IDX 47 58 50 59 61 60 77 61 48 62 49 63 60 65 78 66 51 67 38 68
REMARK SMILES IDX 39 69 44 70 40 71 41 72 43 73 45 74 42 75 64 76 65 77 70 78
REMARK SMILES IDX 66 79 67 80 69 81 71 82 68 83 52 84 53 85 58 86 54 87 55 88
REMARK SMILES IDX 57 89 59 90 56 91
REMARK H PARENT 21 6 6 19 26 34 76 53 50 64
REMARK Flexibility Score: inf
ROOT
ATOM      1  C   UNL     1       5.440  -3.072   5.117  1.00  0.00     0.023 C 
ENDROOT
BRANCH   1   2
ATOM      2  C   UNL     1       4.325  -4.035   4.698  1.00  0.00     0.116 C 
BRANCH   2   3
ATOM      3  N   UNL     1       3.169  -3.868   5.554  1.00  0.00    -0.352 N 
ATOM      4  C   UNL     1       2.080  -3.034   5.514  1.00  0.00     0.253 C 
ATOM      5  O   UNL     1       1.297  -3.142   6.462  1.00  0.00    -0.269 OA
ATOM      6  H   UNL     1       3.163  -4.480   6.325  1.00  0.00     0.163 HD
BRANCH   4   7
ATOM      7  C   UNL     1       1.772  -2.057   4.410  1.00  0.00     0.067 A 
ATOM      8  C   UNL     1       1.204  -0.298   2.270  1.00  0.00     0.162 A 
ATOM      9  C   UNL     1       0.237  -0.591   3.243  1.00  0.00     0.077 A 
ATOM     10  C   UNL     1       2.482  -0.812   2.404  1.00  0.00     0.161 A 
ATOM     11  C   UNL     1       0.472  -1.499   4.293  1.00  0.00     0.058 A 
ATOM     12  C   UNL     1       2.753  -1.641   3.496  1.00  0.00     0.066 A 
BRANCH   8  13
ATOM     13  O   UNL     1       0.898   0.625   1.308  1.00  0.00    -0.493 OA
ATOM     14  C   UNL     1       0.116   0.060   0.252  1.00  0.00     0.278 C 
ENDBRANCH   8  13
BRANCH  10  15
ATOM     15  O   UNL     1       3.582  -0.562   1.633  1.00  0.00    -0.493 OA
ATOM     16  C   UNL     1       3.366  -0.289   0.256  1.00  0.00     0.278 C 
ENDBRANCH  10  15
BRANCH  11  17
ATOM     17  N   UNL     1      -0.513  -1.823   5.270  1.00  0.00    -0.321 N 
ATOM     18  C   UNL     1      -1.851  -1.547   5.431  1.00  0.00     0.255 C 
ATOM     19  H   UNL     1      -0.152  -2.374   6.002  1.00  0.00     0.170 HD
ATOM     20  O   UNL     1      -2.439  -1.796   6.480  1.00  0.00    -0.269 OA
BRANCH  18  21
ATOM     21  C   UNL     1      -2.628  -0.961   4.334  1.00  0.00     0.040 A 
ATOM     22  C   UNL     1      -3.109   0.346   4.479  1.00  0.00     0.021 A 
ATOM     23  C   UNL     1      -2.772  -1.664   3.132  1.00  0.00     0.021 A 
ATOM     24  C   UNL     1      -3.627   1.008   3.366  1.00  0.00     0.086 A 
ATOM     25  C   UNL     1      -3.285  -1.004   2.017  1.00  0.00     0.086 A 
ATOM     26  C   UNL     1      -3.673   0.342   2.131  1.00  0.00     0.269 A 
BRANCH  26  27
ATOM     27  N   UNL     1      -4.044   1.086   0.923  1.00  0.00     0.062 N 
ATOM     28  O   UNL     1      -4.553   2.206   1.068  1.00  0.00    -0.258 OA
ATOM     29  O   UNL     1      -3.789   0.562  -0.171  1.00  0.00    -0.258 OA
ENDBRANCH  26  27
ENDBRANCH  18  21
ENDBRANCH  11  17
ENDBRANCH   4   7
ENDBRANCH   2   3
ENDBRANCH   1   2
BRANCH   1  30
ATOM     30  C   UNL     1       6.329  -3.599   6.244  1.00  0.00     0.023 C 
BRANCH  30  31
ATOM     31  C   UNL     1       7.099  -4.868   5.899  1.00  0.00     0.116 C 
BRANCH  31  32
ATOM     32  N   UNL     1       7.918  -4.732   4.705  1.00  0.00    -0.352 N 
ATOM     33  C   UNL     1       9.092  -5.367   4.394  1.00  0.00     0.251 C 
ATOM     34  H   UNL     1       7.584  -4.099   4.029  1.00  0.00     0.163 HD
ATOM     35  O   UNL     1       9.719  -5.043   3.389  1.00  0.00    -0.269 OA
BRANCH  33  36
ATOM     36  C   UNL     1       9.621  -6.410   5.294  1.00  0.00     0.039 A 
ATOM     37  C   UNL     1      10.977  -6.377   5.621  1.00  0.00     0.014 A 
ATOM     38  C   UNL     1       8.792  -7.404   5.824  1.00  0.00     0.014 A 
ATOM     39  C   UNL     1      11.490  -7.312   6.519  1.00  0.00     0.010 A 
ATOM     40  C   UNL     1       9.287  -8.283   6.783  1.00  0.00     0.010 A 
ATOM     41  C   UNL     1      10.644  -8.252   7.134  1.00  0.00    -0.014 A 
BRANCH  41  42
ATOM     42  C   UNL     1      11.184  -9.187   8.152  1.00  0.00     0.031 A 
ATOM     43  C   UNL     1      11.189 -10.671   7.908  1.00  0.00     0.074 A 
ATOM     44  C   UNL     1      11.662  -8.687   9.309  1.00  0.00     0.049 A 
ATOM     45  N   UNL     1      11.684 -11.625   8.656  1.00  0.00    -0.248 NA
ATOM     46  C   UNL     1      10.534 -11.154   6.682  1.00  0.00     0.031 C 
ATOM     47  C   UNL     1      11.641  -7.273   9.694  1.00  0.00     0.029 A 
ATOM     48  N   UNL     1      12.267  -9.309  10.372  1.00  0.00    -0.354 N 
ATOM     49  C   UNL     1      11.394 -12.814   7.997  1.00  0.00     0.074 A 
ATOM     50  C   UNL     1      10.634 -12.469   6.816  1.00  0.00     0.031 C 
ATOM     51  C   UNL     1      12.248  -7.131  10.883  1.00  0.00     0.029 A 
ATOM     52  C   UNL     1      12.671  -8.442  11.360  1.00  0.00     0.049 A 
ATOM     53  H   UNL     1      12.400 -10.283  10.422  1.00  0.00     0.167 HD
ATOM     54  C   UNL     1      11.750 -14.075   8.335  1.00  0.00     0.037 A 
ATOM     55  C   UNL     1      13.318  -8.680  12.516  1.00  0.00     0.037 A 
ATOM     56  C   UNL     1      12.534 -14.410   9.496  1.00  0.00     0.049 A 
ATOM     57  C   UNL     1      13.723 -10.091  12.847  1.00  0.00     0.074 A 
ATOM     58  C   UNL     1      13.022 -15.648   9.876  1.00  0.00     0.029 A 
ATOM     59  N   UNL     1      12.937 -13.506  10.466  1.00  0.00    -0.354 N 
ATOM     60  N   UNL     1      13.543 -11.189  12.154  1.00  0.00    -0.248 NA
ATOM     61  C   UNL     1      14.436 -10.291  14.116  1.00  0.00     0.031 C 
ATOM     62  C   UNL     1      13.669 -15.503  11.107  1.00  0.00     0.029 A 
ATOM     63  C   UNL     1      13.639 -14.165  11.462  1.00  0.00     0.049 A 
ATOM     64  H   UNL     1      12.752 -12.539  10.450  1.00  0.00     0.167 HD
ATOM     65  C   UNL     1      14.145 -12.203  12.888  1.00  0.00     0.074 A 
ATOM     66  C   UNL     1      14.723 -11.582  14.061  1.00  0.00     0.031 C 
ATOM     67  C   UNL     1      14.208 -13.531  12.623  1.00  0.00     0.037 A 
BRANCH  54  68
ATOM     68  C   UNL     1      11.305 -15.198   7.442  1.00  0.00     0.057 A 
ATOM     69  C   UNL     1      11.856 -15.396   6.170  1.00  0.00     0.134 A 
ATOM     70  C   UNL     1      10.373 -16.140   7.896  1.00  0.00     0.134 A 
ATOM     71  F   UNL     1      12.746 -14.525   5.670  1.00  0.00    -0.206 F 
ATOM     72  C   UNL     1      11.490 -16.486   5.378  1.00  0.00     0.040 A 
ATOM     73  C   UNL     1      10.018 -17.248   7.124  1.00  0.00     0.040 A 
ATOM     74  F   UNL     1       9.809 -16.012   9.107  1.00  0.00    -0.206 F 
ATOM     75  C   UNL     1      10.577 -17.422   5.860  1.00  0.00     0.006 A 
ENDBRANCH  54  68
BRANCH  55  76
ATOM     76  C   UNL     1      13.643  -7.566  13.445  1.00  0.00     0.057 A 
ATOM     77  C   UNL     1      14.970  -7.200  13.706  1.00  0.00     0.134 A 
ATOM     78  C   UNL     1      12.639  -6.878  14.138  1.00  0.00     0.134 A 
ATOM     79  F   UNL     1      15.979  -7.831  13.087  1.00  0.00    -0.206 F 
ATOM     80  C   UNL     1      15.288  -6.224  14.653  1.00  0.00     0.040 A 
ATOM     81  C   UNL     1      12.942  -5.877  15.062  1.00  0.00     0.040 A 
ATOM     82  F   UNL     1      11.348  -7.170  13.926  1.00  0.00    -0.206 F 
ATOM     83  C   UNL     1      14.271  -5.559  15.334  1.00  0.00     0.006 A 
ENDBRANCH  55  76
BRANCH  67  84
ATOM     84  C   UNL     1      14.957 -14.386  13.606  1.00  0.00     0.057 A 
ATOM     85  C   UNL     1      14.480 -14.616  14.904  1.00  0.00     0.134 A 
ATOM     86  C   UNL     1      16.175 -14.980  13.251  1.00  0.00     0.134 A 
ATOM     87  F   UNL     1      13.326 -14.066  15.312  1.00  0.00    -0.206 F 
ATOM     88  C   UNL     1      15.211 -15.365  15.827  1.00  0.00     0.040 A 
ATOM     89  C   UNL     1      16.896 -15.762  14.154  1.00  0.00     0.040 A 
ATOM     90  F   UNL     1      16.683 -14.814  12.021  1.00  0.00    -0.206 F 
ATOM     91  C   UNL     1      16.421 -15.944  15.451  1.00  0.00     0.006 A 
ENDBRANCH  67  84
ENDBRANCH  41  42
ENDBRANCH  33  36
ENDBRANCH  31  32
ENDBRANCH  30  31
ENDBRANCH   1  30
TORSDOF 16
