REMARK SMILES CCOC(=O)c1c(NC(=O)/C=C/C(=O)NCCCCNC(=O)c2ccc(-c3c4nc(c(-c5c(F)cccc5F)c5ccc([nH]5)c(-c5c(F)cccc5F)c5nc(c(-c6c(F)cccc6F)c6ccc3[nH]6)C=C5)C=C4)cc2)sc(C)c1-c1ccc(C)c(C)c1
REMARK SMILES IDX 16 1 15 2 13 3 14 4 12 6 11 7 9 8 8 9 10 11 7 12 6 13 80 14
REMARK SMILES IDX 77 15 78 16 79 17 4 18 5 19 3 20 2 21 1 22 81 23 82 24 88 25
REMARK SMILES IDX 83 26 86 27 84 28 87 29 85 30 17 31 18 32 19 33 20 34 21 35
REMARK SMILES IDX 22 37 23 38 24 39 76 40 25 41 75 42 26 43 27 44 28 45 69 46
REMARK SMILES IDX 29 47 74 48 68 49 70 50 30 51 73 52 67 53 66 54 31 56 57 57
REMARK SMILES IDX 40 58 56 59 41 60 44 61 55 62 71 63 42 64 43 65 54 67 72 68
REMARK SMILES IDX 45 69 32 70 33 71 38 72 34 73 35 74 37 75 39 76 36 77 58 78
REMARK SMILES IDX 59 79 64 80 60 81 61 82 63 83 65 84 62 85 46 86 47 87 52 88
REMARK SMILES IDX 48 89 49 90 51 91 53 92 50 93
REMARK H PARENT 15 5 8 10 20 36 70 55 44 66
REMARK Flexibility Score: inf
ROOT
ATOM      1  C   UNL     1       8.268  -3.615  -6.671  1.00  0.00     0.116 C 
ENDROOT
BRANCH   1   2
ATOM      2  N   UNL     1       7.444  -2.735  -7.473  1.00  0.00    -0.353 N 
ATOM      3  C   UNL     1       6.160  -2.367  -7.213  1.00  0.00     0.244 C 
ATOM      4  O   UNL     1       5.439  -1.924  -8.100  1.00  0.00    -0.270 OA
ATOM      5  H   UNL     1       7.854  -2.366  -8.289  1.00  0.00     0.163 HD
BRANCH   3   6
ATOM      6  C   UNL     1       5.655  -2.518  -5.836  1.00  0.00     0.077 C 
ATOM      7  C   UNL     1       6.292  -1.839  -4.871  1.00  0.00     0.077 C 
BRANCH   7   8
ATOM      8  C   UNL     1       5.718  -1.710  -3.529  1.00  0.00     0.249 C 
ATOM      9  N   UNL     1       4.723  -0.812  -3.271  1.00  0.00    -0.313 N 
ATOM     10  H   UNL     1       4.470  -0.760  -2.321  1.00  0.00     0.171 HD
ATOM     11  O   UNL     1       6.173  -2.415  -2.628  1.00  0.00    -0.270 OA
BRANCH   9  12
ATOM     12  C   UNL     1       3.998   0.041  -4.092  1.00  0.00     0.111 A 
ATOM     13  C   UNL     1       2.851   0.739  -3.746  1.00  0.00     0.102 A 
ATOM     14  C   UNL     1       2.217   1.300  -4.924  1.00  0.00     0.012 A 
ATOM     15  S   UNL     1       4.468   0.405  -5.674  1.00  0.00    -0.122 S 
ATOM     16  C   UNL     1       2.964   1.083  -6.070  1.00  0.00     0.012 A 
ATOM     17  C   UNL     1       2.689   1.380  -7.509  1.00  0.00     0.057 C 
BRANCH  13  18
ATOM     18  C   UNL     1       2.401   0.814  -2.358  1.00  0.00     0.341 C 
ATOM     19  O   UNL     1       3.181   0.842  -1.425  1.00  0.00    -0.246 OA
BRANCH  18  20
ATOM     20  O   UNL     1       1.042   0.818  -2.228  1.00  0.00    -0.462 OA
BRANCH  20  21
ATOM     21  C   UNL     1       0.543   1.066  -0.907  1.00  0.00     0.230 C 
ATOM     22  C   UNL     1       0.742  -0.113   0.032  1.00  0.00     0.049 C 
ENDBRANCH  20  21
ENDBRANCH  18  20
ENDBRANCH  13  18
BRANCH  14  23
ATOM     23  C   UNL     1       0.985   2.071  -4.970  1.00  0.00    -0.016 A 
ATOM     24  C   UNL     1       0.938   3.316  -4.344  1.00  0.00     0.009 A 
ATOM     25  C   UNL     1      -0.142   1.584  -5.639  1.00  0.00     0.012 A 
ATOM     26  C   UNL     1      -0.234   4.065  -4.380  1.00  0.00     0.004 A 
ATOM     27  C   UNL     1      -1.325   2.339  -5.699  1.00  0.00    -0.048 A 
ATOM     28  C   UNL     1      -1.372   3.592  -5.056  1.00  0.00    -0.048 A 
ATOM     29  C   UNL     1      -2.502   1.783  -6.452  1.00  0.00     0.044 C 
ATOM     30  C   UNL     1      -2.602   4.457  -5.027  1.00  0.00     0.044 C 
ENDBRANCH  14  23
ENDBRANCH   9  12
ENDBRANCH   7   8
ENDBRANCH   3   6
ENDBRANCH   1   2
BRANCH   1  31
ATOM     31  C   UNL     1       7.906  -5.072  -6.943  1.00  0.00     0.023 C 
BRANCH  31  32
ATOM     32  C   UNL     1       8.307  -5.553  -8.338  1.00  0.00     0.023 C 
BRANCH  32  33
ATOM     33  C   UNL     1       9.765  -5.299  -8.700  1.00  0.00     0.116 C 
BRANCH  33  34
ATOM     34  N   UNL     1      10.697  -5.745  -7.673  1.00  0.00    -0.352 N 
ATOM     35  C   UNL     1      11.951  -6.276  -7.832  1.00  0.00     0.251 C 
ATOM     36  H   UNL     1      10.385  -5.654  -6.743  1.00  0.00     0.163 HD
ATOM     37  O   UNL     1      12.591  -6.686  -6.872  1.00  0.00    -0.269 OA
BRANCH  35  38
ATOM     38  C   UNL     1      12.495  -6.384  -9.195  1.00  0.00     0.039 A 
ATOM     39  C   UNL     1      12.914  -7.635  -9.650  1.00  0.00     0.014 A 
ATOM     40  C   UNL     1      12.510  -5.268 -10.036  1.00  0.00     0.014 A 
ATOM     41  C   UNL     1      13.288  -7.782 -10.984  1.00  0.00     0.010 A 
ATOM     42  C   UNL     1      12.815  -5.433 -11.380  1.00  0.00     0.010 A 
ATOM     43  C   UNL     1      13.204  -6.692 -11.865  1.00  0.00    -0.014 A 
BRANCH  43  44
ATOM     44  C   UNL     1      13.518  -6.847 -13.303  1.00  0.00     0.031 A 
ATOM     45  C   UNL     1      14.691  -6.119 -13.894  1.00  0.00     0.074 A 
ATOM     46  C   UNL     1      12.707  -7.585 -14.085  1.00  0.00     0.049 A 
ATOM     47  N   UNL     1      15.088  -6.066 -15.139  1.00  0.00    -0.248 NA
ATOM     48  C   UNL     1      15.508  -5.321 -12.966  1.00  0.00     0.031 C 
ATOM     49  C   UNL     1      11.508  -8.293 -13.632  1.00  0.00     0.029 A 
ATOM     50  N   UNL     1      12.763  -7.851 -15.429  1.00  0.00    -0.354 N 
ATOM     51  C   UNL     1      16.187  -5.218 -15.145  1.00  0.00     0.074 A 
ATOM     52  C   UNL     1      16.362  -4.737 -13.793  1.00  0.00     0.031 C 
ATOM     53  C   UNL     1      10.954  -8.931 -14.677  1.00  0.00     0.029 A 
ATOM     54  C   UNL     1      11.738  -8.649 -15.875  1.00  0.00     0.049 A 
ATOM     55  H   UNL     1      13.470  -7.503 -16.018  1.00  0.00     0.167 HD
ATOM     56  C   UNL     1      16.992  -4.889 -16.182  1.00  0.00     0.037 A 
ATOM     57  C   UNL     1      11.462  -9.098 -17.113  1.00  0.00     0.037 A 
ATOM     58  C   UNL     1      16.830  -5.395 -17.519  1.00  0.00     0.049 A 
ATOM     59  C   UNL     1      12.376  -8.725 -18.247  1.00  0.00     0.074 A 
ATOM     60  C   UNL     1      17.629  -5.176 -18.627  1.00  0.00     0.029 A 
ATOM     61  N   UNL     1      15.795  -6.223 -17.928  1.00  0.00    -0.354 N 
ATOM     62  N   UNL     1      13.454  -7.979 -18.227  1.00  0.00    -0.248 NA
ATOM     63  C   UNL     1      12.039  -9.259 -19.573  1.00  0.00     0.031 C 
ATOM     64  C   UNL     1      17.056  -5.841 -19.716  1.00  0.00     0.029 A 
ATOM     65  C   UNL     1      15.924  -6.509 -19.276  1.00  0.00     0.049 A 
ATOM     66  H   UNL     1      15.075  -6.557 -17.345  1.00  0.00     0.167 HD
ATOM     67  C   UNL     1      13.939  -7.976 -19.528  1.00  0.00     0.074 A 
ATOM     68  C   UNL     1      13.044  -8.806 -20.309  1.00  0.00     0.031 C 
ATOM     69  C   UNL     1      15.027  -7.344 -20.032  1.00  0.00     0.037 A 
BRANCH  56  70
ATOM     70  C   UNL     1      18.124  -3.945 -15.904  1.00  0.00     0.057 A 
ATOM     71  C   UNL     1      19.235  -4.329 -15.140  1.00  0.00     0.134 A 
ATOM     72  C   UNL     1      18.115  -2.644 -16.422  1.00  0.00     0.134 A 
ATOM     73  F   UNL     1      19.298  -5.556 -14.602  1.00  0.00    -0.206 F 
ATOM     74  C   UNL     1      20.282  -3.445 -14.879  1.00  0.00     0.040 A 
ATOM     75  C   UNL     1      19.170  -1.760 -16.191  1.00  0.00     0.040 A 
ATOM     76  F   UNL     1      17.084  -2.213 -17.165  1.00  0.00    -0.206 F 
ATOM     77  C   UNL     1      20.255  -2.158 -15.411  1.00  0.00     0.006 A 
ENDBRANCH  56  70
BRANCH  57  78
ATOM     78  C   UNL     1      10.285  -9.973 -17.343  1.00  0.00     0.057 A 
ATOM     79  C   UNL     1      10.444 -11.329 -17.648  1.00  0.00     0.134 A 
ATOM     80  C   UNL     1       8.978  -9.477 -17.268  1.00  0.00     0.134 A 
ATOM     81  F   UNL     1      11.673 -11.858 -17.750  1.00  0.00    -0.206 F 
ATOM     82  C   UNL     1       9.348 -12.159 -17.890  1.00  0.00     0.040 A 
ATOM     83  C   UNL     1       7.872 -10.300 -17.485  1.00  0.00     0.040 A 
ATOM     84  F   UNL     1       8.758  -8.188 -16.971  1.00  0.00    -0.206 F 
ATOM     85  C   UNL     1       8.056 -11.644 -17.804  1.00  0.00     0.006 A 
ENDBRANCH  57  78
BRANCH  69  86
ATOM     86  C   UNL     1      15.327  -7.552 -21.486  1.00  0.00     0.057 A 
ATOM     87  C   UNL     1      14.560  -6.950 -22.492  1.00  0.00     0.134 A 
ATOM     88  C   UNL     1      16.424  -8.328 -21.883  1.00  0.00     0.134 A 
ATOM     89  F   UNL     1      13.489  -6.207 -22.177  1.00  0.00    -0.206 F 
ATOM     90  C   UNL     1      14.863  -7.129 -23.842  1.00  0.00     0.040 A 
ATOM     91  C   UNL     1      16.752  -8.492 -23.229  1.00  0.00     0.040 A 
ATOM     92  F   UNL     1      17.203  -8.924 -20.968  1.00  0.00    -0.206 F 
ATOM     93  C   UNL     1      15.966  -7.896 -24.213  1.00  0.00     0.006 A 
ENDBRANCH  69  86
ENDBRANCH  43  44
ENDBRANCH  35  38
ENDBRANCH  33  34
ENDBRANCH  32  33
ENDBRANCH  31  32
ENDBRANCH   1  31
TORSDOF 17
