REMARK SMILES Cc1cc(Cl)ccc1OCC(=O)Nc1ccc(CC(=O)NCCCCNC(=O)c2ccc(-c3c4nc(c(-c5c(F)cccc5F)c5ccc([nH]5)c(-c5c(F)cccc5F)c5nc(c(-c6c(F)cccc6F)c6ccc3[nH]6)C=C5)C=C4)cc2)cc1
REMARK SMILES IDX 22 1 21 2 19 3 20 4 18 6 17 7 14 8 15 9 84 10 16 11 83 12
REMARK SMILES IDX 13 13 11 14 12 15 10 17 9 18 8 19 1 20 2 21 3 22 4 23 7 24
REMARK SMILES IDX 5 25 6 26 23 27 24 28 25 29 26 30 27 31 28 33 29 34 30 35
REMARK SMILES IDX 82 36 31 37 81 38 32 39 33 40 34 41 75 42 35 43 80 44 74 45
REMARK SMILES IDX 76 46 36 47 79 48 73 49 72 50 37 52 63 53 46 54 62 55 47 56
REMARK SMILES IDX 50 57 61 58 77 59 48 60 49 61 60 63 78 64 51 65 38 66 39 67
REMARK SMILES IDX 44 68 40 69 41 70 43 71 45 72 42 73 64 74 65 75 70 76 66 77
REMARK SMILES IDX 67 78 69 79 71 80 68 81 52 82 53 83 58 84 54 85 55 86 57 87
REMARK SMILES IDX 59 88 56 89
REMARK H PARENT 21 5 13 16 26 32 76 51 50 62
REMARK Flexibility Score: inf
ROOT
ATOM      1  C   UNL     1      -2.264  -5.647   4.241  1.00  0.00     0.116 C 
ENDROOT
BRANCH   1   2
ATOM      2  N   UNL     1      -3.338  -6.220   5.030  1.00  0.00    -0.356 N 
ATOM      3  C   UNL     1      -4.676  -6.274   4.760  1.00  0.00     0.224 C 
ATOM      4  O   UNL     1      -5.426  -6.753   5.612  1.00  0.00    -0.275 OA
ATOM      5  H   UNL     1      -3.063  -6.630   5.882  1.00  0.00     0.163 HD
BRANCH   3   6
ATOM      6  C   UNL     1      -5.209  -5.800   3.421  1.00  0.00     0.135 C 
BRANCH   6   7
ATOM      7  C   UNL     1      -5.081  -4.314   3.202  1.00  0.00    -0.039 A 
ATOM      8  C   UNL     1      -4.754  -1.552   2.787  1.00  0.00     0.041 A 
ATOM      9  C   UNL     1      -5.530  -2.018   3.851  1.00  0.00     0.026 A 
ATOM     10  C   UNL     1      -4.105  -2.474   1.978  1.00  0.00     0.026 A 
ATOM     11  C   UNL     1      -5.706  -3.392   4.050  1.00  0.00     0.006 A 
ATOM     12  C   UNL     1      -4.291  -3.839   2.154  1.00  0.00     0.006 A 
BRANCH   8  13
ATOM     13  N   UNL     1      -4.644  -0.170   2.602  1.00  0.00    -0.323 N 
ATOM     14  C   UNL     1      -4.392   0.568   1.478  1.00  0.00     0.262 C 
ATOM     15  O   UNL     1      -4.315   1.794   1.617  1.00  0.00    -0.271 OA
ATOM     16  H   UNL     1      -4.769   0.362   3.420  1.00  0.00     0.170 HD
BRANCH  14  17
ATOM     17  C   UNL     1      -4.405  -0.066   0.064  1.00  0.00     0.329 C 
BRANCH  17  18
ATOM     18  O   UNL     1      -3.333  -0.718  -0.587  1.00  0.00    -0.483 OA
BRANCH  18  19
ATOM     19  C   UNL     1      -2.039  -0.365  -0.353  1.00  0.00     0.123 A 
ATOM     20  C   UNL     1      -2.265   2.193  -0.545  1.00  0.00     0.048 C 
ATOM     21  C   UNL     1      -1.501   0.925  -0.309  1.00  0.00    -0.007 A 
ATOM     22  C   UNL     1      -0.115   1.068  -0.072  1.00  0.00     0.027 A 
ATOM     23  C   UNL     1       0.721  -0.041   0.044  1.00  0.00     0.041 A 
ATOM     24  C   UNL     1      -1.174  -1.474  -0.272  1.00  0.00     0.048 A 
ATOM     25  Cl  UNL     1       2.409   0.177   0.286  1.00  0.00    -0.084 Cl
ATOM     26  C   UNL     1       0.197  -1.319  -0.068  1.00  0.00     0.024 A 
ENDBRANCH  18  19
ENDBRANCH  17  18
ENDBRANCH  14  17
ENDBRANCH   8  13
ENDBRANCH   6   7
ENDBRANCH   3   6
ENDBRANCH   1   2
BRANCH   1  27
ATOM     27  C   UNL     1      -1.845  -4.271   4.764  1.00  0.00     0.023 C 
BRANCH  27  28
ATOM     28  C   UNL     1      -1.162  -4.297   6.134  1.00  0.00     0.023 C 
BRANCH  28  29
ATOM     29  C   UNL     1       0.080  -5.176   6.219  1.00  0.00     0.116 C 
BRANCH  29  30
ATOM     30  N   UNL     1       1.126  -4.777   5.293  1.00  0.00    -0.352 N 
ATOM     31  C   UNL     1       2.486  -4.758   5.485  1.00  0.00     0.251 C 
ATOM     32  H   UNL     1       0.819  -4.479   4.407  1.00  0.00     0.163 HD
ATOM     33  O   UNL     1       3.220  -4.269   4.629  1.00  0.00    -0.269 OA
BRANCH  31  34
ATOM     34  C   UNL     1       3.064  -5.292   6.737  1.00  0.00     0.039 A 
ATOM     35  C   UNL     1       4.066  -4.559   7.377  1.00  0.00     0.014 A 
ATOM     36  C   UNL     1       2.622  -6.500   7.285  1.00  0.00     0.014 A 
ATOM     37  C   UNL     1       4.584  -5.010   8.592  1.00  0.00     0.010 A 
ATOM     38  C   UNL     1       3.079  -6.904   8.537  1.00  0.00     0.010 A 
ATOM     39  C   UNL     1       4.070  -6.168   9.202  1.00  0.00    -0.014 A 
BRANCH  39  40
ATOM     40  C   UNL     1       4.568  -6.609  10.531  1.00  0.00     0.031 A 
ATOM     41  C   UNL     1       5.281  -7.926  10.681  1.00  0.00     0.074 A 
ATOM     42  C   UNL     1       4.361  -5.828  11.610  1.00  0.00     0.049 A 
ATOM     43  N   UNL     1       5.793  -8.470  11.757  1.00  0.00    -0.248 NA
ATOM     44  C   UNL     1       5.420  -8.751   9.471  1.00  0.00     0.031 C 
ATOM     45  C   UNL     1       3.640  -4.553  11.607  1.00  0.00     0.029 A 
ATOM     46  N   UNL     1       4.743  -5.988  12.918  1.00  0.00    -0.354 N 
ATOM     47  C   UNL     1       6.321  -9.689  11.351  1.00  0.00     0.074 A 
ATOM     48  C   UNL     1       6.000  -9.842   9.949  1.00  0.00     0.031 C 
ATOM     49  C   UNL     1       3.668  -4.028  12.843  1.00  0.00     0.029 A 
ATOM     50  C   UNL     1       4.373  -4.944  13.733  1.00  0.00     0.049 A 
ATOM     51  H   UNL     1       5.236  -6.776  13.243  1.00  0.00     0.167 HD
ATOM     52  C   UNL     1       7.039 -10.585  12.070  1.00  0.00     0.037 A 
ATOM     53  C   UNL     1       4.580  -4.748  15.049  1.00  0.00     0.037 A 
ATOM     54  C   UNL     1       7.361 -10.433  13.465  1.00  0.00     0.049 A 
ATOM     55  C   UNL     1       5.350  -5.779  15.830  1.00  0.00     0.074 A 
ATOM     56  C   UNL     1       8.099 -11.277  14.277  1.00  0.00     0.029 A 
ATOM     57  N   UNL     1       6.964  -9.365  14.255  1.00  0.00    -0.354 N 
ATOM     58  N   UNL     1       5.899  -6.895  15.415  1.00  0.00    -0.248 NA
ATOM     59  C   UNL     1       5.537  -5.515  17.263  1.00  0.00     0.031 C 
ATOM     60  C   UNL     1       8.113 -10.741  15.569  1.00  0.00     0.029 A 
ATOM     61  C   UNL     1       7.430  -9.535  15.549  1.00  0.00     0.049 A 
ATOM     62  H   UNL     1       6.430  -8.599  13.943  1.00  0.00     0.167 HD
ATOM     63  C   UNL     1       6.527  -7.445  16.526  1.00  0.00     0.074 A 
ATOM     64  C   UNL     1       6.310  -6.528  17.625  1.00  0.00     0.031 C 
ATOM     65  C   UNL     1       7.219  -8.606  16.629  1.00  0.00     0.037 A 
BRANCH  52  66
ATOM     66  C   UNL     1       7.545 -11.803  11.351  1.00  0.00     0.057 A 
ATOM     67  C   UNL     1       8.556 -11.715  10.383  1.00  0.00     0.134 A 
ATOM     68  C   UNL     1       7.056 -13.079  11.656  1.00  0.00     0.134 A 
ATOM     69  F   UNL     1       9.061 -10.522  10.033  1.00  0.00    -0.206 F 
ATOM     70  C   UNL     1       9.045 -12.848   9.730  1.00  0.00     0.040 A 
ATOM     71  C   UNL     1       7.558 -14.223  11.032  1.00  0.00     0.040 A 
ATOM     72  F   UNL     1       6.093 -13.238  12.577  1.00  0.00    -0.206 F 
ATOM     73  C   UNL     1       8.552 -14.108  10.062  1.00  0.00     0.006 A 
ENDBRANCH  52  66
BRANCH  53  74
ATOM     74  C   UNL     1       4.076  -3.521  15.720  1.00  0.00     0.057 A 
ATOM     75  C   UNL     1       4.958  -2.569  16.247  1.00  0.00     0.134 A 
ATOM     76  C   UNL     1       2.706  -3.296  15.899  1.00  0.00     0.134 A 
ATOM     77  F   UNL     1       6.283  -2.736  16.125  1.00  0.00    -0.206 F 
ATOM     78  C   UNL     1       4.499  -1.461  16.961  1.00  0.00     0.040 A 
ATOM     79  C   UNL     1       2.232  -2.175  16.582  1.00  0.00     0.040 A 
ATOM     80  F   UNL     1       1.806  -4.163  15.411  1.00  0.00    -0.206 F 
ATOM     81  C   UNL     1       3.131  -1.261  17.129  1.00  0.00     0.006 A 
ENDBRANCH  53  74
BRANCH  65  82
ATOM     82  C   UNL     1       7.833  -8.920  17.964  1.00  0.00     0.057 A 
ATOM     83  C   UNL     1       7.056  -9.252  19.082  1.00  0.00     0.134 A 
ATOM     84  C   UNL     1       9.224  -8.900  18.129  1.00  0.00     0.134 A 
ATOM     85  F   UNL     1       5.717  -9.278  18.996  1.00  0.00    -0.206 F 
ATOM     86  C   UNL     1       7.637  -9.513  20.324  1.00  0.00     0.040 A 
ATOM     87  C   UNL     1       9.819  -9.191  19.357  1.00  0.00     0.040 A 
ATOM     88  F   UNL     1      10.029  -8.601  17.098  1.00  0.00    -0.206 F 
ATOM     89  C   UNL     1       9.024  -9.488  20.462  1.00  0.00     0.006 A 
ENDBRANCH  65  82
ENDBRANCH  39  40
ENDBRANCH  31  34
ENDBRANCH  29  30
ENDBRANCH  28  29
ENDBRANCH  27  28
ENDBRANCH   1  27
TORSDOF 16
