REMARK SMILES NS(=O)(=O)c1ccc(-n2nc(C(=O)NCCCCCCCCCCC(=O)NCCCCNC(=O)c3ccc(-c4c5nc(c(-c6c(F)cccc6F)c6ccc([nH]6)c(-c6c(F)cccc6F)c6nc(c(-c7c(F)cccc7F)c7ccc4[nH]7)C=C6)C=C5)cc3)cc2-c2ccccc2)cc1
REMARK SMILES IDX 21 1 20 2 19 3 18 4 17 5 16 6 15 7 14 8 12 9 13 10 11 12
REMARK SMILES IDX 9 13 10 14 90 15 89 16 8 17 5 18 6 19 98 20 7 21 97 22 2 23
REMARK SMILES IDX 3 24 4 25 1 26 91 29 92 30 96 31 93 32 95 33 94 34 22 35
REMARK SMILES IDX 23 36 24 37 25 38 26 39 27 40 28 42 29 43 30 44 31 45 32 46
REMARK SMILES IDX 33 47 34 49 35 50 36 51 88 52 37 53 87 54 38 55 39 56 40 57
REMARK SMILES IDX 81 58 41 59 86 60 80 61 82 62 42 63 85 64 79 65 78 66 43 68
REMARK SMILES IDX 69 69 52 70 68 71 53 72 56 73 67 74 83 75 54 76 55 77 66 79
REMARK SMILES IDX 84 80 57 81 44 82 45 83 50 84 46 85 47 86 49 87 51 88 48 89
REMARK SMILES IDX 70 90 71 91 76 92 72 93 73 94 75 95 77 96 74 97 58 98 59 99
REMARK SMILES IDX 64 100 60 101 61 102 63 103 65 104 62 105
REMARK H PARENT 14 11 1 27 1 28 27 41 32 48 82 67 56 78
REMARK Flexibility Score: inf
ROOT
ATOM      1  C   UNL     1       5.619  12.352   9.811  1.00  0.00     0.000 C 
ENDROOT
BRANCH   1   2
ATOM      2  C   UNL     1       5.479  11.104   8.950  1.00  0.00     0.000 C 
BRANCH   2   3
ATOM      3  C   UNL     1       4.173  10.345   9.193  1.00  0.00     0.000 C 
BRANCH   3   4
ATOM      4  C   UNL     1       2.914  11.165   8.884  1.00  0.00     0.000 C 
BRANCH   4   5
ATOM      5  C   UNL     1       2.777  11.565   7.409  1.00  0.00     0.002 C 
BRANCH   5   6
ATOM      6  C   UNL     1       3.003  10.406   6.432  1.00  0.00     0.021 C 
BRANCH   6   7
ATOM      7  C   UNL     1       2.069   9.230   6.717  1.00  0.00     0.116 C 
BRANCH   7   8
ATOM      8  N   UNL     1       0.883   9.340   5.909  1.00  0.00    -0.351 N 
ATOM      9  C   UNL     1       0.511   8.726   4.741  1.00  0.00     0.271 C 
ATOM     10  O   UNL     1      -0.561   9.099   4.259  1.00  0.00    -0.267 OA
ATOM     11  H   UNL     1       0.216   9.974   6.260  1.00  0.00     0.163 HD
BRANCH   9  12
ATOM     12  C   UNL     1       1.312   7.635   4.149  1.00  0.00     0.151 A 
ATOM     13  N   UNL     1       1.604   5.825   3.028  1.00  0.00    -0.232 N 
ATOM     14  N   UNL     1       0.769   6.871   3.185  1.00  0.00    -0.162 NA
ATOM     15  C   UNL     1       2.764   5.968   3.766  1.00  0.00     0.075 A 
ATOM     16  C   UNL     1       2.636   7.191   4.391  1.00  0.00     0.065 A 
BRANCH  13  17
ATOM     17  C   UNL     1       1.235   4.771   2.165  1.00  0.00     0.065 A 
ATOM     18  C   UNL     1       0.645   2.743   0.373  1.00  0.00     0.082 A 
ATOM     19  C   UNL     1       1.165   2.421   1.631  1.00  0.00     0.024 A 
ATOM     20  C   UNL     1       0.382   4.071   0.020  1.00  0.00     0.024 A 
ATOM     21  C   UNL     1       1.478   3.441   2.525  1.00  0.00     0.030 A 
ATOM     22  C   UNL     1       0.647   5.088   0.933  1.00  0.00     0.030 A 
BRANCH  18  23
ATOM     23  S   UNL     1       0.353   1.490  -0.835  1.00  0.00     0.238 S 
ATOM     24  O   UNL     1       1.119   1.827  -2.026  1.00  0.00    -0.207 OA
ATOM     25  O   UNL     1      -1.046   1.190  -0.864  1.00  0.00    -0.207 OA
BRANCH  23  26
ATOM     26  N   UNL     1       1.112   0.124  -0.211  1.00  0.00    -0.225 NA
ATOM     27  H   UNL     1       0.990  -0.657  -0.856  1.00  0.00     0.137 HD
ATOM     28  H   UNL     1       0.699  -0.113   0.691  1.00  0.00     0.137 HD
ENDBRANCH  23  26
ENDBRANCH  18  23
ENDBRANCH  13  17
BRANCH  15  29
ATOM     29  C   UNL     1       3.918   5.076   3.762  1.00  0.00     0.000 A 
ATOM     30  C   UNL     1       4.675   4.893   2.600  1.00  0.00     0.010 A 
ATOM     31  C   UNL     1       4.292   4.412   4.938  1.00  0.00     0.010 A 
ATOM     32  C   UNL     1       5.785   4.046   2.611  1.00  0.00     0.001 A 
ATOM     33  C   UNL     1       5.399   3.562   4.945  1.00  0.00     0.001 A 
ATOM     34  C   UNL     1       6.144   3.380   3.781  1.00  0.00     0.000 A 
ENDBRANCH  15  29
ENDBRANCH   9  12
ENDBRANCH   7   8
ENDBRANCH   6   7
ENDBRANCH   5   6
ENDBRANCH   4   5
ENDBRANCH   3   4
ENDBRANCH   2   3
ENDBRANCH   1   2
BRANCH   1  35
ATOM     35  C   UNL     1       5.652  12.026  11.308  1.00  0.00     0.001 C 
BRANCH  35  36
ATOM     36  C   UNL     1       6.944  12.425  12.005  1.00  0.00     0.010 C 
BRANCH  36  37
ATOM     37  C   UNL     1       7.322  13.901  11.899  1.00  0.00     0.100 C 
BRANCH  37  38
ATOM     38  C   UNL     1       6.709  14.781  12.972  1.00  0.00     0.219 C 
ATOM     39  O   UNL     1       7.320  14.998  14.021  1.00  0.00    -0.275 OA
ATOM     40  N   UNL     1       5.492  15.373  12.813  1.00  0.00    -0.356 N 
ATOM     41  H   UNL     1       5.217  15.939  13.570  1.00  0.00     0.163 HD
BRANCH  40  42
ATOM     42  C   UNL     1       4.529  15.319  11.727  1.00  0.00     0.116 C 
BRANCH  42  43
ATOM     43  C   UNL     1       3.256  14.547  12.113  1.00  0.00     0.023 C 
BRANCH  43  44
ATOM     44  C   UNL     1       2.200  15.304  12.928  1.00  0.00     0.023 C 
BRANCH  44  45
ATOM     45  C   UNL     1       1.421  16.370  12.170  1.00  0.00     0.116 C 
BRANCH  45  46
ATOM     46  N   UNL     1       0.609  15.840  11.069  1.00  0.00    -0.352 N 
ATOM     47  C   UNL     1       0.066  16.548  10.009  1.00  0.00     0.251 C 
ATOM     48  H   UNL     1       0.430  14.872  11.085  1.00  0.00     0.163 HD
ATOM     49  O   UNL     1      -0.895  16.131   9.377  1.00  0.00    -0.269 OA
BRANCH  47  50
ATOM     50  C   UNL     1       0.702  17.824   9.650  1.00  0.00     0.039 A 
ATOM     51  C   UNL     1      -0.032  18.999   9.475  1.00  0.00     0.014 A 
ATOM     52  C   UNL     1       2.092  17.828   9.628  1.00  0.00     0.014 A 
ATOM     53  C   UNL     1       0.658  20.207   9.386  1.00  0.00     0.010 A 
ATOM     54  C   UNL     1       2.749  19.025   9.725  1.00  0.00     0.010 A 
ATOM     55  C   UNL     1       2.053  20.217   9.546  1.00  0.00    -0.014 A 
BRANCH  55  56
ATOM     56  C   UNL     1       2.796  21.472   9.642  1.00  0.00     0.031 A 
ATOM     57  C   UNL     1       2.281  22.450  10.643  1.00  0.00     0.074 A 
ATOM     58  C   UNL     1       4.001  21.649   9.055  1.00  0.00     0.049 A 
ATOM     59  N   UNL     1       1.774  23.618  10.424  1.00  0.00    -0.248 NA
ATOM     60  C   UNL     1       2.219  22.033  12.053  1.00  0.00     0.031 C 
ATOM     61  C   UNL     1       4.808  20.674   8.307  1.00  0.00     0.029 A 
ATOM     62  N   UNL     1       4.823  22.733   9.101  1.00  0.00    -0.354 N 
ATOM     63  C   UNL     1       1.526  24.175  11.678  1.00  0.00     0.074 A 
ATOM     64  C   UNL     1       1.641  23.094  12.621  1.00  0.00     0.031 C 
ATOM     65  C   UNL     1       6.075  21.122   8.191  1.00  0.00     0.029 A 
ATOM     66  C   UNL     1       6.120  22.488   8.669  1.00  0.00     0.049 A 
ATOM     67  H   UNL     1       4.523  23.616   9.415  1.00  0.00     0.167 HD
ATOM     68  C   UNL     1       1.499  25.527  11.854  1.00  0.00     0.037 A 
ATOM     69  C   UNL     1       7.166  23.347   8.699  1.00  0.00     0.037 A 
ATOM     70  C   UNL     1       1.332  26.205  10.590  1.00  0.00     0.049 A 
ATOM     71  C   UNL     1       6.609  24.713   8.822  1.00  0.00     0.074 A 
ATOM     72  C   UNL     1       0.386  26.182   9.583  1.00  0.00     0.029 A 
ATOM     73  N   UNL     1       2.439  26.801  10.036  1.00  0.00    -0.354 N 
ATOM     74  N   UNL     1       5.919  25.304   7.887  1.00  0.00    -0.248 NA
ATOM     75  C   UNL     1       6.440  25.255  10.161  1.00  0.00     0.031 C 
ATOM     76  C   UNL     1       1.134  26.294   8.373  1.00  0.00     0.029 A 
ATOM     77  C   UNL     1       2.478  26.448   8.714  1.00  0.00     0.049 A 
ATOM     78  H   UNL     1       3.085  27.378  10.504  1.00  0.00     0.167 HD
ATOM     79  C   UNL     1       4.918  25.983   8.565  1.00  0.00     0.074 A 
ATOM     80  C   UNL     1       5.353  26.004   9.960  1.00  0.00     0.031 C 
ATOM     81  C   UNL     1       3.702  26.210   7.983  1.00  0.00     0.037 A 
BRANCH  68  82
ATOM     82  C   UNL     1       2.032  26.249  13.079  1.00  0.00     0.057 A 
ATOM     83  C   UNL     1       1.945  27.656  13.130  1.00  0.00     0.134 A 
ATOM     84  C   UNL     1       2.891  25.681  14.042  1.00  0.00     0.134 A 
ATOM     85  F   UNL     1       1.151  28.329  12.283  1.00  0.00    -0.206 F 
ATOM     86  C   UNL     1       2.741  28.434  13.980  1.00  0.00     0.040 A 
ATOM     87  C   UNL     1       3.654  26.447  14.930  1.00  0.00     0.040 A 
ATOM     88  F   UNL     1       3.121  24.367  14.124  1.00  0.00    -0.206 F 
ATOM     89  C   UNL     1       3.614  27.830  14.873  1.00  0.00     0.006 A 
ENDBRANCH  68  82
BRANCH  69  90
ATOM     90  C   UNL     1       8.601  23.049   8.890  1.00  0.00     0.057 A 
ATOM     91  C   UNL     1       9.585  23.989   8.558  1.00  0.00     0.134 A 
ATOM     92  C   UNL     1       9.026  21.951   9.659  1.00  0.00     0.134 A 
ATOM     93  F   UNL     1       9.268  25.086   7.855  1.00  0.00    -0.206 F 
ATOM     94  C   UNL     1      10.911  23.863   8.993  1.00  0.00     0.040 A 
ATOM     95  C   UNL     1      10.347  21.810  10.095  1.00  0.00     0.040 A 
ATOM     96  F   UNL     1       8.154  21.026  10.086  1.00  0.00    -0.206 F 
ATOM     97  C   UNL     1      11.292  22.778   9.777  1.00  0.00     0.006 A 
ENDBRANCH  69  90
BRANCH  81  98
ATOM     98  C   UNL     1       3.568  25.954   6.506  1.00  0.00     0.057 A 
ATOM     99  C   UNL     1       3.701  24.693   5.906  1.00  0.00     0.134 A 
ATOM    100  C   UNL     1       3.138  27.000   5.682  1.00  0.00     0.134 A 
ATOM    101  F   UNL     1       4.013  23.610   6.626  1.00  0.00    -0.206 F 
ATOM    102  C   UNL     1       3.456  24.492   4.543  1.00  0.00     0.040 A 
ATOM    103  C   UNL     1       2.858  26.807   4.327  1.00  0.00     0.040 A 
ATOM    104  F   UNL     1       2.935  28.224   6.196  1.00  0.00    -0.206 F 
ATOM    105  C   UNL     1       3.026  25.551   3.751  1.00  0.00     0.006 A 
ENDBRANCH  81  98
ENDBRANCH  55  56
ENDBRANCH  47  50
ENDBRANCH  45  46
ENDBRANCH  44  45
ENDBRANCH  43  44
ENDBRANCH  42  43
ENDBRANCH  40  42
ENDBRANCH  37  38
ENDBRANCH  36  37
ENDBRANCH  35  36
ENDBRANCH   1  35
TORSDOF 26
