REMARK SMILES O=C(NCCCCNC(=O)c1ccc(NS(=O)(=O)c2ccc3c(c2)CCC3)cc1Cl)c1ccc(-c2c3nc(c(-c4c(F)cccc4F)c4ccc([nH]4)c(-c4c(F)cccc4F)c4nc(c(-c5c(F)cccc5F)c5ccc2[nH]5)C=C4)C=C3)cc1
REMARK SMILES IDX 6 1 5 2 4 3 3 4 1 5 2 6 31 8 32 9 84 10 33 11 83 12 34 13
REMARK SMILES IDX 35 14 36 15 77 16 37 17 82 18 76 19 78 20 38 21 81 22 75 23
REMARK SMILES IDX 74 24 39 26 65 27 48 28 64 29 49 30 52 31 63 32 79 33 50 34
REMARK SMILES IDX 51 35 62 37 80 38 53 39 40 40 41 41 46 42 42 43 43 44 45 45
REMARK SMILES IDX 47 46 44 47 66 48 67 49 72 50 68 51 69 52 71 53 73 54 70 55
REMARK SMILES IDX 54 56 55 57 60 58 56 59 57 60 59 61 61 62 58 63 7 64 8 65
REMARK SMILES IDX 9 66 10 68 11 69 12 70 29 71 13 72 28 73 30 74 14 75 15 76
REMARK SMILES IDX 16 78 17 79 18 80 19 81 20 82 24 83 21 84 23 85 22 86 25 87
REMARK SMILES IDX 27 88 26 89
REMARK H PARENT 3 7 78 25 52 36 8 67 15 77
REMARK Flexibility Score: inf
ROOT
ATOM      1  C   UNL     1       4.421   1.426  -3.655  1.00  0.00     0.023 C 
ENDROOT
BRANCH   1   2
ATOM      2  C   UNL     1       4.889   0.323  -2.713  1.00  0.00     0.023 C 
BRANCH   2   3
ATOM      3  C   UNL     1       4.522   0.499  -1.248  1.00  0.00     0.116 C 
BRANCH   3   4
ATOM      4  N   UNL     1       3.091   0.513  -0.991  1.00  0.00    -0.352 N 
ATOM      5  O   UNL     1       1.159  -0.091   0.015  1.00  0.00    -0.269 OA
ATOM      6  C   UNL     1       2.383  -0.158  -0.018  1.00  0.00     0.251 C 
ATOM      7  H   UNL     1       2.555   1.079  -1.594  1.00  0.00     0.163 HD
BRANCH   6   8
ATOM      8  C   UNL     1       3.106  -1.001   0.961  1.00  0.00     0.039 A 
ATOM      9  C   UNL     1       4.262  -0.532   1.585  1.00  0.00     0.014 A 
ATOM     10  C   UNL     1       2.641  -2.293   1.227  1.00  0.00     0.014 A 
ATOM     11  C   UNL     1       5.046  -1.408   2.324  1.00  0.00     0.010 A 
ATOM     12  C   UNL     1       3.382  -3.143   2.055  1.00  0.00     0.010 A 
ATOM     13  C   UNL     1       4.614  -2.722   2.576  1.00  0.00    -0.014 A 
BRANCH  13  14
ATOM     14  C   UNL     1       5.458  -3.595   3.432  1.00  0.00     0.031 A 
ATOM     15  C   UNL     1       6.115  -4.835   2.890  1.00  0.00     0.074 A 
ATOM     16  C   UNL     1       5.693  -3.207   4.700  1.00  0.00     0.049 A 
ATOM     17  N   UNL     1       6.956  -5.645   3.485  1.00  0.00    -0.248 NA
ATOM     18  C   UNL     1       5.787  -5.225   1.510  1.00  0.00     0.031 C 
ATOM     19  C   UNL     1       5.091  -2.037   5.345  1.00  0.00     0.029 A 
ATOM     20  N   UNL     1       6.527  -3.722   5.659  1.00  0.00    -0.354 N 
ATOM     21  C   UNL     1       7.245  -6.644   2.564  1.00  0.00     0.074 A 
ATOM     22  C   UNL     1       6.471  -6.353   1.375  1.00  0.00     0.031 C 
ATOM     23  C   UNL     1       5.627  -1.882   6.563  1.00  0.00     0.029 A 
ATOM     24  C   UNL     1       6.566  -2.970   6.808  1.00  0.00     0.049 A 
ATOM     25  H   UNL     1       7.046  -4.549   5.536  1.00  0.00     0.167 HD
ATOM     26  C   UNL     1       8.085  -7.699   2.696  1.00  0.00     0.037 A 
ATOM     27  C   UNL     1       7.279  -3.134   7.936  1.00  0.00     0.037 A 
ATOM     28  C   UNL     1       8.865  -7.978   3.875  1.00  0.00     0.049 A 
ATOM     29  C   UNL     1       8.220  -4.296   8.042  1.00  0.00     0.074 A 
ATOM     30  C   UNL     1       9.748  -9.022   4.100  1.00  0.00     0.029 A 
ATOM     31  N   UNL     1       8.862  -7.205   5.026  1.00  0.00    -0.354 N 
ATOM     32  N   UNL     1       8.486  -5.223   7.156  1.00  0.00    -0.248 NA
ATOM     33  C   UNL     1       8.955  -4.436   9.306  1.00  0.00     0.031 C 
ATOM     34  C   UNL     1      10.258  -8.894   5.397  1.00  0.00     0.029 A 
ATOM     35  C   UNL     1       9.721  -7.752   5.966  1.00  0.00     0.049 A 
ATOM     36  H   UNL     1       8.329  -6.388   5.156  1.00  0.00     0.167 HD
ATOM     37  C   UNL     1       9.414  -6.062   7.755  1.00  0.00     0.074 A 
ATOM     38  C   UNL     1       9.694  -5.510   9.065  1.00  0.00     0.031 C 
ATOM     39  C   UNL     1       9.974  -7.196   7.270  1.00  0.00     0.037 A 
BRANCH  26  40
ATOM     40  C   UNL     1       8.205  -8.643   1.535  1.00  0.00     0.057 A 
ATOM     41  C   UNL     1       8.924  -8.303   0.382  1.00  0.00     0.134 A 
ATOM     42  C   UNL     1       7.651  -9.928   1.596  1.00  0.00     0.134 A 
ATOM     43  F   UNL     1       9.470  -7.084   0.256  1.00  0.00    -0.206 F 
ATOM     44  C   UNL     1       9.079  -9.205  -0.673  1.00  0.00     0.040 A 
ATOM     45  C   UNL     1       7.815 -10.845   0.555  1.00  0.00     0.040 A 
ATOM     46  F   UNL     1       6.956 -10.319   2.674  1.00  0.00    -0.206 F 
ATOM     47  C   UNL     1       8.530 -10.483  -0.585  1.00  0.00     0.006 A 
ENDBRANCH  26  40
BRANCH  27  48
ATOM     48  C   UNL     1       7.122  -2.169   9.050  1.00  0.00     0.057 A 
ATOM     49  C   UNL     1       8.142  -1.272   9.384  1.00  0.00     0.134 A 
ATOM     50  C   UNL     1       5.937  -2.108   9.794  1.00  0.00     0.134 A 
ATOM     51  F   UNL     1       9.305  -1.293   8.716  1.00  0.00    -0.206 F 
ATOM     52  C   UNL     1       7.995  -0.355  10.426  1.00  0.00     0.040 A 
ATOM     53  C   UNL     1       5.766  -1.181  10.821  1.00  0.00     0.040 A 
ATOM     54  F   UNL     1       4.920  -2.936   9.515  1.00  0.00    -0.206 F 
ATOM     55  C   UNL     1       6.801  -0.304  11.143  1.00  0.00     0.006 A 
ENDBRANCH  27  48
BRANCH  39  56
ATOM     56  C   UNL     1      10.936  -7.907   8.172  1.00  0.00     0.057 A 
ATOM     57  C   UNL     1      10.493  -8.637   9.283  1.00  0.00     0.134 A 
ATOM     58  C   UNL     1      12.314  -7.862   7.931  1.00  0.00     0.134 A 
ATOM     59  F   UNL     1       9.185  -8.703   9.574  1.00  0.00    -0.206 F 
ATOM     60  C   UNL     1      11.390  -9.274  10.140  1.00  0.00     0.040 A 
ATOM     61  C   UNL     1      13.220  -8.513   8.769  1.00  0.00     0.040 A 
ATOM     62  F   UNL     1      12.800  -7.184   6.881  1.00  0.00    -0.206 F 
ATOM     63  C   UNL     1      12.759  -9.214   9.882  1.00  0.00     0.006 A 
ENDBRANCH  39  56
ENDBRANCH  13  14
ENDBRANCH   6   8
ENDBRANCH   3   4
ENDBRANCH   2   3
ENDBRANCH   1   2
BRANCH   1  64
ATOM     64  C   UNL     1       4.663   2.857  -3.184  1.00  0.00     0.116 C 
BRANCH  64  65
ATOM     65  N   UNL     1       6.050   3.157  -2.858  1.00  0.00    -0.352 N 
ATOM     66  C   UNL     1       6.843   4.182  -3.322  1.00  0.00     0.252 C 
ATOM     67  H   UNL     1       6.479   2.544  -2.219  1.00  0.00     0.163 HD
ATOM     68  O   UNL     1       7.987   4.336  -2.909  1.00  0.00    -0.269 OA
BRANCH  66  69
ATOM     69  C   UNL     1       6.351   4.997  -4.441  1.00  0.00     0.058 A 
ATOM     70  C   UNL     1       6.907   4.703  -5.682  1.00  0.00     0.017 A 
ATOM     71  C   UNL     1       5.268   5.874  -4.347  1.00  0.00     0.055 A 
ATOM     72  C   UNL     1       6.285   5.167  -6.836  1.00  0.00     0.027 A 
ATOM     73  C   UNL     1       4.634   6.316  -5.516  1.00  0.00     0.048 A 
ATOM     74  Cl  UNL     1       4.608   6.351  -2.824  1.00  0.00    -0.083 Cl
ATOM     75  C   UNL     1       5.110   5.918  -6.769  1.00  0.00     0.050 A 
BRANCH  75  76
ATOM     76  N   UNL     1       4.259   6.074  -7.904  1.00  0.00    -0.280 N 
ATOM     77  H   UNL     1       3.333   5.748  -7.830  1.00  0.00     0.180 HD
BRANCH  76  78
ATOM     78  S   UNL     1       4.730   6.777  -9.358  1.00  0.00     0.261 S 
ATOM     79  O   UNL     1       3.593   6.648 -10.247  1.00  0.00    -0.201 OA
ATOM     80  O   UNL     1       5.293   8.073  -9.049  1.00  0.00    -0.201 OA
BRANCH  78  81
ATOM     81  C   UNL     1       6.011   5.725  -9.992  1.00  0.00     0.088 A 
ATOM     82  C   UNL     1       5.773   4.345 -10.151  1.00  0.00     0.022 A 
ATOM     83  C   UNL     1       7.295   6.266 -10.123  1.00  0.00     0.026 A 
ATOM     84  C   UNL     1       6.852   3.474 -10.344  1.00  0.00     0.005 A 
ATOM     85  C   UNL     1       8.346   5.391 -10.319  1.00  0.00    -0.043 A 
ATOM     86  C   UNL     1       8.132   4.010 -10.399  1.00  0.00    -0.045 A 
ATOM     87  C   UNL     1       9.806   5.718 -10.330  1.00  0.00     0.036 C 
ATOM     88  C   UNL     1       9.442   3.281 -10.421  1.00  0.00     0.036 C 
ATOM     89  C   UNL     1      10.405   4.401 -10.841  1.00  0.00     0.010 C 
ENDBRANCH  78  81
ENDBRANCH  76  78
ENDBRANCH  75  76
ENDBRANCH  66  69
ENDBRANCH  64  65
ENDBRANCH   1  64
TORSDOF 14
