REMARK SMILES O=C(/C=C/c1ccc(NC(=O)CCc2nc(-c3cc(Br)cs3)no2)cc1)NCCCCNC(=O)c1ccc(-c2c3nc(c(-c4c(F)cccc4F)c4ccc([nH]4)c(-c4c(F)cccc4F)c4nc(c(-c5c(F)cccc5F)c5ccc2[nH]5)C=C4)C=C3)cc1
REMARK SMILES IDX 1 1 2 2 27 3 3 5 4 6 5 7 6 8 26 9 7 10 25 11 8 12 9 13 10 14
REMARK SMILES IDX 11 16 12 17 13 18 14 19 15 20 24 21 16 22 23 23 17 24 18 25
REMARK SMILES IDX 22 26 19 27 21 28 20 29 28 30 29 31 30 32 31 33 32 34 33 35
REMARK SMILES IDX 34 37 35 38 36 39 88 40 37 41 87 42 38 43 39 44 40 45 81 46
REMARK SMILES IDX 41 47 86 48 80 49 82 50 42 51 85 52 79 53 78 54 43 56 69 57
REMARK SMILES IDX 52 58 68 59 53 60 56 61 67 62 83 63 54 64 55 65 66 67 84 68
REMARK SMILES IDX 57 69 44 70 45 71 50 72 46 73 47 74 49 75 51 76 48 77 70 78
REMARK SMILES IDX 71 79 76 80 72 81 73 82 75 83 77 84 74 85 58 86 59 87 64 88
REMARK SMILES IDX 60 89 61 90 63 91 65 92 62 93
REMARK H PARENT 27 4 9 15 32 36 82 55 56 66
REMARK Flexibility Score: inf
ROOT
ATOM      1  O   UNL     1       0.575   0.659   0.892  1.00  0.00    -0.270 OA
ATOM      2  C   UNL     1       1.777   0.484   0.738  1.00  0.00     0.243 C 
ATOM      3  N   UNL     1       2.537   1.124  -0.213  1.00  0.00    -0.353 N 
ATOM      4  H   UNL     1       3.507   0.958  -0.236  1.00  0.00     0.163 HD
ENDROOT
BRANCH   2   5
ATOM      5  C   UNL     1       2.476  -0.550   1.550  1.00  0.00     0.072 C 
ATOM      6  C   UNL     1       3.787  -0.530   1.829  1.00  0.00     0.014 C 
BRANCH   6   7
ATOM      7  C   UNL     1       4.531  -1.551   2.579  1.00  0.00    -0.025 A 
ATOM      8  C   UNL     1       5.681  -1.138   3.255  1.00  0.00     0.010 A 
ATOM      9  C   UNL     1       4.249  -2.920   2.527  1.00  0.00     0.010 A 
ATOM     10  C   UNL     1       6.583  -2.068   3.777  1.00  0.00     0.027 A 
ATOM     11  C   UNL     1       5.165  -3.852   3.039  1.00  0.00     0.027 A 
ATOM     12  C   UNL     1       6.385  -3.429   3.584  1.00  0.00     0.041 A 
BRANCH  12  13
ATOM     13  N   UNL     1       7.355  -4.415   3.834  1.00  0.00    -0.326 N 
ATOM     14  C   UNL     1       8.722  -4.392   3.824  1.00  0.00     0.224 C 
ATOM     15  H   UNL     1       6.976  -5.295   4.062  1.00  0.00     0.169 HD
ATOM     16  O   UNL     1       9.313  -5.457   4.042  1.00  0.00    -0.275 OA
BRANCH  14  17
ATOM     17  C   UNL     1       9.536  -3.160   3.471  1.00  0.00     0.110 C 
BRANCH  17  18
ATOM     18  C   UNL     1       9.744  -2.873   1.983  1.00  0.00     0.110 C 
BRANCH  18  19
ATOM     19  C   UNL     1       8.558  -3.021   1.107  1.00  0.00     0.227 A 
ATOM     20  N   UNL     1       7.867  -2.119   0.441  1.00  0.00    -0.190 NA
ATOM     21  O   UNL     1       8.107  -4.293   0.913  1.00  0.00    -0.339 OA
ATOM     22  C   UNL     1       6.859  -2.880  -0.112  1.00  0.00     0.212 A 
ATOM     23  N   UNL     1       6.954  -4.193   0.145  1.00  0.00    -0.056 NA
BRANCH  22  24
ATOM     24  C   UNL     1       5.710  -2.314  -0.886  1.00  0.00     0.076 A 
ATOM     25  C   UNL     1       4.513  -2.982  -1.062  1.00  0.00     0.039 A 
ATOM     26  S   UNL     1       5.694  -0.769  -1.616  1.00  0.00    -0.139 S 
ATOM     27  C   UNL     1       3.583  -2.196  -1.781  1.00  0.00     0.029 A 
ATOM     28  C   UNL     1       4.107  -1.009  -2.224  1.00  0.00     0.081 A 
ATOM     29  Br  UNL     1       1.808  -2.762  -2.065  1.00  0.00    -0.050 Br
ENDBRANCH  22  24
ENDBRANCH  18  19
ENDBRANCH  17  18
ENDBRANCH  14  17
ENDBRANCH  12  13
ENDBRANCH   6   7
ENDBRANCH   2   5
BRANCH   3  30
ATOM     30  C   UNL     1       1.959   2.036  -1.182  1.00  0.00     0.116 C 
BRANCH  30  31
ATOM     31  C   UNL     1       2.412   3.482  -0.986  1.00  0.00     0.023 C 
BRANCH  31  32
ATOM     32  C   UNL     1       3.904   3.737  -1.221  1.00  0.00     0.023 C 
BRANCH  32  33
ATOM     33  C   UNL     1       4.407   3.471  -2.639  1.00  0.00     0.116 C 
BRANCH  33  34
ATOM     34  N   UNL     1       3.831   4.370  -3.628  1.00  0.00    -0.352 N 
ATOM     35  C   UNL     1       4.442   5.242  -4.500  1.00  0.00     0.251 C 
ATOM     36  H   UNL     1       2.848   4.352  -3.681  1.00  0.00     0.163 HD
ATOM     37  O   UNL     1       3.761   6.025  -5.154  1.00  0.00    -0.269 OA
BRANCH  35  38
ATOM     38  C   UNL     1       5.917   5.268  -4.639  1.00  0.00     0.039 A 
ATOM     39  C   UNL     1       6.565   6.506  -4.703  1.00  0.00     0.014 A 
ATOM     40  C   UNL     1       6.662   4.090  -4.730  1.00  0.00     0.014 A 
ATOM     41  C   UNL     1       7.960   6.561  -4.779  1.00  0.00     0.010 A 
ATOM     42  C   UNL     1       8.055   4.146  -4.731  1.00  0.00     0.010 A 
ATOM     43  C   UNL     1       8.721   5.381  -4.751  1.00  0.00    -0.014 A 
BRANCH  43  44
ATOM     44  C   UNL     1      10.208   5.423  -4.724  1.00  0.00     0.031 A 
ATOM     45  C   UNL     1      11.010   4.828  -5.849  1.00  0.00     0.074 A 
ATOM     46  C   UNL     1      10.842   5.942  -3.653  1.00  0.00     0.049 A 
ATOM     47  N   UNL     1      12.309   4.706  -5.966  1.00  0.00    -0.248 NA
ATOM     48  C   UNL     1      10.253   4.274  -6.982  1.00  0.00     0.031 C 
ATOM     49  C   UNL     1      10.184   6.513  -2.476  1.00  0.00     0.029 A 
ATOM     50  N   UNL     1      12.181   6.063  -3.375  1.00  0.00    -0.354 N 
ATOM     51  C   UNL     1      12.523   4.058  -7.176  1.00  0.00     0.074 A 
ATOM     52  C   UNL     1      11.219   3.760  -7.729  1.00  0.00     0.031 C 
ATOM     53  C   UNL     1      11.120   6.939  -1.613  1.00  0.00     0.029 A 
ATOM     54  C   UNL     1      12.441   6.634  -2.152  1.00  0.00     0.049 A 
ATOM     55  H   UNL     1      12.888   5.768  -3.993  1.00  0.00     0.167 HD
ATOM     56  C   UNL     1      13.696   3.759  -7.784  1.00  0.00     0.037 A 
ATOM     57  C   UNL     1      13.611   6.875  -1.528  1.00  0.00     0.037 A 
ATOM     58  C   UNL     1      14.994   4.065  -7.239  1.00  0.00     0.049 A 
ATOM     59  C   UNL     1      14.900   6.510  -2.212  1.00  0.00     0.074 A 
ATOM     60  C   UNL     1      16.239   3.843  -7.801  1.00  0.00     0.029 A 
ATOM     61  N   UNL     1      15.214   4.655  -6.003  1.00  0.00    -0.354 N 
ATOM     62  N   UNL     1      15.086   5.954  -3.385  1.00  0.00    -0.248 NA
ATOM     63  C   UNL     1      16.143   6.813  -1.488  1.00  0.00     0.031 C 
ATOM     64  C   UNL     1      17.214   4.250  -6.884  1.00  0.00     0.029 A 
ATOM     65  C   UNL     1      16.576   4.781  -5.775  1.00  0.00     0.049 A 
ATOM     66  H   UNL     1      14.508   4.941  -5.380  1.00  0.00     0.167 HD
ATOM     67  C   UNL     1      16.462   5.869  -3.552  1.00  0.00     0.074 A 
ATOM     68  C   UNL     1      17.064   6.444  -2.367  1.00  0.00     0.031 C 
ATOM     69  C   UNL     1      17.164   5.360  -4.594  1.00  0.00     0.037 A 
BRANCH  56  70
ATOM     70  C   UNL     1      13.631   3.063  -9.114  1.00  0.00     0.057 A 
ATOM     71  C   UNL     1      13.163   3.712 -10.265  1.00  0.00     0.134 A 
ATOM     72  C   UNL     1      14.076   1.743  -9.256  1.00  0.00     0.134 A 
ATOM     73  F   UNL     1      12.712   4.974 -10.198  1.00  0.00    -0.206 F 
ATOM     74  C   UNL     1      13.114   3.065 -11.501  1.00  0.00     0.040 A 
ATOM     75  C   UNL     1      14.060   1.095 -10.493  1.00  0.00     0.040 A 
ATOM     76  F   UNL     1      14.545   1.064  -8.198  1.00  0.00    -0.206 F 
ATOM     77  C   UNL     1      13.571   1.754 -11.618  1.00  0.00     0.006 A 
ENDBRANCH  56  70
BRANCH  57  78
ATOM     78  C   UNL     1      13.620   7.503  -0.181  1.00  0.00     0.057 A 
ATOM     79  C   UNL     1      14.109   8.800   0.009  1.00  0.00     0.134 A 
ATOM     80  C   UNL     1      13.157   6.817   0.948  1.00  0.00     0.134 A 
ATOM     81  F   UNL     1      14.585   9.502  -1.030  1.00  0.00    -0.206 F 
ATOM     82  C   UNL     1      14.158   9.386   1.276  1.00  0.00     0.040 A 
ATOM     83  C   UNL     1      13.173   7.401   2.216  1.00  0.00     0.040 A 
ATOM     84  F   UNL     1      12.669   5.573   0.834  1.00  0.00    -0.206 F 
ATOM     85  C   UNL     1      13.684   8.686   2.384  1.00  0.00     0.006 A 
ENDBRANCH  57  78
BRANCH  69  86
ATOM     86  C   UNL     1      18.663   5.437  -4.520  1.00  0.00     0.057 A 
ATOM     87  C   UNL     1      19.405   4.644  -3.636  1.00  0.00     0.134 A 
ATOM     88  C   UNL     1      19.374   6.291  -5.373  1.00  0.00     0.134 A 
ATOM     89  F   UNL     1      18.786   3.814  -2.783  1.00  0.00    -0.206 F 
ATOM     90  C   UNL     1      20.799   4.716  -3.586  1.00  0.00     0.040 A 
ATOM     91  C   UNL     1      20.768   6.350  -5.353  1.00  0.00     0.040 A 
ATOM     92  F   UNL     1      18.726   7.072  -6.251  1.00  0.00    -0.206 F 
ATOM     93  C   UNL     1      21.484   5.565  -4.452  1.00  0.00     0.006 A 
ENDBRANCH  69  86
ENDBRANCH  43  44
ENDBRANCH  35  38
ENDBRANCH  33  34
ENDBRANCH  32  33
ENDBRANCH  31  32
ENDBRANCH  30  31
ENDBRANCH   3  30
TORSDOF 17
