REMARK SMILES CC(C)Cc1ccc(-c2cc(Cl)cc3c2O[C@H](C(F)(F)F)C(C(=O)NCCCCNC(=O)c2ccc(-c4c5nc(c(-c6c(F)cccc6F)c6ccc([nH]6)c(-c6c(F)cccc6F)c6nc(c(-c7c(F)cccc7F)c7ccc4[nH]7)C=C6)C=C5)cc2)=C3)cc1
REMARK SMILES IDX 27 1 26 2 25 3 23 4 24 5 22 7 9 8 10 9 15 10 11 11 14 12
REMARK SMILES IDX 16 13 12 14 13 15 87 16 17 17 8 18 5 19 6 20 89 21 7 22
REMARK SMILES IDX 88 23 4 24 2 25 1 26 3 27 18 28 19 29 20 30 21 31 28 32
REMARK SMILES IDX 29 33 30 34 31 35 32 37 33 38 34 39 86 40 35 41 85 42 36 43
REMARK SMILES IDX 37 44 38 45 79 46 39 47 84 48 78 49 80 50 40 51 83 52 77 53
REMARK SMILES IDX 76 54 41 56 67 57 50 58 66 59 51 60 54 61 65 62 81 63 52 64
REMARK SMILES IDX 53 65 64 67 82 68 55 69 42 70 43 71 48 72 44 73 45 74 47 75
REMARK SMILES IDX 49 76 46 77 68 78 69 79 74 80 70 81 71 82 73 83 75 84 72 85
REMARK SMILES IDX 56 86 57 87 62 88 58 89 59 90 61 91 63 92 60 93
REMARK H PARENT 25 6 30 36 80 55 54 66
REMARK Flexibility Score: inf
ROOT
ATOM      1  C   UNL     1      -0.785 -10.691   8.297  1.00  0.00     0.023 C 
ENDROOT
BRANCH   1   2
ATOM      2  C   UNL     1      -0.969 -10.448   6.792  1.00  0.00     0.116 C 
BRANCH   2   3
ATOM      3  N   UNL     1      -2.074  -9.539   6.583  1.00  0.00    -0.352 N 
ATOM      4  C   UNL     1      -2.158  -8.439   5.805  1.00  0.00     0.251 C 
ATOM      5  O   UNL     1      -2.925  -7.549   6.157  1.00  0.00    -0.270 OA
ATOM      6  H   UNL     1      -2.892  -9.756   7.087  1.00  0.00     0.163 HD
BRANCH   4   7
ATOM      7  C   UNL     1      -1.417  -8.415   4.507  1.00  0.00     0.067 C 
ATOM      8  C   UNL     1      -2.128  -4.541   3.507  1.00  0.00     0.026 A 
ATOM      9  C   UNL     1      -3.506  -4.300   3.739  1.00  0.00     0.033 A 
ATOM     10  C   UNL     1      -1.715  -5.885   3.505  1.00  0.00     0.135 A 
ATOM     11  C   UNL     1      -4.445  -5.327   3.774  1.00  0.00     0.042 A 
ATOM     12  C   UNL     1      -2.695  -6.904   3.423  1.00  0.00     0.019 A 
ATOM     13  O   UNL     1      -0.389  -6.274   3.634  1.00  0.00    -0.475 OA
ATOM     14  Cl  UNL     1      -6.096  -4.965   4.082  1.00  0.00    -0.084 Cl
ATOM     15  C   UNL     1      -4.056  -6.630   3.535  1.00  0.00     0.032 A 
ATOM     16  C   UNL     1      -2.231  -8.309   3.438  1.00  0.00     0.025 C 
ATOM     17  C   UNL     1      -0.200  -7.495   4.476  1.00  0.00     0.314 C 
BRANCH   8  18
ATOM     18  C   UNL     1      -1.367  -3.356   3.038  1.00  0.00    -0.015 A 
ATOM     19  C   UNL     1      -0.897  -0.875   1.710  1.00  0.00    -0.048 A 
ATOM     20  C   UNL     1      -1.181  -0.909   3.080  1.00  0.00     0.004 A 
ATOM     21  C   UNL     1      -0.768  -2.092   1.032  1.00  0.00     0.004 A 
ATOM     22  C   UNL     1      -1.407  -2.132   3.734  1.00  0.00     0.009 A 
ATOM     23  C   UNL     1      -0.975  -3.313   1.689  1.00  0.00     0.009 A 
BRANCH  19  24
ATOM     24  C   UNL     1      -0.758   0.442   0.974  1.00  0.00     0.038 C 
BRANCH  24  25
ATOM     25  C   UNL     1       0.701   0.920   0.836  1.00  0.00    -0.013 C 
ATOM     26  C   UNL     1       1.504   0.045  -0.130  1.00  0.00     0.008 C 
ATOM     27  C   UNL     1       0.751   2.373   0.352  1.00  0.00     0.008 C 
ENDBRANCH  24  25
ENDBRANCH  19  24
ENDBRANCH   8  18
BRANCH  17  28
ATOM     28  C   UNL     1       1.023  -8.325   4.019  1.00  0.00     0.429 C 
ATOM     29  F   UNL     1       1.417  -8.029   2.761  1.00  0.00    -0.167 F 
ATOM     30  F   UNL     1       2.082  -8.133   4.841  1.00  0.00    -0.167 F 
ATOM     31  F   UNL     1       0.773  -9.663   4.038  1.00  0.00    -0.167 F 
ENDBRANCH  17  28
ENDBRANCH   4   7
ENDBRANCH   2   3
ENDBRANCH   1   2
BRANCH   1  32
ATOM     32  C   UNL     1      -2.013 -11.265   9.021  1.00  0.00     0.023 C 
BRANCH  32  33
ATOM     33  C   UNL     1      -2.572 -12.546   8.417  1.00  0.00     0.116 C 
BRANCH  33  34
ATOM     34  N   UNL     1      -1.631 -13.649   8.521  1.00  0.00    -0.352 N 
ATOM     35  C   UNL     1      -1.790 -14.868   9.129  1.00  0.00     0.251 C 
ATOM     36  H   UNL     1      -0.756 -13.500   8.095  1.00  0.00     0.163 HD
ATOM     37  O   UNL     1      -0.817 -15.601   9.302  1.00  0.00    -0.269 OA
BRANCH  35  38
ATOM     38  C   UNL     1      -3.125 -15.293   9.600  1.00  0.00     0.039 A 
ATOM     39  C   UNL     1      -3.245 -15.866  10.868  1.00  0.00     0.014 A 
ATOM     40  C   UNL     1      -4.256 -15.128   8.795  1.00  0.00     0.014 A 
ATOM     41  C   UNL     1      -4.507 -16.214  11.354  1.00  0.00     0.010 A 
ATOM     42  C   UNL     1      -5.520 -15.404   9.311  1.00  0.00     0.010 A 
ATOM     43  C   UNL     1      -5.660 -15.952  10.595  1.00  0.00    -0.014 A 
BRANCH  43  44
ATOM     44  C   UNL     1      -7.016 -16.240  11.131  1.00  0.00     0.031 A 
ATOM     45  C   UNL     1      -7.902 -17.250  10.450  1.00  0.00     0.074 A 
ATOM     46  C   UNL     1      -7.475 -15.549  12.194  1.00  0.00     0.049 A 
ATOM     47  N   UNL     1      -9.134 -17.591  10.732  1.00  0.00    -0.248 NA
ATOM     48  C   UNL     1      -7.340 -17.951   9.284  1.00  0.00     0.031 C 
ATOM     49  C   UNL     1      -6.733 -14.514  12.916  1.00  0.00     0.029 A 
ATOM     50  N   UNL     1      -8.681 -15.607  12.848  1.00  0.00    -0.354 N 
ATOM     51  C   UNL     1      -9.498 -18.526   9.771  1.00  0.00     0.074 A 
ATOM     52  C   UNL     1      -8.375 -18.667   8.871  1.00  0.00     0.031 C 
ATOM     53  C   UNL     1      -7.488 -14.054  13.927  1.00  0.00     0.029 A 
ATOM     54  C   UNL     1      -8.782 -14.727  13.900  1.00  0.00     0.049 A 
ATOM     55  H   UNL     1      -9.405 -16.221  12.588  1.00  0.00     0.167 HD
ATOM     56  C   UNL     1     -10.657 -19.218   9.660  1.00  0.00     0.037 A 
ATOM     57  C   UNL     1      -9.807 -14.484  14.740  1.00  0.00     0.037 A 
ATOM     58  C   UNL     1     -11.760 -19.103  10.578  1.00  0.00     0.049 A 
ATOM     59  C   UNL     1     -11.086 -15.262  14.582  1.00  0.00     0.074 A 
ATOM     60  C   UNL     1     -12.943 -19.821  10.594  1.00  0.00     0.029 A 
ATOM     61  N   UNL     1     -11.819 -18.210  11.636  1.00  0.00    -0.354 N 
ATOM     62  N   UNL     1     -11.381 -16.206  13.722  1.00  0.00    -0.248 NA
ATOM     63  C   UNL     1     -12.174 -14.942  15.517  1.00  0.00     0.031 C 
ATOM     64  C   UNL     1     -13.743 -19.323  11.627  1.00  0.00     0.029 A 
ATOM     65  C   UNL     1     -13.032 -18.337  12.292  1.00  0.00     0.049 A 
ATOM     66  H   UNL     1     -11.105 -17.579  11.885  1.00  0.00     0.167 HD
ATOM     67  C   UNL     1     -12.670 -16.619  14.038  1.00  0.00     0.074 A 
ATOM     68  C   UNL     1     -13.094 -15.833  15.177  1.00  0.00     0.031 C 
ATOM     69  C   UNL     1     -13.434 -17.564  13.439  1.00  0.00     0.037 A 
BRANCH  56  70
ATOM     70  C   UNL     1     -10.801 -20.169   8.507  1.00  0.00     0.057 A 
ATOM     71  C   UNL     1     -10.087 -21.372   8.444  1.00  0.00     0.134 A 
ATOM     72  C   UNL     1     -11.722 -19.910   7.484  1.00  0.00     0.134 A 
ATOM     73  F   UNL     1      -9.182 -21.677   9.387  1.00  0.00    -0.206 F 
ATOM     74  C   UNL     1     -10.272 -22.277   7.397  1.00  0.00     0.040 A 
ATOM     75  C   UNL     1     -11.937 -20.820   6.447  1.00  0.00     0.040 A 
ATOM     76  F   UNL     1     -12.445 -18.780   7.487  1.00  0.00    -0.206 F 
ATOM     77  C   UNL     1     -11.207 -22.006   6.400  1.00  0.00     0.006 A 
ENDBRANCH  56  70
BRANCH  57  78
ATOM     78  C   UNL     1      -9.678 -13.468  15.818  1.00  0.00     0.057 A 
ATOM     79  C   UNL     1      -9.691 -13.842  17.168  1.00  0.00     0.134 A 
ATOM     80  C   UNL     1      -9.593 -12.101  15.531  1.00  0.00     0.134 A 
ATOM     81  F   UNL     1      -9.790 -15.136  17.508  1.00  0.00    -0.206 F 
ATOM     82  C   UNL     1      -9.662 -12.894  18.192  1.00  0.00     0.040 A 
ATOM     83  C   UNL     1      -9.533 -11.143  16.545  1.00  0.00     0.040 A 
ATOM     84  F   UNL     1      -9.568 -11.674  14.260  1.00  0.00    -0.206 F 
ATOM     85  C   UNL     1      -9.582 -11.539  17.881  1.00  0.00     0.006 A 
ENDBRANCH  57  78
BRANCH  69  86
ATOM     86  C   UNL     1     -14.783 -17.843  14.036  1.00  0.00     0.057 A 
ATOM     87  C   UNL     1     -15.841 -16.930  13.942  1.00  0.00     0.134 A 
ATOM     88  C   UNL     1     -15.035 -19.060  14.682  1.00  0.00     0.134 A 
ATOM     89  F   UNL     1     -15.663 -15.741  13.348  1.00  0.00    -0.206 F 
ATOM     90  C   UNL     1     -17.093 -17.207  14.494  1.00  0.00     0.040 A 
ATOM     91  C   UNL     1     -16.291 -19.361  15.209  1.00  0.00     0.040 A 
ATOM     92  F   UNL     1     -14.069 -19.984  14.797  1.00  0.00    -0.206 F 
ATOM     93  C   UNL     1     -17.323 -18.430  15.122  1.00  0.00     0.006 A 
ENDBRANCH  69  86
ENDBRANCH  43  44
ENDBRANCH  35  38
ENDBRANCH  33  34
ENDBRANCH  32  33
ENDBRANCH   1  32
TORSDOF 15
