REMARK SMILES N#CCSc1nnnn1-c1ccc(C(=O)NCCCCNC(=O)c2ccc(-c3c4nc(c(-c5c(F)cccc5F)c5ccc([nH]5)c(-c5c(F)cccc5F)c5nc(c(-c6c(F)cccc6F)c6ccc3[nH]6)C=C5)C=C4)cc2)cc1
REMARK SMILES IDX 17 1 16 2 14 3 15 4 13 6 10 7 11 8 79 9 12 10 78 11 9 12
REMARK SMILES IDX 5 13 6 14 7 15 8 16 4 17 3 18 2 19 1 20 18 21 19 22 20 23
REMARK SMILES IDX 21 24 22 25 23 27 24 28 25 29 77 30 26 31 76 32 27 33 28 34
REMARK SMILES IDX 29 35 70 36 30 37 75 38 69 39 71 40 31 41 74 42 68 43 67 44
REMARK SMILES IDX 32 46 58 47 41 48 57 49 42 50 45 51 56 52 72 53 43 54 44 55
REMARK SMILES IDX 55 57 73 58 46 59 33 60 34 61 39 62 35 63 36 64 38 65 40 66
REMARK SMILES IDX 37 67 59 68 60 69 65 70 61 71 62 72 64 73 66 74 63 75 47 76
REMARK SMILES IDX 48 77 53 78 49 79 50 80 52 81 54 82 51 83
REMARK H PARENT 16 5 21 26 71 45 45 56
REMARK Flexibility Score: inf
ROOT
ATOM      1  C   UNL     1       6.106   7.769  -1.444  1.00  0.00     0.116 C 
ENDROOT
BRANCH   1   2
ATOM      2  N   UNL     1       4.819   8.235  -1.925  1.00  0.00    -0.352 N 
ATOM      3  C   UNL     1       3.762   7.622  -2.550  1.00  0.00     0.251 C 
ATOM      4  O   UNL     1       2.783   8.326  -2.803  1.00  0.00    -0.269 OA
ATOM      5  H   UNL     1       4.673   9.196  -1.769  1.00  0.00     0.163 HD
BRANCH   3   6
ATOM      6  C   UNL     1       3.705   6.165  -2.875  1.00  0.00     0.039 A 
ATOM      7  C   UNL     1       3.394   3.397  -3.252  1.00  0.00     0.069 A 
ATOM      8  C   UNL     1       2.275   4.227  -3.325  1.00  0.00     0.029 A 
ATOM      9  C   UNL     1       4.670   3.947  -3.106  1.00  0.00     0.029 A 
ATOM     10  C   UNL     1       2.433   5.600  -3.099  1.00  0.00     0.016 A 
ATOM     11  C   UNL     1       4.819   5.330  -2.974  1.00  0.00     0.016 A 
BRANCH   7  12
ATOM     12  N   UNL     1       3.244   1.999  -3.324  1.00  0.00    -0.187 N 
ATOM     13  C   UNL     1       3.816   1.003  -2.553  1.00  0.00     0.215 A 
ATOM     14  N   UNL     1       3.515  -0.165  -3.071  1.00  0.00    -0.101 NA
ATOM     15  N   UNL     1       2.690   0.105  -4.137  1.00  0.00    -0.022 NA
ATOM     16  N   UNL     1       2.456   1.407  -4.248  1.00  0.00    -0.039 NA
BRANCH  13  17
ATOM     17  S   UNL     1       4.554   1.266  -1.002  1.00  0.00    -0.069 SA
BRANCH  17  18
ATOM     18  C   UNL     1       3.820  -0.089  -0.024  1.00  0.00     0.198 C 
BRANCH  18  19
ATOM     19  C   UNL     1       2.300  -0.089  -0.024  1.00  0.00     0.074 C 
ATOM     20  N   UNL     1       1.039  -0.089  -0.024  1.00  0.00    -0.197 NA
ENDBRANCH  18  19
ENDBRANCH  17  18
ENDBRANCH  13  17
ENDBRANCH   7  12
ENDBRANCH   3   6
ENDBRANCH   1   2
BRANCH   1  21
ATOM     21  C   UNL     1       7.219   8.058  -2.457  1.00  0.00     0.023 C 
BRANCH  21  22
ATOM     22  C   UNL     1       7.670   9.527  -2.518  1.00  0.00     0.023 C 
BRANCH  22  23
ATOM     23  C   UNL     1       8.341  10.048  -1.250  1.00  0.00     0.116 C 
BRANCH  23  24
ATOM     24  N   UNL     1       9.556   9.310  -0.909  1.00  0.00    -0.352 N 
ATOM     25  C   UNL     1      10.270   9.344   0.268  1.00  0.00     0.251 C 
ATOM     26  H   UNL     1       9.907   8.713  -1.608  1.00  0.00     0.163 HD
ATOM     27  O   UNL     1      11.462   9.026   0.286  1.00  0.00    -0.269 OA
BRANCH  25  28
ATOM     28  C   UNL     1       9.601   9.747   1.514  1.00  0.00     0.039 A 
ATOM     29  C   UNL     1      10.245  10.567   2.443  1.00  0.00     0.014 A 
ATOM     30  C   UNL     1       8.302   9.293   1.747  1.00  0.00     0.014 A 
ATOM     31  C   UNL     1       9.540  10.995   3.565  1.00  0.00     0.010 A 
ATOM     32  C   UNL     1       7.568   9.806   2.791  1.00  0.00     0.010 A 
ATOM     33  C   UNL     1       8.189  10.633   3.720  1.00  0.00    -0.014 A 
BRANCH  33  34
ATOM     34  C   UNL     1       7.370  11.289   4.739  1.00  0.00     0.031 A 
ATOM     35  C   UNL     1       7.405  12.772   4.635  1.00  0.00     0.074 A 
ATOM     36  C   UNL     1       6.500  10.644   5.547  1.00  0.00     0.049 A 
ATOM     37  N   UNL     1       7.994  13.596   5.436  1.00  0.00    -0.248 NA
ATOM     38  C   UNL     1       6.898  13.406   3.404  1.00  0.00     0.031 C 
ATOM     39  C   UNL     1       6.149   9.220   5.522  1.00  0.00     0.029 A 
ATOM     40  N   UNL     1       5.657  11.139   6.503  1.00  0.00    -0.354 N 
ATOM     41  C   UNL     1       7.691  14.867   4.953  1.00  0.00     0.074 A 
ATOM     42  C   UNL     1       7.236  14.682   3.603  1.00  0.00     0.031 C 
ATOM     43  C   UNL     1       5.022   9.014   6.239  1.00  0.00     0.029 A 
ATOM     44  C   UNL     1       4.660  10.251   6.906  1.00  0.00     0.049 A 
ATOM     45  H   UNL     1       5.747  12.046   6.875  1.00  0.00     0.167 HD
ATOM     46  C   UNL     1       7.507  15.895   5.827  1.00  0.00     0.037 A 
ATOM     47  C   UNL     1       3.604  10.513   7.719  1.00  0.00     0.037 A 
ATOM     48  C   UNL     1       8.045  15.549   7.125  1.00  0.00     0.049 A 
ATOM     49  C   UNL     1       3.941  11.728   8.490  1.00  0.00     0.074 A 
ATOM     50  C   UNL     1       9.277  15.209   7.643  1.00  0.00     0.029 A 
ATOM     51  N   UNL     1       7.111  15.136   8.038  1.00  0.00    -0.354 N 
ATOM     52  N   UNL     1       4.857  11.770   9.415  1.00  0.00    -0.248 NA
ATOM     53  C   UNL     1       3.512  13.018   7.975  1.00  0.00     0.031 C 
ATOM     54  C   UNL     1       9.006  14.284   8.699  1.00  0.00     0.029 A 
ATOM     55  C   UNL     1       7.623  14.152   8.830  1.00  0.00     0.049 A 
ATOM     56  H   UNL     1       6.199  15.499   8.111  1.00  0.00     0.167 HD
ATOM     57  C   UNL     1       5.447  13.011   9.252  1.00  0.00     0.074 A 
ATOM     58  C   UNL     1       4.476  13.788   8.486  1.00  0.00     0.031 C 
ATOM     59  C   UNL     1       6.786  13.166   9.478  1.00  0.00     0.037 A 
BRANCH  46  60
ATOM     60  C   UNL     1       6.389  16.926   5.705  1.00  0.00     0.057 A 
ATOM     61  C   UNL     1       6.281  17.913   6.706  1.00  0.00     0.134 A 
ATOM     62  C   UNL     1       5.244  16.790   4.892  1.00  0.00     0.134 A 
ATOM     63  F   UNL     1       7.297  18.150   7.551  1.00  0.00    -0.206 F 
ATOM     64  C   UNL     1       5.093  18.613   6.955  1.00  0.00     0.040 A 
ATOM     65  C   UNL     1       4.069  17.519   5.102  1.00  0.00     0.040 A 
ATOM     66  F   UNL     1       5.146  15.885   3.914  1.00  0.00    -0.206 F 
ATOM     67  C   UNL     1       3.975  18.405   6.160  1.00  0.00     0.006 A 
ENDBRANCH  46  60
BRANCH  47  68
ATOM     68  C   UNL     1       2.236   9.940   7.748  1.00  0.00     0.057 A 
ATOM     69  C   UNL     1       1.378  10.165   8.838  1.00  0.00     0.134 A 
ATOM     70  C   UNL     1       1.633   9.424   6.590  1.00  0.00     0.134 A 
ATOM     71  F   UNL     1       1.848  10.684   9.982  1.00  0.00    -0.206 F 
ATOM     72  C   UNL     1      -0.003   9.937   8.765  1.00  0.00     0.040 A 
ATOM     73  C   UNL     1       0.255   9.186   6.505  1.00  0.00     0.040 A 
ATOM     74  F   UNL     1       2.343   9.224   5.471  1.00  0.00    -0.206 F 
ATOM     75  C   UNL     1      -0.572   9.461   7.588  1.00  0.00     0.006 A 
ENDBRANCH  47  68
BRANCH  59  76
ATOM     76  C   UNL     1       7.468  12.131  10.328  1.00  0.00     0.057 A 
ATOM     77  C   UNL     1       7.589  10.771  10.007  1.00  0.00     0.134 A 
ATOM     78  C   UNL     1       8.103  12.564  11.499  1.00  0.00     0.134 A 
ATOM     79  F   UNL     1       7.096  10.276   8.864  1.00  0.00    -0.206 F 
ATOM     80  C   UNL     1       8.265   9.877  10.844  1.00  0.00     0.040 A 
ATOM     81  C   UNL     1       8.813  11.690  12.321  1.00  0.00     0.040 A 
ATOM     82  F   UNL     1       8.067  13.860  11.847  1.00  0.00    -0.206 F 
ATOM     83  C   UNL     1       8.883  10.337  12.003  1.00  0.00     0.006 A 
ENDBRANCH  59  76
ENDBRANCH  33  34
ENDBRANCH  25  28
ENDBRANCH  23  24
ENDBRANCH  22  23
ENDBRANCH  21  22
ENDBRANCH   1  21
TORSDOF 15
