REMARK SMILES O=C(C[C@H](NC(=O)[C@]12C[C@H]3C[C@H](C[C@H](C3)C1)C2)c1ccc(Cl)cc1Cl)NCCCCNC(=O)c1ccc(-c2c3nc(c(-c4c(F)cccc4F)c4ccc([nH]4)c(-c4c(F)cccc4F)c4nc(c(-c5c(F)cccc5F)c5ccc2[nH]5)C=C4)C=C3)cc1
REMARK SMILES IDX 28 1 27 2 26 3 1 4 2 5 3 7 4 8 18 9 19 10 24 11 20 12 23 13
REMARK SMILES IDX 25 14 21 15 22 16 5 17 6 18 7 20 8 21 9 22 16 23 17 24 10 25
REMARK SMILES IDX 14 26 12 27 11 28 15 29 13 30 29 31 30 32 31 33 32 34 33 36
REMARK SMILES IDX 34 37 35 38 87 39 36 40 86 41 37 42 38 43 39 44 80 45 40 46
REMARK SMILES IDX 85 47 79 48 81 49 41 50 84 51 78 52 77 53 42 55 68 56 51 57
REMARK SMILES IDX 67 58 52 59 55 60 66 61 82 62 53 63 54 64 65 66 83 67 56 68
REMARK SMILES IDX 43 69 44 70 49 71 45 72 46 73 48 74 50 75 47 76 69 77 70 78
REMARK SMILES IDX 75 79 71 80 72 81 74 82 76 83 73 84 57 85 58 86 63 87 59 88
REMARK SMILES IDX 60 89 62 90 64 91 61 92
REMARK H PARENT 26 6 5 19 31 35 81 54 55 65
REMARK Flexibility Score: inf
ROOT
ATOM      1  C   UNL     1       9.328   3.113   0.255  1.00  0.00     0.023 C 
ENDROOT
BRANCH   1   2
ATOM      2  C   UNL     1       8.463   2.554   1.381  1.00  0.00     0.116 C 
BRANCH   2   3
ATOM      3  N   UNL     1       7.233   1.979   0.884  1.00  0.00    -0.356 N 
ATOM      4  O   UNL     1       7.363  -0.040   1.980  1.00  0.00    -0.275 OA
ATOM      5  C   UNL     1       6.753   0.752   1.275  1.00  0.00     0.222 C 
ATOM      6  H   UNL     1       6.710   2.495   0.229  1.00  0.00     0.163 HD
BRANCH   5   7
ATOM      7  C   UNL     1       5.368   0.475   0.741  1.00  0.00     0.129 C 
BRANCH   7   8
ATOM      8  C   UNL     1       4.205   1.069   1.558  1.00  0.00     0.123 C 
BRANCH   8   9
ATOM      9  C   UNL     1       4.460   2.474   2.121  1.00  0.00    -0.006 A 
ATOM     10  C   UNL     1       4.130   3.641   1.405  1.00  0.00     0.009 A 
ATOM     11  C   UNL     1       5.099   2.641   3.377  1.00  0.00     0.047 A 
ATOM     12  C   UNL     1       4.435   4.910   1.914  1.00  0.00     0.021 A 
ATOM     13  C   UNL     1       5.446   3.908   3.856  1.00  0.00     0.041 A 
ATOM     14  Cl  UNL     1       5.510   1.305   4.399  1.00  0.00    -0.084 Cl
ATOM     15  C   UNL     1       5.114   5.036   3.120  1.00  0.00     0.042 A 
ATOM     16  Cl  UNL     1       5.563   6.594   3.689  1.00  0.00    -0.084 Cl
ENDBRANCH   8   9
BRANCH   8  17
ATOM     17  N   UNL     1       2.982   1.005   0.743  1.00  0.00    -0.348 N 
ATOM     18  C   UNL     1       2.132   0.014   0.384  1.00  0.00     0.226 C 
ATOM     19  H   UNL     1       2.723   1.880   0.374  1.00  0.00     0.164 HD
ATOM     20  O   UNL     1       1.302   0.353  -0.471  1.00  0.00    -0.274 OA
BRANCH  18  21
ATOM     21  C   UNL     1       2.177  -1.444   0.885  1.00  0.00     0.050 C 
ATOM     22  C   UNL     1       2.773  -1.666   2.289  1.00  0.00     0.020 C 
ATOM     23  C   UNL     1       2.938  -2.333  -0.129  1.00  0.00     0.020 C 
ATOM     24  C   UNL     1       0.701  -1.955   0.916  1.00  0.00     0.020 C 
ATOM     25  C   UNL     1       2.693  -3.136   2.718  1.00  0.00    -0.010 C 
ATOM     26  C   UNL     1       2.887  -3.814   0.299  1.00  0.00    -0.010 C 
ATOM     27  C   UNL     1       0.624  -3.430   1.336  1.00  0.00    -0.010 C 
ATOM     28  C   UNL     1       1.229  -3.583   2.737  1.00  0.00     0.007 C 
ATOM     29  C   UNL     1       3.491  -3.973   1.704  1.00  0.00     0.007 C 
ATOM     30  C   UNL     1       1.423  -4.282   0.336  1.00  0.00     0.007 C 
ENDBRANCH  18  21
ENDBRANCH   8  17
ENDBRANCH   7   8
ENDBRANCH   5   7
ENDBRANCH   2   3
ENDBRANCH   1   2
BRANCH   1  31
ATOM     31  C   UNL     1       8.605   4.015  -0.752  1.00  0.00     0.023 C 
BRANCH  31  32
ATOM     32  C   UNL     1       7.752   5.130  -0.157  1.00  0.00     0.116 C 
BRANCH  32  33
ATOM     33  N   UNL     1       8.519   6.084   0.619  1.00  0.00    -0.352 N 
ATOM     34  C   UNL     1       8.619   7.446   0.465  1.00  0.00     0.251 C 
ATOM     35  H   UNL     1       9.043   5.703   1.360  1.00  0.00     0.163 HD
ATOM     36  O   UNL     1       9.425   8.087   1.132  1.00  0.00    -0.269 OA
BRANCH  34  37
ATOM     37  C   UNL     1       7.779   8.136  -0.535  1.00  0.00     0.039 A 
ATOM     38  C   UNL     1       8.396   8.986  -1.455  1.00  0.00     0.014 A 
ATOM     39  C   UNL     1       6.395   7.939  -0.576  1.00  0.00     0.014 A 
ATOM     40  C   UNL     1       7.636   9.586  -2.461  1.00  0.00     0.010 A 
ATOM     41  C   UNL     1       5.647   8.490  -1.615  1.00  0.00     0.010 A 
ATOM     42  C   UNL     1       6.262   9.314  -2.572  1.00  0.00    -0.014 A 
BRANCH  42  43
ATOM     43  C   UNL     1       5.465   9.868  -3.697  1.00  0.00     0.031 A 
ATOM     44  C   UNL     1       4.371  10.866  -3.440  1.00  0.00     0.074 A 
ATOM     45  C   UNL     1       5.693   9.430  -4.951  1.00  0.00     0.049 A 
ATOM     46  N   UNL     1       3.545  11.423  -4.289  1.00  0.00    -0.248 NA
ATOM     47  C   UNL     1       4.163  11.274  -2.042  1.00  0.00     0.031 C 
ATOM     48  C   UNL     1       6.696   8.433  -5.330  1.00  0.00     0.029 A 
ATOM     49  N   UNL     1       5.089   9.761  -6.139  1.00  0.00    -0.354 N 
ATOM     50  C   UNL     1       2.713  12.236  -3.530  1.00  0.00     0.074 A 
ATOM     51  C   UNL     1       3.104  12.064  -2.147  1.00  0.00     0.031 C 
ATOM     52  C   UNL     1       6.655   8.252  -6.660  1.00  0.00     0.029 A 
ATOM     53  C   UNL     1       5.602   9.092  -7.223  1.00  0.00     0.049 A 
ATOM     54  H   UNL     1       4.358  10.417  -6.207  1.00  0.00     0.167 HD
ATOM     55  C   UNL     1       1.728  13.065  -3.949  1.00  0.00     0.037 A 
ATOM     56  C   UNL     1       5.261   9.145  -8.525  1.00  0.00     0.037 A 
ATOM     57  C   UNL     1       1.356  13.256  -5.326  1.00  0.00     0.049 A 
ATOM     58  C   UNL     1       4.158  10.068  -8.962  1.00  0.00     0.074 A 
ATOM     59  C   UNL     1       0.415  14.125  -5.853  1.00  0.00     0.029 A 
ATOM     60  N   UNL     1       1.904  12.566  -6.396  1.00  0.00    -0.354 N 
ATOM     61  N   UNL     1       3.428  10.883  -8.241  1.00  0.00    -0.248 NA
ATOM     62  C   UNL     1       3.834  10.080 -10.396  1.00  0.00     0.031 C 
ATOM     63  C   UNL     1       0.364  13.929  -7.237  1.00  0.00     0.029 A 
ATOM     64  C   UNL     1       1.304  12.971  -7.578  1.00  0.00     0.049 A 
ATOM     65  H   UNL     1       2.614  11.887  -6.327  1.00  0.00     0.167 HD
ATOM     66  C   UNL     1       2.581  11.526  -9.134  1.00  0.00     0.074 A 
ATOM     67  C   UNL     1       2.895  11.014 -10.451  1.00  0.00     0.031 C 
ATOM     68  C   UNL     1       1.630  12.458  -8.884  1.00  0.00     0.037 A 
BRANCH  55  69
ATOM     69  C   UNL     1       0.978  13.834  -2.899  1.00  0.00     0.057 A 
ATOM     70  C   UNL     1       1.568  14.892  -2.197  1.00  0.00     0.134 A 
ATOM     71  C   UNL     1      -0.361  13.536  -2.615  1.00  0.00     0.134 A 
ATOM     72  F   UNL     1       2.850  15.222  -2.414  1.00  0.00    -0.206 F 
ATOM     73  C   UNL     1       0.861  15.611  -1.231  1.00  0.00     0.040 A 
ATOM     74  C   UNL     1      -1.085  14.263  -1.670  1.00  0.00     0.040 A 
ATOM     75  F   UNL     1      -0.988  12.538  -3.256  1.00  0.00    -0.206 F 
ATOM     76  C   UNL     1      -0.472  15.301  -0.970  1.00  0.00     0.006 A 
ENDBRANCH  55  69
BRANCH  56  77
ATOM     77  C   UNL     1       5.989   8.316  -9.518  1.00  0.00     0.057 A 
ATOM     78  C   UNL     1       6.855   8.903 -10.448  1.00  0.00     0.134 A 
ATOM     79  C   UNL     1       5.832   6.927  -9.570  1.00  0.00     0.134 A 
ATOM     80  F   UNL     1       7.031  10.233 -10.460  1.00  0.00    -0.206 F 
ATOM     81  C   UNL     1       7.524   8.141 -11.407  1.00  0.00     0.040 A 
ATOM     82  C   UNL     1       6.513   6.149 -10.508  1.00  0.00     0.040 A 
ATOM     83  F   UNL     1       5.022   6.304  -8.701  1.00  0.00    -0.206 F 
ATOM     84  C   UNL     1       7.357   6.758 -11.435  1.00  0.00     0.006 A 
ENDBRANCH  56  77
BRANCH  68  85
ATOM     85  C   UNL     1       0.883  13.010 -10.062  1.00  0.00     0.057 A 
ATOM     86  C   UNL     1      -0.081  12.258 -10.745  1.00  0.00     0.134 A 
ATOM     87  C   UNL     1       1.106  14.323 -10.496  1.00  0.00     0.134 A 
ATOM     88  F   UNL     1      -0.332  10.989 -10.388  1.00  0.00    -0.206 F 
ATOM     89  C   UNL     1      -0.783  12.786 -11.830  1.00  0.00     0.040 A 
ATOM     90  C   UNL     1       0.394  14.871 -11.563  1.00  0.00     0.040 A 
ATOM     91  F   UNL     1       2.011  15.100  -9.880  1.00  0.00    -0.206 F 
ATOM     92  C   UNL     1      -0.550  14.099 -12.238  1.00  0.00     0.006 A 
ENDBRANCH  68  85
ENDBRANCH  42  43
ENDBRANCH  34  37
ENDBRANCH  32  33
ENDBRANCH  31  32
ENDBRANCH   1  31
TORSDOF 15
