REMARK SMILES O=C(NCCCCNC(=O)c1ccc(-n2cc(CSc3nc4ccccc4c(=O)n3-c3ccc(Br)cc3)nn2)cc1)c1ccc(-c2c3nc(c(-c4c(F)cccc4F)c4ccc([nH]4)c(-c4c(F)cccc4F)c4nc(c(-c5c(F)cccc5F)c5ccc2[nH]5)C=C4)C=C3)cc1
REMARK SMILES IDX 7 1 6 2 5 3 4 4 3 5 1 6 2 7 42 9 43 10 95 11 44 12 94 13
REMARK SMILES IDX 45 14 46 15 47 16 88 17 48 18 93 19 87 20 89 21 49 22 92 23
REMARK SMILES IDX 86 24 85 25 50 27 76 28 59 29 75 30 60 31 63 32 74 33 90 34
REMARK SMILES IDX 61 35 62 36 73 38 91 39 64 40 51 41 52 42 57 43 53 44 54 45
REMARK SMILES IDX 56 46 58 47 55 48 77 49 78 50 83 51 79 52 80 53 82 54 84 55
REMARK SMILES IDX 81 56 65 57 66 58 71 59 67 60 68 61 70 62 72 63 69 64 8 65
REMARK SMILES IDX 9 66 10 68 11 69 12 70 41 71 13 72 40 73 14 74 15 75 16 76
REMARK SMILES IDX 39 77 17 78 38 79 18 80 19 81 20 82 21 83 30 84 22 85 28 86
REMARK SMILES IDX 23 87 27 88 29 89 24 90 26 91 25 92 31 93 32 94 37 95 33 96
REMARK SMILES IDX 36 97 34 98 35 99
REMARK H PARENT 3 8 89 26 63 37 8 67
REMARK Flexibility Score: inf
ROOT
ATOM      1  C   UNL     1       4.857   0.824   3.982  1.00  0.00     0.116 C 
ENDROOT
BRANCH   1   2
ATOM      2  C   UNL     1       4.470   1.847   2.915  1.00  0.00     0.023 C 
BRANCH   2   3
ATOM      3  C   UNL     1       4.978   1.573   1.494  1.00  0.00     0.023 C 
BRANCH   3   4
ATOM      4  C   UNL     1       4.630   0.204   0.911  1.00  0.00     0.116 C 
BRANCH   4   5
ATOM      5  N   UNL     1       3.215  -0.111   0.904  1.00  0.00    -0.352 N 
ATOM      6  O   UNL     1       1.129  -0.498   0.318  1.00  0.00    -0.269 OA
ATOM      7  C   UNL     1       2.172   0.103   0.045  1.00  0.00     0.251 C 
ATOM      8  H   UNL     1       2.937  -0.595   1.715  1.00  0.00     0.163 HD
BRANCH   7   9
ATOM      9  C   UNL     1       2.176   1.014  -1.136  1.00  0.00     0.039 A 
ATOM     10  C   UNL     1       3.287   1.660  -1.673  1.00  0.00     0.014 A 
ATOM     11  C   UNL     1       0.920   1.239  -1.742  1.00  0.00     0.014 A 
ATOM     12  C   UNL     1       3.140   2.538  -2.753  1.00  0.00     0.010 A 
ATOM     13  C   UNL     1       0.768   2.112  -2.819  1.00  0.00     0.010 A 
ATOM     14  C   UNL     1       1.881   2.778  -3.318  1.00  0.00    -0.014 A 
BRANCH  14  15
ATOM     15  C   UNL     1       1.812   3.588  -4.538  1.00  0.00     0.031 A 
ATOM     16  C   UNL     1       2.493   2.986  -5.721  1.00  0.00     0.074 A 
ATOM     17  C   UNL     1       1.093   4.718  -4.704  1.00  0.00     0.049 A 
ATOM     18  N   UNL     1       3.517   3.440  -6.366  1.00  0.00    -0.248 NA
ATOM     19  C   UNL     1       2.018   1.678  -6.194  1.00  0.00     0.031 C 
ATOM     20  C   UNL     1       0.104   5.303  -3.800  1.00  0.00     0.029 A 
ATOM     21  N   UNL     1       1.048   5.548  -5.792  1.00  0.00    -0.354 N 
ATOM     22  C   UNL     1       3.718   2.570  -7.437  1.00  0.00     0.074 A 
ATOM     23  C   UNL     1       2.853   1.442  -7.207  1.00  0.00     0.031 C 
ATOM     24  C   UNL     1      -0.579   6.273  -4.453  1.00  0.00     0.029 A 
ATOM     25  C   UNL     1       0.009   6.470  -5.770  1.00  0.00     0.049 A 
ATOM     26  H   UNL     1       1.699   5.497  -6.529  1.00  0.00     0.167 HD
ATOM     27  C   UNL     1       4.436   2.943  -8.533  1.00  0.00     0.037 A 
ATOM     28  C   UNL     1      -0.367   7.306  -6.772  1.00  0.00     0.037 A 
ATOM     29  C   UNL     1       5.271   4.083  -8.250  1.00  0.00     0.049 A 
ATOM     30  C   UNL     1       0.765   7.433  -7.717  1.00  0.00     0.074 A 
ATOM     31  C   UNL     1       6.273   4.365  -7.341  1.00  0.00     0.029 A 
ATOM     32  N   UNL     1       4.904   5.297  -8.775  1.00  0.00    -0.354 N 
ATOM     33  N   UNL     1       1.861   8.091  -7.472  1.00  0.00    -0.248 NA
ATOM     34  C   UNL     1       0.828   6.509  -8.838  1.00  0.00     0.031 C 
ATOM     35  C   UNL     1       6.096   5.741  -7.011  1.00  0.00     0.029 A 
ATOM     36  C   UNL     1       5.032   6.220  -7.774  1.00  0.00     0.049 A 
ATOM     37  H   UNL     1       4.605   5.470  -9.697  1.00  0.00     0.167 HD
ATOM     38  C   UNL     1       2.854   7.350  -8.090  1.00  0.00     0.074 A 
ATOM     39  C   UNL     1       2.150   6.467  -9.014  1.00  0.00     0.031 C 
ATOM     40  C   UNL     1       4.123   7.325  -7.590  1.00  0.00     0.037 A 
BRANCH  27  41
ATOM     41  C   UNL     1       4.115   2.527  -9.953  1.00  0.00     0.057 A 
ATOM     42  C   UNL     1       4.970   2.938 -10.996  1.00  0.00     0.134 A 
ATOM     43  C   UNL     1       2.864   2.033 -10.373  1.00  0.00     0.134 A 
ATOM     44  F   UNL     1       6.194   3.423 -10.735  1.00  0.00    -0.206 F 
ATOM     45  C   UNL     1       4.567   2.963 -12.337  1.00  0.00     0.040 A 
ATOM     46  C   UNL     1       2.472   2.004 -11.715  1.00  0.00     0.040 A 
ATOM     47  F   UNL     1       1.917   1.645  -9.512  1.00  0.00    -0.206 F 
ATOM     48  C   UNL     1       3.307   2.508 -12.699  1.00  0.00     0.006 A 
ENDBRANCH  27  41
BRANCH  28  49
ATOM     49  C   UNL     1      -1.701   7.854  -7.111  1.00  0.00     0.057 A 
ATOM     50  C   UNL     1      -1.839   8.952  -7.976  1.00  0.00     0.134 A 
ATOM     51  C   UNL     1      -2.875   7.135  -6.838  1.00  0.00     0.134 A 
ATOM     52  F   UNL     1      -0.772   9.684  -8.328  1.00  0.00    -0.206 F 
ATOM     53  C   UNL     1      -3.065   9.291  -8.563  1.00  0.00     0.040 A 
ATOM     54  C   UNL     1      -4.107   7.468  -7.411  1.00  0.00     0.040 A 
ATOM     55  F   UNL     1      -2.847   6.029  -6.080  1.00  0.00    -0.206 F 
ATOM     56  C   UNL     1      -4.202   8.539  -8.292  1.00  0.00     0.006 A 
ENDBRANCH  28  49
BRANCH  40  57
ATOM     57  C   UNL     1       4.510   8.368  -6.582  1.00  0.00     0.057 A 
ATOM     58  C   UNL     1       3.884   8.544  -5.339  1.00  0.00     0.134 A 
ATOM     59  C   UNL     1       5.646   9.147  -6.836  1.00  0.00     0.134 A 
ATOM     60  F   UNL     1       2.855   7.774  -4.960  1.00  0.00    -0.206 F 
ATOM     61  C   UNL     1       4.338   9.493  -4.418  1.00  0.00     0.040 A 
ATOM     62  C   UNL     1       6.132  10.069  -5.908  1.00  0.00     0.040 A 
ATOM     63  F   UNL     1       6.328   8.995  -7.983  1.00  0.00    -0.206 F 
ATOM     64  C   UNL     1       5.469  10.255  -4.699  1.00  0.00     0.006 A 
ENDBRANCH  40  57
ENDBRANCH  14  15
ENDBRANCH   7   9
ENDBRANCH   4   5
ENDBRANCH   3   4
ENDBRANCH   2   3
ENDBRANCH   1   2
BRANCH   1  65
ATOM     65  N   UNL     1       6.291   0.740   4.197  1.00  0.00    -0.352 N 
ATOM     66  C   UNL     1       7.041   1.051   5.308  1.00  0.00     0.251 C 
ATOM     67  H   UNL     1       6.807   0.409   3.426  1.00  0.00     0.163 HD
ATOM     68  O   UNL     1       8.257   0.998   5.261  1.00  0.00    -0.269 OA
BRANCH  66  69
ATOM     69  C   UNL     1       6.377   1.471   6.562  1.00  0.00     0.039 A 
ATOM     70  C   UNL     1       6.761   2.683   7.145  1.00  0.00     0.016 A 
ATOM     71  C   UNL     1       5.436   0.655   7.195  1.00  0.00     0.016 A 
ATOM     72  C   UNL     1       6.161   3.113   8.332  1.00  0.00     0.029 A 
ATOM     73  C   UNL     1       4.848   1.071   8.393  1.00  0.00     0.029 A 
ATOM     74  C   UNL     1       5.211   2.302   8.967  1.00  0.00     0.066 A 
BRANCH  74  75
ATOM     75  N   UNL     1       4.670   2.709  10.211  1.00  0.00    -0.220 N 
ATOM     76  C   UNL     1       3.998   1.938  11.126  1.00  0.00     0.141 A 
ATOM     77  N   UNL     1       4.760   3.975  10.685  1.00  0.00    -0.062 NA
ATOM     78  C   UNL     1       3.772   2.760  12.208  1.00  0.00     0.093 A 
ATOM     79  N   UNL     1       4.199   4.018  11.889  1.00  0.00    -0.134 NA
BRANCH  78  80
ATOM     80  C   UNL     1       3.013   2.468  13.444  1.00  0.00     0.138 C 
BRANCH  80  81
ATOM     81  S   UNL     1       3.825   2.086  14.998  1.00  0.00    -0.081 SA
BRANCH  81  82
ATOM     82  C   UNL     1       5.513   1.699  14.780  1.00  0.00     0.176 A 
ATOM     83  N   UNL     1       6.250   2.224  15.715  1.00  0.00    -0.223 NA
ATOM     84  N   UNL     1       6.055   0.907  13.773  1.00  0.00    -0.255 N 
ATOM     85  C   UNL     1       7.637   2.076  15.642  1.00  0.00     0.079 A 
ATOM     86  C   UNL     1       7.342   1.297  13.368  1.00  0.00     0.266 A 
ATOM     87  C   UNL     1       8.445   2.335  16.750  1.00  0.00     0.029 A 
ATOM     88  C   UNL     1       8.240   1.764  14.435  1.00  0.00     0.066 A 
ATOM     89  O   UNL     1       7.772   1.292  12.216  1.00  0.00    -0.268 OA
ATOM     90  C   UNL     1       9.839   2.342  16.622  1.00  0.00     0.002 A 
ATOM     91  C   UNL     1       9.629   1.816  14.276  1.00  0.00     0.016 A 
ATOM     92  C   UNL     1      10.430   2.117  15.377  1.00  0.00     0.001 A 
BRANCH  84  93
ATOM     93  C   UNL     1       5.432  -0.222  13.101  1.00  0.00     0.051 A 
ATOM     94  C   UNL     1       6.170  -1.001  12.183  1.00  0.00     0.028 A 
ATOM     95  C   UNL     1       4.117  -0.652  13.322  1.00  0.00     0.028 A 
ATOM     96  C   UNL     1       5.578  -1.978  11.374  1.00  0.00     0.018 A 
ATOM     97  C   UNL     1       3.493  -1.588  12.480  1.00  0.00     0.018 A 
ATOM     98  C   UNL     1       4.220  -2.217  11.480  1.00  0.00     0.018 A 
ATOM     99  Br  UNL     1       3.365  -3.375  10.264  1.00  0.00    -0.051 Br
ENDBRANCH  84  93
ENDBRANCH  81  82
ENDBRANCH  80  81
ENDBRANCH  78  80
ENDBRANCH  74  75
ENDBRANCH  66  69
ENDBRANCH   1  65
TORSDOF 16
