REMARK SMILES CC(C)C[C@H](NC(=O)[C@@H](NC(=O)N1CC(NCCCCNC(=O)c2ccc(-c3c4nc(c(-c5c(F)cccc5F)c5ccc([nH]5)c(-c5c(F)cccc5F)c5nc(c(-c6c(F)cccc6F)c6ccc3[nH]6)C=C5)C=C4)cc2)=[NH+]c2ccccc21)C(C)C)C(=O)[O-]
REMARK SMILES IDX 17 1 16 2 13 3 14 4 84 5 15 6 79 7 83 8 78 9 80 10 82 11
REMARK SMILES IDX 81 14 11 15 10 16 12 18 9 19 7 20 6 21 8 23 5 24 4 25 2 26
REMARK SMILES IDX 1 27 3 28 88 29 89 30 90 31 85 32 86 33 87 34 18 35 19 36
REMARK SMILES IDX 20 37 21 38 22 39 23 41 24 42 25 43 77 44 26 45 76 46 27 47
REMARK SMILES IDX 28 48 29 49 70 50 30 51 75 52 69 53 71 54 31 55 74 56 68 57
REMARK SMILES IDX 67 58 32 60 58 61 41 62 57 63 42 64 45 65 56 66 72 67 43 68
REMARK SMILES IDX 44 69 55 71 73 72 46 73 33 74 34 75 39 76 35 77 36 78 38 79
REMARK SMILES IDX 40 80 37 81 59 82 60 83 65 84 61 85 62 86 64 87 66 88 63 89
REMARK SMILES IDX 47 90 48 91 53 92 49 93 50 94 52 95 54 96 51 97
REMARK H PARENT 16 12 78 13 10 17 6 22 21 40 71 59 45 70
REMARK Flexibility Score: inf
ROOT
ATOM      1  C   UNL     1      -3.882   3.631   1.633  1.00  0.00     0.233 C 
ENDROOT
BRANCH   1   2
ATOM      2  N   UNL     1      -2.667   3.026   2.134  1.00  0.00    -0.277 N 
ATOM      3  N   UNL     1       0.309   3.955   0.448  1.00  0.00    -0.278 N 
ATOM      4  C   UNL     1      -0.918   4.526   1.014  1.00  0.00     0.255 C 
ATOM      5  C   UNL     1       1.300   3.896   1.453  1.00  0.00     0.093 A 
ATOM      6  C   UNL     1      -1.370   3.487   2.053  1.00  0.00     0.268 C 
ATOM      7  C   UNL     1       0.858   3.412   2.708  1.00  0.00     0.148 A 
ATOM      8  C   UNL     1       2.614   4.313   1.250  1.00  0.00     0.031 A 
ATOM      9  N   UNL     1      -0.490   2.994   2.894  1.00  0.00    -0.241 N 
ATOM     10  C   UNL     1       1.797   3.234   3.716  1.00  0.00     0.054 A 
ATOM     11  C   UNL     1       3.529   4.176   2.291  1.00  0.00     0.002 A 
ATOM     12  H   UNL     1      -2.782   2.166   2.597  1.00  0.00     0.304 HD
ATOM     13  H   UNL     1      -0.748   2.372   3.612  1.00  0.00     0.312 HD
ATOM     14  C   UNL     1       3.130   3.611   3.507  1.00  0.00     0.005 A 
BRANCH   3  15
ATOM     15  C   UNL     1       0.530   3.862  -0.887  1.00  0.00     0.323 C 
ATOM     16  N   UNL     1       1.044   2.745  -1.464  1.00  0.00    -0.326 N 
ATOM     17  H   UNL     1       1.261   2.938  -2.404  1.00  0.00     0.166 HD
ATOM     18  O   UNL     1       0.198   4.766  -1.659  1.00  0.00    -0.248 OA
BRANCH  16  19
ATOM     19  C   UNL     1       1.395   1.320  -1.161  1.00  0.00     0.175 C 
BRANCH  19  20
ATOM     20  C   UNL     1       0.597   0.158  -1.818  1.00  0.00     0.243 C 
ATOM     21  N   UNL     1      -0.745   0.104  -1.938  1.00  0.00    -0.346 N 
ATOM     22  H   UNL     1      -1.085  -0.783  -2.196  1.00  0.00     0.164 HD
ATOM     23  O   UNL     1       1.193  -0.883  -2.134  1.00  0.00    -0.273 OA
BRANCH  21  24
ATOM     24  C   UNL     1      -1.794   1.108  -1.759  1.00  0.00     0.128 C 
BRANCH  24  25
ATOM     25  C   UNL     1      -1.852   1.997  -3.018  1.00  0.00     0.034 C 
BRANCH  25  26
ATOM     26  C   UNL     1      -2.831   3.193  -3.047  1.00  0.00    -0.015 C 
ATOM     27  C   UNL     1      -2.859   4.040  -1.792  1.00  0.00     0.007 C 
ATOM     28  C   UNL     1      -2.486   4.120  -4.213  1.00  0.00     0.007 C 
ENDBRANCH  25  26
ENDBRANCH  24  25
BRANCH  24  29
ATOM     29  C   UNL     1      -3.073   0.294  -1.477  1.00  0.00     0.064 C 
ATOM     30  O   UNL     1      -3.187  -0.581  -0.628  1.00  0.00    -0.548 OA
ATOM     31  O   UNL     1      -4.120   0.558  -2.278  1.00  0.00    -0.548 OA
ENDBRANCH  24  29
ENDBRANCH  21  24
ENDBRANCH  19  20
BRANCH  19  32
ATOM     32  C   UNL     1       1.816   0.983   0.286  1.00  0.00     0.015 C 
ATOM     33  C   UNL     1       1.543  -0.427   0.819  1.00  0.00     0.010 C 
ATOM     34  C   UNL     1       3.315   1.267   0.446  1.00  0.00     0.010 C 
ENDBRANCH  19  32
ENDBRANCH  16  19
ENDBRANCH   3  15
ENDBRANCH   1   2
BRANCH   1  35
ATOM     35  C   UNL     1      -4.642   2.694   0.688  1.00  0.00     0.048 C 
BRANCH  35  36
ATOM     36  C   UNL     1      -5.241   1.437   1.304  1.00  0.00     0.025 C 
BRANCH  36  37
ATOM     37  C   UNL     1      -6.416   1.696   2.224  1.00  0.00     0.116 C 
BRANCH  37  38
ATOM     38  N   UNL     1      -7.572   2.245   1.531  1.00  0.00    -0.352 N 
ATOM     39  C   UNL     1      -8.907   1.966   1.719  1.00  0.00     0.251 C 
ATOM     40  H   UNL     1      -7.372   2.908   0.831  1.00  0.00     0.163 HD
ATOM     41  O   UNL     1      -9.743   2.426   0.955  1.00  0.00    -0.269 OA
BRANCH  39  42
ATOM     42  C   UNL     1      -9.321   1.081   2.832  1.00  0.00     0.039 A 
ATOM     43  C   UNL     1     -10.348   0.159   2.618  1.00  0.00     0.014 A 
ATOM     44  C   UNL     1      -8.698   1.155   4.080  1.00  0.00     0.014 A 
ATOM     45  C   UNL     1     -10.719  -0.712   3.644  1.00  0.00     0.010 A 
ATOM     46  C   UNL     1      -8.984   0.212   5.056  1.00  0.00     0.010 A 
ATOM     47  C   UNL     1     -10.025  -0.705   4.864  1.00  0.00    -0.014 A 
BRANCH  47  48
ATOM     48  C   UNL     1     -10.413  -1.601   5.980  1.00  0.00     0.031 A 
ATOM     49  C   UNL     1     -10.885  -1.009   7.281  1.00  0.00     0.074 A 
ATOM     50  C   UNL     1     -10.291  -2.934   5.844  1.00  0.00     0.049 A 
ATOM     51  N   UNL     1     -11.237  -1.613   8.387  1.00  0.00    -0.248 NA
ATOM     52  C   UNL     1     -10.930   0.461   7.364  1.00  0.00     0.031 C 
ATOM     53  C   UNL     1      -9.783  -3.622   4.656  1.00  0.00     0.029 A 
ATOM     54  N   UNL     1     -10.583  -3.950   6.718  1.00  0.00    -0.354 N 
ATOM     55  C   UNL     1     -11.521  -0.600   9.295  1.00  0.00     0.074 A 
ATOM     56  C   UNL     1     -11.228   0.653   8.638  1.00  0.00     0.031 C 
ATOM     57  C   UNL     1      -9.830  -4.947   4.863  1.00  0.00     0.029 A 
ATOM     58  C   UNL     1     -10.338  -5.201   6.207  1.00  0.00     0.049 A 
ATOM     59  H   UNL     1     -10.934  -3.796   7.624  1.00  0.00     0.167 HD
ATOM     60  C   UNL     1     -12.014  -0.701  10.552  1.00  0.00     0.037 A 
ATOM     61  C   UNL     1     -10.509  -6.415   6.763  1.00  0.00     0.037 A 
ATOM     62  C   UNL     1     -12.329  -1.952  11.188  1.00  0.00     0.049 A 
ATOM     63  C   UNL     1     -11.078  -6.506   8.152  1.00  0.00     0.074 A 
ATOM     64  C   UNL     1     -12.895  -2.171  12.431  1.00  0.00     0.029 A 
ATOM     65  N   UNL     1     -12.098  -3.200  10.626  1.00  0.00    -0.354 N 
ATOM     66  N   UNL     1     -11.422  -5.542   8.972  1.00  0.00    -0.248 NA
ATOM     67  C   UNL     1     -11.300  -7.856   8.686  1.00  0.00     0.031 C 
ATOM     68  C   UNL     1     -12.955  -3.552  12.644  1.00  0.00     0.029 A 
ATOM     69  C   UNL     1     -12.489  -4.194  11.507  1.00  0.00     0.049 A 
ATOM     70  H   UNL     1     -11.714  -3.355   9.734  1.00  0.00     0.167 HD
ATOM     71  C   UNL     1     -11.931  -6.165  10.104  1.00  0.00     0.074 A 
ATOM     72  C   UNL     1     -11.861  -7.592   9.857  1.00  0.00     0.031 C 
ATOM     73  C   UNL     1     -12.415  -5.610  11.242  1.00  0.00     0.037 A 
BRANCH  60  74
ATOM     74  C   UNL     1     -12.233   0.578  11.312  1.00  0.00     0.057 A 
ATOM     75  C   UNL     1     -13.200   1.519  10.926  1.00  0.00     0.134 A 
ATOM     76  C   UNL     1     -11.463   0.877  12.443  1.00  0.00     0.134 A 
ATOM     77  F   UNL     1     -13.964   1.305   9.844  1.00  0.00    -0.206 F 
ATOM     78  C   UNL     1     -13.362   2.726  11.609  1.00  0.00     0.040 A 
ATOM     79  C   UNL     1     -11.640   2.065  13.155  1.00  0.00     0.040 A 
ATOM     80  F   UNL     1     -10.524   0.023  12.873  1.00  0.00    -0.206 F 
ATOM     81  C   UNL     1     -12.583   2.999  12.731  1.00  0.00     0.006 A 
ENDBRANCH  60  74
BRANCH  61  82
ATOM     82  C   UNL     1     -10.178  -7.635   5.986  1.00  0.00     0.057 A 
ATOM     83  C   UNL     1     -11.182  -8.489   5.514  1.00  0.00     0.134 A 
ATOM     84  C   UNL     1      -8.853  -7.970   5.681  1.00  0.00     0.134 A 
ATOM     85  F   UNL     1     -12.470  -8.229   5.785  1.00  0.00    -0.206 F 
ATOM     86  C   UNL     1     -10.882  -9.640   4.784  1.00  0.00     0.040 A 
ATOM     87  C   UNL     1      -8.540  -9.104   4.929  1.00  0.00     0.040 A 
ATOM     88  F   UNL     1      -7.845  -7.187   6.093  1.00  0.00    -0.206 F 
ATOM     89  C   UNL     1      -9.556  -9.946   4.484  1.00  0.00     0.006 A 
ENDBRANCH  61  82
BRANCH  73  90
ATOM     90  C   UNL     1     -12.953  -6.546  12.287  1.00  0.00     0.057 A 
ATOM     91  C   UNL     1     -12.121  -7.390  13.033  1.00  0.00     0.134 A 
ATOM     92  C   UNL     1     -14.326  -6.580  12.566  1.00  0.00     0.134 A 
ATOM     93  F   UNL     1     -10.799  -7.414  12.809  1.00  0.00    -0.206 F 
ATOM     94  C   UNL     1     -12.639  -8.259  13.995  1.00  0.00     0.040 A 
ATOM     95  C   UNL     1     -14.851  -7.420  13.548  1.00  0.00     0.040 A 
ATOM     96  F   UNL     1     -15.178  -5.788  11.898  1.00  0.00    -0.206 F 
ATOM     97  C   UNL     1     -14.008  -8.271  14.258  1.00  0.00     0.006 A 
ENDBRANCH  73  90
ENDBRANCH  47  48
ENDBRANCH  39  42
ENDBRANCH  37  38
ENDBRANCH  36  37
ENDBRANCH  35  36
ENDBRANCH   1  35
TORSDOF 18
