REMARK SMILES C[C@@H]1[C@H](C(=O)NCCCCNC(=O)c2ccc(-c3c4nc(c(-c5c(F)cccc5F)c5ccc([nH]5)c(-c5c(F)cccc5F)c5nc(c(-c6c(F)cccc6F)c6ccc3[nH]6)C=C5)C=C4)cc2)CCN1C(=O)COc1ccccc1O
REMARK SMILES IDX 7 1 6 2 4 3 5 4 3 6 1 7 2 8 70 9 68 10 69 11 71 12 72 13
REMARK SMILES IDX 73 14 74 15 75 16 76 17 80 18 77 19 79 20 78 21 81 22 8 24
REMARK SMILES IDX 9 25 10 26 11 27 12 28 13 30 14 31 15 32 67 33 16 34 66 35
REMARK SMILES IDX 17 36 18 37 19 38 60 39 20 40 65 41 59 42 61 43 21 44 64 45
REMARK SMILES IDX 58 46 57 47 22 49 48 50 31 51 47 52 32 53 35 54 46 55 62 56
REMARK SMILES IDX 33 57 34 58 45 60 63 61 36 62 23 63 24 64 29 65 25 66 26 67
REMARK SMILES IDX 28 68 30 69 27 70 49 71 50 72 55 73 51 74 52 75 54 76 56 77
REMARK SMILES IDX 53 78 37 79 38 80 43 81 39 82 40 83 42 84 44 85 41 86
REMARK H PARENT 6 5 81 23 11 29 61 48 35 59
REMARK Flexibility Score: inf
ROOT
ATOM      1  C   UNL     1       1.454   1.496   2.180  1.00  0.00     0.116 C 
ENDROOT
BRANCH   1   2
ATOM      2  N   UNL     1       1.359   2.401   1.050  1.00  0.00    -0.356 N 
ATOM      3  C   UNL     1       0.747   2.264  -0.154  1.00  0.00     0.225 C 
ATOM      4  O   UNL     1       0.901   3.178  -0.970  1.00  0.00    -0.275 OA
ATOM      5  H   UNL     1       1.816   3.263   1.180  1.00  0.00     0.163 HD
BRANCH   3   6
ATOM      6  C   UNL     1      -0.094   1.053  -0.525  1.00  0.00     0.102 C 
ATOM      7  C   UNL     1       2.093  -0.387  -0.421  1.00  0.00     0.032 C 
ATOM      8  C   UNL     1       0.632  -0.268  -0.837  1.00  0.00     0.094 C 
ATOM      9  N   UNL     1      -0.202  -1.315  -0.220  1.00  0.00    -0.336 N 
ATOM     10  C   UNL     1      -1.232   0.743   0.446  1.00  0.00     0.037 C 
ATOM     11  C   UNL     1      -1.300  -0.767   0.554  1.00  0.00     0.121 C 
BRANCH   9  12
ATOM     12  C   UNL     1      -0.035  -2.694  -0.243  1.00  0.00     0.260 C 
ATOM     13  O   UNL     1      -0.660  -3.417   0.537  1.00  0.00    -0.271 OA
BRANCH  12  14
ATOM     14  C   UNL     1       0.918  -3.323  -1.271  1.00  0.00     0.329 C 
BRANCH  14  15
ATOM     15  O   UNL     1       1.244  -2.569  -2.427  1.00  0.00    -0.480 OA
BRANCH  15  16
ATOM     16  C   UNL     1       0.513  -2.821  -3.551  1.00  0.00     0.161 A 
ATOM     17  C   UNL     1       1.265  -2.999  -4.714  1.00  0.00     0.050 A 
ATOM     18  C   UNL     1      -0.880  -2.799  -3.640  1.00  0.00     0.157 A 
ATOM     19  C   UNL     1       0.631  -3.204  -5.941  1.00  0.00     0.004 A 
ATOM     20  C   UNL     1      -1.517  -3.031  -4.856  1.00  0.00     0.050 A 
ATOM     21  C   UNL     1      -0.761  -3.230  -6.009  1.00  0.00     0.004 A 
BRANCH  18  22
ATOM     22  O   UNL     1      -1.699  -2.475  -2.600  1.00  0.00    -0.504 OA
ATOM     23  H   UNL     1      -1.336  -2.305  -1.753  1.00  0.00     0.293 HD
ENDBRANCH  18  22
ENDBRANCH  15  16
ENDBRANCH  14  15
ENDBRANCH  12  14
ENDBRANCH   9  12
ENDBRANCH   3   6
ENDBRANCH   1   2
BRANCH   1  24
ATOM     24  C   UNL     1       2.904   1.118   2.482  1.00  0.00     0.023 C 
BRANCH  24  25
ATOM     25  C   UNL     1       3.760   2.241   3.049  1.00  0.00     0.023 C 
BRANCH  25  26
ATOM     26  C   UNL     1       3.238   2.836   4.343  1.00  0.00     0.116 C 
BRANCH  26  27
ATOM     27  N   UNL     1       3.052   1.844   5.393  1.00  0.00    -0.352 N 
ATOM     28  C   UNL     1       3.501   1.871   6.693  1.00  0.00     0.251 C 
ATOM     29  H   UNL     1       2.535   1.046   5.138  1.00  0.00     0.163 HD
ATOM     30  O   UNL     1       3.377   0.898   7.420  1.00  0.00    -0.269 OA
BRANCH  28  31
ATOM     31  C   UNL     1       4.168   3.093   7.183  1.00  0.00     0.039 A 
ATOM     32  C   UNL     1       5.394   2.982   7.842  1.00  0.00     0.014 A 
ATOM     33  C   UNL     1       3.608   4.346   6.923  1.00  0.00     0.014 A 
ATOM     34  C   UNL     1       6.095   4.140   8.179  1.00  0.00     0.010 A 
ATOM     35  C   UNL     1       4.353   5.489   7.164  1.00  0.00     0.010 A 
ATOM     36  C   UNL     1       5.596   5.400   7.808  1.00  0.00    -0.014 A 
BRANCH  36  37
ATOM     37  C   UNL     1       6.328   6.650   8.119  1.00  0.00     0.031 A 
ATOM     38  C   UNL     1       5.688   7.673   9.017  1.00  0.00     0.074 A 
ATOM     39  C   UNL     1       7.516   6.900   7.537  1.00  0.00     0.049 A 
ATOM     40  N   UNL     1       6.098   8.875   9.327  1.00  0.00    -0.248 NA
ATOM     41  C   UNL     1       4.389   7.310   9.609  1.00  0.00     0.031 C 
ATOM     42  C   UNL     1       8.209   6.011   6.602  1.00  0.00     0.029 A 
ATOM     43  N   UNL     1       8.345   7.987   7.639  1.00  0.00    -0.354 N 
ATOM     44  C   UNL     1       5.096   9.418  10.120  1.00  0.00     0.074 A 
ATOM     45  C   UNL     1       4.032   8.443  10.192  1.00  0.00     0.031 C 
ATOM     46  C   UNL     1       9.373   6.576   6.240  1.00  0.00     0.029 A 
ATOM     47  C   UNL     1       9.491   7.878   6.889  1.00  0.00     0.049 A 
ATOM     48  H   UNL     1       8.139   8.771   8.197  1.00  0.00     0.167 HD
ATOM     49  C   UNL     1       5.076  10.612  10.759  1.00  0.00     0.037 A 
ATOM     50  C   UNL     1      10.520   8.734   6.747  1.00  0.00     0.037 A 
ATOM     51  C   UNL     1       6.160  11.555  10.726  1.00  0.00     0.049 A 
ATOM     52  C   UNL     1      10.494  10.037   7.497  1.00  0.00     0.074 A 
ATOM     53  C   UNL     1       6.273  12.764  11.388  1.00  0.00     0.029 A 
ATOM     54  N   UNL     1       7.327  11.385   9.996  1.00  0.00    -0.354 N 
ATOM     55  N   UNL     1       9.567  10.515   8.291  1.00  0.00    -0.248 NA
ATOM     56  C   UNL     1      11.662  10.914   7.339  1.00  0.00     0.031 C 
ATOM     57  C   UNL     1       7.499  13.339  11.037  1.00  0.00     0.029 A 
ATOM     58  C   UNL     1       8.164  12.470  10.187  1.00  0.00     0.049 A 
ATOM     59  H   UNL     1       7.529  10.608   9.426  1.00  0.00     0.167 HD
ATOM     60  C   UNL     1      10.052  11.732   8.753  1.00  0.00     0.074 A 
ATOM     61  C   UNL     1      11.359  11.914   8.156  1.00  0.00     0.031 C 
ATOM     62  C   UNL     1       9.469  12.619   9.595  1.00  0.00     0.037 A 
BRANCH  49  63
ATOM     63  C   UNL     1       3.848  10.944  11.554  1.00  0.00     0.057 A 
ATOM     64  C   UNL     1       3.530  10.267  12.739  1.00  0.00     0.134 A 
ATOM     65  C   UNL     1       2.974  11.953  11.132  1.00  0.00     0.134 A 
ATOM     66  F   UNL     1       4.316   9.276  13.188  1.00  0.00    -0.206 F 
ATOM     67  C   UNL     1       2.368  10.556  13.457  1.00  0.00     0.040 A 
ATOM     68  C   UNL     1       1.825  12.272  11.858  1.00  0.00     0.040 A 
ATOM     69  F   UNL     1       3.220  12.643  10.009  1.00  0.00    -0.206 F 
ATOM     70  C   UNL     1       1.514  11.566  13.019  1.00  0.00     0.006 A 
ENDBRANCH  49  63
BRANCH  50  71
ATOM     71  C   UNL     1      11.681   8.368   5.898  1.00  0.00     0.057 A 
ATOM     72  C   UNL     1      12.915   8.042   6.473  1.00  0.00     0.134 A 
ATOM     73  C   UNL     1      11.590   8.334   4.502  1.00  0.00     0.134 A 
ATOM     74  F   UNL     1      13.067   8.073   7.806  1.00  0.00    -0.206 F 
ATOM     75  C   UNL     1      14.023   7.715   5.691  1.00  0.00     0.040 A 
ATOM     76  C   UNL     1      12.685   7.986   3.708  1.00  0.00     0.040 A 
ATOM     77  F   UNL     1      10.433   8.625   3.891  1.00  0.00    -0.206 F 
ATOM     78  C   UNL     1      13.908   7.682   4.303  1.00  0.00     0.006 A 
ENDBRANCH  50  71
BRANCH  62  79
ATOM     79  C   UNL     1      10.260  13.840   9.957  1.00  0.00     0.057 A 
ATOM     80  C   UNL     1      10.445  14.895   9.055  1.00  0.00     0.134 A 
ATOM     81  C   UNL     1      10.804  13.978  11.240  1.00  0.00     0.134 A 
ATOM     82  F   UNL     1       9.958  14.816   7.808  1.00  0.00    -0.206 F 
ATOM     83  C   UNL     1      11.162  16.038   9.412  1.00  0.00     0.040 A 
ATOM     84  C   UNL     1      11.502  15.126  11.616  1.00  0.00     0.040 A 
ATOM     85  F   UNL     1      10.653  13.006  12.152  1.00  0.00    -0.206 F 
ATOM     86  C   UNL     1      11.687  16.158  10.698  1.00  0.00     0.006 A 
ENDBRANCH  62  79
ENDBRANCH  36  37
ENDBRANCH  28  31
ENDBRANCH  26  27
ENDBRANCH  25  26
ENDBRANCH  24  25
ENDBRANCH   1  24
TORSDOF 16
