REMARK SMILES CC[C@@H](C(=O)Nc1ccc(OC(C)=O)cc1C(=O)NCCCCNC(=O)c1ccc(-c2c3nc(c(-c4c(F)cccc4F)c4ccc([nH]4)c(-c4c(F)cccc4F)c4nc(c(-c5c(F)cccc5F)c5ccc2[nH]5)C=C4)C=C3)cc1)c1ccccc1
REMARK SMILES IDX 21 1 20 2 19 3 17 4 18 5 16 7 7 8 8 9 9 10 15 11 10 12 6 13
REMARK SMILES IDX 4 14 5 15 3 17 2 18 1 19 81 20 82 21 86 22 83 23 85 24 84 25
REMARK SMILES IDX 11 26 12 27 13 28 14 29 22 30 23 31 24 32 25 33 26 35 27 36
REMARK SMILES IDX 28 37 80 38 29 39 79 40 30 41 31 42 32 43 73 44 33 45 78 46
REMARK SMILES IDX 72 47 74 48 34 49 77 50 71 51 70 52 35 54 61 55 44 56 60 57
REMARK SMILES IDX 45 58 48 59 59 60 75 61 46 62 47 63 58 65 76 66 49 67 36 68
REMARK SMILES IDX 37 69 42 70 38 71 39 72 41 73 43 74 40 75 62 76 63 77 68 78
REMARK SMILES IDX 64 79 65 80 67 81 69 82 66 83 50 84 51 85 56 86 52 87 53 88
REMARK SMILES IDX 55 89 57 90 54 91
REMARK H PARENT 19 6 6 16 24 34 74 53 48 64
REMARK Flexibility Score: inf
ROOT
ATOM      1  C   UNL     1      -2.647   3.156   0.074  1.00  0.00     0.023 C 
ENDROOT
BRANCH   1   2
ATOM      2  C   UNL     1      -1.257   2.538  -0.021  1.00  0.00     0.116 C 
BRANCH   2   3
ATOM      3  N   UNL     1      -1.252   1.100  -0.164  1.00  0.00    -0.352 N 
ATOM      4  C   UNL     1      -0.281   0.236  -0.597  1.00  0.00     0.253 C 
ATOM      5  O   UNL     1      -0.573  -0.963  -0.624  1.00  0.00    -0.269 OA
ATOM      6  H   UNL     1      -2.096   0.664   0.096  1.00  0.00     0.163 HD
BRANCH   4   7
ATOM      7  C   UNL     1       1.078   0.632  -1.077  1.00  0.00     0.067 A 
ATOM      8  C   UNL     1       1.900   1.686  -0.640  1.00  0.00     0.054 A 
ATOM      9  C   UNL     1       3.068   1.999  -1.373  1.00  0.00     0.031 A 
ATOM     10  C   UNL     1       3.543   1.156  -2.375  1.00  0.00     0.049 A 
ATOM     11  C   UNL     1       1.567  -0.201  -2.114  1.00  0.00     0.063 A 
ATOM     12  C   UNL     1       2.816   0.020  -2.687  1.00  0.00     0.131 A 
BRANCH   8  13
ATOM     13  N   UNL     1       1.707   2.539   0.449  1.00  0.00    -0.325 N 
ATOM     14  C   UNL     1       1.454   2.430   1.779  1.00  0.00     0.231 C 
ATOM     15  O   UNL     1       1.115   3.529   2.252  1.00  0.00    -0.274 OA
ATOM     16  H   UNL     1       1.772   3.483   0.176  1.00  0.00     0.169 HD
BRANCH  14  17
ATOM     17  C   UNL     1       1.761   1.214   2.721  1.00  0.00     0.108 C 
BRANCH  17  18
ATOM     18  C   UNL     1       1.723  -0.198   2.117  1.00  0.00     0.015 C 
ATOM     19  C   UNL     1       2.982  -0.624   1.379  1.00  0.00     0.005 C 
ENDBRANCH  17  18
BRANCH  17  20
ATOM     20  C   UNL     1       0.972   1.308   4.067  1.00  0.00    -0.036 A 
ATOM     21  C   UNL     1       1.045   2.482   4.845  1.00  0.00     0.004 A 
ATOM     22  C   UNL     1       0.238   0.240   4.619  1.00  0.00     0.004 A 
ATOM     23  C   UNL     1       0.403   2.595   6.083  1.00  0.00     0.000 A 
ATOM     24  C   UNL     1      -0.357   0.331   5.885  1.00  0.00     0.000 A 
ATOM     25  C   UNL     1      -0.282   1.511   6.614  1.00  0.00     0.000 A 
ENDBRANCH  17  20
ENDBRANCH  14  17
ENDBRANCH   8  13
BRANCH  12  26
ATOM     26  O   UNL     1       3.345  -0.849  -3.655  1.00  0.00    -0.427 OA
BRANCH  26  27
ATOM     27  C   UNL     1       3.985  -2.026  -3.263  1.00  0.00     0.308 C 
ATOM     28  C   UNL     1       3.360  -2.773  -2.119  1.00  0.00     0.139 C 
ATOM     29  O   UNL     1       4.947  -2.466  -3.885  1.00  0.00    -0.252 OA
ENDBRANCH  26  27
ENDBRANCH  12  26
ENDBRANCH   4   7
ENDBRANCH   2   3
ENDBRANCH   1   2
BRANCH   1  30
ATOM     30  C   UNL     1      -3.426   2.810   1.349  1.00  0.00     0.023 C 
BRANCH  30  31
ATOM     31  C   UNL     1      -2.722   3.087   2.680  1.00  0.00     0.116 C 
BRANCH  31  32
ATOM     32  N   UNL     1      -2.334   4.480   2.855  1.00  0.00    -0.352 N 
ATOM     33  C   UNL     1      -2.798   5.429   3.739  1.00  0.00     0.251 C 
ATOM     34  H   UNL     1      -1.628   4.793   2.244  1.00  0.00     0.163 HD
ATOM     35  O   UNL     1      -2.449   6.595   3.643  1.00  0.00    -0.269 OA
BRANCH  33  36
ATOM     36  C   UNL     1      -3.749   5.036   4.803  1.00  0.00     0.039 A 
ATOM     37  C   UNL     1      -4.901   5.800   5.004  1.00  0.00     0.014 A 
ATOM     38  C   UNL     1      -3.502   3.916   5.600  1.00  0.00     0.014 A 
ATOM     39  C   UNL     1      -5.849   5.387   5.945  1.00  0.00     0.010 A 
ATOM     40  C   UNL     1      -4.481   3.463   6.479  1.00  0.00     0.010 A 
ATOM     41  C   UNL     1      -5.667   4.191   6.659  1.00  0.00    -0.014 A 
BRANCH  41  42
ATOM     42  C   UNL     1      -6.706   3.682   7.591  1.00  0.00     0.031 A 
ATOM     43  C   UNL     1      -6.407   3.543   9.058  1.00  0.00     0.074 A 
ATOM     44  C   UNL     1      -7.897   3.276   7.106  1.00  0.00     0.049 A 
ATOM     45  N   UNL     1      -7.161   3.063  10.015  1.00  0.00    -0.248 NA
ATOM     46  C   UNL     1      -5.072   3.970   9.504  1.00  0.00     0.031 C 
ATOM     47  C   UNL     1      -8.291   3.299   5.696  1.00  0.00     0.029 A 
ATOM     48  N   UNL     1      -8.992   2.752   7.747  1.00  0.00    -0.354 N 
ATOM     49  C   UNL     1      -6.388   3.117  11.168  1.00  0.00     0.074 A 
ATOM     50  C   UNL     1      -5.088   3.621  10.781  1.00  0.00     0.031 C 
ATOM     51  C   UNL     1      -9.547   2.837   5.582  1.00  0.00     0.029 A 
ATOM     52  C   UNL     1     -10.035   2.455   6.903  1.00  0.00     0.049 A 
ATOM     53  H   UNL     1      -9.027   2.603   8.720  1.00  0.00     0.167 HD
ATOM     54  C   UNL     1      -6.736   2.802  12.438  1.00  0.00     0.037 A 
ATOM     55  C   UNL     1     -11.249   1.934   7.165  1.00  0.00     0.037 A 
ATOM     56  C   UNL     1      -8.038   2.328  12.826  1.00  0.00     0.049 A 
ATOM     57  C   UNL     1     -11.618   1.606   8.586  1.00  0.00     0.074 A 
ATOM     58  C   UNL     1      -8.508   2.040  14.096  1.00  0.00     0.029 A 
ATOM     59  N   UNL     1      -9.079   2.072  11.947  1.00  0.00    -0.354 N 
ATOM     60  N   UNL     1     -10.902   1.733   9.677  1.00  0.00    -0.248 NA
ATOM     61  C   UNL     1     -12.969   1.072   8.813  1.00  0.00     0.031 C 
ATOM     62  C   UNL     1      -9.822   1.573  13.980  1.00  0.00     0.029 A 
ATOM     63  C   UNL     1     -10.185   1.615  12.644  1.00  0.00     0.049 A 
ATOM     64  H   UNL     1      -9.038   2.197  10.971  1.00  0.00     0.167 HD
ATOM     65  C   UNL     1     -11.723   1.327  10.720  1.00  0.00     0.074 A 
ATOM     66  C   UNL     1     -12.995   0.960  10.133  1.00  0.00     0.031 C 
ATOM     67  C   UNL     1     -11.449   1.264  12.046  1.00  0.00     0.037 A 
BRANCH  54  68
ATOM     68  C   UNL     1      -5.690   2.971  13.501  1.00  0.00     0.057 A 
ATOM     69  C   UNL     1      -5.249   4.238  13.908  1.00  0.00     0.134 A 
ATOM     70  C   UNL     1      -5.132   1.858  14.143  1.00  0.00     0.134 A 
ATOM     71  F   UNL     1      -5.734   5.345  13.326  1.00  0.00    -0.206 F 
ATOM     72  C   UNL     1      -4.270   4.390  14.891  1.00  0.00     0.040 A 
ATOM     73  C   UNL     1      -4.173   1.998  15.147  1.00  0.00     0.040 A 
ATOM     74  F   UNL     1      -5.513   0.616  13.807  1.00  0.00    -0.206 F 
ATOM     75  C   UNL     1      -3.733   3.268  15.518  1.00  0.00     0.006 A 
ENDBRANCH  54  68
BRANCH  55  76
ATOM     76  C   UNL     1     -12.223   1.725   6.064  1.00  0.00     0.057 A 
ATOM     77  C   UNL     1     -13.366   2.525   5.952  1.00  0.00     0.134 A 
ATOM     78  C   UNL     1     -12.043   0.720   5.107  1.00  0.00     0.134 A 
ATOM     79  F   UNL     1     -13.603   3.492   6.851  1.00  0.00    -0.206 F 
ATOM     80  C   UNL     1     -14.306   2.321   4.941  1.00  0.00     0.040 A 
ATOM     81  C   UNL     1     -12.963   0.520   4.076  1.00  0.00     0.040 A 
ATOM     82  F   UNL     1     -10.964  -0.076   5.154  1.00  0.00    -0.206 F 
ATOM     83  C   UNL     1     -14.103   1.317   3.996  1.00  0.00     0.006 A 
ENDBRANCH  55  76
BRANCH  67  84
ATOM     84  C   UNL     1     -12.557   0.823  12.957  1.00  0.00     0.057 A 
ATOM     85  C   UNL     1     -12.989  -0.509  13.007  1.00  0.00     0.134 A 
ATOM     86  C   UNL     1     -13.176   1.737  13.819  1.00  0.00     0.134 A 
ATOM     87  F   UNL     1     -12.446  -1.431  12.198  1.00  0.00    -0.206 F 
ATOM     88  C   UNL     1     -14.014  -0.910  13.866  1.00  0.00     0.040 A 
ATOM     89  C   UNL     1     -14.183   1.343  14.700  1.00  0.00     0.040 A 
ATOM     90  F   UNL     1     -12.803   3.026  13.826  1.00  0.00    -0.206 F 
ATOM     91  C   UNL     1     -14.609   0.017  14.721  1.00  0.00     0.006 A 
ENDBRANCH  67  84
ENDBRANCH  41  42
ENDBRANCH  33  36
ENDBRANCH  31  32
ENDBRANCH  30  31
ENDBRANCH   1  30
TORSDOF 17
