REMARK SMILES O=C(NCCCCNC(=O)c1cccc2cccc(C(=O)NC3COC3)c12)c1ccc(-c2c3nc(c(-c4c(F)cccc4F)c4ccc([nH]4)c(-c4c(F)cccc4F)c4nc(c(-c5c(F)cccc5F)c5ccc2[nH]5)C=C4)C=C3)cc1
REMARK SMILES IDX 5 1 4 2 3 3 1 4 2 5 28 7 29 8 81 9 30 10 80 11 31 12 32 13
REMARK SMILES IDX 33 14 74 15 34 16 79 17 73 18 75 19 35 20 78 21 72 22 71 23
REMARK SMILES IDX 36 25 62 26 45 27 61 28 46 29 49 30 60 31 76 32 47 33 48 34
REMARK SMILES IDX 59 36 77 37 50 38 37 39 38 40 43 41 39 42 40 43 42 44 44 45
REMARK SMILES IDX 41 46 63 47 64 48 69 49 65 50 66 51 68 52 70 53 67 54 51 55
REMARK SMILES IDX 52 56 57 57 53 58 54 59 56 60 58 61 55 62 6 63 7 64 8 65
REMARK SMILES IDX 9 66 10 68 11 69 12 70 27 71 13 72 15 73 19 74 14 75 16 76
REMARK SMILES IDX 18 77 17 78 20 79 21 80 22 81 23 83 24 84 26 85 25 86
REMARK H PARENT 3 6 75 24 49 35 8 67 22 82
REMARK Flexibility Score: inf
ROOT
ATOM      1  C   UNL     1       4.543  -2.182   1.281  1.00  0.00     0.023 C 
ENDROOT
BRANCH   1   2
ATOM      2  C   UNL     1       4.221  -1.383   0.027  1.00  0.00     0.116 C 
BRANCH   2   3
ATOM      3  N   UNL     1       2.799  -1.113  -0.134  1.00  0.00    -0.352 N 
ATOM      4  O   UNL     1       0.907   0.100  -0.277  1.00  0.00    -0.269 OA
ATOM      5  C   UNL     1       2.139   0.080  -0.301  1.00  0.00     0.251 C 
ATOM      6  H   UNL     1       2.221  -1.910  -0.120  1.00  0.00     0.163 HD
BRANCH   5   7
ATOM      7  C   UNL     1       2.886   1.343  -0.495  1.00  0.00     0.039 A 
ATOM      8  C   UNL     1       4.027   1.388  -1.297  1.00  0.00     0.014 A 
ATOM      9  C   UNL     1       2.411   2.517   0.102  1.00  0.00     0.014 A 
ATOM     10  C   UNL     1       4.770   2.560  -1.386  1.00  0.00     0.010 A 
ATOM     11  C   UNL     1       3.104   3.720  -0.071  1.00  0.00     0.010 A 
ATOM     12  C   UNL     1       4.303   3.747  -0.800  1.00  0.00    -0.014 A 
BRANCH  12  13
ATOM     13  C   UNL     1       5.038   5.015  -1.039  1.00  0.00     0.031 A 
ATOM     14  C   UNL     1       5.664   5.782   0.090  1.00  0.00     0.074 A 
ATOM     15  C   UNL     1       5.145   5.467  -2.305  1.00  0.00     0.049 A 
ATOM     16  N   UNL     1       6.327   6.911   0.052  1.00  0.00    -0.248 NA
ATOM     17  C   UNL     1       5.524   5.216   1.440  1.00  0.00     0.031 C 
ATOM     18  C   UNL     1       4.570   4.811  -3.483  1.00  0.00     0.029 A 
ATOM     19  N   UNL     1       5.779   6.569  -2.817  1.00  0.00    -0.354 N 
ATOM     20  C   UNL     1       6.667   7.200   1.367  1.00  0.00     0.074 A 
ATOM     21  C   UNL     1       6.112   6.142   2.185  1.00  0.00     0.031 C 
ATOM     22  C   UNL     1       4.912   5.499  -4.581  1.00  0.00     0.029 A 
ATOM     23  C   UNL     1       5.663   6.682  -4.181  1.00  0.00     0.049 A 
ATOM     24  H   UNL     1       6.268   7.218  -2.261  1.00  0.00     0.167 HD
ATOM     25  C   UNL     1       7.381   8.249   1.845  1.00  0.00     0.037 A 
ATOM     26  C   UNL     1       6.089   7.644  -5.020  1.00  0.00     0.037 A 
ATOM     27  C   UNL     1       7.930   9.297   1.020  1.00  0.00     0.049 A 
ATOM     28  C   UNL     1       6.837   8.817  -4.458  1.00  0.00     0.074 A 
ATOM     29  C   UNL     1       8.693  10.386   1.403  1.00  0.00     0.029 A 
ATOM     30  N   UNL     1       7.765   9.392  -0.355  1.00  0.00    -0.354 N 
ATOM     31  N   UNL     1       7.180   9.059  -3.216  1.00  0.00    -0.248 NA
ATOM     32  C   UNL     1       7.255   9.851  -5.413  1.00  0.00     0.031 C 
ATOM     33  C   UNL     1       8.940  11.170   0.271  1.00  0.00     0.029 A 
ATOM     34  C   UNL     1       8.387  10.536  -0.830  1.00  0.00     0.049 A 
ATOM     35  H   UNL     1       7.278   8.742  -0.912  1.00  0.00     0.167 HD
ATOM     36  C   UNL     1       7.874  10.261  -3.242  1.00  0.00     0.074 A 
ATOM     37  C   UNL     1       7.917  10.687  -4.626  1.00  0.00     0.031 C 
ATOM     38  C   UNL     1       8.425  10.947  -2.212  1.00  0.00     0.037 A 
BRANCH  25  39
ATOM     39  C   UNL     1       7.587   8.333   3.332  1.00  0.00     0.057 A 
ATOM     40  C   UNL     1       8.414   7.436   4.022  1.00  0.00     0.134 A 
ATOM     41  C   UNL     1       6.977   9.349   4.080  1.00  0.00     0.134 A 
ATOM     42  F   UNL     1       9.023   6.434   3.371  1.00  0.00    -0.206 F 
ATOM     43  C   UNL     1       8.604   7.530   5.403  1.00  0.00     0.040 A 
ATOM     44  C   UNL     1       7.182   9.471   5.456  1.00  0.00     0.040 A 
ATOM     45  F   UNL     1       6.180  10.249   3.484  1.00  0.00    -0.206 F 
ATOM     46  C   UNL     1       7.991   8.554   6.122  1.00  0.00     0.006 A 
ENDBRANCH  25  39
BRANCH  26  47
ATOM     47  C   UNL     1       5.801   7.537  -6.473  1.00  0.00     0.057 A 
ATOM     48  C   UNL     1       6.826   7.326  -7.402  1.00  0.00     0.134 A 
ATOM     49  C   UNL     1       4.493   7.630  -6.965  1.00  0.00     0.134 A 
ATOM     50  F   UNL     1       8.101   7.244  -6.994  1.00  0.00    -0.206 F 
ATOM     51  C   UNL     1       6.562   7.227  -8.769  1.00  0.00     0.040 A 
ATOM     52  C   UNL     1       4.212   7.502  -8.325  1.00  0.00     0.040 A 
ATOM     53  F   UNL     1       3.465   7.821  -6.125  1.00  0.00    -0.206 F 
ATOM     54  C   UNL     1       5.251   7.308  -9.233  1.00  0.00     0.006 A 
ENDBRANCH  26  47
BRANCH  38  55
ATOM     55  C   UNL     1       9.159  12.212  -2.550  1.00  0.00     0.057 A 
ATOM     56  C   UNL     1       8.492  13.371  -2.969  1.00  0.00     0.134 A 
ATOM     57  C   UNL     1      10.554  12.278  -2.429  1.00  0.00     0.134 A 
ATOM     58  F   UNL     1       7.159  13.371  -3.122  1.00  0.00    -0.206 F 
ATOM     59  C   UNL     1       9.188  14.541  -3.278  1.00  0.00     0.040 A 
ATOM     60  C   UNL     1      11.257  13.450  -2.705  1.00  0.00     0.040 A 
ATOM     61  F   UNL     1      11.254  11.206  -2.026  1.00  0.00    -0.206 F 
ATOM     62  C   UNL     1      10.574  14.584  -3.139  1.00  0.00     0.006 A 
ENDBRANCH  38  55
ENDBRANCH  12  13
ENDBRANCH   5   7
ENDBRANCH   2   3
ENDBRANCH   1   2
BRANCH   1  63
ATOM     63  C   UNL     1       3.951  -3.586   1.337  1.00  0.00     0.023 C 
BRANCH  63  64
ATOM     64  C   UNL     1       4.371  -4.571   0.242  1.00  0.00     0.116 C 
BRANCH  64  65
ATOM     65  N   UNL     1       5.810  -4.764   0.050  1.00  0.00    -0.352 N 
ATOM     66  C   UNL     1       6.656  -5.840   0.279  1.00  0.00     0.251 C 
ATOM     67  H   UNL     1       6.268  -3.973  -0.316  1.00  0.00     0.163 HD
ATOM     68  O   UNL     1       7.828  -5.763  -0.073  1.00  0.00    -0.269 OA
BRANCH  66  69
ATOM     69  C   UNL     1       6.164  -7.074   0.929  1.00  0.00     0.048 A 
ATOM     70  C   UNL     1       5.059  -7.655   0.278  1.00  0.00     0.014 A 
ATOM     71  C   UNL     1       6.752  -7.665   2.117  1.00  0.00     0.007 A 
ATOM     72  C   UNL     1       4.384  -8.721   0.839  1.00  0.00     0.001 A 
ATOM     73  C   UNL     1       6.011  -8.771   2.648  1.00  0.00    -0.017 A 
ATOM     74  C   UNL     1       7.954  -7.341   2.860  1.00  0.00     0.048 A 
ATOM     75  C   UNL     1       4.848  -9.253   2.029  1.00  0.00     0.009 A 
ATOM     76  C   UNL     1       6.408  -9.451   3.810  1.00  0.00     0.009 A 
ATOM     77  C   UNL     1       8.334  -8.073   4.013  1.00  0.00     0.014 A 
ATOM     78  C   UNL     1       7.562  -9.113   4.493  1.00  0.00     0.001 A 
BRANCH  74  79
ATOM     79  C   UNL     1       9.006  -6.346   2.533  1.00  0.00     0.252 C 
ATOM     80  O   UNL     1      10.140  -6.752   2.277  1.00  0.00    -0.269 OA
ATOM     81  N   UNL     1       8.819  -5.004   2.773  1.00  0.00    -0.345 N 
ATOM     82  H   UNL     1       9.639  -4.479   2.918  1.00  0.00     0.164 HD
BRANCH  81  83
ATOM     83  C   UNL     1       7.568  -4.254   2.840  1.00  0.00     0.134 C 
ATOM     84  C   UNL     1       6.461  -4.739   3.776  1.00  0.00     0.187 C 
ATOM     85  C   UNL     1       7.524  -2.997   3.708  1.00  0.00     0.187 C 
ATOM     86  O   UNL     1       6.200  -3.370   4.196  1.00  0.00    -0.377 OA
ENDBRANCH  81  83
ENDBRANCH  74  79
ENDBRANCH  66  69
ENDBRANCH  64  65
ENDBRANCH  63  64
ENDBRANCH   1  63
TORSDOF 13
