REMARK SMILES COC(=O)c1ccc2oc(=O)c([C@H]3N=c4ccc(C(=O)NCCCCNC(=O)c5ccc(-c6c7nc(c(-c8c(F)cccc8F)c8ccc([nH]8)c(-c8c(F)cccc8F)c8nc(c(-c9c(F)cccc9F)c9ccc6[nH]9)C=C8)C=C7)cc5)cc4=N3)cc2c1
REMARK SMILES IDX 23 1 22 2 21 3 19 4 20 5 18 7 13 8 14 9 85 10 15 11 84 12
REMARK SMILES IDX 16 13 83 14 17 15 12 16 5 17 6 18 88 19 7 20 87 21 8 22
REMARK SMILES IDX 86 23 9 24 10 25 11 26 3 27 4 28 2 29 1 30 24 31 25 32 26 33
REMARK SMILES IDX 27 34 28 36 29 37 30 38 82 39 31 40 81 41 32 42 33 43 34 44
REMARK SMILES IDX 75 45 35 46 80 47 74 48 76 49 36 50 79 51 73 52 72 53 37 55
REMARK SMILES IDX 63 56 46 57 62 58 47 59 50 60 61 61 77 62 48 63 49 64 60 66
REMARK SMILES IDX 78 67 51 68 38 69 39 70 44 71 40 72 41 73 43 74 45 75 42 76
REMARK SMILES IDX 64 77 65 78 70 79 66 80 67 81 69 82 71 83 68 84 52 85 53 86
REMARK SMILES IDX 58 87 54 88 55 89 57 90 59 91 56 92
REMARK H PARENT 21 6 26 35 76 54 50 65
REMARK Flexibility Score: inf
ROOT
ATOM      1  C   UNL     1       0.089  -3.370  16.368  1.00  0.00     0.023 C 
ENDROOT
BRANCH   1   2
ATOM      2  C   UNL     1       1.139  -4.423  15.999  1.00  0.00     0.116 C 
BRANCH   2   3
ATOM      3  N   UNL     1       0.527  -5.536  15.303  1.00  0.00    -0.352 N 
ATOM      4  C   UNL     1       0.344  -5.833  13.989  1.00  0.00     0.251 C 
ATOM      5  O   UNL     1      -0.243  -6.892  13.752  1.00  0.00    -0.269 OA
ATOM      6  H   UNL     1       0.168  -6.223  15.910  1.00  0.00     0.163 HD
BRANCH   4   7
ATOM      7  C   UNL     1       0.859  -4.977  12.861  1.00  0.00     0.042 A 
ATOM      8  C   UNL     1       2.130  -4.089   8.627  1.00  0.00     0.260 C 
ATOM      9  N   UNL     1       2.472  -3.038   9.618  1.00  0.00    -0.251 NA
ATOM     10  N   UNL     1       1.526  -5.277   9.287  1.00  0.00    -0.251 NA
ATOM     11  C   UNL     1       1.966  -3.522  10.698  1.00  0.00     0.086 A 
ATOM     12  C   UNL     1       1.432  -4.887  10.512  1.00  0.00     0.087 A 
ATOM     13  C   UNL     1       1.827  -2.871  11.995  1.00  0.00     0.031 A 
ATOM     14  C   UNL     1       0.913  -5.614  11.673  1.00  0.00     0.044 A 
ATOM     15  C   UNL     1       1.230  -3.571  12.969  1.00  0.00     0.016 A 
BRANCH   8  16
ATOM     16  C   UNL     1       1.225  -3.505   7.576  1.00  0.00     0.085 A 
ATOM     17  C   UNL     1       0.386  -1.819   3.104  1.00  0.00     0.060 A 
ATOM     18  C   UNL     1      -0.928  -1.492   3.469  1.00  0.00     0.019 A 
ATOM     19  C   UNL     1       1.243  -2.436   4.028  1.00  0.00     0.027 A 
ATOM     20  C   UNL     1      -1.377  -1.764   4.762  1.00  0.00     0.049 A 
ATOM     21  C   UNL     1       0.796  -2.702   5.322  1.00  0.00     0.019 A 
ATOM     22  C   UNL     1      -0.502  -2.354   5.672  1.00  0.00     0.138 A 
ATOM     23  C   UNL     1       1.651  -3.320   6.316  1.00  0.00     0.027 A 
ATOM     24  O   UNL     1      -0.969  -2.571   6.979  1.00  0.00    -0.422 OA
ATOM     25  C   UNL     1      -0.142  -3.075   7.984  1.00  0.00     0.343 A 
ATOM     26  O   UNL     1      -0.553  -3.138   9.138  1.00  0.00    -0.246 OA
BRANCH  17  27
ATOM     27  C   UNL     1       0.927  -1.534   1.754  1.00  0.00     0.337 C 
ATOM     28  O   UNL     1       1.838  -2.163   1.249  1.00  0.00    -0.246 OA
BRANCH  27  29
ATOM     29  O   UNL     1       0.318  -0.438   1.236  1.00  0.00    -0.465 OA
ATOM     30  C   UNL     1       0.877  -0.007  -0.006  1.00  0.00     0.282 C 
ENDBRANCH  27  29
ENDBRANCH  17  27
ENDBRANCH   8  16
ENDBRANCH   4   7
ENDBRANCH   2   3
ENDBRANCH   1   2
BRANCH   1  31
ATOM     31  C   UNL     1      -0.713  -3.700  17.629  1.00  0.00     0.023 C 
BRANCH  31  32
ATOM     32  C   UNL     1       0.115  -3.807  18.903  1.00  0.00     0.116 C 
BRANCH  32  33
ATOM     33  N   UNL     1       0.867  -2.601  19.228  1.00  0.00    -0.352 N 
ATOM     34  C   UNL     1       1.252  -2.152  20.473  1.00  0.00     0.251 C 
ATOM     35  H   UNL     1       1.132  -2.038  18.465  1.00  0.00     0.163 HD
ATOM     36  O   UNL     1       1.800  -1.064  20.606  1.00  0.00    -0.269 OA
BRANCH  34  37
ATOM     37  C   UNL     1       0.937  -2.983  21.654  1.00  0.00     0.039 A 
ATOM     38  C   UNL     1       1.196  -4.352  21.631  1.00  0.00     0.014 A 
ATOM     39  C   UNL     1       0.277  -2.408  22.743  1.00  0.00     0.014 A 
ATOM     40  C   UNL     1       0.600  -5.174  22.576  1.00  0.00     0.010 A 
ATOM     41  C   UNL     1      -0.224  -3.231  23.757  1.00  0.00     0.010 A 
ATOM     42  C   UNL     1      -0.133  -4.628  23.644  1.00  0.00    -0.014 A 
BRANCH  42  43
ATOM     43  C   UNL     1      -0.825  -5.550  24.585  1.00  0.00     0.031 A 
ATOM     44  C   UNL     1      -2.329  -5.542  24.715  1.00  0.00     0.074 A 
ATOM     45  C   UNL     1      -0.103  -6.470  25.255  1.00  0.00     0.049 A 
ATOM     46  N   UNL     1      -3.102  -6.327  25.425  1.00  0.00    -0.248 NA
ATOM     47  C   UNL     1      -3.061  -4.518  23.954  1.00  0.00     0.031 C 
ATOM     48  C   UNL     1       1.356  -6.594  25.209  1.00  0.00     0.029 A 
ATOM     49  N   UNL     1      -0.497  -7.498  26.072  1.00  0.00    -0.354 N 
ATOM     50  C   UNL     1      -4.402  -5.884  25.208  1.00  0.00     0.074 A 
ATOM     51  C   UNL     1      -4.311  -4.732  24.337  1.00  0.00     0.031 C 
ATOM     52  C   UNL     1       1.727  -7.678  25.906  1.00  0.00     0.029 A 
ATOM     53  C   UNL     1       0.544  -8.282  26.507  1.00  0.00     0.049 A 
ATOM     54  H   UNL     1      -1.436  -7.660  26.322  1.00  0.00     0.167 HD
ATOM     55  C   UNL     1      -5.568  -6.397  25.674  1.00  0.00     0.037 A 
ATOM     56  C   UNL     1       0.549  -9.362  27.309  1.00  0.00     0.037 A 
ATOM     57  C   UNL     1      -5.663  -7.546  26.538  1.00  0.00     0.049 A 
ATOM     58  C   UNL     1      -0.753  -9.870  27.860  1.00  0.00     0.074 A 
ATOM     59  C   UNL     1      -6.797  -8.143  27.063  1.00  0.00     0.029 A 
ATOM     60  N   UNL     1      -4.579  -8.272  27.009  1.00  0.00    -0.354 N 
ATOM     61  N   UNL     1      -1.973  -9.447  27.633  1.00  0.00    -0.248 NA
ATOM     62  C   UNL     1      -0.672 -11.011  28.781  1.00  0.00     0.031 C 
ATOM     63  C   UNL     1      -6.396  -9.198  27.891  1.00  0.00     0.029 A 
ATOM     64  C   UNL     1      -5.016  -9.299  27.832  1.00  0.00     0.049 A 
ATOM     65  H   UNL     1      -3.637  -8.086  26.791  1.00  0.00     0.167 HD
ATOM     66  C   UNL     1      -2.807 -10.290  28.357  1.00  0.00     0.074 A 
ATOM     67  C   UNL     1      -1.952 -11.261  29.009  1.00  0.00     0.031 C 
ATOM     68  C   UNL     1      -4.157 -10.263  28.473  1.00  0.00     0.037 A 
BRANCH  55  69
ATOM     69  C   UNL     1      -6.838  -5.697  25.272  1.00  0.00     0.057 A 
ATOM     70  C   UNL     1      -7.601  -5.000  26.219  1.00  0.00     0.134 A 
ATOM     71  C   UNL     1      -7.316  -5.719  23.954  1.00  0.00     0.134 A 
ATOM     72  F   UNL     1      -7.211  -4.944  27.501  1.00  0.00    -0.206 F 
ATOM     73  C   UNL     1      -8.785  -4.348  25.869  1.00  0.00     0.040 A 
ATOM     74  C   UNL     1      -8.482  -5.045  23.586  1.00  0.00     0.040 A 
ATOM     75  F   UNL     1      -6.630  -6.357  22.993  1.00  0.00    -0.206 F 
ATOM     76  C   UNL     1      -9.223  -4.360  24.547  1.00  0.00     0.006 A 
ENDBRANCH  55  69
BRANCH  56  77
ATOM     77  C   UNL     1       1.828 -10.034  27.655  1.00  0.00     0.057 A 
ATOM     78  C   UNL     1       2.793  -9.399  28.445  1.00  0.00     0.134 A 
ATOM     79  C   UNL     1       2.095 -11.343  27.239  1.00  0.00     0.134 A 
ATOM     80  F   UNL     1       2.603  -8.141  28.870  1.00  0.00    -0.206 F 
ATOM     81  C   UNL     1       3.977 -10.041  28.810  1.00  0.00     0.040 A 
ATOM     82  C   UNL     1       3.260 -12.009  27.624  1.00  0.00     0.040 A 
ATOM     83  F   UNL     1       1.202 -12.011  26.494  1.00  0.00    -0.206 F 
ATOM     84  C   UNL     1       4.206 -11.355  28.410  1.00  0.00     0.006 A 
ENDBRANCH  56  77
BRANCH  68  85
ATOM     85  C   UNL     1      -4.789 -11.354  29.292  1.00  0.00     0.057 A 
ATOM     86  C   UNL     1      -5.557 -12.349  28.673  1.00  0.00     0.134 A 
ATOM     87  C   UNL     1      -4.627 -11.436  30.681  1.00  0.00     0.134 A 
ATOM     88  F   UNL     1      -5.763 -12.327  27.348  1.00  0.00    -0.206 F 
ATOM     89  C   UNL     1      -6.128 -13.392  29.403  1.00  0.00     0.040 A 
ATOM     90  C   UNL     1      -5.163 -12.494  31.418  1.00  0.00     0.040 A 
ATOM     91  F   UNL     1      -3.892 -10.524  31.336  1.00  0.00    -0.206 F 
ATOM     92  C   UNL     1      -5.919 -13.475  30.778  1.00  0.00     0.006 A 
ENDBRANCH  68  85
ENDBRANCH  42  43
ENDBRANCH  34  37
ENDBRANCH  32  33
ENDBRANCH  31  32
ENDBRANCH   1  31
TORSDOF 14
