REMARK SMILES C[C@H](C(=O)NCCCCNC(=O)c1ccc(-c2c3nc(c(-c4c(F)cccc4F)c4ccc([nH]4)c(-c4c(F)cccc4F)c4nc(c(-c5c(F)cccc5F)c5ccc2[nH]5)C=C4)C=C3)cc1)[N@@H+]1CCc2ccccc2C1
REMARK SMILES IDX 8 1 7 2 6 3 5 4 3 5 4 6 2 8 1 9 67 10 68 11 76 12 69 14
REMARK SMILES IDX 75 15 70 16 74 17 71 18 73 19 72 20 9 21 10 22 11 23 12 25
REMARK SMILES IDX 13 26 14 27 66 28 15 29 65 30 16 31 17 32 18 33 59 34 19 35
REMARK SMILES IDX 64 36 58 37 60 38 20 39 63 40 57 41 56 42 21 44 47 45 30 46
REMARK SMILES IDX 46 47 31 48 34 49 45 50 61 51 32 52 33 53 44 55 62 56 35 57
REMARK SMILES IDX 22 58 23 59 28 60 24 61 25 62 27 63 29 64 26 65 48 66 49 67
REMARK SMILES IDX 54 68 50 69 51 70 53 71 55 72 52 73 36 74 37 75 42 76 38 77
REMARK SMILES IDX 39 78 41 79 43 80 40 81
REMARK H PARENT 5 7 67 13 10 24 60 43 34 54
REMARK Flexibility Score: inf
ROOT
ATOM      1  C   UNL     1      -2.387   2.844   1.037  1.00  0.00     0.023 C 
ENDROOT
BRANCH   1   2
ATOM      2  C   UNL     1      -2.524   1.609   0.153  1.00  0.00     0.023 C 
BRANCH   2   3
ATOM      3  C   UNL     1      -1.488   1.514  -0.962  1.00  0.00     0.116 C 
BRANCH   3   4
ATOM      4  N   UNL     1      -0.151   1.433  -0.420  1.00  0.00    -0.351 N 
ATOM      5  C   UNL     1       0.734   0.399  -0.502  1.00  0.00     0.278 C 
ATOM      6  O   UNL     1       1.770   0.487   0.162  1.00  0.00    -0.268 OA
ATOM      7  H   UNL     1       0.161   2.227   0.072  1.00  0.00     0.163 HD
BRANCH   5   8
ATOM      8  C   UNL     1       0.418  -0.784  -1.437  1.00  0.00     0.271 C 
ATOM      9  C   UNL     1       1.748  -1.134  -2.161  1.00  0.00     0.086 C 
BRANCH   8  10
ATOM     10  N   UNL     1      -0.408  -1.866  -0.823  1.00  0.00    -0.321 N 
ATOM     11  C   UNL     1      -1.066  -1.669   0.503  1.00  0.00     0.267 C 
ATOM     12  C   UNL     1       0.166  -3.191  -0.895  1.00  0.00     0.299 C 
ATOM     13  H   UNL     1      -1.187  -1.774  -1.476  1.00  0.00     0.349 HD
ATOM     14  C   UNL     1      -1.219  -2.965   1.412  1.00  0.00     0.097 C 
ATOM     15  C   UNL     1       0.926  -3.483   0.359  1.00  0.00     0.010 A 
ATOM     16  C   UNL     1       0.127  -3.652   1.493  1.00  0.00    -0.034 A 
ATOM     17  C   UNL     1       2.302  -3.433   0.505  1.00  0.00     0.010 A 
ATOM     18  C   UNL     1       0.658  -4.268   2.616  1.00  0.00     0.004 A 
ATOM     19  C   UNL     1       2.864  -3.873   1.698  1.00  0.00     0.001 A 
ATOM     20  C   UNL     1       2.045  -4.407   2.699  1.00  0.00     0.000 A 
ENDBRANCH   8  10
ENDBRANCH   5   8
ENDBRANCH   3   4
ENDBRANCH   2   3
ENDBRANCH   1   2
BRANCH   1  21
ATOM     21  C   UNL     1      -2.294   4.151   0.270  1.00  0.00     0.116 C 
BRANCH  21  22
ATOM     22  N   UNL     1      -3.377   4.309  -0.688  1.00  0.00    -0.352 N 
ATOM     23  C   UNL     1      -4.190   5.393  -0.907  1.00  0.00     0.251 C 
ATOM     24  H   UNL     1      -3.551   3.528  -1.261  1.00  0.00     0.163 HD
ATOM     25  O   UNL     1      -5.162   5.301  -1.637  1.00  0.00    -0.269 OA
BRANCH  23  26
ATOM     26  C   UNL     1      -3.884   6.660  -0.216  1.00  0.00     0.039 A 
ATOM     27  C   UNL     1      -4.925   7.347   0.407  1.00  0.00     0.014 A 
ATOM     28  C   UNL     1      -2.572   7.138  -0.151  1.00  0.00     0.014 A 
ATOM     29  C   UNL     1      -4.637   8.489   1.149  1.00  0.00     0.010 A 
ATOM     30  C   UNL     1      -2.275   8.219   0.669  1.00  0.00     0.010 A 
ATOM     31  C   UNL     1      -3.307   8.910   1.319  1.00  0.00    -0.014 A 
BRANCH  31  32
ATOM     32  C   UNL     1      -2.990  10.073   2.181  1.00  0.00     0.031 A 
ATOM     33  C   UNL     1      -2.357  11.303   1.593  1.00  0.00     0.074 A 
ATOM     34  C   UNL     1      -3.254  10.003   3.500  1.00  0.00     0.049 A 
ATOM     35  N   UNL     1      -2.021  12.419   2.187  1.00  0.00    -0.248 NA
ATOM     36  C   UNL     1      -2.037  11.269   0.157  1.00  0.00     0.031 C 
ATOM     37  C   UNL     1      -3.806   8.835   4.193  1.00  0.00     0.029 A 
ATOM     38  N   UNL     1      -3.099  10.934   4.495  1.00  0.00    -0.354 N 
ATOM     39  C   UNL     1      -1.458  13.217   1.199  1.00  0.00     0.074 A 
ATOM     40  C   UNL     1      -1.429  12.433  -0.015  1.00  0.00     0.031 C 
ATOM     41  C   UNL     1      -3.979   9.133   5.490  1.00  0.00     0.029 A 
ATOM     42  C   UNL     1      -3.517  10.496   5.729  1.00  0.00     0.049 A 
ATOM     43  H   UNL     1      -2.725  11.831   4.339  1.00  0.00     0.167 HD
ATOM     44  C   UNL     1      -1.034  14.499   1.290  1.00  0.00     0.037 A 
ATOM     45  C   UNL     1      -3.523  11.125   6.918  1.00  0.00     0.037 A 
ATOM     46  C   UNL     1      -1.075  15.277   2.499  1.00  0.00     0.049 A 
ATOM     47  C   UNL     1      -3.036  12.547   6.988  1.00  0.00     0.074 A 
ATOM     48  C   UNL     1      -0.706  16.597   2.688  1.00  0.00     0.029 A 
ATOM     49  N   UNL     1      -1.510  14.803   3.728  1.00  0.00    -0.354 N 
ATOM     50  N   UNL     1      -2.578  13.314   6.029  1.00  0.00    -0.248 NA
ATOM     51  C   UNL     1      -3.080  13.194   8.306  1.00  0.00     0.031 C 
ATOM     52  C   UNL     1      -0.873  16.908   4.041  1.00  0.00     0.029 A 
ATOM     53  C   UNL     1      -1.401  15.800   4.684  1.00  0.00     0.049 A 
ATOM     54  H   UNL     1      -1.848  13.894   3.896  1.00  0.00     0.167 HD
ATOM     55  C   UNL     1      -2.302  14.539   6.621  1.00  0.00     0.074 A 
ATOM     56  C   UNL     1      -2.676  14.421   8.015  1.00  0.00     0.031 C 
ATOM     57  C   UNL     1      -1.778  15.661   6.067  1.00  0.00     0.037 A 
BRANCH  44  58
ATOM     58  C   UNL     1      -0.507  15.147   0.042  1.00  0.00     0.057 A 
ATOM     59  C   UNL     1      -1.351  15.477  -1.028  1.00  0.00     0.134 A 
ATOM     60  C   UNL     1       0.844  15.496  -0.072  1.00  0.00     0.134 A 
ATOM     61  F   UNL     1      -2.654  15.157  -0.990  1.00  0.00    -0.206 F 
ATOM     62  C   UNL     1      -0.868  16.116  -2.171  1.00  0.00     0.040 A 
ATOM     63  C   UNL     1       1.334  16.161  -1.198  1.00  0.00     0.040 A 
ATOM     64  F   UNL     1       1.707  15.213   0.915  1.00  0.00    -0.206 F 
ATOM     65  C   UNL     1       0.477  16.469  -2.253  1.00  0.00     0.006 A 
ENDBRANCH  44  58
BRANCH  45  66
ATOM     66  C   UNL     1      -4.012  10.429   8.136  1.00  0.00     0.057 A 
ATOM     67  C   UNL     1      -5.173  10.848   8.797  1.00  0.00     0.134 A 
ATOM     68  C   UNL     1      -3.310   9.352   8.691  1.00  0.00     0.134 A 
ATOM     69  F   UNL     1      -5.883  11.883   8.325  1.00  0.00    -0.206 F 
ATOM     70  C   UNL     1      -5.597  10.248   9.985  1.00  0.00     0.040 A 
ATOM     71  C   UNL     1      -3.740   8.722   9.859  1.00  0.00     0.040 A 
ATOM     72  F   UNL     1      -2.197   8.893   8.101  1.00  0.00    -0.206 F 
ATOM     73  C   UNL     1      -4.880   9.179  10.517  1.00  0.00     0.006 A 
ENDBRANCH  45  66
BRANCH  57  74
ATOM     74  C   UNL     1      -1.611  16.849   6.969  1.00  0.00     0.057 A 
ATOM     75  C   UNL     1      -0.662  16.870   8.000  1.00  0.00     0.134 A 
ATOM     76  C   UNL     1      -2.407  17.990   6.801  1.00  0.00     0.134 A 
ATOM     77  F   UNL     1       0.124  15.805   8.222  1.00  0.00    -0.206 F 
ATOM     78  C   UNL     1      -0.539  17.964   8.856  1.00  0.00     0.040 A 
ATOM     79  C   UNL     1      -2.269  19.104   7.630  1.00  0.00     0.040 A 
ATOM     80  F   UNL     1      -3.327  18.043   5.826  1.00  0.00    -0.206 F 
ATOM     81  C   UNL     1      -1.342  19.088   8.669  1.00  0.00     0.006 A 
ENDBRANCH  57  74
ENDBRANCH  31  32
ENDBRANCH  23  26
ENDBRANCH  21  22
ENDBRANCH   1  21
TORSDOF 12
