REMARK SMILES O=C(C[C@H](C(=O)NCCCCNC(=O)c1ccc(-c2c3nc(c(-c4c(F)cccc4F)c4ccc([nH]4)c(-c4c(F)cccc4F)c4nc(c(-c5c(F)cccc5F)c5ccc2[nH]5)C=C4)C=C3)cc1)c1ccccc1)Nc1ccc(Cl)cc1Cl
REMARK SMILES IDX 9 1 8 2 7 3 5 4 6 5 4 7 3 8 2 9 1 10 75 11 76 13 77 14 82 15
REMARK SMILES IDX 78 16 81 17 83 18 79 19 80 20 69 21 70 22 74 23 71 24 73 25
REMARK SMILES IDX 72 26 10 27 11 28 12 29 13 30 14 32 15 33 16 34 68 35 17 36
REMARK SMILES IDX 67 37 18 38 19 39 20 40 61 41 21 42 66 43 60 44 62 45 22 46
REMARK SMILES IDX 65 47 59 48 58 49 23 51 49 52 32 53 48 54 33 55 36 56 47 57
REMARK SMILES IDX 63 58 34 59 35 60 46 62 64 63 37 64 24 65 25 66 30 67 26 68
REMARK SMILES IDX 27 69 29 70 31 71 28 72 50 73 51 74 56 75 52 76 53 77 55 78
REMARK SMILES IDX 57 79 54 80 38 81 39 82 44 83 40 84 41 85 43 86 45 87 42 88
REMARK H PARENT 7 6 75 12 12 31 62 50 36 61
REMARK Flexibility Score: inf
ROOT
ATOM      1  C   UNL     1       1.857  -3.288   3.316  1.00  0.00     0.023 C 
ENDROOT
BRANCH   1   2
ATOM      2  C   UNL     1       1.524  -2.850   1.889  1.00  0.00     0.116 C 
BRANCH   2   3
ATOM      3  N   UNL     1       1.894  -1.469   1.648  1.00  0.00    -0.356 N 
ATOM      4  C   UNL     1       3.027  -0.966   1.069  1.00  0.00     0.228 C 
ATOM      5  O   UNL     1       3.211   0.248   1.136  1.00  0.00    -0.274 OA
ATOM      6  H   UNL     1       1.237  -0.798   1.943  1.00  0.00     0.163 HD
BRANCH   4   7
ATOM      7  C   UNL     1       4.003  -1.921   0.364  1.00  0.00     0.118 C 
BRANCH   7   8
ATOM      8  C   UNL     1       4.948  -1.181  -0.594  1.00  0.00     0.118 C 
BRANCH   8   9
ATOM      9  C   UNL     1       4.230  -0.385  -1.674  1.00  0.00     0.225 C 
ATOM     10  O   UNL     1       4.340   0.836  -1.736  1.00  0.00    -0.275 OA
ATOM     11  N   UNL     1       3.458  -1.154  -2.532  1.00  0.00    -0.325 N 
ATOM     12  H   UNL     1       3.397  -2.119  -2.352  1.00  0.00     0.169 HD
BRANCH  11  13
ATOM     13  C   UNL     1       2.751  -0.646  -3.649  1.00  0.00     0.060 A 
ATOM     14  C   UNL     1       1.469  -1.182  -3.854  1.00  0.00     0.029 A 
ATOM     15  C   UNL     1       3.234   0.316  -4.558  1.00  0.00     0.066 A 
ATOM     16  C   UNL     1       0.651  -0.705  -4.883  1.00  0.00     0.023 A 
ATOM     17  C   UNL     1       2.410   0.792  -5.585  1.00  0.00     0.043 A 
ATOM     18  Cl  UNL     1       4.894   0.802  -4.630  1.00  0.00    -0.082 Cl
ATOM     19  C   UNL     1       1.120   0.291  -5.733  1.00  0.00     0.042 A 
ATOM     20  Cl  UNL     1       0.111   0.878  -6.996  1.00  0.00    -0.084 Cl
ENDBRANCH  11  13
ENDBRANCH   8   9
ENDBRANCH   7   8
BRANCH   7  21
ATOM     21  C   UNL     1       4.791  -2.749   1.373  1.00  0.00    -0.035 A 
ATOM     22  C   UNL     1       4.796  -4.151   1.284  1.00  0.00     0.004 A 
ATOM     23  C   UNL     1       5.461  -2.138   2.445  1.00  0.00     0.004 A 
ATOM     24  C   UNL     1       5.397  -4.923   2.279  1.00  0.00     0.000 A 
ATOM     25  C   UNL     1       6.066  -2.914   3.436  1.00  0.00     0.000 A 
ATOM     26  C   UNL     1       6.021  -4.304   3.360  1.00  0.00     0.000 A 
ENDBRANCH   7  21
ENDBRANCH   4   7
ENDBRANCH   2   3
ENDBRANCH   1   2
BRANCH   1  27
ATOM     27  C   UNL     1       1.023  -2.609   4.404  1.00  0.00     0.023 C 
BRANCH  27  28
ATOM     28  C   UNL     1      -0.483  -2.783   4.264  1.00  0.00     0.116 C 
BRANCH  28  29
ATOM     29  N   UNL     1      -0.903  -4.176   4.264  1.00  0.00    -0.352 N 
ATOM     30  C   UNL     1      -2.034  -4.723   4.820  1.00  0.00     0.251 C 
ATOM     31  H   UNL     1      -0.300  -4.807   3.808  1.00  0.00     0.163 HD
ATOM     32  O   UNL     1      -2.201  -5.939   4.830  1.00  0.00    -0.269 OA
BRANCH  30  33
ATOM     33  C   UNL     1      -3.030  -3.830   5.445  1.00  0.00     0.039 A 
ATOM     34  C   UNL     1      -3.457  -4.098   6.747  1.00  0.00     0.014 A 
ATOM     35  C   UNL     1      -3.499  -2.705   4.762  1.00  0.00     0.014 A 
ATOM     36  C   UNL     1      -4.302  -3.195   7.395  1.00  0.00     0.010 A 
ATOM     37  C   UNL     1      -4.286  -1.774   5.431  1.00  0.00     0.010 A 
ATOM     38  C   UNL     1      -4.692  -2.008   6.755  1.00  0.00    -0.014 A 
BRANCH  38  39
ATOM     39  C   UNL     1      -5.524  -0.989   7.442  1.00  0.00     0.031 A 
ATOM     40  C   UNL     1      -6.896  -0.670   6.917  1.00  0.00     0.074 A 
ATOM     41  C   UNL     1      -5.012  -0.286   8.472  1.00  0.00     0.049 A 
ATOM     42  N   UNL     1      -7.721   0.277   7.282  1.00  0.00    -0.248 NA
ATOM     43  C   UNL     1      -7.394  -1.509   5.814  1.00  0.00     0.031 C 
ATOM     44  C   UNL     1      -3.678  -0.471   9.047  1.00  0.00     0.029 A 
ATOM     45  N   UNL     1      -5.547   0.744   9.204  1.00  0.00    -0.354 N 
ATOM     46  C   UNL     1      -8.817   0.170   6.434  1.00  0.00     0.074 A 
ATOM     47  C   UNL     1      -8.540  -0.913   5.516  1.00  0.00     0.031 C 
ATOM     48  C   UNL     1      -3.503   0.409  10.047  1.00  0.00     0.029 A 
ATOM     49  C   UNL     1      -4.694   1.246  10.157  1.00  0.00     0.049 A 
ATOM     50  H   UNL     1      -6.457   1.091   9.059  1.00  0.00     0.167 HD
ATOM     51  C   UNL     1      -9.957   0.899   6.433  1.00  0.00     0.037 A 
ATOM     52  C   UNL     1      -4.849   2.276  11.011  1.00  0.00     0.037 A 
ATOM     53  C   UNL     1     -10.253   1.939   7.381  1.00  0.00     0.049 A 
ATOM     54  C   UNL     1      -6.134   3.058  10.995  1.00  0.00     0.074 A 
ATOM     55  C   UNL     1     -11.418   2.675   7.514  1.00  0.00     0.029 A 
ATOM     56  N   UNL     1      -9.380   2.388   8.359  1.00  0.00    -0.354 N 
ATOM     57  N   UNL     1      -7.191   2.897  10.236  1.00  0.00    -0.248 NA
ATOM     58  C   UNL     1      -6.249   4.167  11.955  1.00  0.00     0.031 C 
ATOM     59  C   UNL     1     -11.237   3.594   8.551  1.00  0.00     0.029 A 
ATOM     60  C   UNL     1      -9.974   3.403   9.088  1.00  0.00     0.049 A 
ATOM     61  H   UNL     1      -8.473   2.037   8.512  1.00  0.00     0.167 HD
ATOM     62  C   UNL     1      -8.107   3.854  10.653  1.00  0.00     0.074 A 
ATOM     63  C   UNL     1      -7.485   4.590  11.733  1.00  0.00     0.031 C 
ATOM     64  C   UNL     1      -9.352   4.103  10.182  1.00  0.00     0.037 A 
BRANCH  51  65
ATOM     65  C   UNL     1     -10.980   0.596   5.381  1.00  0.00     0.057 A 
ATOM     66  C   UNL     1     -11.768  -0.561   5.429  1.00  0.00     0.134 A 
ATOM     67  C   UNL     1     -11.227   1.507   4.346  1.00  0.00     0.134 A 
ATOM     68  F   UNL     1     -11.572  -1.477   6.388  1.00  0.00    -0.206 F 
ATOM     69  C   UNL     1     -12.758  -0.807   4.476  1.00  0.00     0.040 A 
ATOM     70  C   UNL     1     -12.229   1.282   3.401  1.00  0.00     0.040 A 
ATOM     71  F   UNL     1     -10.510   2.636   4.247  1.00  0.00    -0.206 F 
ATOM     72  C   UNL     1     -12.997   0.121   3.464  1.00  0.00     0.006 A 
ENDBRANCH  51  65
BRANCH  52  73
ATOM     73  C   UNL     1      -3.769   2.633  11.965  1.00  0.00     0.057 A 
ATOM     74  C   UNL     1      -3.928   2.429  13.341  1.00  0.00     0.134 A 
ATOM     75  C   UNL     1      -2.575   3.223  11.535  1.00  0.00     0.134 A 
ATOM     76  F   UNL     1      -5.059   1.887  13.817  1.00  0.00    -0.206 F 
ATOM     77  C   UNL     1      -2.953   2.827  14.258  1.00  0.00     0.040 A 
ATOM     78  C   UNL     1      -1.581   3.603  12.438  1.00  0.00     0.040 A 
ATOM     79  F   UNL     1      -2.359   3.439  10.229  1.00  0.00    -0.206 F 
ATOM     80  C   UNL     1      -1.774   3.415  13.805  1.00  0.00     0.006 A 
ENDBRANCH  52  73
BRANCH  64  81
ATOM     81  C   UNL     1     -10.149   5.171  10.866  1.00  0.00     0.057 A 
ATOM     82  C   UNL     1      -9.877   6.532  10.680  1.00  0.00     0.134 A 
ATOM     83  C   UNL     1     -11.240   4.832  11.678  1.00  0.00     0.134 A 
ATOM     84  F   UNL     1      -8.838   6.920   9.925  1.00  0.00    -0.206 F 
ATOM     85  C   UNL     1     -10.652   7.519  11.291  1.00  0.00     0.040 A 
ATOM     86  C   UNL     1     -12.037   5.810  12.274  1.00  0.00     0.040 A 
ATOM     87  F   UNL     1     -11.559   3.546  11.888  1.00  0.00    -0.206 F 
ATOM     88  C   UNL     1     -11.741   7.158  12.084  1.00  0.00     0.006 A 
ENDBRANCH  64  81
ENDBRANCH  38  39
ENDBRANCH  30  33
ENDBRANCH  28  29
ENDBRANCH  27  28
ENDBRANCH   1  27
TORSDOF 15
