REMARK SMILES CCn1ncc(Br)c1C(=O)N[C@H]1C(=O)N2C(C(=O)NCCCCNC(=O)c3ccc(-c4c5nc(c(-c6c(F)cccc6F)c6ccc([nH]6)c(-c6c(F)cccc6F)c6nc(c(-c7c(F)cccc7F)c7ccc4[nH]7)C=C6)C=C5)cc3)=C(COC(C)=O)CS[C@H]12
REMARK SMILES IDX 21 1 20 2 19 3 17 4 18 5 16 7 12 8 13 9 89 10 14 11 15 12
REMARK SMILES IDX 88 13 87 14 81 15 11 16 9 17 10 18 8 20 3 21 4 22 5 23 6 24
REMARK SMILES IDX 7 25 2 26 1 27 82 28 83 29 84 30 85 31 86 32 22 33 23 34
REMARK SMILES IDX 24 35 25 36 26 38 27 39 28 40 80 41 29 42 79 43 30 44 31 45
REMARK SMILES IDX 32 46 73 47 33 48 78 49 72 50 74 51 34 52 77 53 71 54 70 55
REMARK SMILES IDX 35 57 61 58 44 59 60 60 45 61 48 62 59 63 75 64 46 65 47 66
REMARK SMILES IDX 58 68 76 69 49 70 36 71 37 72 42 73 38 74 39 75 41 76 43 77
REMARK SMILES IDX 40 78 62 79 63 80 68 81 64 82 65 83 67 84 69 85 66 86 50 87
REMARK SMILES IDX 51 88 56 89 52 90 53 91 55 92 57 93 54 94
REMARK H PARENT 19 6 11 19 24 37 74 56 48 67
REMARK Flexibility Score: inf
ROOT
ATOM      1  C   UNL     1      -0.904   4.467  -0.653  1.00  0.00     0.023 C 
ENDROOT
BRANCH   1   2
ATOM      2  C   UNL     1       0.200   4.297   0.395  1.00  0.00     0.116 C 
BRANCH   2   3
ATOM      3  N   UNL     1       0.767   2.967   0.622  1.00  0.00    -0.351 N 
ATOM      4  C   UNL     1       0.317   1.766   0.109  1.00  0.00     0.268 C 
ATOM      5  O   UNL     1      -0.842   1.473  -0.130  1.00  0.00    -0.268 OA
ATOM      6  H   UNL     1       1.558   2.923   1.207  1.00  0.00     0.163 HD
BRANCH   4   7
ATOM      7  C   UNL     1       1.458   0.834  -0.237  1.00  0.00     0.114 C 
ATOM      8  C   UNL     1       1.865  -2.393   0.693  1.00  0.00     0.206 C 
ATOM      9  C   UNL     1       0.793  -1.474   0.103  1.00  0.00     0.253 C 
ATOM     10  C   UNL     1       2.756  -1.109   0.630  1.00  0.00     0.181 C 
ATOM     11  O   UNL     1      -0.208  -1.667  -0.571  1.00  0.00    -0.272 OA
ATOM     12  N   UNL     1       1.522  -0.365   0.412  1.00  0.00    -0.290 N 
ATOM     13  S   UNL     1       3.824  -1.194  -0.846  1.00  0.00    -0.129 SA
ATOM     14  C   UNL     1       3.587   0.438  -1.539  1.00  0.00     0.108 C 
ATOM     15  C   UNL     1       2.322   1.179  -1.215  1.00  0.00     0.007 C 
BRANCH   8  16
ATOM     16  N   UNL     1       1.609  -3.096   1.972  1.00  0.00    -0.336 N 
ATOM     17  C   UNL     1       1.111  -2.694   3.183  1.00  0.00     0.271 C 
ATOM     18  O   UNL     1       0.942  -3.558   4.041  1.00  0.00    -0.267 OA
ATOM     19  H   UNL     1       1.845  -4.052   1.946  1.00  0.00     0.164 HD
BRANCH  17  20
ATOM     20  C   UNL     1       0.840  -1.315   3.426  1.00  0.00     0.140 A 
ATOM     21  N   UNL     1      -0.350  -0.662   3.176  1.00  0.00    -0.259 N 
ATOM     22  N   UNL     1      -0.336   0.632   3.581  1.00  0.00    -0.180 NA
ATOM     23  C   UNL     1       0.814   0.751   4.246  1.00  0.00     0.151 A 
ATOM     24  C   UNL     1       1.561  -0.428   4.194  1.00  0.00     0.069 A 
ATOM     25  Br  UNL     1       3.176  -0.706   5.096  1.00  0.00    -0.047 Br
BRANCH  21  26
ATOM     26  C   UNL     1      -1.614  -1.278   2.802  1.00  0.00     0.142 C 
ATOM     27  C   UNL     1      -2.356  -0.618   1.656  1.00  0.00     0.029 C 
ENDBRANCH  21  26
ENDBRANCH  17  20
ENDBRANCH   8  16
BRANCH  15  28
ATOM     28  C   UNL     1       2.095   2.329  -2.193  1.00  0.00     0.267 C 
BRANCH  28  29
ATOM     29  O   UNL     1       0.716   2.676  -2.407  1.00  0.00    -0.461 OA
BRANCH  29  30
ATOM     30  C   UNL     1      -0.188   2.023  -3.171  1.00  0.00     0.302 C 
ATOM     31  C   UNL     1       0.236   0.792  -3.906  1.00  0.00     0.139 C 
ATOM     32  O   UNL     1      -1.323   2.474  -3.313  1.00  0.00    -0.253 OA
ENDBRANCH  29  30
ENDBRANCH  28  29
ENDBRANCH  15  28
ENDBRANCH   4   7
ENDBRANCH   2   3
ENDBRANCH   1   2
BRANCH   1  33
ATOM     33  C   UNL     1      -1.964   5.534  -0.368  1.00  0.00     0.023 C 
BRANCH  33  34
ATOM     34  C   UNL     1      -1.501   6.981  -0.277  1.00  0.00     0.116 C 
BRANCH  34  35
ATOM     35  N   UNL     1      -0.758   7.465  -1.440  1.00  0.00    -0.352 N 
ATOM     36  C   UNL     1       0.163   8.498  -1.472  1.00  0.00     0.251 C 
ATOM     37  H   UNL     1      -0.933   7.006  -2.293  1.00  0.00     0.163 HD
ATOM     38  O   UNL     1       0.478   9.061  -2.512  1.00  0.00    -0.269 OA
BRANCH  36  39
ATOM     39  C   UNL     1       0.776   8.899  -0.194  1.00  0.00     0.039 A 
ATOM     40  C   UNL     1       0.681  10.204   0.285  1.00  0.00     0.014 A 
ATOM     41  C   UNL     1       1.310   7.884   0.592  1.00  0.00     0.014 A 
ATOM     42  C   UNL     1       1.013  10.454   1.619  1.00  0.00     0.010 A 
ATOM     43  C   UNL     1       1.510   8.108   1.937  1.00  0.00     0.010 A 
ATOM     44  C   UNL     1       1.383   9.394   2.465  1.00  0.00    -0.014 A 
BRANCH  44  45
ATOM     45  C   UNL     1       1.519   9.611   3.913  1.00  0.00     0.031 A 
ATOM     46  C   UNL     1       0.407  10.335   4.609  1.00  0.00     0.074 A 
ATOM     47  C   UNL     1       2.448   9.004   4.684  1.00  0.00     0.049 A 
ATOM     48  N   UNL     1       0.480  11.422   5.311  1.00  0.00    -0.248 NA
ATOM     49  C   UNL     1      -0.955   9.790   4.502  1.00  0.00     0.031 C 
ATOM     50  C   UNL     1       3.446   8.000   4.293  1.00  0.00     0.029 A 
ATOM     51  N   UNL     1       2.612   9.083   6.037  1.00  0.00    -0.354 N 
ATOM     52  C   UNL     1      -0.785  11.622   5.867  1.00  0.00     0.074 A 
ATOM     53  C   UNL     1      -1.651  10.643   5.258  1.00  0.00     0.031 C 
ATOM     54  C   UNL     1       3.932   7.395   5.396  1.00  0.00     0.029 A 
ATOM     55  C   UNL     1       3.434   8.101   6.561  1.00  0.00     0.049 A 
ATOM     56  H   UNL     1       2.185   9.776   6.590  1.00  0.00     0.167 HD
ATOM     57  C   UNL     1      -0.991  12.468   6.916  1.00  0.00     0.037 A 
ATOM     58  C   UNL     1       3.710   7.863   7.862  1.00  0.00     0.037 A 
ATOM     59  C   UNL     1       0.118  13.364   7.105  1.00  0.00     0.049 A 
ATOM     60  C   UNL     1       3.434   9.100   8.621  1.00  0.00     0.074 A 
ATOM     61  C   UNL     1       0.739  14.340   6.352  1.00  0.00     0.029 A 
ATOM     62  N   UNL     1       0.964  13.115   8.155  1.00  0.00    -0.354 N 
ATOM     63  N   UNL     1       4.125  10.200   8.505  1.00  0.00    -0.248 NA
ATOM     64  C   UNL     1       2.149   9.240   9.287  1.00  0.00     0.031 C 
ATOM     65  C   UNL     1       2.115  14.274   6.721  1.00  0.00     0.029 A 
ATOM     66  C   UNL     1       2.241  13.277   7.690  1.00  0.00     0.049 A 
ATOM     67  H   UNL     1       0.702  12.866   9.071  1.00  0.00     0.167 HD
ATOM     68  C   UNL     1       3.202  11.216   8.688  1.00  0.00     0.074 A 
ATOM     69  C   UNL     1       2.054  10.571   9.314  1.00  0.00     0.031 C 
ATOM     70  C   UNL     1       3.345  12.420   8.060  1.00  0.00     0.037 A 
BRANCH  57  71
ATOM     71  C   UNL     1      -2.046  12.297   7.987  1.00  0.00     0.057 A 
ATOM     72  C   UNL     1      -2.275  13.337   8.912  1.00  0.00     0.134 A 
ATOM     73  C   UNL     1      -2.620  11.059   8.330  1.00  0.00     0.134 A 
ATOM     74  F   UNL     1      -1.765  14.562   8.713  1.00  0.00    -0.206 F 
ATOM     75  C   UNL     1      -2.961  13.138  10.118  1.00  0.00     0.040 A 
ATOM     76  C   UNL     1      -3.352  10.863   9.508  1.00  0.00     0.040 A 
ATOM     77  F   UNL     1      -2.420   9.956   7.598  1.00  0.00    -0.206 F 
ATOM     78  C   UNL     1      -3.497  11.895  10.422  1.00  0.00     0.006 A 
ENDBRANCH  57  71
BRANCH  58  79
ATOM     79  C   UNL     1       4.043   6.574   8.495  1.00  0.00     0.057 A 
ATOM     80  C   UNL     1       4.756   6.506   9.696  1.00  0.00     0.134 A 
ATOM     81  C   UNL     1       3.461   5.375   8.044  1.00  0.00     0.134 A 
ATOM     82  F   UNL     1       5.314   7.606  10.220  1.00  0.00    -0.206 F 
ATOM     83  C   UNL     1       4.877   5.312  10.417  1.00  0.00     0.040 A 
ATOM     84  C   UNL     1       3.577   4.176   8.751  1.00  0.00     0.040 A 
ATOM     85  F   UNL     1       2.699   5.349   6.940  1.00  0.00    -0.206 F 
ATOM     86  C   UNL     1       4.279   4.144   9.950  1.00  0.00     0.006 A 
ENDBRANCH  58  79
BRANCH  70  87
ATOM     87  C   UNL     1       4.682  12.744   7.456  1.00  0.00     0.057 A 
ATOM     88  C   UNL     1       5.253  12.038   6.387  1.00  0.00     0.134 A 
ATOM     89  C   UNL     1       5.349  13.900   7.877  1.00  0.00     0.134 A 
ATOM     90  F   UNL     1       4.636  10.980   5.847  1.00  0.00    -0.206 F 
ATOM     91  C   UNL     1       6.456  12.436   5.798  1.00  0.00     0.040 A 
ATOM     92  C   UNL     1       6.535  14.328   7.275  1.00  0.00     0.040 A 
ATOM     93  F   UNL     1       4.832  14.662   8.854  1.00  0.00    -0.206 F 
ATOM     94  C   UNL     1       7.099  13.588   6.239  1.00  0.00     0.006 A 
ENDBRANCH  70  87
ENDBRANCH  44  45
ENDBRANCH  36  39
ENDBRANCH  34  35
ENDBRANCH  33  34
ENDBRANCH   1  33
TORSDOF 17
