REMARK SMILES COc1cc2c(CC(=O)NCCCCNC(=O)c3ccc(-c4c5nc(c(-c6c(F)cccc6F)c6ccc([nH]6)c(-c6c(F)cccc6F)c6nc(c(-c7c(F)cccc7F)c7ccc4[nH]7)C=C6)C=C5)cc3)c(C)n(C(=O)c3ccc(Cl)cc3)c2cc1Cl
REMARK SMILES IDX 12 1 11 2 10 3 8 4 9 5 7 7 6 8 3 9 4 10 86 11 5 12 85 13
REMARK SMILES IDX 87 14 84 15 72 16 74 17 73 18 2 19 1 20 75 21 76 22 77 23
REMARK SMILES IDX 78 24 83 25 79 26 82 27 80 28 81 29 13 30 14 31 15 32 16 33
REMARK SMILES IDX 17 35 18 36 19 37 71 38 20 39 70 40 21 41 22 42 23 43 64 44
REMARK SMILES IDX 24 45 69 46 63 47 65 48 25 49 68 50 62 51 61 52 26 54 52 55
REMARK SMILES IDX 35 56 51 57 36 58 39 59 50 60 66 61 37 62 38 63 49 65 67 66
REMARK SMILES IDX 40 67 27 68 28 69 33 70 29 71 30 72 32 73 34 74 31 75 53 76
REMARK SMILES IDX 54 77 59 78 55 79 56 80 58 81 60 82 57 83 41 84 42 85 47 86
REMARK SMILES IDX 43 87 44 88 46 89 48 90 45 91
REMARK H PARENT 10 6 15 34 65 53 39 64
REMARK Flexibility Score: inf
ROOT
ATOM      1  C   UNL     1       0.295  -7.343  -3.154  1.00  0.00     0.023 C 
ENDROOT
BRANCH   1   2
ATOM      2  C   UNL     1      -1.061  -7.011  -3.773  1.00  0.00     0.116 C 
BRANCH   2   3
ATOM      3  N   UNL     1      -1.905  -6.269  -2.861  1.00  0.00    -0.356 N 
ATOM      4  C   UNL     1      -2.338  -4.977  -2.970  1.00  0.00     0.224 C 
ATOM      5  O   UNL     1      -3.056  -4.524  -2.076  1.00  0.00    -0.275 OA
ATOM      6  H   UNL     1      -2.206  -6.756  -2.060  1.00  0.00     0.163 HD
BRANCH   4   7
ATOM      7  C   UNL     1      -1.981  -4.152  -4.198  1.00  0.00     0.138 C 
BRANCH   7   8
ATOM      8  C   UNL     1      -0.514  -3.837  -4.303  1.00  0.00    -0.009 A 
ATOM      9  C   UNL     1       0.973  -1.967  -1.311  1.00  0.00     0.138 A 
ATOM     10  C   UNL     1      -0.022  -2.614  -2.055  1.00  0.00     0.058 A 
ATOM     11  C   UNL     1       2.262  -1.873  -1.820  1.00  0.00     0.085 A 
ATOM     12  C   UNL     1       0.273  -3.167  -3.324  1.00  0.00     0.008 A 
ATOM     13  C   UNL     1       2.557  -2.368  -3.094  1.00  0.00     0.051 A 
ATOM     14  Cl  UNL     1       3.587  -1.233  -0.913  1.00  0.00    -0.080 Cl
ATOM     15  C   UNL     1       1.575  -3.069  -3.825  1.00  0.00     0.058 A 
ATOM     16  C   UNL     1       0.315  -4.095  -5.391  1.00  0.00     0.028 A 
ATOM     17  N   UNL     1       1.634  -3.798  -5.024  1.00  0.00    -0.280 N 
ATOM     18  C   UNL     1      -0.080  -4.652  -6.725  1.00  0.00     0.065 C 
BRANCH   9  19
ATOM     19  O   UNL     1       0.605  -1.519  -0.069  1.00  0.00    -0.495 OA
ATOM     20  C   UNL     1       0.669  -0.096   0.032  1.00  0.00     0.278 C 
ENDBRANCH   9  19
BRANCH  17  21
ATOM     21  C   UNL     1       2.812  -4.197  -5.734  1.00  0.00     0.262 C 
ATOM     22  O   UNL     1       2.707  -4.879  -6.732  1.00  0.00    -0.268 OA
BRANCH  21  23
ATOM     23  C   UNL     1       4.187  -3.841  -5.328  1.00  0.00     0.040 A 
ATOM     24  C   UNL     1       4.767  -4.408  -4.187  1.00  0.00     0.015 A 
ATOM     25  C   UNL     1       4.868  -2.876  -6.077  1.00  0.00     0.015 A 
ATOM     26  C   UNL     1       6.003  -3.931  -3.743  1.00  0.00     0.021 A 
ATOM     27  C   UNL     1       6.108  -2.414  -5.634  1.00  0.00     0.021 A 
ATOM     28  C   UNL     1       6.660  -2.928  -4.459  1.00  0.00     0.041 A 
ATOM     29  Cl  UNL     1       8.149  -2.297  -3.873  1.00  0.00    -0.084 Cl
ENDBRANCH  21  23
ENDBRANCH  17  21
ENDBRANCH   7   8
ENDBRANCH   4   7
ENDBRANCH   2   3
ENDBRANCH   1   2
BRANCH   1  30
ATOM     30  C   UNL     1       0.241  -8.408  -2.049  1.00  0.00     0.023 C 
BRANCH  30  31
ATOM     31  C   UNL     1      -0.519  -9.679  -2.439  1.00  0.00     0.116 C 
BRANCH  31  32
ATOM     32  N   UNL     1      -0.001 -10.301  -3.641  1.00  0.00    -0.352 N 
ATOM     33  C   UNL     1       0.944 -11.251  -3.904  1.00  0.00     0.251 C 
ATOM     34  H   UNL     1      -0.429  -9.958  -4.458  1.00  0.00     0.163 HD
ATOM     35  O   UNL     1       1.052 -11.595  -5.084  1.00  0.00    -0.269 OA
BRANCH  33  36
ATOM     36  C   UNL     1       1.862 -11.850  -2.899  1.00  0.00     0.039 A 
ATOM     37  C   UNL     1       1.873 -11.557  -1.536  1.00  0.00     0.014 A 
ATOM     38  C   UNL     1       2.830 -12.741  -3.403  1.00  0.00     0.014 A 
ATOM     39  C   UNL     1       2.865 -12.069  -0.713  1.00  0.00     0.010 A 
ATOM     40  C   UNL     1       3.821 -13.264  -2.583  1.00  0.00     0.010 A 
ATOM     41  C   UNL     1       3.861 -12.885  -1.246  1.00  0.00    -0.014 A 
BRANCH  41  42
ATOM     42  C   UNL     1       4.904 -13.334  -0.335  1.00  0.00     0.031 A 
ATOM     43  C   UNL     1       4.451 -14.195   0.796  1.00  0.00     0.074 A 
ATOM     44  C   UNL     1       6.207 -13.061  -0.536  1.00  0.00     0.049 A 
ATOM     45  N   UNL     1       4.557 -13.980   2.068  1.00  0.00    -0.248 NA
ATOM     46  C   UNL     1       3.704 -15.415   0.456  1.00  0.00     0.031 C 
ATOM     47  C   UNL     1       6.845 -12.488  -1.723  1.00  0.00     0.029 A 
ATOM     48  N   UNL     1       7.263 -13.348   0.271  1.00  0.00    -0.354 N 
ATOM     49  C   UNL     1       4.042 -15.115   2.697  1.00  0.00     0.074 A 
ATOM     50  C   UNL     1       3.422 -15.903   1.664  1.00  0.00     0.031 C 
ATOM     51  C   UNL     1       8.179 -12.696  -1.651  1.00  0.00     0.029 A 
ATOM     52  C   UNL     1       8.493 -13.294  -0.363  1.00  0.00     0.049 A 
ATOM     53  H   UNL     1       7.162 -13.576   1.224  1.00  0.00     0.167 HD
ATOM     54  C   UNL     1       4.336 -15.418   3.993  1.00  0.00     0.037 A 
ATOM     55  C   UNL     1       9.661 -13.790   0.110  1.00  0.00     0.037 A 
ATOM     56  C   UNL     1       4.785 -14.259   4.719  1.00  0.00     0.049 A 
ATOM     57  C   UNL     1       9.514 -13.981   1.575  1.00  0.00     0.074 A 
ATOM     58  C   UNL     1       4.244 -13.023   5.021  1.00  0.00     0.029 A 
ATOM     59  N   UNL     1       6.122 -14.147   5.015  1.00  0.00    -0.354 N 
ATOM     60  N   UNL     1       9.441 -13.006   2.437  1.00  0.00    -0.248 NA
ATOM     61  C   UNL     1       9.003 -15.264   2.040  1.00  0.00     0.031 C 
ATOM     62  C   UNL     1       5.345 -12.117   4.969  1.00  0.00     0.029 A 
ATOM     63  C   UNL     1       6.483 -12.869   4.680  1.00  0.00     0.049 A 
ATOM     64  H   UNL     1       6.704 -14.845   5.393  1.00  0.00     0.167 HD
ATOM     65  C   UNL     1       8.509 -13.428   3.373  1.00  0.00     0.074 A 
ATOM     66  C   UNL     1       8.339 -14.859   3.126  1.00  0.00     0.031 C 
ATOM     67  C   UNL     1       7.748 -12.537   4.075  1.00  0.00     0.037 A 
BRANCH  54  68
ATOM     68  C   UNL     1       4.582 -16.823   4.503  1.00  0.00     0.057 A 
ATOM     69  C   UNL     1       4.896 -17.922   3.679  1.00  0.00     0.134 A 
ATOM     70  C   UNL     1       4.848 -17.015   5.874  1.00  0.00     0.134 A 
ATOM     71  F   UNL     1       4.733 -17.898   2.352  1.00  0.00    -0.206 F 
ATOM     72  C   UNL     1       5.497 -19.087   4.165  1.00  0.00     0.040 A 
ATOM     73  C   UNL     1       5.495 -18.157   6.363  1.00  0.00     0.040 A 
ATOM     74  F   UNL     1       4.578 -16.055   6.771  1.00  0.00    -0.206 F 
ATOM     75  C   UNL     1       5.840 -19.190   5.503  1.00  0.00     0.006 A 
ENDBRANCH  54  68
BRANCH  55  76
ATOM     76  C   UNL     1      10.775 -14.386  -0.661  1.00  0.00     0.057 A 
ATOM     77  C   UNL     1      10.558 -15.029  -1.893  1.00  0.00     0.134 A 
ATOM     78  C   UNL     1      12.041 -14.564  -0.089  1.00  0.00     0.134 A 
ATOM     79  F   UNL     1       9.358 -15.003  -2.490  1.00  0.00    -0.206 F 
ATOM     80  C   UNL     1      11.540 -15.803  -2.519  1.00  0.00     0.040 A 
ATOM     81  C   UNL     1      13.030 -15.346  -0.700  1.00  0.00     0.040 A 
ATOM     82  F   UNL     1      12.329 -14.031   1.107  1.00  0.00    -0.206 F 
ATOM     83  C   UNL     1      12.778 -15.974  -1.916  1.00  0.00     0.006 A 
ENDBRANCH  55  76
BRANCH  67  84
ATOM     84  C   UNL     1       8.095 -11.081   3.979  1.00  0.00     0.057 A 
ATOM     85  C   UNL     1       8.335 -10.360   5.153  1.00  0.00     0.134 A 
ATOM     86  C   UNL     1       8.048 -10.350   2.783  1.00  0.00     0.134 A 
ATOM     87  F   UNL     1       8.328 -10.982   6.343  1.00  0.00    -0.206 F 
ATOM     88  C   UNL     1       8.541  -8.979   5.139  1.00  0.00     0.040 A 
ATOM     89  C   UNL     1       8.287  -8.973   2.750  1.00  0.00     0.040 A 
ATOM     90  F   UNL     1       7.712 -10.934   1.625  1.00  0.00    -0.206 F 
ATOM     91  C   UNL     1       8.531  -8.283   3.933  1.00  0.00     0.006 A 
ENDBRANCH  67  84
ENDBRANCH  41  42
ENDBRANCH  33  36
ENDBRANCH  31  32
ENDBRANCH  30  31
ENDBRANCH   1  30
TORSDOF 15
