REMARK SMILES C[C@H](C1CCCC1)[N@@H+](CC(=O)NCCCCNC(=O)c1ccc(-c2c3nc(c(-c4c(F)cccc4F)c4ccc([nH]4)c(-c4c(F)cccc4F)c4nc(c(-c5c(F)cccc5F)c5ccc2[nH]5)C=C4)C=C3)cc1)CC(F)(F)F
REMARK SMILES IDX 14 1 13 2 12 3 10 4 11 5 9 7 8 8 2 10 1 11 3 12 4 13 7 14
REMARK SMILES IDX 5 15 6 16 74 17 75 18 76 19 77 20 78 21 15 22 16 23 17 24
REMARK SMILES IDX 18 25 19 27 20 28 21 29 73 30 22 31 72 32 23 33 24 34 25 35
REMARK SMILES IDX 66 36 26 37 71 38 65 39 67 40 27 41 70 42 64 43 63 44 28 46
REMARK SMILES IDX 54 47 37 48 53 49 38 50 41 51 52 52 68 53 39 54 40 55 51 57
REMARK SMILES IDX 69 58 42 59 29 60 30 61 35 62 31 63 32 64 34 65 36 66 33 67
REMARK SMILES IDX 55 68 56 69 61 70 57 71 58 72 60 73 62 74 59 75 43 76 44 77
REMARK SMILES IDX 49 78 45 79 46 80 48 81 50 82 47 83
REMARK H PARENT 12 6 8 9 17 26 67 45 41 56
REMARK Flexibility Score: inf
ROOT
ATOM      1  C   UNL     1       2.570   2.952  -1.468  1.00  0.00     0.023 C 
ENDROOT
BRANCH   1   2
ATOM      2  C   UNL     1       1.325   3.839  -1.539  1.00  0.00     0.116 C 
BRANCH   2   3
ATOM      3  N   UNL     1       0.324   3.444  -2.514  1.00  0.00    -0.351 N 
ATOM      4  C   UNL     1      -0.926   2.904  -2.386  1.00  0.00     0.275 C 
ATOM      5  O   UNL     1      -1.635   2.918  -3.396  1.00  0.00    -0.269 OA
ATOM      6  H   UNL     1       0.597   3.594  -3.448  1.00  0.00     0.163 HD
BRANCH   4   7
ATOM      7  C   UNL     1      -1.446   2.316  -1.063  1.00  0.00     0.364 C 
BRANCH   7   8
ATOM      8  N   UNL     1      -1.195   0.862  -0.836  1.00  0.00    -0.317 N 
ATOM      9  H   UNL     1      -1.364   0.704   0.157  1.00  0.00     0.349 HD
BRANCH   8  10
ATOM     10  C   UNL     1       0.211   0.487  -0.934  1.00  0.00     0.184 C 
ATOM     11  C   UNL     1       0.679   0.134  -2.355  1.00  0.00     0.075 C 
BRANCH  10  12
ATOM     12  C   UNL     1       0.812  -0.552   0.049  1.00  0.00     0.047 C 
ATOM     13  C   UNL     1       2.249  -0.151   0.456  1.00  0.00     0.010 C 
ATOM     14  C   UNL     1       0.180  -0.714   1.426  1.00  0.00     0.010 C 
ATOM     15  C   UNL     1       2.600  -1.053   1.624  1.00  0.00     0.001 C 
ATOM     16  C   UNL     1       1.256  -1.466   2.220  1.00  0.00     0.001 C 
ENDBRANCH  10  12
ENDBRANCH   8  10
BRANCH   8  17
ATOM     17  C   UNL     1      -2.232  -0.067  -1.328  1.00  0.00     0.379 C 
BRANCH  17  18
ATOM     18  C   UNL     1      -2.413  -0.532  -2.792  1.00  0.00     0.438 C 
ATOM     19  F   UNL     1      -1.466  -1.420  -3.164  1.00  0.00    -0.165 F 
ATOM     20  F   UNL     1      -3.604  -1.173  -2.919  1.00  0.00    -0.165 F 
ATOM     21  F   UNL     1      -2.413   0.476  -3.678  1.00  0.00    -0.165 F 
ENDBRANCH  17  18
ENDBRANCH   8  17
ENDBRANCH   7   8
ENDBRANCH   4   7
ENDBRANCH   2   3
ENDBRANCH   1   2
BRANCH   1  22
ATOM     22  C   UNL     1       3.209   2.543  -2.789  1.00  0.00     0.023 C 
BRANCH  22  23
ATOM     23  C   UNL     1       4.352   3.446  -3.172  1.00  0.00     0.116 C 
BRANCH  23  24
ATOM     24  N   UNL     1       5.433   3.387  -2.189  1.00  0.00    -0.352 N 
ATOM     25  C   UNL     1       6.778   3.225  -2.388  1.00  0.00     0.251 C 
ATOM     26  H   UNL     1       5.154   3.476  -1.249  1.00  0.00     0.163 HD
ATOM     27  O   UNL     1       7.525   2.992  -1.441  1.00  0.00    -0.269 OA
BRANCH  25  28
ATOM     28  C   UNL     1       7.306   3.315  -3.757  1.00  0.00     0.039 A 
ATOM     29  C   UNL     1       8.303   2.430  -4.169  1.00  0.00     0.014 A 
ATOM     30  C   UNL     1       6.769   4.251  -4.643  1.00  0.00     0.014 A 
ATOM     31  C   UNL     1       8.727   2.461  -5.494  1.00  0.00     0.010 A 
ATOM     32  C   UNL     1       7.080   4.176  -5.985  1.00  0.00     0.010 A 
ATOM     33  C   UNL     1       8.095   3.313  -6.413  1.00  0.00    -0.014 A 
BRANCH  33  34
ATOM     34  C   UNL     1       8.517   3.385  -7.826  1.00  0.00     0.031 A 
ATOM     35  C   UNL     1       9.018   4.693  -8.371  1.00  0.00     0.074 A 
ATOM     36  C   UNL     1       8.370   2.306  -8.616  1.00  0.00     0.049 A 
ATOM     37  N   UNL     1       9.347   5.006  -9.596  1.00  0.00    -0.248 NA
ATOM     38  C   UNL     1       9.115   5.818  -7.421  1.00  0.00     0.031 C 
ATOM     39  C   UNL     1       7.826   1.013  -8.195  1.00  0.00     0.029 A 
ATOM     40  N   UNL     1       8.658   2.131  -9.942  1.00  0.00    -0.354 N 
ATOM     41  C   UNL     1       9.661   6.359  -9.563  1.00  0.00     0.074 A 
ATOM     42  C   UNL     1       9.405   6.829  -8.223  1.00  0.00     0.031 C 
ATOM     43  C   UNL     1       7.856   0.165  -9.236  1.00  0.00     0.029 A 
ATOM     44  C   UNL     1       8.377   0.868 -10.402  1.00  0.00     0.049 A 
ATOM     45  H   UNL     1       9.032   2.842 -10.512  1.00  0.00     0.167 HD
ATOM     46  C   UNL     1      10.157   7.131 -10.557  1.00  0.00     0.037 A 
ATOM     47  C   UNL     1       8.523   0.347 -11.633  1.00  0.00     0.037 A 
ATOM     48  C   UNL     1      10.444   6.632 -11.873  1.00  0.00     0.049 A 
ATOM     49  C   UNL     1       9.090   1.220 -12.717  1.00  0.00     0.074 A 
ATOM     50  C   UNL     1      11.014   7.296 -12.942  1.00  0.00     0.029 A 
ATOM     51  N   UNL     1      10.179   5.337 -12.295  1.00  0.00    -0.354 N 
ATOM     52  N   UNL     1       9.462   2.477 -12.657  1.00  0.00    -0.248 NA
ATOM     53  C   UNL     1       9.266   0.603 -14.037  1.00  0.00     0.031 C 
ATOM     54  C   UNL     1      11.046   6.417 -14.029  1.00  0.00     0.029 A 
ATOM     55  C   UNL     1      10.551   5.188 -13.619  1.00  0.00     0.049 A 
ATOM     56  H   UNL     1       9.784   4.629 -11.736  1.00  0.00     0.167 HD
ATOM     57  C   UNL     1       9.941   2.794 -13.921  1.00  0.00     0.074 A 
ATOM     58  C   UNL     1       9.828   1.590 -14.720  1.00  0.00     0.031 C 
ATOM     59  C   UNL     1      10.431   3.971 -14.383  1.00  0.00     0.037 A 
BRANCH  46  60
ATOM     60  C   UNL     1      10.422   8.576 -10.247  1.00  0.00     0.057 A 
ATOM     61  C   UNL     1      11.424   8.974  -9.349  1.00  0.00     0.134 A 
ATOM     62  C   UNL     1       9.672   9.587 -10.861  1.00  0.00     0.134 A 
ATOM     63  F   UNL     1      12.168   8.058  -8.711  1.00  0.00    -0.206 F 
ATOM     64  C   UNL     1      11.647  10.319  -9.048  1.00  0.00     0.040 A 
ATOM     65  C   UNL     1       9.908  10.937 -10.594  1.00  0.00     0.040 A 
ATOM     66  F   UNL     1       8.698   9.281 -11.730  1.00  0.00    -0.206 F 
ATOM     67  C   UNL     1      10.892  11.306  -9.678  1.00  0.00     0.006 A 
ENDBRANCH  46  60
BRANCH  47  68
ATOM     68  C   UNL     1       8.157  -1.069 -11.890  1.00  0.00     0.057 A 
ATOM     69  C   UNL     1       9.137  -2.030 -12.165  1.00  0.00     0.134 A 
ATOM     70  C   UNL     1       6.825  -1.499 -11.859  1.00  0.00     0.134 A 
ATOM     71  F   UNL     1      10.430  -1.679 -12.218  1.00  0.00    -0.206 F 
ATOM     72  C   UNL     1       8.805  -3.361 -12.423  1.00  0.00     0.040 A 
ATOM     73  C   UNL     1       6.481  -2.832 -12.088  1.00  0.00     0.040 A 
ATOM     74  F   UNL     1       5.839  -0.631 -11.586  1.00  0.00    -0.206 F 
ATOM     75  C   UNL     1       7.473  -3.766 -12.380  1.00  0.00     0.006 A 
ENDBRANCH  47  68
BRANCH  59  76
ATOM     76  C   UNL     1      10.912   4.000 -15.803  1.00  0.00     0.057 A 
ATOM     77  C   UNL     1      10.026   3.949 -16.886  1.00  0.00     0.134 A 
ATOM     78  C   UNL     1      12.277   4.130 -16.086  1.00  0.00     0.134 A 
ATOM     79  F   UNL     1       8.707   3.813 -16.680  1.00  0.00    -0.206 F 
ATOM     80  C   UNL     1      10.484   4.002 -18.202  1.00  0.00     0.040 A 
ATOM     81  C   UNL     1      12.744   4.217 -17.397  1.00  0.00     0.040 A 
ATOM     82  F   UNL     1      13.177   4.197 -15.092  1.00  0.00    -0.206 F 
ATOM     83  C   UNL     1      11.846   4.146 -18.459  1.00  0.00     0.006 A 
ENDBRANCH  59  76
ENDBRANCH  33  34
ENDBRANCH  25  28
ENDBRANCH  23  24
ENDBRANCH  22  23
ENDBRANCH   1  22
TORSDOF 16
