REMARK SMILES C[C@H](Cc1cccs1)N(C)C(=O)[C@@H]([NH3+])CCC(=O)NCCCCNC(=O)c1ccc(-c2c3nc(c(-c4c(F)cccc4F)c4ccc([nH]4)c(-c4c(F)cccc4F)c4nc(c(-c5c(F)cccc5F)c5ccc2[nH]5)C=C4)C=C3)cc1
REMARK SMILES IDX 17 1 18 2 19 3 16 5 15 6 13 7 11 8 12 9 9 10 10 11 2 12 1 13
REMARK SMILES IDX 3 14 4 15 5 16 8 17 6 18 7 19 14 20 20 24 21 25 22 26 23 27
REMARK SMILES IDX 24 28 25 29 26 31 27 32 28 33 80 34 29 35 79 36 30 37 31 38
REMARK SMILES IDX 32 39 73 40 33 41 78 42 72 43 74 44 34 45 77 46 71 47 70 48
REMARK SMILES IDX 35 50 61 51 44 52 60 53 45 54 48 55 59 56 75 57 46 58 47 59
REMARK SMILES IDX 58 61 76 62 49 63 36 64 37 65 42 66 38 67 39 68 41 69 43 70
REMARK SMILES IDX 40 71 62 72 63 73 68 74 64 75 65 76 67 77 69 78 66 79 50 80
REMARK SMILES IDX 51 81 56 82 52 83 53 84 55 85 57 86 54 87
REMARK H PARENT 19 4 14 21 14 22 14 23 24 30 74 49 48 60
REMARK Flexibility Score: inf
ROOT
ATOM      1  C   UNL     1      -4.202   0.082  -4.049  1.00  0.00     0.220 C 
ATOM      2  O   UNL     1      -5.189   0.498  -4.658  1.00  0.00    -0.275 OA
ATOM      3  N   UNL     1      -4.034  -1.263  -3.943  1.00  0.00    -0.356 N 
ATOM      4  H   UNL     1      -4.671  -1.802  -4.465  1.00  0.00     0.163 HD
ENDROOT
BRANCH   1   5
ATOM      5  C   UNL     1      -3.201   1.050  -3.445  1.00  0.00     0.106 C 
BRANCH   5   6
ATOM      6  C   UNL     1      -3.692   1.693  -2.138  1.00  0.00     0.085 C 
BRANCH   6   7
ATOM      7  C   UNL     1      -3.293   0.920  -0.875  1.00  0.00     0.271 C 
BRANCH   7   8
ATOM      8  C   UNL     1      -1.763   0.697  -0.752  1.00  0.00     0.280 C 
ATOM      9  O   UNL     1      -1.341  -0.446  -0.969  1.00  0.00    -0.268 OA
BRANCH   8  10
ATOM     10  N   UNL     1      -0.881   1.748  -0.525  1.00  0.00    -0.338 N 
ATOM     11  C   UNL     1      -1.290   3.108  -0.197  1.00  0.00     0.147 C 
BRANCH  10  12
ATOM     12  C   UNL     1       0.559   1.561  -0.853  1.00  0.00     0.087 C 
ATOM     13  C   UNL     1       0.719   1.442  -2.376  1.00  0.00     0.031 C 
BRANCH  12  14
ATOM     14  C   UNL     1       1.250   0.447  -0.018  1.00  0.00     0.071 C 
BRANCH  14  15
ATOM     15  C   UNL     1       2.550  -0.043  -0.595  1.00  0.00     0.007 A 
ATOM     16  C   UNL     1       2.728  -1.056  -1.519  1.00  0.00     0.015 A 
ATOM     17  S   UNL     1       4.043   0.641  -0.118  1.00  0.00    -0.149 S 
ATOM     18  C   UNL     1       4.097  -1.253  -1.853  1.00  0.00     0.012 A 
ATOM     19  C   UNL     1       4.922  -0.402  -1.152  1.00  0.00     0.065 A 
ENDBRANCH  14  15
ENDBRANCH  12  14
ENDBRANCH  10  12
ENDBRANCH   8  10
ENDBRANCH   7   8
BRANCH   7  20
ATOM     20  N   UNL     1      -3.878   1.488   0.353  1.00  0.00    -0.347 N 
ATOM     21  H   UNL     1      -3.498   2.421   0.510  1.00  0.00     0.345 HD
ATOM     22  H   UNL     1      -3.649   0.889   1.147  1.00  0.00     0.345 HD
ATOM     23  H   UNL     1      -4.891   1.546   0.252  1.00  0.00     0.345 HD
ENDBRANCH   7  20
ENDBRANCH   6   7
ENDBRANCH   5   6
ENDBRANCH   1   5
BRANCH   3  24
ATOM     24  C   UNL     1      -3.064  -2.029  -3.183  1.00  0.00     0.116 C 
BRANCH  24  25
ATOM     25  C   UNL     1      -3.660  -2.468  -1.841  1.00  0.00     0.023 C 
BRANCH  25  26
ATOM     26  C   UNL     1      -4.033  -3.940  -1.764  1.00  0.00     0.023 C 
BRANCH  26  27
ATOM     27  C   UNL     1      -2.841  -4.882  -1.817  1.00  0.00     0.116 C 
BRANCH  27  28
ATOM     28  N   UNL     1      -1.942  -4.779  -0.674  1.00  0.00    -0.352 N 
ATOM     29  C   UNL     1      -1.280  -5.809  -0.031  1.00  0.00     0.251 C 
ATOM     30  H   UNL     1      -1.788  -3.873  -0.321  1.00  0.00     0.163 HD
ATOM     31  O   UNL     1      -0.597  -5.622   0.956  1.00  0.00    -0.269 OA
BRANCH  29  32
ATOM     32  C   UNL     1      -1.475  -7.176  -0.564  1.00  0.00     0.039 A 
ATOM     33  C   UNL     1      -2.024  -8.156   0.265  1.00  0.00     0.014 A 
ATOM     34  C   UNL     1      -1.265  -7.419  -1.922  1.00  0.00     0.014 A 
ATOM     35  C   UNL     1      -2.463  -9.357  -0.296  1.00  0.00     0.010 A 
ATOM     36  C   UNL     1      -1.787  -8.572  -2.490  1.00  0.00     0.010 A 
ATOM     37  C   UNL     1      -2.401  -9.548  -1.685  1.00  0.00    -0.014 A 
BRANCH  37  38
ATOM     38  C   UNL     1      -2.950 -10.758  -2.347  1.00  0.00     0.031 A 
ATOM     39  C   UNL     1      -2.027 -11.627  -3.155  1.00  0.00     0.074 A 
ATOM     40  C   UNL     1      -4.274 -11.007  -2.332  1.00  0.00     0.049 A 
ATOM     41  N   UNL     1      -2.314 -12.581  -4.001  1.00  0.00    -0.248 NA
ATOM     42  C   UNL     1      -0.588 -11.344  -3.030  1.00  0.00     0.031 C 
ATOM     43  C   UNL     1      -5.284 -10.218  -1.625  1.00  0.00     0.029 A 
ATOM     44  N   UNL     1      -5.001 -11.989  -2.958  1.00  0.00    -0.354 N 
ATOM     45  C   UNL     1      -1.100 -12.970  -4.550  1.00  0.00     0.074 A 
ATOM     46  C   UNL     1      -0.079 -12.127  -3.968  1.00  0.00     0.031 C 
ATOM     47  C   UNL     1      -6.496 -10.758  -1.840  1.00  0.00     0.029 A 
ATOM     48  C   UNL     1      -6.355 -11.902  -2.736  1.00  0.00     0.049 A 
ATOM     49  H   UNL     1      -4.591 -12.691  -3.514  1.00  0.00     0.167 HD
ATOM     50  C   UNL     1      -0.855 -13.952  -5.448  1.00  0.00     0.037 A 
ATOM     51  C   UNL     1      -7.366 -12.653  -3.213  1.00  0.00     0.037 A 
ATOM     52  C   UNL     1      -1.862 -14.837  -5.966  1.00  0.00     0.049 A 
ATOM     53  C   UNL     1      -7.062 -13.784  -4.156  1.00  0.00     0.074 A 
ATOM     54  C   UNL     1      -1.708 -15.908  -6.828  1.00  0.00     0.029 A 
ATOM     55  N   UNL     1      -3.209 -14.765  -5.648  1.00  0.00    -0.354 N 
ATOM     56  N   UNL     1      -5.906 -14.158  -4.649  1.00  0.00    -0.248 NA
ATOM     57  C   UNL     1      -8.200 -14.597  -4.610  1.00  0.00     0.031 C 
ATOM     58  C   UNL     1      -2.967 -16.479  -7.040  1.00  0.00     0.029 A 
ATOM     59  C   UNL     1      -3.897 -15.779  -6.290  1.00  0.00     0.049 A 
ATOM     60  H   UNL     1      -3.615 -14.094  -5.053  1.00  0.00     0.167 HD
ATOM     61  C   UNL     1      -6.172 -15.266  -5.442  1.00  0.00     0.074 A 
ATOM     62  C   UNL     1      -7.598 -15.506  -5.365  1.00  0.00     0.031 C 
ATOM     63  C   UNL     1      -5.311 -16.019  -6.168  1.00  0.00     0.037 A 
BRANCH  50  64
ATOM     64  C   UNL     1       0.559 -14.121  -5.912  1.00  0.00     0.057 A 
ATOM     65  C   UNL     1       1.553 -14.645  -5.075  1.00  0.00     0.134 A 
ATOM     66  C   UNL     1       0.931 -13.761  -7.213  1.00  0.00     0.134 A 
ATOM     67  F   UNL     1       1.264 -14.991  -3.812  1.00  0.00    -0.206 F 
ATOM     68  C   UNL     1       2.873 -14.776  -5.506  1.00  0.00     0.040 A 
ATOM     69  C   UNL     1       2.243 -13.913  -7.664  1.00  0.00     0.040 A 
ATOM     70  F   UNL     1       0.026 -13.256  -8.066  1.00  0.00    -0.206 F 
ATOM     71  C   UNL     1       3.220 -14.415  -6.806  1.00  0.00     0.006 A 
ENDBRANCH  50  64
BRANCH  51  72
ATOM     72  C   UNL     1      -8.761 -12.382  -2.786  1.00  0.00     0.057 A 
ATOM     73  C   UNL     1      -9.415 -13.242  -1.896  1.00  0.00     0.134 A 
ATOM     74  C   UNL     1      -9.474 -11.274  -3.256  1.00  0.00     0.134 A 
ATOM     75  F   UNL     1      -8.788 -14.331  -1.427  1.00  0.00    -0.206 F 
ATOM     76  C   UNL     1     -10.736 -13.021  -1.502  1.00  0.00     0.040 A 
ATOM     77  C   UNL     1     -10.789 -11.030  -2.855  1.00  0.00     0.040 A 
ATOM     78  F   UNL     1      -8.901 -10.410  -4.106  1.00  0.00    -0.206 F 
ATOM     79  C   UNL     1     -11.425 -11.909  -1.980  1.00  0.00     0.006 A 
ENDBRANCH  51  72
BRANCH  63  80
ATOM     80  C   UNL     1      -5.870 -17.207  -6.887  1.00  0.00     0.057 A 
ATOM     81  C   UNL     1      -6.566 -17.078  -8.093  1.00  0.00     0.134 A 
ATOM     82  C   UNL     1      -5.636 -18.500  -6.402  1.00  0.00     0.134 A 
ATOM     83  F   UNL     1      -6.828 -15.864  -8.601  1.00  0.00    -0.206 F 
ATOM     84  C   UNL     1      -7.018 -18.198  -8.793  1.00  0.00     0.040 A 
ATOM     85  C   UNL     1      -6.068 -19.627  -7.101  1.00  0.00     0.040 A 
ATOM     86  F   UNL     1      -4.968 -18.686  -5.254  1.00  0.00    -0.206 F 
ATOM     87  C   UNL     1      -6.761 -19.477  -8.301  1.00  0.00     0.006 A 
ENDBRANCH  63  80
ENDBRANCH  37  38
ENDBRANCH  29  32
ENDBRANCH  27  28
ENDBRANCH  26  27
ENDBRANCH  25  26
ENDBRANCH  24  25
ENDBRANCH   3  24
TORSDOF 19
