REMARK SMILES [NH2+]=C1S[C@@H](C(=O)Nc2ccc(C(=O)NCCCCNC(=O)c3ccc(-c4c5nc(c(-c6c(F)cccc6F)c6ccc([nH]6)c(-c6c(F)cccc6F)c6nc(c(-c7c(F)cccc7F)c7ccc4[nH]7)C=C6)C=C5)cc3)cc2)CC(=O)N1/N=C/c1ccc(Cl)cc1
REMARK SMILES IDX 15 1 14 2 12 3 13 4 11 6 8 7 9 8 77 9 10 10 76 11 7 12 5 13
REMARK SMILES IDX 6 14 4 16 1 17 2 18 3 21 81 22 79 23 78 24 80 25 82 26 83 27
REMARK SMILES IDX 84 28 85 29 90 30 86 31 89 32 87 33 88 34 16 35 17 36 18 37
REMARK SMILES IDX 19 38 20 39 21 41 22 42 23 43 75 44 24 45 74 46 25 47 26 48
REMARK SMILES IDX 27 49 68 50 28 51 73 52 67 53 69 54 29 55 72 56 66 57 65 58
REMARK SMILES IDX 30 60 56 61 39 62 55 63 40 64 43 65 54 66 70 67 41 68 42 69
REMARK SMILES IDX 53 71 71 72 44 73 31 74 32 75 37 76 33 77 34 78 36 79 38 80
REMARK SMILES IDX 35 81 57 82 58 83 63 84 59 85 60 86 62 87 64 88 61 89 45 90
REMARK SMILES IDX 46 91 51 92 47 93 48 94 50 95 52 96 49 97
REMARK H PARENT 14 5 7 15 1 19 1 20 19 40 69 59 43 70
REMARK Flexibility Score: inf
ROOT
ATOM      1  C   UNL     1      -4.793  -1.161  -0.033  1.00  0.00     0.116 C 
ENDROOT
BRANCH   1   2
ATOM      2  N   UNL     1      -4.856   0.044  -0.851  1.00  0.00    -0.352 N 
ATOM      3  C   UNL     1      -3.998   1.111  -0.933  1.00  0.00     0.251 C 
ATOM      4  O   UNL     1      -4.128   1.914  -1.855  1.00  0.00    -0.269 OA
ATOM      5  H   UNL     1      -5.643   0.101  -1.440  1.00  0.00     0.163 HD
BRANCH   3   6
ATOM      6  C   UNL     1      -2.866   1.265   0.007  1.00  0.00     0.039 A 
ATOM      7  C   UNL     1      -0.629   1.320   1.658  1.00  0.00     0.041 A 
ATOM      8  C   UNL     1      -0.508   1.712   0.326  1.00  0.00     0.027 A 
ATOM      9  C   UNL     1      -1.885   1.065   2.203  1.00  0.00     0.027 A 
ATOM     10  C   UNL     1      -1.623   1.650  -0.510  1.00  0.00     0.016 A 
ATOM     11  C   UNL     1      -3.010   1.060   1.380  1.00  0.00     0.016 A 
BRANCH   7  12
ATOM     12  N   UNL     1       0.514   1.274   2.447  1.00  0.00    -0.325 N 
ATOM     13  C   UNL     1       0.958   0.297   3.288  1.00  0.00     0.238 C 
ATOM     14  O   UNL     1       1.755   0.639   4.171  1.00  0.00    -0.273 OA
ATOM     15  H   UNL     1       1.093   2.069   2.389  1.00  0.00     0.169 HD
BRANCH  13  16
ATOM     16  C   UNL     1       0.693  -1.203   3.049  1.00  0.00     0.160 C 
ATOM     17  N   UNL     1       1.189  -0.993  -0.670  1.00  0.00    -0.279 N 
ATOM     18  C   UNL     1       0.626  -1.502   0.372  1.00  0.00     0.338 C 
ATOM     19  H   UNL     1       2.152  -0.788  -0.658  1.00  0.00     0.302 HD
ATOM     20  H   UNL     1       0.657  -0.809  -1.477  1.00  0.00     0.302 HD
ATOM     21  S   UNL     1       1.700  -1.825   1.693  1.00  0.00    -0.022 SA
ATOM     22  N   UNL     1      -0.723  -1.841   0.495  1.00  0.00    -0.057 N 
ATOM     23  C   UNL     1      -1.361  -2.134   1.711  1.00  0.00     0.337 C 
ATOM     24  C   UNL     1      -0.690  -1.790   3.031  1.00  0.00     0.155 C 
ATOM     25  O   UNL     1      -2.478  -2.671   1.784  1.00  0.00    -0.244 OA
BRANCH  22  26
ATOM     26  N   UNL     1      -1.589  -1.996  -0.615  1.00  0.00    -0.082 NA
ATOM     27  C   UNL     1      -1.171  -1.979  -1.836  1.00  0.00     0.167 C 
BRANCH  27  28
ATOM     28  C   UNL     1      -2.088  -2.285  -2.955  1.00  0.00    -0.003 A 
ATOM     29  C   UNL     1      -1.929  -3.508  -3.612  1.00  0.00     0.011 A 
ATOM     30  C   UNL     1      -3.041  -1.367  -3.394  1.00  0.00     0.011 A 
ATOM     31  C   UNL     1      -2.750  -3.824  -4.697  1.00  0.00     0.021 A 
ATOM     32  C   UNL     1      -3.872  -1.690  -4.473  1.00  0.00     0.021 A 
ATOM     33  C   UNL     1      -3.723  -2.917  -5.119  1.00  0.00     0.041 A 
ATOM     34  Cl  UNL     1      -4.734  -3.310  -6.453  1.00  0.00    -0.084 Cl
ENDBRANCH  27  28
ENDBRANCH  22  26
ENDBRANCH  13  16
ENDBRANCH   7  12
ENDBRANCH   3   6
ENDBRANCH   1   2
BRANCH   1  35
ATOM     35  C   UNL     1      -6.146  -1.447   0.611  1.00  0.00     0.023 C 
BRANCH  35  36
ATOM     36  C   UNL     1      -7.127  -2.130  -0.344  1.00  0.00     0.023 C 
BRANCH  36  37
ATOM     37  C   UNL     1      -6.792  -3.592  -0.634  1.00  0.00     0.116 C 
BRANCH  37  38
ATOM     38  N   UNL     1      -6.929  -4.434   0.548  1.00  0.00    -0.352 N 
ATOM     39  C   UNL     1      -7.828  -5.434   0.818  1.00  0.00     0.251 C 
ATOM     40  H   UNL     1      -6.275  -4.258   1.262  1.00  0.00     0.163 HD
ATOM     41  O   UNL     1      -7.924  -5.890   1.957  1.00  0.00    -0.269 OA
BRANCH  39  42
ATOM     42  C   UNL     1      -8.698  -5.961  -0.254  1.00  0.00     0.039 A 
ATOM     43  C   UNL     1     -10.052  -6.179   0.013  1.00  0.00     0.014 A 
ATOM     44  C   UNL     1      -8.177  -6.253  -1.517  1.00  0.00     0.014 A 
ATOM     45  C   UNL     1     -10.899  -6.614  -1.009  1.00  0.00     0.010 A 
ATOM     46  C   UNL     1      -9.035  -6.609  -2.554  1.00  0.00     0.010 A 
ATOM     47  C   UNL     1     -10.405  -6.791  -2.312  1.00  0.00    -0.014 A 
BRANCH  47  48
ATOM     48  C   UNL     1     -11.301  -7.155  -3.440  1.00  0.00     0.031 A 
ATOM     49  C   UNL     1     -11.103  -8.450  -4.177  1.00  0.00     0.074 A 
ATOM     50  C   UNL     1     -12.242  -6.283  -3.852  1.00  0.00     0.049 A 
ATOM     51  N   UNL     1     -11.713  -8.896  -5.246  1.00  0.00    -0.248 NA
ATOM     52  C   UNL     1     -10.062  -9.353  -3.660  1.00  0.00     0.031 C 
ATOM     53  C   UNL     1     -12.509  -4.976  -3.248  1.00  0.00     0.029 A 
ATOM     54  N   UNL     1     -13.139  -6.357  -4.890  1.00  0.00    -0.354 N 
ATOM     55  C   UNL     1     -11.122 -10.119  -5.537  1.00  0.00     0.074 A 
ATOM     56  C   UNL     1     -10.070 -10.321  -4.564  1.00  0.00     0.031 C 
ATOM     57  C   UNL     1     -13.512  -4.380  -3.913  1.00  0.00     0.029 A 
ATOM     58  C   UNL     1     -13.927  -5.239  -5.018  1.00  0.00     0.049 A 
ATOM     59  H   UNL     1     -13.210  -7.137  -5.486  1.00  0.00     0.167 HD
ATOM     60  C   UNL     1     -11.439 -11.002  -6.513  1.00  0.00     0.037 A 
ATOM     61  C   UNL     1     -14.867  -4.931  -5.932  1.00  0.00     0.037 A 
ATOM     62  C   UNL     1     -12.498 -10.806  -7.469  1.00  0.00     0.049 A 
ATOM     63  C   UNL     1     -15.182  -5.918  -7.023  1.00  0.00     0.074 A 
ATOM     64  C   UNL     1     -12.934 -11.668  -8.460  1.00  0.00     0.029 A 
ATOM     65  N   UNL     1     -13.282  -9.665  -7.558  1.00  0.00    -0.354 N 
ATOM     66  N   UNL     1     -14.661  -7.099  -7.246  1.00  0.00    -0.248 NA
ATOM     67  C   UNL     1     -16.220  -5.529  -7.989  1.00  0.00     0.031 C 
ATOM     68  C   UNL     1     -13.945 -11.027  -9.183  1.00  0.00     0.029 A 
ATOM     69  C   UNL     1     -14.180  -9.791  -8.604  1.00  0.00     0.049 A 
ATOM     70  H   UNL     1     -13.210  -8.883  -6.964  1.00  0.00     0.167 HD
ATOM     71  C   UNL     1     -15.328  -7.608  -8.353  1.00  0.00     0.074 A 
ATOM     72  C   UNL     1     -16.300  -6.611  -8.750  1.00  0.00     0.031 C 
ATOM     73  C   UNL     1     -15.152  -8.796  -8.982  1.00  0.00     0.037 A 
BRANCH  60  74
ATOM     74  C   UNL     1     -10.628 -12.264  -6.599  1.00  0.00     0.057 A 
ATOM     75  C   UNL     1     -10.713 -13.267  -5.624  1.00  0.00     0.134 A 
ATOM     76  C   UNL     1      -9.780 -12.496  -7.690  1.00  0.00     0.134 A 
ATOM     77  F   UNL     1     -11.498 -13.105  -4.548  1.00  0.00    -0.206 F 
ATOM     78  C   UNL     1      -9.964 -14.441  -5.716  1.00  0.00     0.040 A 
ATOM     79  C   UNL     1      -9.049 -13.680  -7.809  1.00  0.00     0.040 A 
ATOM     80  F   UNL     1      -9.657 -11.583  -8.665  1.00  0.00    -0.206 F 
ATOM     81  C   UNL     1      -9.134 -14.653  -6.815  1.00  0.00     0.006 A 
ENDBRANCH  60  74
BRANCH  61  82
ATOM     82  C   UNL     1     -15.588  -3.635  -5.852  1.00  0.00     0.057 A 
ATOM     83  C   UNL     1     -16.948  -3.584  -5.526  1.00  0.00     0.134 A 
ATOM     84  C   UNL     1     -14.942  -2.420  -6.111  1.00  0.00     0.134 A 
ATOM     85  F   UNL     1     -17.627  -4.715  -5.286  1.00  0.00    -0.206 F 
ATOM     86  C   UNL     1     -17.645  -2.376  -5.481  1.00  0.00     0.040 A 
ATOM     87  C   UNL     1     -15.620  -1.201  -6.042  1.00  0.00     0.040 A 
ATOM     88  F   UNL     1     -13.638  -2.398  -6.422  1.00  0.00    -0.206 F 
ATOM     89  C   UNL     1     -16.979  -1.179  -5.735  1.00  0.00     0.006 A 
ENDBRANCH  61  82
BRANCH  73  90
ATOM     90  C   UNL     1     -16.058  -9.108 -10.139  1.00  0.00     0.057 A 
ATOM     91  C   UNL     1     -15.937  -8.459 -11.374  1.00  0.00     0.134 A 
ATOM     92  C   UNL     1     -17.030 -10.111 -10.028  1.00  0.00     0.134 A 
ATOM     93  F   UNL     1     -15.035  -7.480 -11.543  1.00  0.00    -0.206 F 
ATOM     94  C   UNL     1     -16.762  -8.784 -12.451  1.00  0.00     0.040 A 
ATOM     95  C   UNL     1     -17.841 -10.464 -11.106  1.00  0.00     0.040 A 
ATOM     96  F   UNL     1     -17.193 -10.778  -8.875  1.00  0.00    -0.206 F 
ATOM     97  C   UNL     1     -17.712  -9.796 -12.322  1.00  0.00     0.006 A 
ENDBRANCH  73  90
ENDBRANCH  47  48
ENDBRANCH  39  42
ENDBRANCH  37  38
ENDBRANCH  36  37
ENDBRANCH  35  36
ENDBRANCH   1  35
TORSDOF 15
