REMARK SMILES CC[C@H](C(=O)NCCCCNC(=O)c1ccc(-c2c3nc(c(-c4c(F)cccc4F)c4ccc([nH]4)c(-c4c(F)cccc4F)c4nc(c(-c5c(F)cccc5F)c5ccc2[nH]5)C=C4)C=C3)cc1)N1C(=O)/C(=C\c2cccs2)SC1=S
REMARK SMILES IDX 8 1 7 2 6 3 4 4 5 5 3 7 2 8 1 9 68 10 69 11 79 12 70 13
REMARK SMILES IDX 71 14 78 15 80 16 72 17 73 18 74 19 77 20 75 21 76 22 9 23
REMARK SMILES IDX 10 24 11 25 12 26 13 28 14 29 15 30 67 31 16 32 66 33 17 34
REMARK SMILES IDX 18 35 19 36 60 37 20 38 65 39 59 40 61 41 21 42 64 43 58 44
REMARK SMILES IDX 57 45 22 47 48 48 31 49 47 50 32 51 35 52 46 53 62 54 33 55
REMARK SMILES IDX 34 56 45 58 63 59 36 60 23 61 24 62 29 63 25 64 26 65 28 66
REMARK SMILES IDX 30 67 27 68 49 69 50 70 55 71 51 72 52 73 54 74 56 75 53 76
REMARK SMILES IDX 37 77 38 78 43 79 39 80 40 81 42 82 44 83 41 84
REMARK H PARENT 6 6 11 27 61 46 35 57
REMARK Flexibility Score: inf
ROOT
ATOM      1  C   UNL     1      -2.678   2.070  -1.074  1.00  0.00     0.023 C 
ENDROOT
BRANCH   1   2
ATOM      2  C   UNL     1      -1.783   2.457   0.099  1.00  0.00     0.116 C 
BRANCH   2   3
ATOM      3  N   UNL     1      -0.920   1.356   0.483  1.00  0.00    -0.354 N 
ATOM      4  C   UNL     1       0.447   1.275   0.501  1.00  0.00     0.243 C 
ATOM      5  O   UNL     1       0.953   0.163   0.675  1.00  0.00    -0.273 OA
ATOM      6  H   UNL     1      -1.389   0.541   0.776  1.00  0.00     0.163 HD
BRANCH   4   7
ATOM      7  C   UNL     1       1.327   2.506   0.139  1.00  0.00     0.181 C 
BRANCH   7   8
ATOM      8  C   UNL     1       1.192   2.633  -1.407  1.00  0.00     0.032 C 
ATOM      9  C   UNL     1       2.061   1.626  -2.152  1.00  0.00     0.006 C 
ENDBRANCH   7   8
BRANCH   7  10
ATOM     10  N   UNL     1       0.941   3.718   0.927  1.00  0.00    -0.280 N 
ATOM     11  C   UNL     1       0.476   3.533   2.227  1.00  0.00     0.266 C 
ATOM     12  C   UNL     1       1.384   5.007   0.719  1.00  0.00     0.149 C 
ATOM     13  O   UNL     1       0.566   2.502   2.875  1.00  0.00    -0.268 OA
ATOM     14  C   UNL     1      -0.059   4.806   2.780  1.00  0.00     0.081 C 
ATOM     15  S   UNL     1       0.600   6.104   1.858  1.00  0.00    -0.054 SA
ATOM     16  S   UNL     1       2.524   5.590  -0.350  1.00  0.00    -0.052 S 
ATOM     17  C   UNL     1      -0.964   5.006   3.749  1.00  0.00     0.040 C 
BRANCH  17  18
ATOM     18  C   UNL     1      -1.649   3.981   4.460  1.00  0.00     0.028 A 
ATOM     19  C   UNL     1      -1.176   2.896   5.177  1.00  0.00     0.020 A 
ATOM     20  S   UNL     1      -3.373   4.049   4.556  1.00  0.00    -0.144 S 
ATOM     21  C   UNL     1      -2.213   2.112   5.764  1.00  0.00     0.012 A 
ATOM     22  C   UNL     1      -3.458   2.634   5.506  1.00  0.00     0.065 A 
ENDBRANCH  17  18
ENDBRANCH   7  10
ENDBRANCH   4   7
ENDBRANCH   2   3
ENDBRANCH   1   2
BRANCH   1  23
ATOM     23  C   UNL     1      -3.808   1.113  -0.707  1.00  0.00     0.023 C 
BRANCH  23  24
ATOM     24  C   UNL     1      -4.711   1.598   0.420  1.00  0.00     0.116 C 
BRANCH  24  25
ATOM     25  N   UNL     1      -5.273   2.920   0.171  1.00  0.00    -0.352 N 
ATOM     26  C   UNL     1      -6.569   3.342   0.331  1.00  0.00     0.251 C 
ATOM     27  H   UNL     1      -4.639   3.599  -0.155  1.00  0.00     0.163 HD
ATOM     28  O   UNL     1      -6.919   4.456  -0.042  1.00  0.00    -0.269 OA
BRANCH  26  29
ATOM     29  C   UNL     1      -7.544   2.413   0.929  1.00  0.00     0.039 A 
ATOM     30  C   UNL     1      -8.735   2.150   0.250  1.00  0.00     0.014 A 
ATOM     31  C   UNL     1      -7.236   1.748   2.119  1.00  0.00     0.014 A 
ATOM     32  C   UNL     1      -9.589   1.158   0.730  1.00  0.00     0.010 A 
ATOM     33  C   UNL     1      -8.047   0.706   2.548  1.00  0.00     0.010 A 
ATOM     34  C   UNL     1      -9.231   0.402   1.858  1.00  0.00    -0.014 A 
BRANCH  34  35
ATOM     35  C   UNL     1     -10.083  -0.711   2.341  1.00  0.00     0.031 A 
ATOM     36  C   UNL     1     -10.709  -0.634   3.704  1.00  0.00     0.074 A 
ATOM     37  C   UNL     1     -10.228  -1.819   1.587  1.00  0.00     0.049 A 
ATOM     38  N   UNL     1     -11.412  -1.532   4.343  1.00  0.00    -0.248 NA
ATOM     39  C   UNL     1     -10.486   0.608   4.464  1.00  0.00     0.031 C 
ATOM     40  C   UNL     1      -9.623  -2.036   0.271  1.00  0.00     0.029 A 
ATOM     41  N   UNL     1     -10.922  -2.977   1.828  1.00  0.00    -0.354 N 
ATOM     42  C   UNL     1     -11.697  -0.974   5.583  1.00  0.00     0.074 A 
ATOM     43  C   UNL     1     -11.044   0.315   5.629  1.00  0.00     0.031 C 
ATOM     44  C   UNL     1      -9.991  -3.243  -0.188  1.00  0.00     0.029 A 
ATOM     45  C   UNL     1     -10.826  -3.898   0.813  1.00  0.00     0.049 A 
ATOM     46  H   UNL     1     -11.440  -3.134   2.650  1.00  0.00     0.167 HD
ATOM     47  C   UNL     1     -12.456  -1.480   6.583  1.00  0.00     0.037 A 
ATOM     48  C   UNL     1     -11.350  -5.134   0.706  1.00  0.00     0.037 A 
ATOM     49  C   UNL     1     -13.132  -2.748   6.518  1.00  0.00     0.049 A 
ATOM     50  C   UNL     1     -12.200  -5.668   1.826  1.00  0.00     0.074 A 
ATOM     51  C   UNL     1     -13.981  -3.320   7.449  1.00  0.00     0.029 A 
ATOM     52  N   UNL     1     -13.037  -3.639   5.460  1.00  0.00    -0.354 N 
ATOM     53  N   UNL     1     -12.520  -5.100   2.963  1.00  0.00    -0.248 NA
ATOM     54  C   UNL     1     -12.766  -7.012   1.644  1.00  0.00     0.031 C 
ATOM     55  C   UNL     1     -14.369  -4.576   6.970  1.00  0.00     0.029 A 
ATOM     56  C   UNL     1     -13.798  -4.766   5.722  1.00  0.00     0.049 A 
ATOM     57  H   UNL     1     -12.507  -3.492   4.643  1.00  0.00     0.167 HD
ATOM     58  C   UNL     1     -13.346  -6.003   3.620  1.00  0.00     0.074 A 
ATOM     59  C   UNL     1     -13.488  -7.151   2.748  1.00  0.00     0.031 C 
ATOM     60  C   UNL     1     -13.934  -5.893   4.836  1.00  0.00     0.037 A 
BRANCH  47  61
ATOM     61  C   UNL     1     -12.600  -0.654   7.826  1.00  0.00     0.057 A 
ATOM     62  C   UNL     1     -13.341   0.535   7.841  1.00  0.00     0.134 A 
ATOM     63  C   UNL     1     -12.011  -1.063   9.029  1.00  0.00     0.134 A 
ATOM     64  F   UNL     1     -13.917   0.991   6.718  1.00  0.00    -0.206 F 
ATOM     65  C   UNL     1     -13.470   1.301   9.000  1.00  0.00     0.040 A 
ATOM     66  C   UNL     1     -12.157  -0.320  10.202  1.00  0.00     0.040 A 
ATOM     67  F   UNL     1     -11.290  -2.193   9.086  1.00  0.00    -0.206 F 
ATOM     68  C   UNL     1     -12.883   0.870  10.188  1.00  0.00     0.006 A 
ENDBRANCH  47  61
BRANCH  48  69
ATOM     69  C   UNL     1     -11.109  -5.942  -0.515  1.00  0.00     0.057 A 
ATOM     70  C   UNL     1     -12.142  -6.196  -1.427  1.00  0.00     0.134 A 
ATOM     71  C   UNL     1      -9.852  -6.488  -0.798  1.00  0.00     0.134 A 
ATOM     72  F   UNL     1     -13.373  -5.715  -1.201  1.00  0.00    -0.206 F 
ATOM     73  C   UNL     1     -11.938  -6.979  -2.564  1.00  0.00     0.040 A 
ATOM     74  C   UNL     1      -9.628  -7.253  -1.944  1.00  0.00     0.040 A 
ATOM     75  F   UNL     1      -8.819  -6.275   0.031  1.00  0.00    -0.206 F 
ATOM     76  C   UNL     1     -10.676  -7.507  -2.826  1.00  0.00     0.006 A 
ENDBRANCH  48  69
BRANCH  60  77
ATOM     77  C   UNL     1     -14.811  -7.026   5.279  1.00  0.00     0.057 A 
ATOM     78  C   UNL     1     -14.280  -8.256   5.686  1.00  0.00     0.134 A 
ATOM     79  C   UNL     1     -16.201  -6.867   5.339  1.00  0.00     0.134 A 
ATOM     80  F   UNL     1     -12.957  -8.474   5.639  1.00  0.00    -0.206 F 
ATOM     81  C   UNL     1     -15.103  -9.296   6.120  1.00  0.00     0.040 A 
ATOM     82  C   UNL     1     -17.032  -7.891   5.795  1.00  0.00     0.040 A 
ATOM     83  F   UNL     1     -16.772  -5.710   4.971  1.00  0.00    -0.206 F 
ATOM     84  C   UNL     1     -16.484  -9.111   6.182  1.00  0.00     0.006 A 
ENDBRANCH  60  77
ENDBRANCH  34  35
ENDBRANCH  26  29
ENDBRANCH  24  25
ENDBRANCH  23  24
ENDBRANCH   1  23
TORSDOF 14
