REMARK SMILES C[C@H]1[C@@H](C(=O)NCCCCNC(=O)c2ccc(-c3c4nc(c(-c5c(F)cccc5F)c5ccc([nH]5)c(-c5c(F)cccc5F)c5nc(c(-c6c(F)cccc6F)c6ccc3[nH]6)C=C5)C=C4)cc2)CCN1C(=O)c1cc2cc(F)ccc2s1
REMARK SMILES IDX 8 1 7 2 6 3 4 4 5 5 3 7 1 8 2 9 70 10 68 11 69 12 71 13
REMARK SMILES IDX 72 14 73 15 74 16 82 17 75 18 81 19 76 20 80 21 77 22 79 23
REMARK SMILES IDX 78 24 9 25 10 26 11 27 12 28 13 30 14 31 15 32 67 33 16 34
REMARK SMILES IDX 66 35 17 36 18 37 19 38 60 39 20 40 65 41 59 42 61 43 21 44
REMARK SMILES IDX 64 45 58 46 57 47 22 49 48 50 31 51 47 52 32 53 35 54 46 55
REMARK SMILES IDX 62 56 33 57 34 58 45 60 63 61 36 62 23 63 24 64 29 65 25 66
REMARK SMILES IDX 26 67 28 68 30 69 27 70 49 71 50 72 55 73 51 74 52 75 54 76
REMARK SMILES IDX 56 77 53 78 37 79 38 80 43 81 39 82 40 83 42 84 44 85 41 86
REMARK H PARENT 6 6 11 29 61 48 35 59
REMARK Flexibility Score: inf
ROOT
ATOM      1  C   UNL     1       3.431   0.456  -1.800  1.00  0.00     0.023 C 
ENDROOT
BRANCH   1   2
ATOM      2  C   UNL     1       2.713   1.720  -1.321  1.00  0.00     0.116 C 
BRANCH   2   3
ATOM      3  N   UNL     1       1.389   1.745  -1.895  1.00  0.00    -0.356 N 
ATOM      4  C   UNL     1       0.214   1.279  -1.392  1.00  0.00     0.225 C 
ATOM      5  O   UNL     1      -0.706   1.155  -2.204  1.00  0.00    -0.275 OA
ATOM      6  H   UNL     1       1.327   2.163  -2.784  1.00  0.00     0.163 HD
BRANCH   4   7
ATOM      7  C   UNL     1       0.022   1.066   0.116  1.00  0.00     0.102 C 
ATOM      8  C   UNL     1       1.700  -0.946   0.490  1.00  0.00     0.032 C 
ATOM      9  C   UNL     1       0.372  -0.284   0.779  1.00  0.00     0.094 C 
ATOM     10  N   UNL     1      -0.782  -1.157   0.556  1.00  0.00    -0.334 N 
ATOM     11  C   UNL     1      -1.493   1.094   0.409  1.00  0.00     0.037 C 
ATOM     12  C   UNL     1      -1.911  -0.346   0.121  1.00  0.00     0.121 C 
BRANCH  10  13
ATOM     13  C   UNL     1      -1.034  -2.146   1.506  1.00  0.00     0.264 C 
ATOM     14  O   UNL     1      -1.770  -1.915   2.465  1.00  0.00    -0.268 OA
BRANCH  13  15
ATOM     15  C   UNL     1      -0.382  -3.432   1.336  1.00  0.00     0.093 A 
ATOM     16  C   UNL     1       0.066  -4.250   2.352  1.00  0.00     0.034 A 
ATOM     17  S   UNL     1      -0.244  -4.200  -0.181  1.00  0.00    -0.130 S 
ATOM     18  C   UNL     1       0.270  -5.602   1.928  1.00  0.00    -0.004 A 
ATOM     19  C   UNL     1       0.085  -5.733   0.548  1.00  0.00     0.035 A 
ATOM     20  C   UNL     1       0.534  -6.763   2.690  1.00  0.00     0.048 A 
ATOM     21  C   UNL     1       0.142  -6.992  -0.085  1.00  0.00     0.022 A 
ATOM     22  C   UNL     1       0.533  -8.008   2.068  1.00  0.00     0.123 A 
ATOM     23  C   UNL     1       0.336  -8.131   0.703  1.00  0.00     0.041 A 
ATOM     24  F   UNL     1       0.694  -9.110   2.813  1.00  0.00    -0.207 F 
ENDBRANCH  13  15
ENDBRANCH  10  13
ENDBRANCH   4   7
ENDBRANCH   2   3
ENDBRANCH   1   2
BRANCH   1  25
ATOM     25  C   UNL     1       4.215   0.623  -3.094  1.00  0.00     0.023 C 
BRANCH  25  26
ATOM     26  C   UNL     1       5.494   1.425  -2.932  1.00  0.00     0.116 C 
BRANCH  26  27
ATOM     27  N   UNL     1       6.437   0.828  -1.993  1.00  0.00    -0.352 N 
ATOM     28  C   UNL     1       7.809   0.796  -2.069  1.00  0.00     0.251 C 
ATOM     29  H   UNL     1       6.041   0.392  -1.204  1.00  0.00     0.163 HD
ATOM     30  O   UNL     1       8.473   0.188  -1.237  1.00  0.00    -0.269 OA
BRANCH  28  31
ATOM     31  C   UNL     1       8.463   1.464  -3.208  1.00  0.00     0.039 A 
ATOM     32  C   UNL     1       9.353   0.732  -3.997  1.00  0.00     0.014 A 
ATOM     33  C   UNL     1       8.107   2.770  -3.552  1.00  0.00     0.014 A 
ATOM     34  C   UNL     1       9.818   1.284  -5.189  1.00  0.00     0.010 A 
ATOM     35  C   UNL     1       8.501   3.281  -4.779  1.00  0.00     0.010 A 
ATOM     36  C   UNL     1       9.355   2.541  -5.611  1.00  0.00    -0.014 A 
BRANCH  36  37
ATOM     37  C   UNL     1       9.749   3.113  -6.919  1.00  0.00     0.031 A 
ATOM     38  C   UNL     1      10.519   4.401  -6.963  1.00  0.00     0.074 A 
ATOM     39  C   UNL     1       9.329   2.530  -8.058  1.00  0.00     0.049 A 
ATOM     40  N   UNL     1      10.837   5.138  -7.994  1.00  0.00    -0.248 NA
ATOM     41  C   UNL     1      10.947   4.957  -5.668  1.00  0.00     0.031 C 
ATOM     42  C   UNL     1       8.515   1.315  -8.145  1.00  0.00     0.029 A 
ATOM     43  N   UNL     1       9.520   2.895  -9.366  1.00  0.00    -0.354 N 
ATOM     44  C   UNL     1      11.458   6.264  -7.470  1.00  0.00     0.074 A 
ATOM     45  C   UNL     1      11.441   6.130  -6.030  1.00  0.00     0.031 C 
ATOM     46  C   UNL     1       8.303   1.020  -9.438  1.00  0.00     0.029 A 
ATOM     47  C   UNL     1       8.938   2.038 -10.268  1.00  0.00     0.049 A 
ATOM     48  H   UNL     1      10.027   3.696  -9.634  1.00  0.00     0.167 HD
ATOM     49  C   UNL     1      12.009   7.308  -8.132  1.00  0.00     0.037 A 
ATOM     50  C   UNL     1       8.924   2.072 -11.613  1.00  0.00     0.037 A 
ATOM     51  C   UNL     1      12.090   7.403  -9.563  1.00  0.00     0.049 A 
ATOM     52  C   UNL     1       9.627   3.191 -12.325  1.00  0.00     0.074 A 
ATOM     53  C   UNL     1      12.701   8.379 -10.331  1.00  0.00     0.029 A 
ATOM     54  N   UNL     1      11.558   6.473 -10.442  1.00  0.00    -0.354 N 
ATOM     55  N   UNL     1      10.251   4.227 -11.819  1.00  0.00    -0.248 NA
ATOM     56  C   UNL     1       9.630   3.143 -13.794  1.00  0.00     0.031 C 
ATOM     57  C   UNL     1      12.531   8.041 -11.679  1.00  0.00     0.029 A 
ATOM     58  C   UNL     1      11.831   6.847 -11.746  1.00  0.00     0.049 A 
ATOM     59  H   UNL     1      11.060   5.665 -10.177  1.00  0.00     0.167 HD
ATOM     60  C   UNL     1      10.736   4.944 -12.903  1.00  0.00     0.074 A 
ATOM     61  C   UNL     1      10.344   4.219 -14.095  1.00  0.00     0.031 C 
ATOM     62  C   UNL     1      11.441   6.100 -12.913  1.00  0.00     0.037 A 
BRANCH  49  63
ATOM     63  C   UNL     1      12.578   8.417  -7.302  1.00  0.00     0.057 A 
ATOM     64  C   UNL     1      13.778   8.267  -6.596  1.00  0.00     0.134 A 
ATOM     65  C   UNL     1      11.917   9.647  -7.204  1.00  0.00     0.134 A 
ATOM     66  F   UNL     1      14.447   7.104  -6.633  1.00  0.00    -0.206 F 
ATOM     67  C   UNL     1      14.288   9.293  -5.799  1.00  0.00     0.040 A 
ATOM     68  C   UNL     1      12.428  10.689  -6.428  1.00  0.00     0.040 A 
ATOM     69  F   UNL     1      10.762   9.854  -7.855  1.00  0.00    -0.206 F 
ATOM     70  C   UNL     1      13.614  10.510  -5.718  1.00  0.00     0.006 A 
ENDBRANCH  49  63
BRANCH  50  71
ATOM     71  C   UNL     1       8.260   0.988 -12.374  1.00  0.00     0.057 A 
ATOM     72  C   UNL     1       9.017  -0.004 -13.008  1.00  0.00     0.134 A 
ATOM     73  C   UNL     1       6.868   0.913 -12.484  1.00  0.00     0.134 A 
ATOM     74  F   UNL     1      10.356   0.028 -12.948  1.00  0.00    -0.206 F 
ATOM     75  C   UNL     1       8.412  -1.026 -13.740  1.00  0.00     0.040 A 
ATOM     76  C   UNL     1       6.249  -0.113 -13.200  1.00  0.00     0.040 A 
ATOM     77  F   UNL     1       6.092   1.831 -11.890  1.00  0.00    -0.206 F 
ATOM     78  C   UNL     1       7.023  -1.084 -13.834  1.00  0.00     0.006 A 
ENDBRANCH  50  71
BRANCH  62  79
ATOM     79  C   UNL     1      11.856   6.633 -14.248  1.00  0.00     0.057 A 
ATOM     80  C   UNL     1      10.957   7.317 -15.073  1.00  0.00     0.134 A 
ATOM     81  C   UNL     1      13.177   6.496 -14.690  1.00  0.00     0.134 A 
ATOM     82  F   UNL     1       9.675   7.466 -14.706  1.00  0.00    -0.206 F 
ATOM     83  C   UNL     1      11.356   7.839 -16.304  1.00  0.00     0.040 A 
ATOM     84  C   UNL     1      13.591   7.027 -15.912  1.00  0.00     0.040 A 
ATOM     85  F   UNL     1      14.083   5.853 -13.940  1.00  0.00    -0.206 F 
ATOM     86  C   UNL     1      12.678   7.699 -16.723  1.00  0.00     0.006 A 
ENDBRANCH  62  79
ENDBRANCH  36  37
ENDBRANCH  28  31
ENDBRANCH  26  27
ENDBRANCH  25  26
ENDBRANCH   1  25
TORSDOF 13
