REMARK SMILES C[C@@H]1OCC[C@@H]1C(=O)Nc1ccc(C(=O)NCCCCNC(=O)c2ccc(-c3c4nc(c(-c5c(F)cccc5F)c5ccc([nH]5)c(-c5c(F)cccc5F)c5nc(c(-c6c(F)cccc6F)c6ccc3[nH]6)C=C5)C=C4)cc2)cc1F
REMARK SMILES IDX 18 1 17 2 16 3 14 4 15 5 13 7 10 8 11 9 79 10 12 11 78 12
REMARK SMILES IDX 80 13 9 14 7 15 8 16 6 18 1 19 2 20 3 21 4 22 5 23 19 24
REMARK SMILES IDX 20 25 21 26 22 27 23 29 24 30 25 31 77 32 26 33 76 34 27 35
REMARK SMILES IDX 28 36 29 37 70 38 30 39 75 40 69 41 71 42 31 43 74 44 68 45
REMARK SMILES IDX 67 46 32 48 58 49 41 50 57 51 42 52 45 53 56 54 72 55 43 56
REMARK SMILES IDX 44 57 55 59 73 60 46 61 33 62 34 63 39 64 35 65 36 66 38 67
REMARK SMILES IDX 40 68 37 69 59 70 60 71 65 72 61 73 62 74 64 75 66 76 63 77
REMARK SMILES IDX 47 78 48 79 53 80 49 81 50 82 52 83 54 84 51 85
REMARK H PARENT 16 6 9 17 21 28 71 47 45 58
REMARK Flexibility Score: inf
ROOT
ATOM      1  C   UNL     1       2.258  -3.186   4.707  1.00  0.00     0.023 C 
ENDROOT
BRANCH   1   2
ATOM      2  C   UNL     1       1.661  -2.226   5.752  1.00  0.00     0.116 C 
BRANCH   2   3
ATOM      3  N   UNL     1       2.667  -1.314   6.286  1.00  0.00    -0.352 N 
ATOM      4  C   UNL     1       3.143  -0.085   5.880  1.00  0.00     0.251 C 
ATOM      5  O   UNL     1       3.979   0.471   6.592  1.00  0.00    -0.269 OA
ATOM      6  H   UNL     1       3.097  -1.646   7.107  1.00  0.00     0.163 HD
BRANCH   4   7
ATOM      7  C   UNL     1       2.676   0.617   4.650  1.00  0.00     0.042 A 
ATOM      8  C   UNL     1       1.670   2.001   2.355  1.00  0.00     0.077 A 
ATOM      9  C   UNL     1       2.491   2.648   3.294  1.00  0.00     0.030 A 
ATOM     10  C   UNL     1       1.347   0.687   2.643  1.00  0.00     0.147 A 
ATOM     11  C   UNL     1       2.961   1.974   4.445  1.00  0.00     0.016 A 
ATOM     12  C   UNL     1       1.924  -0.011   3.684  1.00  0.00     0.055 A 
ATOM     13  F   UNL     1       0.404  -0.008   2.017  1.00  0.00    -0.205 F 
BRANCH   8  14
ATOM     14  N   UNL     1       1.294   2.722   1.200  1.00  0.00    -0.323 N 
ATOM     15  C   UNL     1       0.587   2.434   0.061  1.00  0.00     0.230 C 
ATOM     16  O   UNL     1       0.533   3.327  -0.793  1.00  0.00    -0.274 OA
ATOM     17  H   UNL     1       1.616   3.652   1.216  1.00  0.00     0.170 HD
BRANCH  15  18
ATOM     18  C   UNL     1      -0.133   1.122  -0.159  1.00  0.00     0.110 C 
ATOM     19  C   UNL     1       1.849   0.226  -1.573  1.00  0.00     0.039 C 
ATOM     20  C   UNL     1       0.723  -0.077  -0.594  1.00  0.00     0.127 C 
ATOM     21  O   UNL     1      -0.182  -1.004  -1.240  1.00  0.00    -0.378 OA
ATOM     22  C   UNL     1      -1.464  -0.369  -1.347  1.00  0.00     0.161 C 
ATOM     23  C   UNL     1      -1.194   1.117  -1.246  1.00  0.00     0.044 C 
ENDBRANCH  15  18
ENDBRANCH   8  14
ENDBRANCH   4   7
ENDBRANCH   2   3
ENDBRANCH   1   2
BRANCH   1  24
ATOM     24  C   UNL     1       2.805  -4.479   5.304  1.00  0.00     0.023 C 
BRANCH  24  25
ATOM     25  C   UNL     1       1.717  -5.427   5.785  1.00  0.00     0.116 C 
BRANCH  25  26
ATOM     26  N   UNL     1       0.938  -6.017   4.706  1.00  0.00    -0.352 N 
ATOM     27  C   UNL     1       0.250  -7.214   4.735  1.00  0.00     0.251 C 
ATOM     28  H   UNL     1       0.898  -5.508   3.865  1.00  0.00     0.163 HD
ATOM     29  O   UNL     1      -0.290  -7.660   3.740  1.00  0.00    -0.269 OA
BRANCH  27  30
ATOM     30  C   UNL     1       0.230  -7.971   6.006  1.00  0.00     0.039 A 
ATOM     31  C   UNL     1       0.688  -9.290   6.014  1.00  0.00     0.014 A 
ATOM     32  C   UNL     1      -0.161  -7.345   7.192  1.00  0.00     0.014 A 
ATOM     33  C   UNL     1       0.827  -9.960   7.231  1.00  0.00     0.010 A 
ATOM     34  C   UNL     1       0.044  -7.988   8.406  1.00  0.00     0.010 A 
ATOM     35  C   UNL     1       0.544  -9.299   8.438  1.00  0.00    -0.014 A 
BRANCH  35  36
ATOM     36  C   UNL     1       0.744  -9.954   9.753  1.00  0.00     0.031 A 
ATOM     37  C   UNL     1      -0.442 -10.212  10.639  1.00  0.00     0.074 A 
ATOM     38  C   UNL     1       1.989 -10.235  10.187  1.00  0.00     0.049 A 
ATOM     39  N   UNL     1      -0.473 -10.626  11.879  1.00  0.00    -0.248 NA
ATOM     40  C   UNL     1      -1.768  -9.940  10.061  1.00  0.00     0.031 C 
ATOM     41  C   UNL     1       3.222 -10.006   9.432  1.00  0.00     0.029 A 
ATOM     42  N   UNL     1       2.422 -10.760  11.379  1.00  0.00    -0.354 N 
ATOM     43  C   UNL     1      -1.814 -10.639  12.236  1.00  0.00     0.074 A 
ATOM     44  C   UNL     1      -2.564 -10.154  11.098  1.00  0.00     0.031 C 
ATOM     45  C   UNL     1       4.270 -10.407  10.171  1.00  0.00     0.029 A 
ATOM     46  C   UNL     1       3.788 -10.879  11.466  1.00  0.00     0.049 A 
ATOM     47  H   UNL     1       1.811 -11.026  12.103  1.00  0.00     0.167 HD
ATOM     48  C   UNL     1      -2.371 -11.038  13.402  1.00  0.00     0.037 A 
ATOM     49  C   UNL     1       4.563 -11.310  12.480  1.00  0.00     0.037 A 
ATOM     50  C   UNL     1      -1.627 -11.563  14.515  1.00  0.00     0.049 A 
ATOM     51  C   UNL     1       3.919 -11.751  13.765  1.00  0.00     0.074 A 
ATOM     52  C   UNL     1      -2.108 -12.038  15.722  1.00  0.00     0.029 A 
ATOM     53  N   UNL     1      -0.248 -11.694  14.550  1.00  0.00    -0.354 N 
ATOM     54  N   UNL     1       2.647 -11.782  14.080  1.00  0.00    -0.248 NA
ATOM     55  C   UNL     1       4.814 -12.216  14.835  1.00  0.00     0.031 C 
ATOM     56  C   UNL     1      -1.017 -12.434  16.500  1.00  0.00     0.029 A 
ATOM     57  C   UNL     1       0.140 -12.239  15.761  1.00  0.00     0.049 A 
ATOM     58  H   UNL     1       0.364 -11.439  13.822  1.00  0.00     0.167 HD
ATOM     59  C   UNL     1       2.587 -12.296  15.368  1.00  0.00     0.074 A 
ATOM     60  C   UNL     1       3.949 -12.565  15.778  1.00  0.00     0.031 C 
ATOM     61  C   UNL     1       1.498 -12.526  16.140  1.00  0.00     0.037 A 
BRANCH  48  62
ATOM     62  C   UNL     1      -3.861 -10.942  13.533  1.00  0.00     0.057 A 
ATOM     63  C   UNL     1      -4.445  -9.998  14.385  1.00  0.00     0.134 A 
ATOM     64  C   UNL     1      -4.714 -11.828  12.864  1.00  0.00     0.134 A 
ATOM     65  F   UNL     1      -3.682  -9.123  15.059  1.00  0.00    -0.206 F 
ATOM     66  C   UNL     1      -5.826  -9.946  14.577  1.00  0.00     0.040 A 
ATOM     67  C   UNL     1      -6.098 -11.771  13.029  1.00  0.00     0.040 A 
ATOM     68  F   UNL     1      -4.215 -12.747  12.023  1.00  0.00    -0.206 F 
ATOM     69  C   UNL     1      -6.657 -10.834  13.896  1.00  0.00     0.006 A 
ENDBRANCH  48  62
BRANCH  49  70
ATOM     70  C   UNL     1       6.036 -11.371  12.311  1.00  0.00     0.057 A 
ATOM     71  C   UNL     1       6.821 -10.213  12.265  1.00  0.00     0.134 A 
ATOM     72  C   UNL     1       6.692 -12.601  12.183  1.00  0.00     0.134 A 
ATOM     73  F   UNL     1       6.251  -9.004  12.375  1.00  0.00    -0.206 F 
ATOM     74  C   UNL     1       8.204 -10.275  12.088  1.00  0.00     0.040 A 
ATOM     75  C   UNL     1       8.077 -12.678  12.027  1.00  0.00     0.040 A 
ATOM     76  F   UNL     1       5.995 -13.745  12.238  1.00  0.00    -0.206 F 
ATOM     77  C   UNL     1       8.837 -11.511  11.974  1.00  0.00     0.006 A 
ENDBRANCH  49  70
BRANCH  61  78
ATOM     78  C   UNL     1       1.714 -13.139  17.490  1.00  0.00     0.057 A 
ATOM     79  C   UNL     1       1.353 -14.471  17.728  1.00  0.00     0.134 A 
ATOM     80  C   UNL     1       2.172 -12.384  18.575  1.00  0.00     0.134 A 
ATOM     81  F   UNL     1       0.897 -15.242  16.730  1.00  0.00    -0.206 F 
ATOM     82  C   UNL     1       1.422 -15.026  19.006  1.00  0.00     0.040 A 
ATOM     83  C   UNL     1       2.263 -12.934  19.855  1.00  0.00     0.040 A 
ATOM     84  F   UNL     1       2.539 -11.104  18.407  1.00  0.00    -0.206 F 
ATOM     85  C   UNL     1       1.876 -14.255  20.074  1.00  0.00     0.006 A 
ENDBRANCH  61  78
ENDBRANCH  35  36
ENDBRANCH  27  30
ENDBRANCH  25  26
ENDBRANCH  24  25
ENDBRANCH   1  24
TORSDOF 13
