REMARK SMILES C[C@@H]1C[N@@H+](Cc2cccc(C(=O)NCCCCNC(=O)c3ccc(-c4c5nc(c(-c6c(F)cccc6F)c6ccc([nH]6)c(-c6c(F)cccc6F)c6nc(c(-c7c(F)cccc7F)c7ccc4[nH]7)C=C6)C=C5)cc3)c2)CCN1C(=O)OC(C)(C)C
REMARK SMILES IDX 14 1 13 2 11 3 12 4 10 6 6 7 7 8 75 9 8 10 9 11 5 12 4 13
REMARK SMILES IDX 1 14 2 15 3 16 78 17 77 18 76 19 79 21 80 22 81 23 82 24
REMARK SMILES IDX 83 25 84 26 85 27 15 28 16 29 17 30 18 31 19 32 20 34 21 35
REMARK SMILES IDX 22 36 74 37 23 38 73 39 24 40 25 41 26 42 67 43 27 44 72 45
REMARK SMILES IDX 66 46 68 47 28 48 71 49 65 50 64 51 29 53 55 54 38 55 54 56
REMARK SMILES IDX 39 57 42 58 53 59 69 60 40 61 41 62 52 64 70 65 43 66 30 67
REMARK SMILES IDX 31 68 36 69 32 70 33 71 35 72 37 73 34 74 56 75 57 76 62 77
REMARK SMILES IDX 58 78 59 79 61 80 63 81 60 82 44 83 45 84 50 85 46 86 47 87
REMARK SMILES IDX 49 88 51 89 48 90
REMARK H PARENT 13 5 4 20 18 33 68 52 42 63
REMARK Flexibility Score: inf
ROOT
ATOM      1  C   UNL     1      -5.130   0.294   2.850  1.00  0.00     0.116 C 
ENDROOT
BRANCH   1   2
ATOM      2  N   UNL     1      -5.686  -0.507   3.917  1.00  0.00    -0.352 N 
ATOM      3  C   UNL     1      -5.356  -1.749   4.405  1.00  0.00     0.251 C 
ATOM      4  O   UNL     1      -5.963  -2.133   5.406  1.00  0.00    -0.269 OA
ATOM      5  H   UNL     1      -6.443  -0.083   4.382  1.00  0.00     0.163 HD
BRANCH   3   6
ATOM      6  C   UNL     1      -4.270  -2.611   3.839  1.00  0.00     0.040 A 
ATOM      7  C   UNL     1      -2.638  -3.244   2.123  1.00  0.00     0.007 A 
ATOM      8  C   UNL     1      -2.062  -4.153   3.018  1.00  0.00     0.009 A 
ATOM      9  C   UNL     1      -3.808  -2.562   2.520  1.00  0.00     0.023 A 
ATOM     10  C   UNL     1      -2.596  -4.318   4.295  1.00  0.00     0.001 A 
ATOM     11  C   UNL     1      -3.669  -3.527   4.713  1.00  0.00     0.014 A 
BRANCH   7  12
ATOM     12  C   UNL     1      -1.986  -2.970   0.775  1.00  0.00     0.299 C 
BRANCH  12  13
ATOM     13  N   UNL     1      -1.256  -1.688   0.624  1.00  0.00    -0.328 N 
ATOM     14  C   UNL     1       1.407  -0.063   0.042  1.00  0.00     0.037 C 
ATOM     15  C   UNL     1       0.660  -0.175   1.376  1.00  0.00     0.140 C 
ATOM     16  C   UNL     1      -0.074  -1.555   1.514  1.00  0.00     0.287 C 
ATOM     17  N   UNL     1      -0.319   0.921   1.507  1.00  0.00    -0.294 N 
ATOM     18  C   UNL     1      -1.445   0.833   0.586  1.00  0.00     0.185 C 
ATOM     19  C   UNL     1      -2.137  -0.519   0.782  1.00  0.00     0.284 C 
ATOM     20  H   UNL     1      -0.906  -1.711  -0.334  1.00  0.00     0.348 HD
BRANCH  17  21
ATOM     21  C   UNL     1      -0.360   1.842   2.541  1.00  0.00     0.410 C 
ATOM     22  O   UNL     1      -1.292   2.619   2.703  1.00  0.00    -0.224 OA
BRANCH  21  23
ATOM     23  O   UNL     1       0.736   1.790   3.345  1.00  0.00    -0.444 OA
BRANCH  23  24
ATOM     24  C   UNL     1       0.897   2.743   4.434  1.00  0.00     0.106 C 
ATOM     25  C   UNL     1       0.983   4.181   3.907  1.00  0.00     0.056 C 
ATOM     26  C   UNL     1      -0.200   2.592   5.496  1.00  0.00     0.056 C 
ATOM     27  C   UNL     1       2.245   2.388   5.084  1.00  0.00     0.056 C 
ENDBRANCH  23  24
ENDBRANCH  21  23
ENDBRANCH  17  21
ENDBRANCH  12  13
ENDBRANCH   7  12
ENDBRANCH   3   6
ENDBRANCH   1   2
BRANCH   1  28
ATOM     28  C   UNL     1      -5.968   0.187   1.576  1.00  0.00     0.023 C 
BRANCH  28  29
ATOM     29  C   UNL     1      -7.083   1.230   1.500  1.00  0.00     0.023 C 
BRANCH  29  30
ATOM     30  C   UNL     1      -6.592   2.672   1.415  1.00  0.00     0.116 C 
BRANCH  30  31
ATOM     31  N   UNL     1      -5.787   2.942   0.233  1.00  0.00    -0.352 N 
ATOM     32  C   UNL     1      -5.769   4.076  -0.545  1.00  0.00     0.251 C 
ATOM     33  H   UNL     1      -5.177   2.221  -0.045  1.00  0.00     0.163 HD
ATOM     34  O   UNL     1      -5.114   4.112  -1.580  1.00  0.00    -0.269 OA
BRANCH  32  35
ATOM     35  C   UNL     1      -6.596   5.231  -0.142  1.00  0.00     0.039 A 
ATOM     36  C   UNL     1      -7.451   5.806  -1.084  1.00  0.00     0.014 A 
ATOM     37  C   UNL     1      -6.580   5.694   1.177  1.00  0.00     0.014 A 
ATOM     38  C   UNL     1      -8.348   6.796  -0.680  1.00  0.00     0.010 A 
ATOM     39  C   UNL     1      -7.534   6.616   1.594  1.00  0.00     0.010 A 
ATOM     40  C   UNL     1      -8.431   7.174   0.671  1.00  0.00    -0.014 A 
BRANCH  40  41
ATOM     41  C   UNL     1      -9.468   8.133   1.130  1.00  0.00     0.031 A 
ATOM     42  C   UNL     1      -9.075   9.450   1.738  1.00  0.00     0.074 A 
ATOM     43  C   UNL     1     -10.769   7.791   1.046  1.00  0.00     0.049 A 
ATOM     44  N   UNL     1      -9.839  10.406   2.202  1.00  0.00    -0.248 NA
ATOM     45  C   UNL     1      -7.634   9.720   1.865  1.00  0.00     0.031 C 
ATOM     46  C   UNL     1     -11.277   6.514   0.537  1.00  0.00     0.029 A 
ATOM     47  N   UNL     1     -11.903   8.485   1.388  1.00  0.00    -0.354 N 
ATOM     48  C   UNL     1      -8.975  11.382   2.681  1.00  0.00     0.074 A 
ATOM     49  C   UNL     1      -7.631  10.877   2.509  1.00  0.00     0.031 C 
ATOM     50  C   UNL     1     -12.619   6.531   0.568  1.00  0.00     0.029 A 
ATOM     51  C   UNL     1     -13.066   7.798   1.136  1.00  0.00     0.049 A 
ATOM     52  H   UNL     1     -11.884   9.389   1.777  1.00  0.00     0.167 HD
ATOM     53  C   UNL     1      -9.274  12.599   3.194  1.00  0.00     0.037 A 
ATOM     54  C   UNL     1     -14.350   8.149   1.343  1.00  0.00     0.037 A 
ATOM     55  C   UNL     1     -10.614  13.102   3.352  1.00  0.00     0.049 A 
ATOM     56  C   UNL     1     -14.655   9.503   1.920  1.00  0.00     0.074 A 
ATOM     57  C   UNL     1     -11.019  14.348   3.798  1.00  0.00     0.029 A 
ATOM     58  N   UNL     1     -11.767  12.381   3.079  1.00  0.00    -0.354 N 
ATOM     59  N   UNL     1     -13.828  10.453   2.283  1.00  0.00    -0.248 NA
ATOM     60  C   UNL     1     -16.074   9.837   2.108  1.00  0.00     0.031 C 
ATOM     61  C   UNL     1     -12.416  14.359   3.854  1.00  0.00     0.029 A 
ATOM     62  C   UNL     1     -12.884  13.144   3.381  1.00  0.00     0.049 A 
ATOM     63  H   UNL     1     -11.789  11.463   2.724  1.00  0.00     0.167 HD
ATOM     64  C   UNL     1     -14.624  11.505   2.720  1.00  0.00     0.074 A 
ATOM     65  C   UNL     1     -15.999  11.083   2.555  1.00  0.00     0.031 C 
ATOM     66  C   UNL     1     -14.249  12.710   3.215  1.00  0.00     0.037 A 
BRANCH  53  67
ATOM     67  C   UNL     1      -8.128  13.470   3.625  1.00  0.00     0.057 A 
ATOM     68  C   UNL     1      -7.235  14.032   2.703  1.00  0.00     0.134 A 
ATOM     69  C   UNL     1      -7.935  13.779   4.978  1.00  0.00     0.134 A 
ATOM     70  F   UNL     1      -7.354  13.769   1.393  1.00  0.00    -0.206 F 
ATOM     71  C   UNL     1      -6.175  14.844   3.112  1.00  0.00     0.040 A 
ATOM     72  C   UNL     1      -6.898  14.615   5.396  1.00  0.00     0.040 A 
ATOM     73  F   UNL     1      -8.757  13.281   5.915  1.00  0.00    -0.206 F 
ATOM     74  C   UNL     1      -6.010  15.143   4.463  1.00  0.00     0.006 A 
ENDBRANCH  53  67
BRANCH  54  75
ATOM     75  C   UNL     1     -15.444   7.209   0.986  1.00  0.00     0.057 A 
ATOM     76  C   UNL     1     -16.319   7.482  -0.072  1.00  0.00     0.134 A 
ATOM     77  C   UNL     1     -15.645   6.019   1.696  1.00  0.00     0.134 A 
ATOM     78  F   UNL     1     -16.191   8.614  -0.780  1.00  0.00    -0.206 F 
ATOM     79  C   UNL     1     -17.367   6.618  -0.397  1.00  0.00     0.040 A 
ATOM     80  C   UNL     1     -16.670   5.132   1.363  1.00  0.00     0.040 A 
ATOM     81  F   UNL     1     -14.836   5.694   2.715  1.00  0.00    -0.206 F 
ATOM     82  C   UNL     1     -17.541   5.436   0.319  1.00  0.00     0.006 A 
ENDBRANCH  54  75
BRANCH  66  83
ATOM     83  C   UNL     1     -15.344  13.669   3.589  1.00  0.00     0.057 A 
ATOM     84  C   UNL     1     -16.174  13.452   4.696  1.00  0.00     0.134 A 
ATOM     85  C   UNL     1     -15.550  14.839   2.847  1.00  0.00     0.134 A 
ATOM     86  F   UNL     1     -16.039  12.345   5.442  1.00  0.00    -0.206 F 
ATOM     87  C   UNL     1     -17.190  14.349   5.033  1.00  0.00     0.040 A 
ATOM     88  C   UNL     1     -16.540  15.759   3.193  1.00  0.00     0.040 A 
ATOM     89  F   UNL     1     -14.783  15.115   1.781  1.00  0.00    -0.206 F 
ATOM     90  C   UNL     1     -17.370  15.511   4.284  1.00  0.00     0.006 A 
ENDBRANCH  66  83
ENDBRANCH  40  41
ENDBRANCH  32  35
ENDBRANCH  30  31
ENDBRANCH  29  30
ENDBRANCH  28  29
ENDBRANCH   1  28
TORSDOF 16
