REMARK SMILES COc1cc(OC)cc(-c2ccc([C@@H](C)C(=O)NCCCCNC(=O)c3ccc(-c4c5nc(c(-c6c(F)cccc6F)c6ccc([nH]6)c(-c6c(F)cccc6F)c6nc(c(-c7c(F)cccc7F)c7ccc4[nH]7)C=C6)C=C5)cc3)cc2F)c1
REMARK SMILES IDX 20 1 19 2 18 3 16 4 17 5 14 7 15 8 13 9 10 10 11 11 81 12
REMARK SMILES IDX 12 13 80 14 82 15 9 16 3 17 4 18 83 19 5 20 8 21 2 22 1 23
REMARK SMILES IDX 6 24 7 25 21 26 22 27 23 28 24 29 25 31 26 32 27 33 79 34
REMARK SMILES IDX 28 35 78 36 29 37 30 38 31 39 72 40 32 41 77 42 71 43 73 44
REMARK SMILES IDX 33 45 76 46 70 47 69 48 34 50 60 51 43 52 59 53 44 54 47 55
REMARK SMILES IDX 58 56 74 57 45 58 46 59 57 61 75 62 48 63 35 64 36 65 41 66
REMARK SMILES IDX 37 67 38 68 40 69 42 70 39 71 61 72 62 73 67 74 63 75 64 76
REMARK SMILES IDX 66 77 68 78 65 79 49 80 50 81 55 82 51 83 52 84 54 85 56 86
REMARK SMILES IDX 53 87
REMARK H PARENT 18 6 23 30 73 49 47 60
REMARK Flexibility Score: inf
ROOT
ATOM      1  C   UNL     1       6.124   6.058  -1.897  1.00  0.00     0.023 C 
ENDROOT
BRANCH   1   2
ATOM      2  C   UNL     1       7.511   6.161  -2.535  1.00  0.00     0.116 C 
BRANCH   2   3
ATOM      3  N   UNL     1       8.405   5.123  -2.066  1.00  0.00    -0.356 N 
ATOM      4  C   UNL     1       8.729   3.905  -2.582  1.00  0.00     0.227 C 
ATOM      5  O   UNL     1       9.482   3.204  -1.897  1.00  0.00    -0.274 OA
ATOM      6  H   UNL     1       8.861   5.337  -1.220  1.00  0.00     0.163 HD
BRANCH   4   7
ATOM      7  C   UNL     1       8.223   3.385  -3.938  1.00  0.00     0.105 C 
ATOM      8  C   UNL     1       8.679   4.227  -5.131  1.00  0.00     0.023 C 
BRANCH   7   9
ATOM      9  C   UNL     1       6.754   2.994  -3.920  1.00  0.00    -0.033 A 
ATOM     10  C   UNL     1       4.000   2.264  -3.634  1.00  0.00     0.018 A 
ATOM     11  C   UNL     1       4.389   3.542  -4.073  1.00  0.00     0.012 A 
ATOM     12  C   UNL     1       5.033   1.351  -3.381  1.00  0.00     0.131 A 
ATOM     13  C   UNL     1       5.733   3.883  -4.258  1.00  0.00     0.005 A 
ATOM     14  C   UNL     1       6.381   1.709  -3.499  1.00  0.00     0.044 A 
ATOM     15  F   UNL     1       4.753   0.091  -3.013  1.00  0.00    -0.206 F 
BRANCH  10  16
ATOM     16  C   UNL     1       2.564   1.936  -3.478  1.00  0.00    -0.008 A 
ATOM     17  C   UNL     1       0.716   0.856  -2.304  1.00  0.00     0.123 A 
ATOM     18  C   UNL     1      -0.185   1.384  -3.229  1.00  0.00     0.092 A 
ATOM     19  C   UNL     1       2.082   1.127  -2.432  1.00  0.00     0.055 A 
ATOM     20  C   UNL     1       0.258   2.194  -4.270  1.00  0.00     0.123 A 
ATOM     21  C   UNL     1       1.622   2.455  -4.391  1.00  0.00     0.055 A 
BRANCH  17  22
ATOM     22  O   UNL     1       0.159   0.048  -1.350  1.00  0.00    -0.497 OA
ATOM     23  C   UNL     1       0.804   0.054  -0.082  1.00  0.00     0.278 C 
ENDBRANCH  17  22
BRANCH  20  24
ATOM     24  O   UNL     1      -0.719   2.669  -5.102  1.00  0.00    -0.497 OA
ATOM     25  C   UNL     1      -0.294   3.482  -6.190  1.00  0.00     0.278 C 
ENDBRANCH  20  24
ENDBRANCH  10  16
ENDBRANCH   7   9
ENDBRANCH   4   7
ENDBRANCH   2   3
ENDBRANCH   1   2
BRANCH   1  26
ATOM     26  C   UNL     1       5.969   6.779  -0.560  1.00  0.00     0.023 C 
BRANCH  26  27
ATOM     27  C   UNL     1       6.205   8.282  -0.606  1.00  0.00     0.116 C 
BRANCH  27  28
ATOM     28  N   UNL     1       5.356   8.989  -1.552  1.00  0.00    -0.352 N 
ATOM     29  C   UNL     1       4.888  10.282  -1.478  1.00  0.00     0.251 C 
ATOM     30  H   UNL     1       5.081   8.478  -2.347  1.00  0.00     0.163 HD
ATOM     31  O   UNL     1       4.110  10.708  -2.319  1.00  0.00    -0.269 OA
BRANCH  29  32
ATOM     32  C   UNL     1       5.305  11.137  -0.344  1.00  0.00     0.039 A 
ATOM     33  C   UNL     1       4.331  11.866   0.342  1.00  0.00     0.014 A 
ATOM     34  C   UNL     1       6.641  11.194   0.058  1.00  0.00     0.014 A 
ATOM     35  C   UNL     1       4.693  12.609   1.467  1.00  0.00     0.010 A 
ATOM     36  C   UNL     1       6.983  11.859   1.230  1.00  0.00     0.010 A 
ATOM     37  C   UNL     1       6.017  12.589   1.936  1.00  0.00    -0.014 A 
BRANCH  37  38
ATOM     38  C   UNL     1       6.414  13.362   3.140  1.00  0.00     0.031 A 
ATOM     39  C   UNL     1       7.412  14.482   3.018  1.00  0.00     0.074 A 
ATOM     40  C   UNL     1       5.915  13.026   4.345  1.00  0.00     0.049 A 
ATOM     41  N   UNL     1       7.900  15.260   3.950  1.00  0.00    -0.248 NA
ATOM     42  C   UNL     1       7.963  14.741   1.677  1.00  0.00     0.031 C 
ATOM     43  C   UNL     1       5.001  11.912   4.606  1.00  0.00     0.029 A 
ATOM     44  N   UNL     1       6.113  13.588   5.581  1.00  0.00    -0.354 N 
ATOM     45  C   UNL     1       8.824  16.080   3.313  1.00  0.00     0.074 A 
ATOM     46  C   UNL     1       8.875  15.667   1.929  1.00  0.00     0.031 C 
ATOM     47  C   UNL     1       4.695  11.891   5.914  1.00  0.00     0.029 A 
ATOM     48  C   UNL     1       5.407  12.973   6.587  1.00  0.00     0.049 A 
ATOM     49  H   UNL     1       6.704  14.360   5.733  1.00  0.00     0.167 HD
ATOM     50  C   UNL     1       9.542  17.105   3.828  1.00  0.00     0.037 A 
ATOM     51  C   UNL     1       5.339  13.256   7.901  1.00  0.00     0.037 A 
ATOM     52  C   UNL     1       9.453  17.546   5.194  1.00  0.00     0.049 A 
ATOM     53  C   UNL     1       6.102  14.438   8.434  1.00  0.00     0.074 A 
ATOM     54  C   UNL     1      10.078  18.623   5.796  1.00  0.00     0.029 A 
ATOM     55  N   UNL     1       8.682  16.932   6.170  1.00  0.00    -0.354 N 
ATOM     56  N   UNL     1       6.902  15.261   7.800  1.00  0.00    -0.248 NA
ATOM     57  C   UNL     1       5.936  14.743   9.862  1.00  0.00     0.031 C 
ATOM     58  C   UNL     1       9.715  18.640   7.146  1.00  0.00     0.029 A 
ATOM     59  C   UNL     1       8.826  17.601   7.373  1.00  0.00     0.049 A 
ATOM     60  H   UNL     1       8.117  16.139   6.028  1.00  0.00     0.167 HD
ATOM     61  C   UNL     1       7.308  16.198   8.742  1.00  0.00     0.074 A 
ATOM     62  C   UNL     1       6.649  15.852   9.985  1.00  0.00     0.031 C 
ATOM     63  C   UNL     1       8.152  17.249   8.596  1.00  0.00     0.037 A 
BRANCH  50  64
ATOM     64  C   UNL     1      10.475  17.833   2.904  1.00  0.00     0.057 A 
ATOM     65  C   UNL     1      10.002  18.663   1.878  1.00  0.00     0.134 A 
ATOM     66  C   UNL     1      11.862  17.736   3.067  1.00  0.00     0.134 A 
ATOM     67  F   UNL     1       8.684  18.788   1.658  1.00  0.00    -0.206 F 
ATOM     68  C   UNL     1      10.875  19.351   1.034  1.00  0.00     0.040 A 
ATOM     69  C   UNL     1      12.745  18.441   2.247  1.00  0.00     0.040 A 
ATOM     70  F   UNL     1      12.382  16.962   4.031  1.00  0.00    -0.206 F 
ATOM     71  C   UNL     1      12.251  19.248   1.223  1.00  0.00     0.006 A 
ENDBRANCH  50  64
BRANCH  51  72
ATOM     72  C   UNL     1       4.490  12.436   8.803  1.00  0.00     0.057 A 
ATOM     73  C   UNL     1       3.323  12.959   9.374  1.00  0.00     0.134 A 
ATOM     74  C   UNL     1       4.839  11.123   9.139  1.00  0.00     0.134 A 
ATOM     75  F   UNL     1       2.945  14.217   9.104  1.00  0.00    -0.206 F 
ATOM     76  C   UNL     1       2.553  12.220  10.273  1.00  0.00     0.040 A 
ATOM     77  C   UNL     1       4.063  10.362  10.015  1.00  0.00     0.040 A 
ATOM     78  F   UNL     1       5.938  10.559   8.617  1.00  0.00    -0.206 F 
ATOM     79  C   UNL     1       2.922  10.915  10.594  1.00  0.00     0.006 A 
ENDBRANCH  51  72
BRANCH  63  80
ATOM     80  C   UNL     1       8.370  18.121   9.797  1.00  0.00     0.057 A 
ATOM     81  C   UNL     1       9.101  17.684  10.909  1.00  0.00     0.134 A 
ATOM     82  C   UNL     1       7.854  19.423   9.832  1.00  0.00     0.134 A 
ATOM     83  F   UNL     1       9.613  16.444  10.941  1.00  0.00    -0.206 F 
ATOM     84  C   UNL     1       9.280  18.497  12.028  1.00  0.00     0.040 A 
ATOM     85  C   UNL     1       8.051  20.256  10.934  1.00  0.00     0.040 A 
ATOM     86  F   UNL     1       7.155  19.908   8.795  1.00  0.00    -0.206 F 
ATOM     87  C   UNL     1       8.758  19.789  12.041  1.00  0.00     0.006 A 
ENDBRANCH  63  80
ENDBRANCH  37  38
ENDBRANCH  29  32
ENDBRANCH  27  28
ENDBRANCH  26  27
ENDBRANCH   1  26
TORSDOF 15
