REMARK SMILES Cc1ccccc1/[NH+]=C1\S[C@@H](CC(=O)Nc2ccc(C(=O)NCCCCNC(=O)c3ccc(-c4c5nc(c(-c6c(F)cccc6F)c6ccc([nH]6)c(-c6c(F)cccc6F)c6nc(c(-c7c(F)cccc7F)c7ccc4[nH]7)C=C6)C=C5)cc3)cc2)C(=O)N1C
REMARK SMILES IDX 23 1 22 2 20 3 21 4 19 6 16 7 17 8 85 9 18 10 84 11 15 12
REMARK SMILES IDX 13 13 14 14 12 16 11 17 8 18 9 19 10 21 88 22 86 23 89 24
REMARK SMILES IDX 87 25 7 26 1 27 2 28 3 29 4 30 6 31 5 32 24 33 25 34 26 35
REMARK SMILES IDX 27 36 28 37 29 39 30 40 31 41 83 42 32 43 82 44 33 45 34 46
REMARK SMILES IDX 35 47 76 48 36 49 81 50 75 51 77 52 37 53 80 54 74 55 73 56
REMARK SMILES IDX 38 58 64 59 47 60 63 61 48 62 51 63 62 64 78 65 49 66 50 67
REMARK SMILES IDX 61 69 79 70 52 71 39 72 40 73 45 74 41 75 42 76 44 77 46 78
REMARK SMILES IDX 43 79 65 80 66 81 71 82 67 83 68 84 70 85 72 86 69 87 53 88
REMARK SMILES IDX 54 89 59 90 55 91 56 92 58 93 60 94 57 95
REMARK H PARENT 22 5 15 15 8 20 27 38 77 57 51 68
REMARK Flexibility Score: inf
ROOT
ATOM      1  C   UNL     1       2.803   5.598  -2.783  1.00  0.00     0.116 C 
ENDROOT
BRANCH   1   2
ATOM      2  N   UNL     1       3.943   6.285  -3.386  1.00  0.00    -0.352 N 
ATOM      3  C   UNL     1       5.308   6.210  -3.204  1.00  0.00     0.251 C 
ATOM      4  O   UNL     1       6.022   6.763  -4.043  1.00  0.00    -0.269 OA
ATOM      5  H   UNL     1       3.679   6.942  -4.071  1.00  0.00     0.163 HD
BRANCH   3   6
ATOM      6  C   UNL     1       5.968   5.510  -2.066  1.00  0.00     0.039 A 
ATOM      7  C   UNL     1       7.266   4.116   0.017  1.00  0.00     0.041 A 
ATOM      8  C   UNL     1       5.965   4.578   0.145  1.00  0.00     0.027 A 
ATOM      9  C   UNL     1       8.000   4.516  -1.088  1.00  0.00     0.027 A 
ATOM     10  C   UNL     1       5.309   5.240  -0.882  1.00  0.00     0.016 A 
ATOM     11  C   UNL     1       7.344   5.199  -2.133  1.00  0.00     0.016 A 
BRANCH   7  12
ATOM     12  N   UNL     1       7.807   3.284   1.010  1.00  0.00    -0.326 N 
ATOM     13  C   UNL     1       7.165   2.220   1.615  1.00  0.00     0.226 C 
ATOM     14  O   UNL     1       7.588   1.739   2.666  1.00  0.00    -0.275 OA
ATOM     15  H   UNL     1       8.728   3.477   1.301  1.00  0.00     0.169 HD
BRANCH  13  16
ATOM     16  C   UNL     1       6.070   1.520   0.825  1.00  0.00     0.128 C 
BRANCH  16  17
ATOM     17  C   UNL     1       4.683   1.524   1.429  1.00  0.00     0.183 C 
ATOM     18  N   UNL     1       1.063   1.669   1.413  1.00  0.00    -0.234 N 
ATOM     19  C   UNL     1       2.260   1.985   1.075  1.00  0.00     0.319 C 
ATOM     20  H   UNL     1       0.615   2.320   2.001  1.00  0.00     0.313 HD
ATOM     21  S   UNL     1       3.454   1.206   0.099  1.00  0.00    -0.022 SA
ATOM     22  N   UNL     1       2.869   3.074   1.613  1.00  0.00    -0.193 N 
ATOM     23  C   UNL     1       4.149   2.808   2.062  1.00  0.00     0.324 C 
ATOM     24  C   UNL     1       2.200   4.327   1.886  1.00  0.00     0.301 C 
ATOM     25  O   UNL     1       4.729   3.456   2.907  1.00  0.00    -0.245 OA
BRANCH  18  26
ATOM     26  C   UNL     1       0.288   0.545   1.080  1.00  0.00     0.128 A 
ATOM     27  C   UNL     1       2.054  -1.352   0.950  1.00  0.00     0.049 C 
ATOM     28  C   UNL     1       0.670  -0.786   0.825  1.00  0.00    -0.004 A 
ATOM     29  C   UNL     1      -0.312  -1.727   0.437  1.00  0.00     0.008 A 
ATOM     30  C   UNL     1      -1.665  -1.407   0.420  1.00  0.00     0.001 A 
ATOM     31  C   UNL     1      -1.096   0.814   1.122  1.00  0.00     0.052 A 
ATOM     32  C   UNL     1      -2.063  -0.137   0.796  1.00  0.00     0.004 A 
ENDBRANCH  18  26
ENDBRANCH  16  17
ENDBRANCH  13  16
ENDBRANCH   7  12
ENDBRANCH   3   6
ENDBRANCH   1   2
BRANCH   1  33
ATOM     33  C   UNL     1       2.034   6.450  -1.751  1.00  0.00     0.023 C 
BRANCH  33  34
ATOM     34  C   UNL     1       1.242   7.636  -2.313  1.00  0.00     0.023 C 
BRANCH  34  35
ATOM     35  C   UNL     1       0.036   7.247  -3.160  1.00  0.00     0.116 C 
BRANCH  35  36
ATOM     36  N   UNL     1      -1.277   7.399  -2.534  1.00  0.00    -0.352 N 
ATOM     37  C   UNL     1      -2.524   7.056  -3.048  1.00  0.00     0.251 C 
ATOM     38  H   UNL     1      -1.279   7.795  -1.633  1.00  0.00     0.163 HD
ATOM     39  O   UNL     1      -3.541   7.248  -2.389  1.00  0.00    -0.269 OA
BRANCH  37  40
ATOM     40  C   UNL     1      -2.601   6.309  -4.331  1.00  0.00     0.039 A 
ATOM     41  C   UNL     1      -3.357   5.132  -4.357  1.00  0.00     0.014 A 
ATOM     42  C   UNL     1      -1.689   6.573  -5.344  1.00  0.00     0.014 A 
ATOM     43  C   UNL     1      -2.945   4.087  -5.178  1.00  0.00     0.010 A 
ATOM     44  C   UNL     1      -1.190   5.508  -6.058  1.00  0.00     0.010 A 
ATOM     45  C   UNL     1      -1.773   4.249  -5.915  1.00  0.00    -0.014 A 
BRANCH  45  46
ATOM     46  C   UNL     1      -1.096   3.163  -6.602  1.00  0.00     0.031 A 
ATOM     47  C   UNL     1      -1.414   2.930  -8.012  1.00  0.00     0.074 A 
ATOM     48  C   UNL     1      -0.136   2.444  -5.983  1.00  0.00     0.049 A 
ATOM     49  N   UNL     1      -1.351   1.789  -8.599  1.00  0.00    -0.248 NA
ATOM     50  C   UNL     1      -1.854   4.013  -8.879  1.00  0.00     0.031 C 
ATOM     51  C   UNL     1       0.728   1.407  -6.537  1.00  0.00     0.029 A 
ATOM     52  N   UNL     1       0.056   2.337  -4.608  1.00  0.00    -0.354 N 
ATOM     53  C   UNL     1      -1.386   2.036  -9.952  1.00  0.00     0.074 A 
ATOM     54  C   UNL     1      -1.808   3.412 -10.069  1.00  0.00     0.031 C 
ATOM     55  C   UNL     1       1.043   0.543  -5.554  1.00  0.00     0.029 A 
ATOM     56  C   UNL     1       0.310   0.966  -4.375  1.00  0.00     0.049 A 
ATOM     57  H   UNL     1       0.022   3.061  -3.941  1.00  0.00     0.167 HD
ATOM     58  C   UNL     1      -0.865   1.100 -10.798  1.00  0.00     0.037 A 
ATOM     59  C   UNL     1      -0.573   0.221  -3.646  1.00  0.00     0.037 A 
ATOM     60  C   UNL     1      -0.489  -0.112 -10.060  1.00  0.00     0.049 A 
ATOM     61  C   UNL     1      -1.132  -0.930  -4.447  1.00  0.00     0.074 A 
ATOM     62  C   UNL     1       0.727  -0.569  -9.573  1.00  0.00     0.029 A 
ATOM     63  N   UNL     1      -1.472  -0.848  -9.397  1.00  0.00    -0.354 N 
ATOM     64  N   UNL     1      -1.153  -0.941  -5.753  1.00  0.00    -0.248 NA
ATOM     65  C   UNL     1      -1.679  -2.156  -3.871  1.00  0.00     0.031 C 
ATOM     66  C   UNL     1       0.466  -1.503  -8.540  1.00  0.00     0.029 A 
ATOM     67  C   UNL     1      -0.906  -1.635  -8.410  1.00  0.00     0.049 A 
ATOM     68  H   UNL     1      -2.434  -0.811  -9.603  1.00  0.00     0.167 HD
ATOM     69  C   UNL     1      -1.651  -2.135  -6.194  1.00  0.00     0.074 A 
ATOM     70  C   UNL     1      -1.981  -2.859  -4.978  1.00  0.00     0.031 C 
ATOM     71  C   UNL     1      -1.727  -2.446  -7.521  1.00  0.00     0.037 A 
BRANCH  58  72
ATOM     72  C   UNL     1      -0.373   1.450 -12.188  1.00  0.00     0.057 A 
ATOM     73  C   UNL     1       0.737   0.790 -12.753  1.00  0.00     0.134 A 
ATOM     74  C   UNL     1      -0.898   2.476 -12.995  1.00  0.00     0.134 A 
ATOM     75  F   UNL     1       1.291  -0.282 -12.174  1.00  0.00    -0.206 F 
ATOM     76  C   UNL     1       1.342   1.197 -13.950  1.00  0.00     0.040 A 
ATOM     77  C   UNL     1      -0.271   2.932 -14.164  1.00  0.00     0.040 A 
ATOM     78  F   UNL     1      -2.077   3.047 -12.723  1.00  0.00    -0.206 F 
ATOM     79  C   UNL     1       0.864   2.298 -14.642  1.00  0.00     0.006 A 
ENDBRANCH  58  72
BRANCH  59  80
ATOM     80  C   UNL     1      -1.288   1.062  -2.639  1.00  0.00     0.057 A 
ATOM     81  C   UNL     1      -0.490   1.916  -1.841  1.00  0.00     0.134 A 
ATOM     82  C   UNL     1      -2.646   1.365  -2.706  1.00  0.00     0.134 A 
ATOM     83  F   UNL     1       0.831   1.693  -1.736  1.00  0.00    -0.206 F 
ATOM     84  C   UNL     1      -0.975   3.101  -1.289  1.00  0.00     0.040 A 
ATOM     85  C   UNL     1      -3.155   2.532  -2.112  1.00  0.00     0.040 A 
ATOM     86  F   UNL     1      -3.484   0.618  -3.437  1.00  0.00    -0.206 F 
ATOM     87  C   UNL     1      -2.311   3.428  -1.450  1.00  0.00     0.006 A 
ENDBRANCH  59  80
BRANCH  71  88
ATOM     88  C   UNL     1      -2.469  -3.628  -8.081  1.00  0.00     0.057 A 
ATOM     89  C   UNL     1      -3.629  -4.161  -7.501  1.00  0.00     0.134 A 
ATOM     90  C   UNL     1      -2.102  -4.186  -9.324  1.00  0.00     0.134 A 
ATOM     91  F   UNL     1      -4.158  -3.636  -6.386  1.00  0.00    -0.206 F 
ATOM     92  C   UNL     1      -4.327  -5.230  -8.073  1.00  0.00     0.040 A 
ATOM     93  C   UNL     1      -2.822  -5.218  -9.930  1.00  0.00     0.040 A 
ATOM     94  F   UNL     1      -1.041  -3.739 -10.012  1.00  0.00    -0.206 F 
ATOM     95  C   UNL     1      -3.928  -5.760  -9.293  1.00  0.00     0.006 A 
ENDBRANCH  71  88
ENDBRANCH  45  46
ENDBRANCH  37  40
ENDBRANCH  35  36
ENDBRANCH  34  35
ENDBRANCH  33  34
ENDBRANCH   1  33
TORSDOF 15
