REMARK SMILES C[NH+](C)CCCNC(=O)[C@@H]1[C@@H](C(=O)NCCCCNC(=O)c2ccc(-c3c4nc(c(-c5c(F)cccc5F)c5ccc([nH]5)c(-c5c(F)cccc5F)c5nc(c(-c6c(F)cccc6F)c6ccc3[nH]6)C=C5)C=C4)cc2)C1(C)C
REMARK SMILES IDX 15 1 14 2 12 3 13 4 11 6 10 7 76 8 77 9 78 10 8 11 7 12 9 14
REMARK SMILES IDX 6 15 5 16 4 17 2 18 1 19 3 20 16 22 17 23 18 24 19 25 20 26
REMARK SMILES IDX 21 28 22 29 23 30 75 31 24 32 74 33 25 34 26 35 27 36 68 37
REMARK SMILES IDX 28 38 73 39 67 40 69 41 29 42 72 43 66 44 65 45 30 47 56 48
REMARK SMILES IDX 39 49 55 50 40 51 43 52 54 53 70 54 41 55 42 56 53 58 71 59
REMARK SMILES IDX 44 60 31 61 32 62 37 63 33 64 34 65 36 66 38 67 35 68 57 69
REMARK SMILES IDX 58 70 63 71 59 72 60 73 62 74 64 75 61 76 45 77 46 78 51 79
REMARK SMILES IDX 47 80 48 81 50 82 52 83 49 84
REMARK H PARENT 14 5 7 13 2 21 19 27 69 46 43 57
REMARK Flexibility Score: inf
ROOT
ATOM      1  C   UNL     1       4.786   3.208   2.856  1.00  0.00     0.116 C 
ENDROOT
BRANCH   1   2
ATOM      2  N   UNL     1       3.635   3.289   3.724  1.00  0.00    -0.356 N 
ATOM      3  C   UNL     1       2.514   4.063   3.748  1.00  0.00     0.224 C 
ATOM      4  O   UNL     1       1.833   3.994   4.772  1.00  0.00    -0.275 OA
ATOM      5  H   UNL     1       3.668   2.641   4.464  1.00  0.00     0.163 HD
BRANCH   3   6
ATOM      6  C   UNL     1       2.019   4.942   2.665  1.00  0.00     0.098 C 
ATOM      7  C   UNL     1       2.449   5.126   1.238  1.00  0.00     0.098 C 
ATOM      8  C   UNL     1       2.699   6.243   2.259  1.00  0.00    -0.011 C 
ATOM      9  C   UNL     1       4.141   6.535   2.587  1.00  0.00     0.013 C 
ATOM     10  C   UNL     1       1.814   7.459   2.386  1.00  0.00     0.013 C 
BRANCH   7  11
ATOM     11  C   UNL     1       1.412   5.196   0.179  1.00  0.00     0.224 C 
ATOM     12  N   UNL     1       1.575   6.099  -0.834  1.00  0.00    -0.356 N 
ATOM     13  H   UNL     1       0.966   6.010  -1.603  1.00  0.00     0.163 HD
ATOM     14  O   UNL     1       0.470   4.412   0.179  1.00  0.00    -0.275 OA
BRANCH  12  15
ATOM     15  C   UNL     1       2.545   7.171  -0.902  1.00  0.00     0.121 C 
BRANCH  15  16
ATOM     16  C   UNL     1       2.883   7.625  -2.313  1.00  0.00     0.083 C 
BRANCH  16  17
ATOM     17  C   UNL     1       1.714   8.081  -3.198  1.00  0.00     0.263 C 
BRANCH  17  18
ATOM     18  N   UNL     1       0.857   9.189  -2.774  1.00  0.00    -0.340 N 
ATOM     19  C   UNL     1      -0.221   8.818  -1.867  1.00  0.00     0.332 C 
ATOM     20  C   UNL     1       1.575  10.370  -2.317  1.00  0.00     0.332 C 
ATOM     21  H   UNL     1       0.400   9.459  -3.646  1.00  0.00     0.347 HD
ENDBRANCH  17  18
ENDBRANCH  16  17
ENDBRANCH  15  16
ENDBRANCH  12  15
ENDBRANCH   7  11
ENDBRANCH   3   6
ENDBRANCH   1   2
BRANCH   1  22
ATOM     22  C   UNL     1       6.032   3.758   3.550  1.00  0.00     0.023 C 
BRANCH  22  23
ATOM     23  C   UNL     1       6.578   2.882   4.677  1.00  0.00     0.023 C 
BRANCH  23  24
ATOM     24  C   UNL     1       6.916   1.454   4.272  1.00  0.00     0.116 C 
BRANCH  24  25
ATOM     25  N   UNL     1       7.821   1.383   3.134  1.00  0.00    -0.352 N 
ATOM     26  C   UNL     1       8.886   0.543   2.929  1.00  0.00     0.251 C 
ATOM     27  H   UNL     1       7.643   2.027   2.411  1.00  0.00     0.163 HD
ATOM     28  O   UNL     1       9.618   0.702   1.957  1.00  0.00    -0.269 OA
BRANCH  26  29
ATOM     29  C   UNL     1       9.168  -0.528   3.905  1.00  0.00     0.039 A 
ATOM     30  C   UNL     1      10.483  -0.712   4.338  1.00  0.00     0.014 A 
ATOM     31  C   UNL     1       8.140  -1.329   4.407  1.00  0.00     0.014 A 
ATOM     32  C   UNL     1      10.756  -1.662   5.323  1.00  0.00     0.010 A 
ATOM     33  C   UNL     1       8.400  -2.215   5.447  1.00  0.00     0.010 A 
ATOM     34  C   UNL     1       9.712  -2.398   5.908  1.00  0.00    -0.014 A 
BRANCH  34  35
ATOM     35  C   UNL     1       9.981  -3.370   6.995  1.00  0.00     0.031 A 
ATOM     36  C   UNL     1       9.701  -4.834   6.785  1.00  0.00     0.074 A 
ATOM     37  C   UNL     1      10.419  -2.927   8.190  1.00  0.00     0.049 A 
ATOM     38  N   UNL     1       9.844  -5.829   7.622  1.00  0.00    -0.248 NA
ATOM     39  C   UNL     1       9.159  -5.228   5.474  1.00  0.00     0.031 C 
ATOM     40  C   UNL     1      10.650  -1.524   8.543  1.00  0.00     0.029 A 
ATOM     41  N   UNL     1      10.742  -3.613   9.333  1.00  0.00    -0.354 N 
ATOM     42  C   UNL     1       9.384  -6.956   6.951  1.00  0.00     0.074 A 
ATOM     43  C   UNL     1       8.916  -6.517   5.655  1.00  0.00     0.031 C 
ATOM     44  C   UNL     1      11.099  -1.456   9.807  1.00  0.00     0.029 A 
ATOM     45  C   UNL     1      11.167  -2.805  10.360  1.00  0.00     0.049 A 
ATOM     46  H   UNL     1      10.675  -4.592   9.411  1.00  0.00     0.167 HD
ATOM     47  C   UNL     1       9.376  -8.243   7.369  1.00  0.00     0.037 A 
ATOM     48  C   UNL     1      11.572  -3.120  11.604  1.00  0.00     0.037 A 
ATOM     49  C   UNL     1       9.896  -8.684   8.635  1.00  0.00     0.049 A 
ATOM     50  C   UNL     1      11.623  -4.567  12.011  1.00  0.00     0.074 A 
ATOM     51  C   UNL     1      10.020  -9.977   9.113  1.00  0.00     0.029 A 
ATOM     52  N   UNL     1      10.384  -7.842   9.622  1.00  0.00    -0.354 N 
ATOM     53  N   UNL     1      11.279  -5.631  11.329  1.00  0.00    -0.248 NA
ATOM     54  C   UNL     1      12.140  -4.857  13.357  1.00  0.00     0.031 C 
ATOM     55  C   UNL     1      10.556  -9.916  10.404  1.00  0.00     0.029 A 
ATOM     56  C   UNL     1      10.801  -8.587  10.712  1.00  0.00     0.049 A 
ATOM     57  H   UNL     1      10.428  -6.861   9.557  1.00  0.00     0.167 HD
ATOM     58  C   UNL     1      11.565  -6.716  12.146  1.00  0.00     0.074 A 
ATOM     59  C   UNL     1      12.129  -6.182  13.368  1.00  0.00     0.031 C 
ATOM     60  C   UNL     1      11.376  -8.037  11.911  1.00  0.00     0.037 A 
BRANCH  47  61
ATOM     61  C   UNL     1       8.805  -9.275   6.442  1.00  0.00     0.057 A 
ATOM     62  C   UNL     1       9.477  -9.678   5.281  1.00  0.00     0.134 A 
ATOM     63  C   UNL     1       7.596  -9.913   6.744  1.00  0.00     0.134 A 
ATOM     64  F   UNL     1      10.633  -9.096   4.928  1.00  0.00    -0.206 F 
ATOM     65  C   UNL     1       8.960 -10.670   4.446  1.00  0.00     0.040 A 
ATOM     66  C   UNL     1       7.080 -10.923   5.929  1.00  0.00     0.040 A 
ATOM     67  F   UNL     1       6.903  -9.576   7.842  1.00  0.00    -0.206 F 
ATOM     68  C   UNL     1       7.763 -11.301   4.775  1.00  0.00     0.006 A 
ENDBRANCH  47  61
BRANCH  48  69
ATOM     69  C   UNL     1      11.997  -2.057  12.549  1.00  0.00     0.057 A 
ATOM     70  C   UNL     1      13.338  -1.917  12.925  1.00  0.00     0.134 A 
ATOM     71  C   UNL     1      11.071  -1.181  13.126  1.00  0.00     0.134 A 
ATOM     72  F   UNL     1      14.270  -2.739  12.418  1.00  0.00    -0.206 F 
ATOM     73  C   UNL     1      13.740  -0.969  13.866  1.00  0.00     0.040 A 
ATOM     74  C   UNL     1      11.462  -0.210  14.050  1.00  0.00     0.040 A 
ATOM     75  F   UNL     1       9.773  -1.255  12.799  1.00  0.00    -0.206 F 
ATOM     76  C   UNL     1      12.799  -0.110  14.431  1.00  0.00     0.006 A 
ENDBRANCH  48  69
BRANCH  60  77
ATOM     77  C   UNL     1      11.826  -8.990  12.977  1.00  0.00     0.057 A 
ATOM     78  C   UNL     1      11.138  -9.123  14.189  1.00  0.00     0.134 A 
ATOM     79  C   UNL     1      12.955  -9.796  12.780  1.00  0.00     0.134 A 
ATOM     80  F   UNL     1      10.056  -8.371  14.443  1.00  0.00    -0.206 F 
ATOM     81  C   UNL     1      11.575 -10.001  15.182  1.00  0.00     0.040 A 
ATOM     82  C   UNL     1      13.386 -10.696  13.754  1.00  0.00     0.040 A 
ATOM     83  F   UNL     1      13.652  -9.724  11.636  1.00  0.00    -0.206 F 
ATOM     84  C   UNL     1      12.701 -10.794  14.963  1.00  0.00     0.006 A 
ENDBRANCH  60  77
ENDBRANCH  34  35
ENDBRANCH  26  29
ENDBRANCH  24  25
ENDBRANCH  23  24
ENDBRANCH  22  23
ENDBRANCH   1  22
TORSDOF 16
