REMARK SMILES CC[C@@H](NC(=O)NC1(CC(=O)NCCCCNC(=O)c2ccc(-c3c4nc(c(-c5c(F)cccc5F)c5ccc([nH]5)c(-c5c(F)cccc5F)c5nc(c(-c6c(F)cccc6F)c6ccc3[nH]6)C=C5)C=C4)cc2)CCC1)C(C)C
REMARK SMILES IDX 13 1 12 2 10 3 11 4 9 6 8 7 74 8 76 9 75 10 7 11 4 12 5 13
REMARK SMILES IDX 6 15 3 17 2 18 1 19 77 20 78 21 79 22 14 23 15 24 16 25
REMARK SMILES IDX 17 26 18 27 19 29 20 30 21 31 73 32 22 33 72 34 23 35 24 36
REMARK SMILES IDX 25 37 66 38 26 39 71 40 65 41 67 42 27 43 70 44 64 45 63 46
REMARK SMILES IDX 28 48 54 49 37 50 53 51 38 52 41 53 52 54 68 55 39 56 40 57
REMARK SMILES IDX 51 59 69 60 42 61 29 62 30 63 35 64 31 65 32 66 34 67 36 68
REMARK SMILES IDX 33 69 55 70 56 71 61 72 57 73 58 74 60 75 62 76 59 77 43 78
REMARK SMILES IDX 44 79 49 80 45 81 46 82 48 83 50 84 47 85
REMARK H PARENT 12 5 4 14 7 16 17 28 67 47 41 58
REMARK Flexibility Score: inf
ROOT
ATOM      1  C   UNL     1      -0.633  -0.532  -1.042  1.00  0.00     0.116 C 
ENDROOT
BRANCH   1   2
ATOM      2  N   UNL     1      -0.529  -1.288  -2.318  1.00  0.00    -0.356 N 
ATOM      3  C   UNL     1      -0.071  -1.259  -3.596  1.00  0.00     0.222 C 
ATOM      4  O   UNL     1       0.059  -2.426  -4.029  1.00  0.00    -0.275 OA
ATOM      5  H   UNL     1      -0.968  -2.159  -2.183  1.00  0.00     0.163 HD
BRANCH   3   6
ATOM      6  C   UNL     1       0.378  -0.137  -4.598  1.00  0.00     0.128 C 
BRANCH   6   7
ATOM      7  C   UNL     1      -0.538   1.055  -5.012  1.00  0.00     0.051 C 
ATOM      8  C   UNL     1      -0.738   0.882  -6.599  1.00  0.00     0.029 C 
ATOM      9  C   UNL     1      -0.788   2.639  -5.518  1.00  0.00     0.029 C 
ATOM     10  C   UNL     1      -0.189   2.314  -6.840  1.00  0.00     0.005 C 
BRANCH   7  11
ATOM     11  N   UNL     1      -1.575   1.079  -3.991  1.00  0.00    -0.332 N 
ATOM     12  N   UNL     1      -0.363   2.371  -2.361  1.00  0.00    -0.335 N 
ATOM     13  C   UNL     1      -1.529   1.934  -2.933  1.00  0.00     0.315 C 
ATOM     14  H   UNL     1      -0.553   2.989  -1.618  1.00  0.00     0.165 HD
ATOM     15  O   UNL     1      -2.602   2.334  -2.477  1.00  0.00    -0.249 OA
ATOM     16  H   UNL     1      -2.334   0.457  -4.068  1.00  0.00     0.165 HD
BRANCH  12  17
ATOM     17  C   UNL     1       1.126   2.187  -2.531  1.00  0.00     0.086 C 
BRANCH  17  18
ATOM     18  C   UNL     1       1.885   1.953  -1.186  1.00  0.00     0.022 C 
ATOM     19  C   UNL     1       2.466   0.543  -0.981  1.00  0.00     0.006 C 
ENDBRANCH  17  18
BRANCH  17  20
ATOM     20  C   UNL     1       1.734   3.344  -3.371  1.00  0.00     0.005 C 
ATOM     21  C   UNL     1       2.331   4.498  -2.573  1.00  0.00     0.009 C 
ATOM     22  C   UNL     1       2.736   2.838  -4.415  1.00  0.00     0.009 C 
ENDBRANCH  17  20
ENDBRANCH  12  17
ENDBRANCH   7  11
ENDBRANCH   6   7
ENDBRANCH   3   6
ENDBRANCH   1   2
BRANCH   1  23
ATOM     23  C   UNL     1      -2.034  -0.073  -0.600  1.00  0.00     0.023 C 
BRANCH  23  24
ATOM     24  C   UNL     1      -2.379  -0.087   0.896  1.00  0.00     0.023 C 
BRANCH  24  25
ATOM     25  C   UNL     1      -1.444   0.649   1.856  1.00  0.00     0.116 C 
BRANCH  25  26
ATOM     26  N   UNL     1      -1.466   2.111   1.817  1.00  0.00    -0.352 N 
ATOM     27  C   UNL     1      -1.252   2.971   2.883  1.00  0.00     0.251 C 
ATOM     28  H   UNL     1      -1.653   2.526   0.945  1.00  0.00     0.163 HD
ATOM     29  O   UNL     1      -1.256   4.194   2.741  1.00  0.00    -0.269 OA
BRANCH  27  30
ATOM     30  C   UNL     1      -1.086   2.385   4.232  1.00  0.00     0.039 A 
ATOM     31  C   UNL     1      -2.054   2.640   5.207  1.00  0.00     0.014 A 
ATOM     32  C   UNL     1      -0.101   1.419   4.444  1.00  0.00     0.014 A 
ATOM     33  C   UNL     1      -2.120   1.820   6.337  1.00  0.00     0.010 A 
ATOM     34  C   UNL     1      -0.225   0.549   5.523  1.00  0.00     0.010 A 
ATOM     35  C   UNL     1      -1.252   0.721   6.465  1.00  0.00    -0.014 A 
BRANCH  35  36
ATOM     36  C   UNL     1      -1.436  -0.279   7.551  1.00  0.00     0.031 A 
ATOM     37  C   UNL     1      -0.357  -0.495   8.573  1.00  0.00     0.074 A 
ATOM     38  C   UNL     1      -2.543  -1.051   7.575  1.00  0.00     0.049 A 
ATOM     39  N   UNL     1      -0.329  -1.327   9.584  1.00  0.00    -0.248 NA
ATOM     40  C   UNL     1       0.869   0.303   8.420  1.00  0.00     0.031 C 
ATOM     41  C   UNL     1      -3.629  -1.014   6.592  1.00  0.00     0.029 A 
ATOM     42  N   UNL     1      -2.938  -2.024   8.462  1.00  0.00    -0.354 N 
ATOM     43  C   UNL     1       0.915  -1.158  10.176  1.00  0.00     0.074 A 
ATOM     44  C   UNL     1       1.639  -0.199   9.372  1.00  0.00     0.031 C 
ATOM     45  C   UNL     1      -4.580  -1.892   6.951  1.00  0.00     0.029 A 
ATOM     46  C   UNL     1      -4.167  -2.570   8.176  1.00  0.00     0.049 A 
ATOM     47  H   UNL     1      -2.390  -2.305   9.230  1.00  0.00     0.167 HD
ATOM     48  C   UNL     1       1.401  -1.721  11.308  1.00  0.00     0.037 A 
ATOM     49  C   UNL     1      -4.886  -3.498   8.836  1.00  0.00     0.037 A 
ATOM     50  C   UNL     1       0.672  -2.649  12.129  1.00  0.00     0.049 A 
ATOM     51  C   UNL     1      -4.344  -4.079  10.113  1.00  0.00     0.074 A 
ATOM     52  C   UNL     1       1.049  -3.217  13.333  1.00  0.00     0.029 A 
ATOM     53  N   UNL     1      -0.587  -3.145  11.828  1.00  0.00    -0.354 N 
ATOM     54  N   UNL     1      -3.206  -3.834  10.716  1.00  0.00    -0.248 NA
ATOM     55  C   UNL     1      -5.194  -5.055  10.810  1.00  0.00     0.031 C 
ATOM     56  C   UNL     1       0.029  -4.082  13.746  1.00  0.00     0.029 A 
ATOM     57  C   UNL     1      -0.997  -4.024  12.817  1.00  0.00     0.049 A 
ATOM     58  H   UNL     1      -1.112  -2.908  11.030  1.00  0.00     0.167 HD
ATOM     59  C   UNL     1      -3.214  -4.604  11.872  1.00  0.00     0.074 A 
ATOM     60  C   UNL     1      -4.478  -5.311  11.895  1.00  0.00     0.031 C 
ATOM     61  C   UNL     1      -2.260  -4.716  12.828  1.00  0.00     0.037 A 
BRANCH  48  62
ATOM     62  C   UNL     1       2.783  -1.320  11.728  1.00  0.00     0.057 A 
ATOM     63  C   UNL     1       3.058  -0.036  12.218  1.00  0.00     0.134 A 
ATOM     64  C   UNL     1       3.850  -2.223  11.645  1.00  0.00     0.134 A 
ATOM     65  F   UNL     1       2.082   0.881  12.306  1.00  0.00    -0.206 F 
ATOM     66  C   UNL     1       4.349   0.347  12.580  1.00  0.00     0.040 A 
ATOM     67  C   UNL     1       5.142  -1.859  12.029  1.00  0.00     0.040 A 
ATOM     68  F   UNL     1       3.655  -3.468  11.186  1.00  0.00    -0.206 F 
ATOM     69  C   UNL     1       5.396  -0.569  12.490  1.00  0.00     0.006 A 
ENDBRANCH  48  62
BRANCH  49  70
ATOM     70  C   UNL     1      -6.226  -3.901   8.338  1.00  0.00     0.057 A 
ATOM     71  C   UNL     1      -7.391  -3.506   9.008  1.00  0.00     0.134 A 
ATOM     72  C   UNL     1      -6.377  -4.705   7.203  1.00  0.00     0.134 A 
ATOM     73  F   UNL     1      -7.309  -2.752  10.115  1.00  0.00    -0.206 F 
ATOM     74  C   UNL     1      -8.656  -3.913   8.581  1.00  0.00     0.040 A 
ATOM     75  C   UNL     1      -7.638  -5.103   6.752  1.00  0.00     0.040 A 
ATOM     76  F   UNL     1      -5.301  -5.114   6.515  1.00  0.00    -0.206 F 
ATOM     77  C   UNL     1      -8.781  -4.712   7.447  1.00  0.00     0.006 A 
ENDBRANCH  49  70
BRANCH  61  78
ATOM     78  C   UNL     1      -2.558  -5.618  13.988  1.00  0.00     0.057 A 
ATOM     79  C   UNL     1      -2.550  -7.012  13.859  1.00  0.00     0.134 A 
ATOM     80  C   UNL     1      -2.826  -5.085  15.255  1.00  0.00     0.134 A 
ATOM     81  F   UNL     1      -2.312  -7.583  12.669  1.00  0.00    -0.206 F 
ATOM     82  C   UNL     1      -2.822  -7.845  14.945  1.00  0.00     0.040 A 
ATOM     83  C   UNL     1      -3.076  -5.908  16.354  1.00  0.00     0.040 A 
ATOM     84  F   UNL     1      -2.841  -3.757  15.447  1.00  0.00    -0.206 F 
ATOM     85  C   UNL     1      -3.081  -7.293  16.199  1.00  0.00     0.006 A 
ENDBRANCH  61  78
ENDBRANCH  35  36
ENDBRANCH  27  30
ENDBRANCH  25  26
ENDBRANCH  24  25
ENDBRANCH  23  24
ENDBRANCH   1  23
TORSDOF 16
