REMARK SMILES Cc1cccc(CC(=O)N2CCC3(CCC(=O)N([C@H](C)C(=O)NCCCCNC(=O)c4ccc(-c5c6nc(c(-c7c(F)cccc7F)c7ccc([nH]7)c(-c7c(F)cccc7F)c7nc(c(-c8c(F)cccc8F)c8ccc5[nH]8)C=C7)C=C6)cc4)C3)CC2)c1
REMARK SMILES IDX 25 1 24 2 23 3 21 4 22 5 19 7 20 8 18 9 8 10 9 11 10 12
REMARK SMILES IDX 11 13 87 14 12 15 86 16 13 17 14 18 85 19 15 20 16 21 17 22
REMARK SMILES IDX 7 23 6 24 1 25 2 26 3 27 88 28 4 29 5 30 26 31 27 32 28 33
REMARK SMILES IDX 29 34 30 36 31 37 32 38 84 39 33 40 83 41 34 42 35 43 36 44
REMARK SMILES IDX 77 45 37 46 82 47 76 48 78 49 38 50 81 51 75 52 74 53 39 55
REMARK SMILES IDX 65 56 48 57 64 58 49 59 52 60 63 61 79 62 50 63 51 64 62 66
REMARK SMILES IDX 80 67 53 68 40 69 41 70 46 71 42 72 43 73 45 74 47 75 44 76
REMARK SMILES IDX 66 77 67 78 72 79 68 80 69 81 71 82 73 83 70 84 54 85 55 86
REMARK SMILES IDX 60 87 56 88 57 89 59 90 61 91 58 92
REMARK H PARENT 23 6 28 35 78 54 52 65
REMARK Flexibility Score: inf
ROOT
ATOM      1  C   UNL     1      -2.172   4.032  -8.341  1.00  0.00     0.023 C 
ENDROOT
BRANCH   1   2
ATOM      2  C   UNL     1      -1.371   5.319  -8.507  1.00  0.00     0.116 C 
BRANCH   2   3
ATOM      3  N   UNL     1      -1.681   6.339  -7.519  1.00  0.00    -0.354 N 
ATOM      4  C   UNL     1      -0.837   7.107  -6.762  1.00  0.00     0.242 C 
ATOM      5  O   UNL     1      -1.319   8.096  -6.198  1.00  0.00    -0.273 OA
ATOM      6  H   UNL     1      -2.640   6.503  -7.372  1.00  0.00     0.163 HD
BRANCH   4   7
ATOM      7  C   UNL     1       0.658   6.745  -6.572  1.00  0.00     0.171 C 
ATOM      8  C   UNL     1       0.858   5.306  -6.089  1.00  0.00     0.042 C 
BRANCH   7   9
ATOM      9  N   UNL     1       1.621   7.114  -7.628  1.00  0.00    -0.330 N 
ATOM     10  C   UNL     1       7.887   5.255  -6.989  1.00  0.00     0.226 C 
ATOM     11  O   UNL     1       8.092   4.053  -6.775  1.00  0.00    -0.275 OA
ATOM     12  N   UNL     1       6.756   5.663  -7.682  1.00  0.00    -0.342 N 
ATOM     13  C   UNL     1       5.625   4.746  -7.816  1.00  0.00     0.120 C 
ATOM     14  C   UNL     1       6.585   6.911  -8.408  1.00  0.00     0.120 C 
ATOM     15  C   UNL     1       4.330   5.435  -7.355  1.00  0.00     0.030 C 
ATOM     16  C   UNL     1       5.389   7.668  -7.856  1.00  0.00     0.030 C 
ATOM     17  C   UNL     1       4.093   6.832  -8.000  1.00  0.00    -0.008 C 
ATOM     18  C   UNL     1       3.739   6.737  -9.505  1.00  0.00     0.019 C 
ATOM     19  C   UNL     1       2.954   7.569  -7.259  1.00  0.00     0.127 C 
ATOM     20  C   UNL     1       2.336   6.236  -9.759  1.00  0.00     0.101 C 
ATOM     21  C   UNL     1       1.316   7.015  -8.972  1.00  0.00     0.223 C 
ATOM     22  O   UNL     1       0.261   7.372  -9.480  1.00  0.00    -0.275 OA
BRANCH  10  23
ATOM     23  C   UNL     1       8.770   6.277  -6.272  1.00  0.00     0.135 C 
BRANCH  23  24
ATOM     24  C   UNL     1       9.337   7.431  -7.057  1.00  0.00    -0.038 A 
ATOM     25  C   UNL     1       8.844  11.211  -7.247  1.00  0.00     0.044 C 
ATOM     26  C   UNL     1       9.340   9.825  -7.535  1.00  0.00    -0.051 A 
ATOM     27  C   UNL     1      10.159   9.586  -8.643  1.00  0.00     0.003 A 
ATOM     28  C   UNL     1       8.956   8.746  -6.731  1.00  0.00     0.007 A 
ATOM     29  C   UNL     1      10.587   8.290  -8.942  1.00  0.00     0.001 A 
ATOM     30  C   UNL     1      10.180   7.215  -8.153  1.00  0.00     0.004 A 
ENDBRANCH  23  24
ENDBRANCH  10  23
ENDBRANCH   7   9
ENDBRANCH   4   7
ENDBRANCH   2   3
ENDBRANCH   1   2
BRANCH   1  31
ATOM     31  C   UNL     1      -3.682   4.181  -8.514  1.00  0.00     0.023 C 
BRANCH  31  32
ATOM     32  C   UNL     1      -4.128   4.699  -9.876  1.00  0.00     0.116 C 
BRANCH  32  33
ATOM     33  N   UNL     1      -4.106   3.722 -10.952  1.00  0.00    -0.352 N 
ATOM     34  C   UNL     1      -4.367   3.877 -12.307  1.00  0.00     0.251 C 
ATOM     35  H   UNL     1      -3.870   2.806 -10.677  1.00  0.00     0.163 HD
ATOM     36  O   UNL     1      -4.388   2.890 -13.026  1.00  0.00    -0.269 OA
BRANCH  34  37
ATOM     37  C   UNL     1      -4.465   5.235 -12.918  1.00  0.00     0.039 A 
ATOM     38  C   UNL     1      -3.944   5.407 -14.210  1.00  0.00     0.014 A 
ATOM     39  C   UNL     1      -4.844   6.353 -12.186  1.00  0.00     0.014 A 
ATOM     40  C   UNL     1      -3.540   6.673 -14.629  1.00  0.00     0.010 A 
ATOM     41  C   UNL     1      -4.337   7.585 -12.539  1.00  0.00     0.010 A 
ATOM     42  C   UNL     1      -3.617   7.726 -13.726  1.00  0.00    -0.014 A 
BRANCH  42  43
ATOM     43  C   UNL     1      -2.875   8.970 -13.862  1.00  0.00     0.031 A 
ATOM     44  C   UNL     1      -3.571  10.229 -14.173  1.00  0.00     0.074 A 
ATOM     45  C   UNL     1      -1.567   8.984 -13.524  1.00  0.00     0.049 A 
ATOM     46  N   UNL     1      -2.988  11.294 -14.604  1.00  0.00    -0.248 NA
ATOM     47  C   UNL     1      -5.015  10.373 -14.057  1.00  0.00     0.031 C 
ATOM     48  C   UNL     1      -0.723  10.146 -13.257  1.00  0.00     0.029 A 
ATOM     49  N   UNL     1      -0.666   7.908 -13.572  1.00  0.00    -0.354 N 
ATOM     50  C   UNL     1      -3.891  12.329 -14.521  1.00  0.00     0.074 A 
ATOM     51  C   UNL     1      -5.158  11.685 -14.263  1.00  0.00     0.031 C 
ATOM     52  C   UNL     1       0.557   9.807 -13.480  1.00  0.00     0.029 A 
ATOM     53  C   UNL     1       0.540   8.471 -14.047  1.00  0.00     0.049 A 
ATOM     54  H   UNL     1      -0.837   6.969 -13.328  1.00  0.00     0.167 HD
ATOM     55  C   UNL     1      -3.420  13.611 -14.538  1.00  0.00     0.037 A 
ATOM     56  C   UNL     1       1.037   8.144 -15.274  1.00  0.00     0.037 A 
ATOM     57  C   UNL     1      -1.977  13.635 -14.809  1.00  0.00     0.049 A 
ATOM     58  C   UNL     1       1.256   9.320 -16.200  1.00  0.00     0.074 A 
ATOM     59  C   UNL     1      -0.856  13.831 -14.016  1.00  0.00     0.029 A 
ATOM     60  N   UNL     1      -1.505  13.137 -16.019  1.00  0.00    -0.354 N 
ATOM     61  N   UNL     1       0.721  10.501 -16.053  1.00  0.00    -0.248 NA
ATOM     62  C   UNL     1       2.084   9.232 -17.393  1.00  0.00     0.031 C 
ATOM     63  C   UNL     1       0.293  13.462 -14.766  1.00  0.00     0.029 A 
ATOM     64  C   UNL     1      -0.126  13.043 -16.016  1.00  0.00     0.049 A 
ATOM     65  H   UNL     1      -2.078  12.886 -16.779  1.00  0.00     0.167 HD
ATOM     66  C   UNL     1       1.080  11.316 -17.106  1.00  0.00     0.074 A 
ATOM     67  C   UNL     1       1.960  10.473 -17.894  1.00  0.00     0.031 C 
ATOM     68  C   UNL     1       0.584  12.593 -17.215  1.00  0.00     0.037 A 
BRANCH  55  69
ATOM     69  C   UNL     1      -4.198  14.818 -14.037  1.00  0.00     0.057 A 
ATOM     70  C   UNL     1      -3.528  15.965 -13.562  1.00  0.00     0.134 A 
ATOM     71  C   UNL     1      -5.597  14.902 -13.931  1.00  0.00     0.134 A 
ATOM     72  F   UNL     1      -2.205  16.119 -13.698  1.00  0.00    -0.206 F 
ATOM     73  C   UNL     1      -4.181  17.029 -12.922  1.00  0.00     0.040 A 
ATOM     74  C   UNL     1      -6.262  15.934 -13.249  1.00  0.00     0.040 A 
ATOM     75  F   UNL     1      -6.407  14.033 -14.543  1.00  0.00    -0.206 F 
ATOM     76  C   UNL     1      -5.550  16.999 -12.725  1.00  0.00     0.006 A 
ENDBRANCH  55  69
BRANCH  56  77
ATOM     77  C   UNL     1       0.675   6.771 -15.718  1.00  0.00     0.057 A 
ATOM     78  C   UNL     1       1.086   5.672 -14.939  1.00  0.00     0.134 A 
ATOM     79  C   UNL     1      -0.333   6.541 -16.658  1.00  0.00     0.134 A 
ATOM     80  F   UNL     1       2.056   5.819 -14.021  1.00  0.00    -0.206 F 
ATOM     81  C   UNL     1       0.440   4.435 -15.008  1.00  0.00     0.040 A 
ATOM     82  C   UNL     1      -0.973   5.299 -16.750  1.00  0.00     0.040 A 
ATOM     83  F   UNL     1      -0.790   7.539 -17.427  1.00  0.00    -0.206 F 
ATOM     84  C   UNL     1      -0.616   4.256 -15.896  1.00  0.00     0.006 A 
ENDBRANCH  56  77
BRANCH  68  85
ATOM     85  C   UNL     1       0.692  13.584 -18.382  1.00  0.00     0.057 A 
ATOM     86  C   UNL     1       1.316  13.361 -19.617  1.00  0.00     0.134 A 
ATOM     87  C   UNL     1       0.063  14.858 -18.298  1.00  0.00     0.134 A 
ATOM     88  F   UNL     1       1.951  12.226 -19.908  1.00  0.00    -0.206 F 
ATOM     89  C   UNL     1       1.313  14.298 -20.666  1.00  0.00     0.040 A 
ATOM     90  C   UNL     1       0.021  15.785 -19.348  1.00  0.00     0.040 A 
ATOM     91  F   UNL     1      -0.565  15.280 -17.192  1.00  0.00    -0.206 F 
ATOM     92  C   UNL     1       0.651  15.508 -20.544  1.00  0.00     0.006 A 
ENDBRANCH  68  85
ENDBRANCH  42  43
ENDBRANCH  34  37
ENDBRANCH  32  33
ENDBRANCH  31  32
ENDBRANCH   1  31
TORSDOF 14
