REMARK SMILES COc1ccccc1C(=O)N/C(=C/c1ccc2c(c1)OCO2)C(=O)Nc1ccc(C(=O)NCCCCNC(=O)c2ccc(-c3c4nc(c(-c5c(F)cccc5F)c5ccc([nH]5)c(-c5c(F)cccc5F)c5nc(c(-c6c(F)cccc6F)c6ccc3[nH]6)C=C5)C=C4)cc2)cc1
REMARK SMILES IDX 33 1 32 2 30 3 31 4 29 6 26 7 27 8 95 9 28 10 94 11 25 12
REMARK SMILES IDX 23 13 24 14 12 16 13 17 11 18 9 19 10 20 8 22 3 23 4 24 5 25
REMARK SMILES IDX 7 26 6 27 2 28 1 29 14 30 15 31 19 32 16 33 18 34 17 35
REMARK SMILES IDX 20 36 22 37 21 38 34 39 35 40 36 41 37 42 38 43 39 45 40 46
REMARK SMILES IDX 41 47 93 48 42 49 92 50 43 51 44 52 45 53 86 54 46 55 91 56
REMARK SMILES IDX 85 57 87 58 47 59 90 60 84 61 83 62 48 64 74 65 57 66 73 67
REMARK SMILES IDX 58 68 61 69 72 70 88 71 59 72 60 73 71 75 89 76 62 77 49 78
REMARK SMILES IDX 50 79 55 80 51 81 52 82 54 83 56 84 53 85 75 86 76 87 81 88
REMARK SMILES IDX 77 89 78 90 80 91 82 92 79 93 63 94 64 95 69 96 65 97 66 98
REMARK SMILES IDX 68 99 70 100 67 101
REMARK H PARENT 32 5 25 15 11 21 37 44 87 63 61 74
REMARK Flexibility Score: inf
ROOT
ATOM      1  C   UNL     1      -2.651  -4.006   3.466  1.00  0.00     0.116 C 
ENDROOT
BRANCH   1   2
ATOM      2  N   UNL     1      -3.715  -4.715   2.752  1.00  0.00    -0.352 N 
ATOM      3  C   UNL     1      -4.214  -4.600   1.455  1.00  0.00     0.251 C 
ATOM      4  O   UNL     1      -4.896  -5.509   0.988  1.00  0.00    -0.269 OA
ATOM      5  H   UNL     1      -4.163  -5.406   3.291  1.00  0.00     0.163 HD
BRANCH   3   6
ATOM      6  C   UNL     1      -3.887  -3.446   0.587  1.00  0.00     0.039 A 
ATOM      7  C   UNL     1      -1.820  -0.819  -0.884  1.00  0.00     0.041 A 
ATOM      8  C   UNL     1      -2.225  -2.130  -1.866  1.00  0.00     0.027 A 
ATOM      9  C   UNL     1      -2.501  -0.734   0.644  1.00  0.00     0.027 A 
ATOM     10  C   UNL     1      -3.376  -3.673  -1.101  1.00  0.00     0.016 A 
ATOM     11  C   UNL     1      -3.492  -1.957   1.337  1.00  0.00     0.016 A 
BRANCH   7  12
ATOM     12  N   UNL     1      -0.667  -0.065  -1.180  1.00  0.00    -0.321 N 
ATOM     13  C   UNL     1       0.348  -0.419  -2.056  1.00  0.00     0.272 C 
ATOM     14  O   UNL     1       0.319  -0.108  -3.246  1.00  0.00    -0.267 OA
ATOM     15  H   UNL     1      -0.573   0.799  -0.720  1.00  0.00     0.170 HD
BRANCH  13  16
ATOM     16  C   UNL     1       1.649  -0.998  -1.466  1.00  0.00     0.108 C 
ATOM     17  C   UNL     1       1.825  -2.332  -1.265  1.00  0.00     0.040 C 
BRANCH  16  18
ATOM     18  N   UNL     1       2.765  -0.229  -1.153  1.00  0.00    -0.317 N 
ATOM     19  C   UNL     1       3.165   1.082  -1.178  1.00  0.00     0.259 C 
ATOM     20  O   UNL     1       4.324   1.322  -0.827  1.00  0.00    -0.269 OA
ATOM     21  H   UNL     1       3.489  -0.801  -0.809  1.00  0.00     0.170 HD
BRANCH  19  22
ATOM     22  C   UNL     1       2.344   2.204  -1.639  1.00  0.00     0.082 A 
ATOM     23  C   UNL     1       1.054   2.503  -1.214  1.00  0.00     0.131 A 
ATOM     24  C   UNL     1       0.287   3.367  -2.008  1.00  0.00     0.047 A 
ATOM     25  C   UNL     1       0.858   4.082  -3.061  1.00  0.00     0.004 A 
ATOM     26  C   UNL     1       2.959   3.026  -2.604  1.00  0.00     0.018 A 
ATOM     27  C   UNL     1       2.221   3.977  -3.301  1.00  0.00     0.001 A 
BRANCH  23  28
ATOM     28  O   UNL     1       0.373   2.049  -0.121  1.00  0.00    -0.496 OA
ATOM     29  C   UNL     1       1.073   1.516   0.999  1.00  0.00     0.278 C 
ENDBRANCH  23  28
ENDBRANCH  19  22
ENDBRANCH  16  18
BRANCH  17  30
ATOM     30  C   UNL     1       0.722  -3.279  -1.072  1.00  0.00    -0.019 A 
ATOM     31  C   UNL     1       0.356  -3.164   0.332  1.00  0.00     0.012 A 
ATOM     32  C   UNL     1      -0.063  -3.835  -2.137  1.00  0.00     0.058 A 
ATOM     33  C   UNL     1      -0.937  -2.975   0.754  1.00  0.00     0.051 A 
ATOM     34  C   UNL     1      -1.383  -3.969  -1.768  1.00  0.00     0.166 A 
ATOM     35  C   UNL     1      -1.813  -3.108  -0.278  1.00  0.00     0.165 A 
ATOM     36  O   UNL     1      -2.644  -3.710  -3.046  1.00  0.00    -0.454 OA
ATOM     37  O   UNL     1      -3.465  -2.013  -0.702  1.00  0.00    -0.454 OA
ATOM     38  C   UNL     1      -4.001  -2.501  -2.507  1.00  0.00     0.468 C 
ENDBRANCH  17  30
ENDBRANCH  13  16
ENDBRANCH   7  12
ENDBRANCH   3   6
ENDBRANCH   1   2
BRANCH   1  39
ATOM     39  C   UNL     1      -2.976  -3.438   4.837  1.00  0.00     0.023 C 
BRANCH  39  40
ATOM     40  C   UNL     1      -3.153  -4.475   5.921  1.00  0.00     0.023 C 
BRANCH  40  41
ATOM     41  C   UNL     1      -1.920  -5.327   6.189  1.00  0.00     0.116 C 
BRANCH  41  42
ATOM     42  N   UNL     1      -0.804  -4.585   6.763  1.00  0.00    -0.352 N 
ATOM     43  C   UNL     1      -0.123  -4.825   7.935  1.00  0.00     0.251 C 
ATOM     44  H   UNL     1      -0.496  -3.808   6.242  1.00  0.00     0.163 HD
ATOM     45  O   UNL     1       0.705  -4.021   8.350  1.00  0.00    -0.269 OA
BRANCH  43  46
ATOM     46  C   UNL     1      -0.418  -6.052   8.706  1.00  0.00     0.039 A 
ATOM     47  C   UNL     1      -0.575  -5.971  10.090  1.00  0.00     0.014 A 
ATOM     48  C   UNL     1      -0.571  -7.277   8.052  1.00  0.00     0.014 A 
ATOM     49  C   UNL     1      -0.934  -7.113  10.807  1.00  0.00     0.010 A 
ATOM     50  C   UNL     1      -1.057  -8.376   8.747  1.00  0.00     0.010 A 
ATOM     51  C   UNL     1      -1.206  -8.320  10.139  1.00  0.00    -0.014 A 
BRANCH  51  52
ATOM     52  C   UNL     1      -1.584  -9.545  10.889  1.00  0.00     0.031 A 
ATOM     53  C   UNL     1      -0.713 -10.772  10.809  1.00  0.00     0.074 A 
ATOM     54  C   UNL     1      -2.710  -9.563  11.628  1.00  0.00     0.049 A 
ATOM     55  N   UNL     1      -0.863 -11.932  11.396  1.00  0.00    -0.248 NA
ATOM     56  C   UNL     1       0.471 -10.696   9.936  1.00  0.00     0.031 C 
ATOM     57  C   UNL     1      -3.663  -8.458  11.751  1.00  0.00     0.029 A 
ATOM     58  N   UNL     1      -3.240 -10.547  12.424  1.00  0.00    -0.354 N 
ATOM     59  C   UNL     1       0.201 -12.714  10.963  1.00  0.00     0.074 A 
ATOM     60  C   UNL     1       0.938 -11.932   9.999  1.00  0.00     0.031 C 
ATOM     61  C   UNL     1      -4.632  -8.807  12.612  1.00  0.00     0.029 A 
ATOM     62  C   UNL     1      -4.399 -10.175  13.062  1.00  0.00     0.049 A 
ATOM     63  H   UNL     1      -2.829 -11.435  12.529  1.00  0.00     0.167 HD
ATOM     64  C   UNL     1       0.557 -13.959  11.358  1.00  0.00     0.037 A 
ATOM     65  C   UNL     1      -5.185 -10.863  13.912  1.00  0.00     0.037 A 
ATOM     66  C   UNL     1      -0.178 -14.738  12.319  1.00  0.00     0.049 A 
ATOM     67  C   UNL     1      -4.793 -12.265  14.295  1.00  0.00     0.074 A 
ATOM     68  C   UNL     1       0.116 -15.996  12.812  1.00  0.00     0.029 A 
ATOM     69  N   UNL     1      -1.359 -14.336  12.924  1.00  0.00    -0.354 N 
ATOM     70  N   UNL     1      -3.745 -12.966  13.932  1.00  0.00    -0.248 NA
ATOM     71  C   UNL     1      -5.693 -12.969  15.219  1.00  0.00     0.031 C 
ATOM     72  C   UNL     1      -0.928 -16.389  13.655  1.00  0.00     0.029 A 
ATOM     73  C   UNL     1      -1.825 -15.338  13.760  1.00  0.00     0.049 A 
ATOM     74  H   UNL     1      -1.802 -13.468  12.780  1.00  0.00     0.167 HD
ATOM     75  C   UNL     1      -3.839 -14.173  14.614  1.00  0.00     0.074 A 
ATOM     76  C   UNL     1      -5.031 -14.095  15.432  1.00  0.00     0.031 C 
ATOM     77  C   UNL     1      -3.014 -15.250  14.570  1.00  0.00     0.037 A 
BRANCH  64  78
ATOM     78  C   UNL     1       1.793 -14.555  10.744  1.00  0.00     0.057 A 
ATOM     79  C   UNL     1       3.071 -14.029  10.985  1.00  0.00     0.134 A 
ATOM     80  C   UNL     1       1.709 -15.685   9.921  1.00  0.00     0.134 A 
ATOM     81  F   UNL     1       3.227 -12.940  11.753  1.00  0.00    -0.206 F 
ATOM     82  C   UNL     1       4.213 -14.584  10.403  1.00  0.00     0.040 A 
ATOM     83  C   UNL     1       2.847 -16.271   9.365  1.00  0.00     0.040 A 
ATOM     84  F   UNL     1       0.520 -16.245   9.651  1.00  0.00    -0.206 F 
ATOM     85  C   UNL     1       4.102 -15.714   9.597  1.00  0.00     0.006 A 
ENDBRANCH  64  78
BRANCH  65  86
ATOM     86  C   UNL     1      -6.415 -10.242  14.473  1.00  0.00     0.057 A 
ATOM     87  C   UNL     1      -6.546  -9.997  15.847  1.00  0.00     0.134 A 
ATOM     88  C   UNL     1      -7.508  -9.922  13.659  1.00  0.00     0.134 A 
ATOM     89  F   UNL     1      -5.542 -10.295  16.685  1.00  0.00    -0.206 F 
ATOM     90  C   UNL     1      -7.730  -9.500  16.393  1.00  0.00     0.040 A 
ATOM     91  C   UNL     1      -8.684  -9.388  14.187  1.00  0.00     0.040 A 
ATOM     92  F   UNL     1      -7.447 -10.121  12.334  1.00  0.00    -0.206 F 
ATOM     93  C   UNL     1      -8.803  -9.191  15.561  1.00  0.00     0.006 A 
ENDBRANCH  65  86
BRANCH  77  94
ATOM     94  C   UNL     1      -3.346 -16.406  15.474  1.00  0.00     0.057 A 
ATOM     95  C   UNL     1      -4.505 -17.178  15.313  1.00  0.00     0.134 A 
ATOM     96  C   UNL     1      -2.489 -16.749  16.529  1.00  0.00     0.134 A 
ATOM     97  F   UNL     1      -5.372 -16.908  14.325  1.00  0.00    -0.206 F 
ATOM     98  C   UNL     1      -4.830 -18.204  16.203  1.00  0.00     0.040 A 
ATOM     99  C   UNL     1      -2.780 -17.802  17.397  1.00  0.00     0.040 A 
ATOM    100  F   UNL     1      -1.351 -16.069  16.734  1.00  0.00    -0.206 F 
ATOM    101  C   UNL     1      -3.963 -18.520  17.247  1.00  0.00     0.006 A 
ENDBRANCH  77  94
ENDBRANCH  51  52
ENDBRANCH  43  46
ENDBRANCH  41  42
ENDBRANCH  40  41
ENDBRANCH  39  40
ENDBRANCH   1  39
TORSDOF 17
