REMARK SMILES O=C(C[C@]12CSc3[nH]c(=O)sc3[C@@H]1c1cc(Cl)ccc1OC2=O)NCCCCNC(=O)c1ccc(-c2c3nc(c(-c4c(F)cccc4F)c4ccc([nH]4)c(-c4c(F)cccc4F)c4nc(c(-c5c(F)cccc5F)c5ccc2[nH]5)C=C4)C=C3)cc1
REMARK SMILES IDX 27 1 26 2 25 3 24 4 1 5 2 6 3 8 4 9 5 10 13 11 22 12 6 13
REMARK SMILES IDX 12 14 14 15 21 16 23 17 7 18 11 19 15 20 20 21 8 22 9 23
REMARK SMILES IDX 16 24 19 25 10 27 17 28 18 29 28 30 29 31 30 32 31 34 32 35
REMARK SMILES IDX 33 36 85 37 34 38 84 39 35 40 36 41 37 42 78 43 38 44 83 45
REMARK SMILES IDX 77 46 79 47 39 48 82 49 76 50 75 51 40 53 66 54 49 55 65 56
REMARK SMILES IDX 50 57 53 58 64 59 80 60 51 61 52 62 63 64 81 65 54 66 41 67
REMARK SMILES IDX 42 68 47 69 43 70 44 71 46 72 48 73 45 74 67 75 68 76 73 77
REMARK SMILES IDX 69 78 70 79 72 80 74 81 71 82 55 83 56 84 61 85 57 86 58 87
REMARK SMILES IDX 60 88 62 89 59 90
REMARK H PARENT 24 7 8 26 29 33 79 52 53 63
REMARK Flexibility Score: inf
ROOT
ATOM      1  C   UNL     1       4.789   4.216   0.318  1.00  0.00     0.023 C 
ENDROOT
BRANCH   1   2
ATOM      2  C   UNL     1       3.457   3.712   0.840  1.00  0.00     0.023 C 
BRANCH   2   3
ATOM      3  C   UNL     1       3.094   2.278   0.500  1.00  0.00     0.116 C 
BRANCH   3   4
ATOM      4  N   UNL     1       3.935   1.141   0.937  1.00  0.00    -0.356 N 
ATOM      5  O   UNL     1       2.792   0.212   2.642  1.00  0.00    -0.275 OA
ATOM      6  C   UNL     1       3.384   0.038   1.570  1.00  0.00     0.221 C 
ATOM      7  H   UNL     1       4.905   1.170   0.775  1.00  0.00     0.163 HD
BRANCH   6   8
ATOM      8  C   UNL     1       3.388  -1.462   0.948  1.00  0.00     0.120 C 
BRANCH   8   9
ATOM      9  C   UNL     1       3.080  -2.110  -0.604  1.00  0.00     0.098 C 
ATOM     10  C   UNL     1       3.498  -3.577  -0.349  1.00  0.00     0.097 C 
ATOM     11  C   UNL     1       3.621  -0.862  -1.323  1.00  0.00     0.085 C 
ATOM     12  C   UNL     1       3.070  -2.433  -2.287  1.00  0.00     0.319 C 
ATOM     13  S   UNL     1       5.269  -3.863  -0.399  1.00  0.00    -0.106 SA
ATOM     14  C   UNL     1       5.151  -1.110  -0.932  1.00  0.00     0.049 A 
ATOM     15  C   UNL     1       1.959  -0.508  -1.215  1.00  0.00     0.006 A 
ATOM     16  O   UNL     1       1.926  -2.080  -2.974  1.00  0.00    -0.426 OA
ATOM     17  O   UNL     1       4.001  -2.905  -2.939  1.00  0.00    -0.251 OA
ATOM     18  C   UNL     1       5.824  -2.262  -0.638  1.00  0.00     0.090 A 
ATOM     19  S   UNL     1       6.373   0.191  -1.023  1.00  0.00    -0.077 S 
ATOM     20  C   UNL     1       1.114   0.033  -0.225  1.00  0.00     0.028 A 
ATOM     21  C   UNL     1       1.228  -1.192  -2.197  1.00  0.00     0.134 A 
ATOM     22  N   UNL     1       7.166  -2.151  -0.465  1.00  0.00    -0.307 N 
ATOM     23  C   UNL     1       7.710  -0.912  -0.612  1.00  0.00     0.305 A 
ATOM     24  C   UNL     1      -0.295  -0.024  -0.270  1.00  0.00     0.041 A 
ATOM     25  C   UNL     1      -0.169  -1.235  -2.301  1.00  0.00     0.049 A 
ATOM     26  H   UNL     1       7.721  -2.932  -0.243  1.00  0.00     0.171 HD
ATOM     27  O   UNL     1       8.872  -0.605  -0.477  1.00  0.00    -0.257 OA
ATOM     28  Cl  UNL     1      -1.212   0.588   1.057  1.00  0.00    -0.084 Cl
ATOM     29  C   UNL     1      -0.942  -0.642  -1.319  1.00  0.00     0.024 A 
ENDBRANCH   8   9
ENDBRANCH   6   8
ENDBRANCH   3   4
ENDBRANCH   2   3
ENDBRANCH   1   2
BRANCH   1  30
ATOM     30  C   UNL     1       4.944   4.236  -1.208  1.00  0.00     0.116 C 
BRANCH  30  31
ATOM     31  N   UNL     1       4.159   5.238  -1.907  1.00  0.00    -0.352 N 
ATOM     32  C   UNL     1       4.369   6.560  -2.209  1.00  0.00     0.251 C 
ATOM     33  H   UNL     1       3.294   4.897  -2.232  1.00  0.00     0.163 HD
ATOM     34  O   UNL     1       3.636   7.055  -3.068  1.00  0.00    -0.269 OA
BRANCH  32  35
ATOM     35  C   UNL     1       5.327   7.445  -1.495  1.00  0.00     0.039 A 
ATOM     36  C   UNL     1       6.287   7.017  -0.581  1.00  0.00     0.014 A 
ATOM     37  C   UNL     1       5.157   8.828  -1.692  1.00  0.00     0.014 A 
ATOM     38  C   UNL     1       6.901   7.927   0.265  1.00  0.00     0.010 A 
ATOM     39  C   UNL     1       5.816   9.750  -0.892  1.00  0.00     0.010 A 
ATOM     40  C   UNL     1       6.622   9.290   0.142  1.00  0.00    -0.014 A 
BRANCH  40  41
ATOM     41  C   UNL     1       7.324  10.210   1.028  1.00  0.00     0.031 A 
ATOM     42  C   UNL     1       8.808  10.105   0.926  1.00  0.00     0.074 A 
ATOM     43  C   UNL     1       6.694  11.133   1.785  1.00  0.00     0.049 A 
ATOM     44  N   UNL     1       9.643   9.757   1.849  1.00  0.00    -0.248 NA
ATOM     45  C   UNL     1       9.418  10.229  -0.410  1.00  0.00     0.031 C 
ATOM     46  C   UNL     1       5.271  11.478   1.795  1.00  0.00     0.029 A 
ATOM     47  N   UNL     1       7.227  12.042   2.652  1.00  0.00    -0.354 N 
ATOM     48  C   UNL     1      10.908   9.824   1.267  1.00  0.00     0.074 A 
ATOM     49  C   UNL     1      10.696   9.950  -0.150  1.00  0.00     0.031 C 
ATOM     50  C   UNL     1       5.100  12.666   2.420  1.00  0.00     0.029 A 
ATOM     51  C   UNL     1       6.372  13.095   2.972  1.00  0.00     0.049 A 
ATOM     52  H   UNL     1       8.137  11.962   3.019  1.00  0.00     0.167 HD
ATOM     53  C   UNL     1      12.018  10.024   2.029  1.00  0.00     0.037 A 
ATOM     54  C   UNL     1       6.726  14.262   3.572  1.00  0.00     0.037 A 
ATOM     55  C   UNL     1      11.771   9.671   3.404  1.00  0.00     0.049 A 
ATOM     56  C   UNL     1       8.029  14.039   4.252  1.00  0.00     0.074 A 
ATOM     57  C   UNL     1      11.402   8.513   4.061  1.00  0.00     0.029 A 
ATOM     58  N   UNL     1      11.535  10.691   4.292  1.00  0.00    -0.354 N 
ATOM     59  N   UNL     1       8.168  13.272   5.298  1.00  0.00    -0.248 NA
ATOM     60  C   UNL     1       9.234  14.246   3.461  1.00  0.00     0.031 C 
ATOM     61  C   UNL     1      10.503   8.942   5.081  1.00  0.00     0.029 A 
ATOM     62  C   UNL     1      10.444  10.334   5.040  1.00  0.00     0.049 A 
ATOM     63  H   UNL     1      12.053  11.524   4.376  1.00  0.00     0.167 HD
ATOM     64  C   UNL     1       9.322  12.544   5.044  1.00  0.00     0.074 A 
ATOM     65  C   UNL     1       9.963  13.225   3.918  1.00  0.00     0.031 C 
ATOM     66  C   UNL     1       9.502  11.293   5.561  1.00  0.00     0.037 A 
BRANCH  53  67
ATOM     67  C   UNL     1      13.151  10.945   1.633  1.00  0.00     0.057 A 
ATOM     68  C   UNL     1      13.048  11.952   0.651  1.00  0.00     0.134 A 
ATOM     69  C   UNL     1      14.255  11.066   2.497  1.00  0.00     0.134 A 
ATOM     70  F   UNL     1      12.046  12.004  -0.233  1.00  0.00    -0.206 F 
ATOM     71  C   UNL     1      13.925  13.037   0.586  1.00  0.00     0.040 A 
ATOM     72  C   UNL     1      15.111  12.173   2.469  1.00  0.00     0.040 A 
ATOM     73  F   UNL     1      14.476  10.162   3.464  1.00  0.00    -0.206 F 
ATOM     74  C   UNL     1      14.934  13.175   1.524  1.00  0.00     0.006 A 
ENDBRANCH  53  67
BRANCH  54  75
ATOM     75  C   UNL     1       6.202  15.625   3.303  1.00  0.00     0.057 A 
ATOM     76  C   UNL     1       5.686  15.972   2.041  1.00  0.00     0.134 A 
ATOM     77  C   UNL     1       6.440  16.695   4.179  1.00  0.00     0.134 A 
ATOM     78  F   UNL     1       5.504  15.046   1.089  1.00  0.00    -0.206 F 
ATOM     79  C   UNL     1       5.422  17.296   1.672  1.00  0.00     0.040 A 
ATOM     80  C   UNL     1       6.185  18.028   3.819  1.00  0.00     0.040 A 
ATOM     81  F   UNL     1       6.985  16.479   5.385  1.00  0.00    -0.206 F 
ATOM     82  C   UNL     1       5.681  18.332   2.558  1.00  0.00     0.006 A 
ENDBRANCH  54  75
BRANCH  66  83
ATOM     83  C   UNL     1       8.525  10.806   6.594  1.00  0.00     0.057 A 
ATOM     84  C   UNL     1       9.022  10.351   7.820  1.00  0.00     0.134 A 
ATOM     85  C   UNL     1       7.147  10.654   6.375  1.00  0.00     0.134 A 
ATOM     86  F   UNL     1      10.339  10.404   8.078  1.00  0.00    -0.206 F 
ATOM     87  C   UNL     1       8.191   9.795   8.794  1.00  0.00     0.040 A 
ATOM     88  C   UNL     1       6.298  10.132   7.356  1.00  0.00     0.040 A 
ATOM     89  F   UNL     1       6.595  10.953   5.191  1.00  0.00    -0.206 F 
ATOM     90  C   UNL     1       6.821   9.699   8.570  1.00  0.00     0.006 A 
ENDBRANCH  66  83
ENDBRANCH  40  41
ENDBRANCH  32  35
ENDBRANCH  30  31
ENDBRANCH   1  30
TORSDOF 12
