REMARK SMILES Cc1ccccc1/C=C1\SC(=O)N(CC(=O)Nc2ccccc2C(=O)NCCCCNC(=O)c2ccc(-c3c4nc(c(-c5c(F)cccc5F)c5ccc([nH]5)c(-c5c(F)cccc5F)c5nc(c(-c6c(F)cccc6F)c6ccc3[nH]6)C=C5)C=C4)cc2)C1=O
REMARK SMILES IDX 27 1 26 2 24 3 25 4 23 6 18 7 19 8 20 9 22 10 21 11 17 12
REMARK SMILES IDX 15 13 16 14 14 16 13 17 8 18 9 19 10 20 88 21 11 22 89 23
REMARK SMILES IDX 12 24 7 25 1 26 2 27 3 28 4 29 6 30 5 31 28 32 29 33 30 34
REMARK SMILES IDX 31 35 32 36 33 38 34 39 35 40 87 41 36 42 86 43 37 44 38 45
REMARK SMILES IDX 39 46 80 47 40 48 85 49 79 50 81 51 41 52 84 53 78 54 77 55
REMARK SMILES IDX 42 57 68 58 51 59 67 60 52 61 55 62 66 63 82 64 53 65 54 66
REMARK SMILES IDX 65 68 83 69 56 70 43 71 44 72 49 73 45 74 46 75 48 76 50 77
REMARK SMILES IDX 47 78 69 79 70 80 75 81 71 82 72 83 74 84 76 85 73 86 57 87
REMARK SMILES IDX 58 88 63 89 59 90 60 91 62 92 64 93 61 94
REMARK H PARENT 26 5 17 15 31 37 81 56 55 67
REMARK Flexibility Score: inf
ROOT
ATOM      1  C   UNL     1       2.070   1.053  -3.911  1.00  0.00     0.116 C 
ENDROOT
BRANCH   1   2
ATOM      2  N   UNL     1       1.847   2.226  -3.062  1.00  0.00    -0.352 N 
ATOM      3  C   UNL     1       1.718   3.589  -3.301  1.00  0.00     0.253 C 
ATOM      4  O   UNL     1       1.357   4.298  -2.363  1.00  0.00    -0.269 OA
ATOM      5  H   UNL     1       1.770   1.998  -2.108  1.00  0.00     0.163 HD
BRANCH   3   6
ATOM      6  C   UNL     1       2.003   4.241  -4.607  1.00  0.00     0.063 A 
ATOM      7  C   UNL     1       2.505   5.560  -4.744  1.00  0.00     0.054 A 
ATOM      8  C   UNL     1       2.614   6.114  -6.038  1.00  0.00     0.027 A 
ATOM      9  C   UNL     1       2.257   5.400  -7.179  1.00  0.00     0.002 A 
ATOM     10  C   UNL     1       1.523   3.604  -5.767  1.00  0.00     0.016 A 
ATOM     11  C   UNL     1       1.689   4.147  -7.041  1.00  0.00     0.001 A 
BRANCH   7  12
ATOM     12  N   UNL     1       2.612   6.536  -3.734  1.00  0.00    -0.324 N 
ATOM     13  C   UNL     1       3.454   6.755  -2.691  1.00  0.00     0.244 C 
ATOM     14  O   UNL     1       3.332   7.843  -2.113  1.00  0.00    -0.273 OA
ATOM     15  H   UNL     1       1.910   7.223  -3.800  1.00  0.00     0.170 HD
BRANCH  13  16
ATOM     16  C   UNL     1       4.578   5.819  -2.289  1.00  0.00     0.230 C 
BRANCH  16  17
ATOM     17  N   UNL     1       4.149   4.722  -1.466  1.00  0.00    -0.259 N 
ATOM     18  C   UNL     1       1.739   3.471   0.675  1.00  0.00     0.029 C 
ATOM     19  C   UNL     1       2.970   3.574   0.165  1.00  0.00     0.083 C 
ATOM     20  S   UNL     1       3.996   2.376  -0.478  1.00  0.00    -0.022 SA
ATOM     21  C   UNL     1       3.449   4.906  -0.291  1.00  0.00     0.268 C 
ATOM     22  C   UNL     1       4.594   3.461  -1.707  1.00  0.00     0.294 C 
ATOM     23  O   UNL     1       3.229   5.951   0.293  1.00  0.00    -0.268 OA
ATOM     24  O   UNL     1       5.330   3.088  -2.617  1.00  0.00    -0.261 OA
BRANCH  18  25
ATOM     25  C   UNL     1       0.842   2.307   0.761  1.00  0.00    -0.021 A 
ATOM     26  C   UNL     1       2.453   0.619   1.860  1.00  0.00     0.045 C 
ATOM     27  C   UNL     1       1.104   1.081   1.389  1.00  0.00    -0.044 A 
ATOM     28  C   UNL     1       0.039   0.184   1.552  1.00  0.00     0.004 A 
ATOM     29  C   UNL     1      -1.234   0.447   1.039  1.00  0.00     0.000 A 
ATOM     30  C   UNL     1      -0.444   2.539   0.215  1.00  0.00     0.008 A 
ATOM     31  C   UNL     1      -1.468   1.607   0.330  1.00  0.00     0.001 A 
ENDBRANCH  18  25
ENDBRANCH  16  17
ENDBRANCH  13  16
ENDBRANCH   7  12
ENDBRANCH   3   6
ENDBRANCH   1   2
BRANCH   1  32
ATOM     32  C   UNL     1       3.430   0.347  -3.838  1.00  0.00     0.023 C 
BRANCH  32  33
ATOM     33  C   UNL     1       3.792  -0.513  -2.629  1.00  0.00     0.023 C 
BRANCH  33  34
ATOM     34  C   UNL     1       2.739  -1.462  -2.089  1.00  0.00     0.116 C 
BRANCH  34  35
ATOM     35  N   UNL     1       2.710  -2.772  -2.716  1.00  0.00    -0.352 N 
ATOM     36  C   UNL     1       2.146  -3.965  -2.292  1.00  0.00     0.251 C 
ATOM     37  H   UNL     1       3.168  -2.821  -3.586  1.00  0.00     0.163 HD
ATOM     38  O   UNL     1       2.420  -4.988  -2.919  1.00  0.00    -0.269 OA
BRANCH  36  39
ATOM     39  C   UNL     1       1.118  -4.039  -1.209  1.00  0.00     0.039 A 
ATOM     40  C   UNL     1       0.277  -5.171  -1.136  1.00  0.00     0.014 A 
ATOM     41  C   UNL     1       0.810  -2.962  -0.407  1.00  0.00     0.014 A 
ATOM     42  C   UNL     1      -1.016  -5.065  -0.592  1.00  0.00     0.010 A 
ATOM     43  C   UNL     1      -0.411  -2.906   0.202  1.00  0.00     0.010 A 
ATOM     44  C   UNL     1      -1.390  -3.844  -0.066  1.00  0.00    -0.014 A 
BRANCH  44  45
ATOM     45  C   UNL     1      -2.700  -3.183  -0.045  1.00  0.00     0.031 A 
ATOM     46  C   UNL     1      -3.338  -2.811   1.232  1.00  0.00     0.074 A 
ATOM     47  C   UNL     1      -2.923  -2.389  -1.129  1.00  0.00     0.049 A 
ATOM     48  N   UNL     1      -4.452  -2.178   1.327  1.00  0.00    -0.248 NA
ATOM     49  C   UNL     1      -2.703  -3.043   2.519  1.00  0.00     0.031 C 
ATOM     50  C   UNL     1      -3.731  -1.176  -1.259  1.00  0.00     0.029 A 
ATOM     51  N   UNL     1      -2.449  -2.585  -2.433  1.00  0.00    -0.354 N 
ATOM     52  C   UNL     1      -4.557  -1.669   2.605  1.00  0.00     0.074 A 
ATOM     53  C   UNL     1      -3.476  -2.305   3.323  1.00  0.00     0.031 C 
ATOM     54  C   UNL     1      -3.983  -0.956  -2.562  1.00  0.00     0.029 A 
ATOM     55  C   UNL     1      -3.463  -2.096  -3.290  1.00  0.00     0.049 A 
ATOM     56  H   UNL     1      -1.587  -2.980  -2.698  1.00  0.00     0.167 HD
ATOM     57  C   UNL     1      -5.495  -0.700   2.842  1.00  0.00     0.037 A 
ATOM     58  C   UNL     1      -4.221  -3.026  -3.952  1.00  0.00     0.037 A 
ATOM     59  C   UNL     1      -6.298  -0.464   1.627  1.00  0.00     0.049 A 
ATOM     60  C   UNL     1      -5.618  -3.182  -3.367  1.00  0.00     0.074 A 
ATOM     61  C   UNL     1      -6.364   0.525   0.659  1.00  0.00     0.029 A 
ATOM     62  N   UNL     1      -7.020  -1.529   1.116  1.00  0.00    -0.354 N 
ATOM     63  N   UNL     1      -6.115  -2.432  -2.418  1.00  0.00    -0.248 NA
ATOM     64  C   UNL     1      -6.539  -4.246  -3.759  1.00  0.00     0.031 C 
ATOM     65  C   UNL     1      -7.032  -0.026  -0.485  1.00  0.00     0.029 A 
ATOM     66  C   UNL     1      -7.408  -1.327  -0.194  1.00  0.00     0.049 A 
ATOM     67  H   UNL     1      -7.233  -2.341   1.629  1.00  0.00     0.167 HD
ATOM     68  C   UNL     1      -7.309  -2.945  -1.993  1.00  0.00     0.074 A 
ATOM     69  C   UNL     1      -7.540  -4.077  -2.877  1.00  0.00     0.031 C 
ATOM     70  C   UNL     1      -8.006  -2.441  -0.926  1.00  0.00     0.037 A 
BRANCH  57  71
ATOM     71  C   UNL     1      -5.663   0.142   4.101  1.00  0.00     0.057 A 
ATOM     72  C   UNL     1      -6.602   1.198   4.129  1.00  0.00     0.134 A 
ATOM     73  C   UNL     1      -4.947   0.005   5.306  1.00  0.00     0.134 A 
ATOM     74  F   UNL     1      -7.417   1.443   3.093  1.00  0.00    -0.206 F 
ATOM     75  C   UNL     1      -6.769   2.060   5.226  1.00  0.00     0.040 A 
ATOM     76  C   UNL     1      -5.098   0.862   6.408  1.00  0.00     0.040 A 
ATOM     77  F   UNL     1      -4.072  -0.976   5.518  1.00  0.00    -0.206 F 
ATOM     78  C   UNL     1      -6.006   1.903   6.370  1.00  0.00     0.006 A 
ENDBRANCH  57  71
BRANCH  58  79
ATOM     79  C   UNL     1      -3.330  -4.121  -4.462  1.00  0.00     0.057 A 
ATOM     80  C   UNL     1      -2.333  -3.743  -5.387  1.00  0.00     0.134 A 
ATOM     81  C   UNL     1      -3.081  -5.266  -3.697  1.00  0.00     0.134 A 
ATOM     82  F   UNL     1      -2.509  -2.658  -6.160  1.00  0.00    -0.206 F 
ATOM     83  C   UNL     1      -1.072  -4.345  -5.401  1.00  0.00     0.040 A 
ATOM     84  C   UNL     1      -1.835  -5.905  -3.740  1.00  0.00     0.040 A 
ATOM     85  F   UNL     1      -3.962  -5.679  -2.774  1.00  0.00    -0.206 F 
ATOM     86  C   UNL     1      -0.807  -5.404  -4.541  1.00  0.00     0.006 A 
ENDBRANCH  58  79
BRANCH  70  87
ATOM     87  C   UNL     1      -9.330  -3.016  -0.488  1.00  0.00     0.057 A 
ATOM     88  C   UNL     1     -10.335  -3.337  -1.411  1.00  0.00     0.134 A 
ATOM     89  C   UNL     1      -9.684  -3.176   0.867  1.00  0.00     0.134 A 
ATOM     90  F   UNL     1     -10.157  -3.135  -2.725  1.00  0.00    -0.206 F 
ATOM     91  C   UNL     1     -11.572  -3.864  -1.019  1.00  0.00     0.040 A 
ATOM     92  C   UNL     1     -10.941  -3.634   1.274  1.00  0.00     0.040 A 
ATOM     93  F   UNL     1      -8.825  -2.926   1.865  1.00  0.00    -0.206 F 
ATOM     94  C   UNL     1     -11.881  -4.006   0.328  1.00  0.00     0.006 A 
ENDBRANCH  70  87
ENDBRANCH  44  45
ENDBRANCH  36  39
ENDBRANCH  34  35
ENDBRANCH  33  34
ENDBRANCH  32  33
ENDBRANCH   1  32
TORSDOF 15
