REMARK SMILES CC1(C)C(n2c(SCC(=O)NCCCCNC(=O)c3ccc(-c4c5nc(c(-c6c(F)cccc6F)c6ccc([nH]6)c(-c6c(F)cccc6F)c6nc(c(-c7c(F)cccc7F)c7ccc4[nH]7)C=C6)C=C5)cc3)nc3cnccc32)C1(C)C
REMARK SMILES IDX 13 1 12 2 11 3 9 4 10 5 8 7 7 8 6 9 5 10 79 11 73 12 74 13
REMARK SMILES IDX 78 14 75 15 77 16 76 17 4 18 1 19 2 20 3 21 80 22 81 23
REMARK SMILES IDX 82 24 14 25 15 26 16 27 17 28 18 30 19 31 20 32 72 33 21 34
REMARK SMILES IDX 71 35 22 36 23 37 24 38 65 39 25 40 70 41 64 42 66 43 26 44
REMARK SMILES IDX 69 45 63 46 62 47 27 49 53 50 36 51 52 52 37 53 40 54 51 55
REMARK SMILES IDX 67 56 38 57 39 58 50 60 68 61 41 62 28 63 29 64 34 65 30 66
REMARK SMILES IDX 31 67 33 68 35 69 32 70 54 71 55 72 60 73 56 74 57 75 59 76
REMARK SMILES IDX 61 77 58 78 42 79 43 80 48 81 44 82 45 83 47 84 49 85 46 86
REMARK H PARENT 11 6 16 29 66 48 40 59
REMARK Flexibility Score: inf
ROOT
ATOM      1  C   UNL     1       0.363   7.674  -3.514  1.00  0.00     0.023 C 
ENDROOT
BRANCH   1   2
ATOM      2  C   UNL     1      -0.305   6.453  -4.134  1.00  0.00     0.116 C 
BRANCH   2   3
ATOM      3  N   UNL     1       0.494   5.275  -3.879  1.00  0.00    -0.355 N 
ATOM      4  C   UNL     1       0.240   4.270  -3.010  1.00  0.00     0.230 C 
ATOM      5  O   UNL     1       1.174   3.504  -2.749  1.00  0.00    -0.274 OA
ATOM      6  H   UNL     1       1.324   5.194  -4.402  1.00  0.00     0.163 HD
BRANCH   4   7
ATOM      7  C   UNL     1      -1.159   4.075  -2.497  1.00  0.00     0.178 C 
BRANCH   7   8
ATOM      8  S   UNL     1      -1.601   5.024  -1.066  1.00  0.00    -0.078 SA
BRANCH   8   9
ATOM      9  C   UNL     1      -0.544   4.702   0.260  1.00  0.00     0.169 A 
ATOM     10  N   UNL     1       0.279   3.634   0.580  1.00  0.00    -0.315 N 
ATOM     11  C   UNL     1       1.041   4.032   1.673  1.00  0.00     0.072 A 
ATOM     12  N   UNL     1      -0.507   5.621   1.206  1.00  0.00    -0.221 NA
ATOM     13  C   UNL     1       0.469   5.236   2.075  1.00  0.00     0.108 A 
ATOM     14  C   UNL     1       2.124   3.484   2.365  1.00  0.00     0.049 A 
ATOM     15  C   UNL     1       0.944   5.880   3.222  1.00  0.00     0.141 A 
ATOM     16  C   UNL     1       2.535   4.201   3.485  1.00  0.00     0.113 A 
ATOM     17  N   UNL     1       1.976   5.352   3.925  1.00  0.00    -0.262 NA
BRANCH  10  18
ATOM     18  C   UNL     1       0.538   2.376  -0.113  1.00  0.00     0.102 C 
ATOM     19  C   UNL     1       1.660   0.021   0.250  1.00  0.00     0.014 C 
ATOM     20  C   UNL     1       0.519   0.988   0.531  1.00  0.00    -0.007 C 
ATOM     21  C   UNL     1      -0.009   0.843   1.942  1.00  0.00     0.014 C 
ATOM     22  C   UNL     1      -0.442   1.333  -0.638  1.00  0.00    -0.007 C 
ATOM     23  C   UNL     1      -0.146   0.749  -2.018  1.00  0.00     0.014 C 
ATOM     24  C   UNL     1      -1.926   1.369  -0.327  1.00  0.00     0.014 C 
ENDBRANCH  10  18
ENDBRANCH   8   9
ENDBRANCH   7   8
ENDBRANCH   4   7
ENDBRANCH   2   3
ENDBRANCH   1   2
BRANCH   1  25
ATOM     25  C   UNL     1       1.801   7.915  -3.995  1.00  0.00     0.023 C 
BRANCH  25  26
ATOM     26  C   UNL     1       2.017   7.726  -5.500  1.00  0.00     0.116 C 
BRANCH  26  27
ATOM     27  N   UNL     1       1.077   8.459  -6.322  1.00  0.00    -0.352 N 
ATOM     28  C   UNL     1       0.980   9.746  -6.753  1.00  0.00     0.251 C 
ATOM     29  H   UNL     1       0.336   7.896  -6.644  1.00  0.00     0.163 HD
ATOM     30  O   UNL     1       0.016  10.006  -7.483  1.00  0.00    -0.269 OA
BRANCH  28  31
ATOM     31  C   UNL     1       1.906  10.837  -6.370  1.00  0.00     0.039 A 
ATOM     32  C   UNL     1       3.058  10.679  -5.601  1.00  0.00     0.014 A 
ATOM     33  C   UNL     1       1.546  12.129  -6.794  1.00  0.00     0.014 A 
ATOM     34  C   UNL     1       3.764  11.784  -5.164  1.00  0.00     0.010 A 
ATOM     35  C   UNL     1       2.273  13.239  -6.393  1.00  0.00     0.010 A 
ATOM     36  C   UNL     1       3.349  13.064  -5.531  1.00  0.00    -0.014 A 
BRANCH  36  37
ATOM     37  C   UNL     1       4.144  14.173  -5.033  1.00  0.00     0.031 A 
ATOM     38  C   UNL     1       5.587  14.125  -5.410  1.00  0.00     0.074 A 
ATOM     39  C   UNL     1       3.619  15.199  -4.339  1.00  0.00     0.049 A 
ATOM     40  N   UNL     1       6.617  14.034  -4.633  1.00  0.00    -0.248 NA
ATOM     41  C   UNL     1       5.910  14.043  -6.844  1.00  0.00     0.031 C 
ATOM     42  C   UNL     1       2.211  15.535  -4.123  1.00  0.00     0.029 A 
ATOM     43  N   UNL     1       4.274  16.232  -3.748  1.00  0.00    -0.354 N 
ATOM     44  C   UNL     1       7.733  14.063  -5.468  1.00  0.00     0.074 A 
ATOM     45  C   UNL     1       7.238  13.933  -6.814  1.00  0.00     0.031 C 
ATOM     46  C   UNL     1       2.126  16.808  -3.673  1.00  0.00     0.029 A 
ATOM     47  C   UNL     1       3.468  17.316  -3.441  1.00  0.00     0.049 A 
ATOM     48  H   UNL     1       5.239  16.213  -3.555  1.00  0.00     0.167 HD
ATOM     49  C   UNL     1       8.967  14.401  -5.002  1.00  0.00     0.037 A 
ATOM     50  C   UNL     1       3.897  18.558  -3.109  1.00  0.00     0.037 A 
ATOM     51  C   UNL     1       9.062  14.223  -3.577  1.00  0.00     0.049 A 
ATOM     52  C   UNL     1       5.314  18.446  -2.676  1.00  0.00     0.074 A 
ATOM     53  C   UNL     1       8.907  13.151  -2.718  1.00  0.00     0.029 A 
ATOM     54  N   UNL     1       9.025  15.336  -2.772  1.00  0.00    -0.354 N 
ATOM     55  N   UNL     1       5.694  17.875  -1.567  1.00  0.00    -0.248 NA
ATOM     56  C   UNL     1       6.342  18.560  -3.703  1.00  0.00     0.031 C 
ATOM     57  C   UNL     1       8.262  13.693  -1.566  1.00  0.00     0.029 A 
ATOM     58  C   UNL     1       8.120  15.064  -1.778  1.00  0.00     0.049 A 
ATOM     59  H   UNL     1       9.546  16.164  -2.886  1.00  0.00     0.167 HD
ATOM     60  C   UNL     1       6.848  17.183  -1.903  1.00  0.00     0.074 A 
ATOM     61  C   UNL     1       7.241  17.704  -3.211  1.00  0.00     0.031 C 
ATOM     62  C   UNL     1       7.225  16.053  -1.232  1.00  0.00     0.037 A 
BRANCH  49  63
ATOM     63  C   UNL     1       9.948  15.251  -5.777  1.00  0.00     0.057 A 
ATOM     64  C   UNL     1       9.587  16.095  -6.847  1.00  0.00     0.134 A 
ATOM     65  C   UNL     1      11.226  15.488  -5.237  1.00  0.00     0.134 A 
ATOM     66  F   UNL     1       8.389  16.037  -7.439  1.00  0.00    -0.206 F 
ATOM     67  C   UNL     1      10.407  17.128  -7.308  1.00  0.00     0.040 A 
ATOM     68  C   UNL     1      12.034  16.551  -5.659  1.00  0.00     0.040 A 
ATOM     69  F   UNL     1      11.691  14.751  -4.217  1.00  0.00    -0.206 F 
ATOM     70  C   UNL     1      11.618  17.385  -6.688  1.00  0.00     0.006 A 
ENDBRANCH  49  63
BRANCH  50  71
ATOM     71  C   UNL     1       3.276  19.855  -3.456  1.00  0.00     0.057 A 
ATOM     72  C   UNL     1       2.488  20.011  -4.611  1.00  0.00     0.134 A 
ATOM     73  C   UNL     1       3.660  21.038  -2.810  1.00  0.00     0.134 A 
ATOM     74  F   UNL     1       2.132  18.956  -5.358  1.00  0.00    -0.206 F 
ATOM     75  C   UNL     1       2.112  21.266  -5.100  1.00  0.00     0.040 A 
ATOM     76  C   UNL     1       3.297  22.302  -3.294  1.00  0.00     0.040 A 
ATOM     77  F   UNL     1       4.449  20.996  -1.727  1.00  0.00    -0.206 F 
ATOM     78  C   UNL     1       2.528  22.419  -4.448  1.00  0.00     0.006 A 
ENDBRANCH  50  71
BRANCH  62  79
ATOM     79  C   UNL     1       6.477  15.689   0.019  1.00  0.00     0.057 A 
ATOM     80  C   UNL     1       7.195  15.470   1.199  1.00  0.00     0.134 A 
ATOM     81  C   UNL     1       5.099  15.423   0.059  1.00  0.00     0.134 A 
ATOM     82  F   UNL     1       8.526  15.639   1.223  1.00  0.00    -0.206 F 
ATOM     83  C   UNL     1       6.573  15.033   2.372  1.00  0.00     0.040 A 
ATOM     84  C   UNL     1       4.458  15.021   1.234  1.00  0.00     0.040 A 
ATOM     85  F   UNL     1       4.347  15.489  -1.047  1.00  0.00    -0.206 F 
ATOM     86  C   UNL     1       5.197  14.823   2.396  1.00  0.00     0.006 A 
ENDBRANCH  62  79
ENDBRANCH  36  37
ENDBRANCH  28  31
ENDBRANCH  26  27
ENDBRANCH  25  26
ENDBRANCH   1  25
TORSDOF 14
