REMARK SMILES O=C(NCCCCNC(=O)[C@@]12CN(CC3CC3)C(=O)[C@@H]1CN(c1nc3ccccc3o1)C2)c1ccc(-c2c3nc(c(-c4c(F)cccc4F)c4ccc([nH]4)c(-c4c(F)cccc4F)c4nc(c(-c5c(F)cccc5F)c5ccc2[nH]5)C=C4)C=C3)cc1
REMARK SMILES IDX 5 1 4 2 3 3 1 4 2 5 33 7 34 8 86 9 35 10 85 11 36 12 37 13
REMARK SMILES IDX 38 14 79 15 39 16 84 17 78 18 80 19 40 20 83 21 77 22 76 23
REMARK SMILES IDX 41 25 67 26 50 27 66 28 51 29 54 30 65 31 81 32 52 33 53 34
REMARK SMILES IDX 64 36 82 37 55 38 42 39 43 40 48 41 44 42 45 43 47 44 49 45
REMARK SMILES IDX 46 46 68 47 69 48 74 49 70 50 71 51 73 52 75 53 72 54 56 55
REMARK SMILES IDX 57 56 62 57 58 58 59 59 61 60 63 61 60 62 6 63 7 64 8 65
REMARK SMILES IDX 9 66 10 68 11 69 12 70 20 71 32 72 13 73 18 74 21 75 22 76
REMARK SMILES IDX 19 77 14 78 15 79 16 80 17 81 23 82 24 83 31 84 25 85 30 86
REMARK SMILES IDX 26 87 29 88 27 89 28 90
REMARK H PARENT 3 6 80 24 54 35 8 67
REMARK Flexibility Score: inf
ROOT
ATOM      1  C   UNL     1       4.909   0.626  -2.530  1.00  0.00     0.023 C 
ENDROOT
BRANCH   1   2
ATOM      2  C   UNL     1       4.472   0.251  -1.128  1.00  0.00     0.116 C 
BRANCH   2   3
ATOM      3  N   UNL     1       3.056   0.476  -0.867  1.00  0.00    -0.352 N 
ATOM      4  O   UNL     1       1.077  -0.019   0.154  1.00  0.00    -0.269 OA
ATOM      5  C   UNL     1       2.275  -0.230   0.026  1.00  0.00     0.251 C 
ATOM      6  H   UNL     1       2.616   1.196  -1.374  1.00  0.00     0.163 HD
BRANCH   5   7
ATOM      7  C   UNL     1       2.953  -1.290   0.799  1.00  0.00     0.039 A 
ATOM      8  C   UNL     1       4.096  -0.953   1.524  1.00  0.00     0.014 A 
ATOM      9  C   UNL     1       2.581  -2.624   0.621  1.00  0.00     0.014 A 
ATOM     10  C   UNL     1       4.966  -1.958   1.912  1.00  0.00     0.010 A 
ATOM     11  C   UNL     1       3.398  -3.636   1.135  1.00  0.00     0.010 A 
ATOM     12  C   UNL     1       4.614  -3.312   1.756  1.00  0.00    -0.014 A 
BRANCH  12  13
ATOM     13  C   UNL     1       5.501  -4.341   2.358  1.00  0.00     0.031 A 
ATOM     14  C   UNL     1       6.182  -5.400   1.536  1.00  0.00     0.074 A 
ATOM     15  C   UNL     1       5.727  -4.260   3.685  1.00  0.00     0.049 A 
ATOM     16  N   UNL     1       7.003  -6.341   1.934  1.00  0.00    -0.248 NA
ATOM     17  C   UNL     1       5.908  -5.420   0.091  1.00  0.00     0.031 C 
ATOM     18  C   UNL     1       5.102  -3.282   4.583  1.00  0.00     0.029 A 
ATOM     19  N   UNL     1       6.558  -4.974   4.505  1.00  0.00    -0.354 N 
ATOM     20  C   UNL     1       7.330  -7.074   0.799  1.00  0.00     0.074 A 
ATOM     21  C   UNL     1       6.601  -6.481  -0.303  1.00  0.00     0.031 C 
ATOM     22  C   UNL     1       5.625  -3.408   5.808  1.00  0.00     0.029 A 
ATOM     23  C   UNL     1       6.543  -4.537   5.808  1.00  0.00     0.049 A 
ATOM     24  H   UNL     1       7.111  -5.726   4.193  1.00  0.00     0.167 HD
ATOM     25  C   UNL     1       8.165  -8.137   0.693  1.00  0.00     0.037 A 
ATOM     26  C   UNL     1       7.172  -5.010   6.897  1.00  0.00     0.037 A 
ATOM     27  C   UNL     1       8.889  -8.713   1.801  1.00  0.00     0.049 A 
ATOM     28  C   UNL     1       8.067  -6.201   6.748  1.00  0.00     0.074 A 
ATOM     29  C   UNL     1       9.767  -9.785   1.794  1.00  0.00     0.029 A 
ATOM     30  N   UNL     1       8.820  -8.267   3.113  1.00  0.00    -0.354 N 
ATOM     31  N   UNL     1       8.373  -6.871   5.664  1.00  0.00    -0.248 NA
ATOM     32  C   UNL     1       8.697  -6.706   7.972  1.00  0.00     0.031 C 
ATOM     33  C   UNL     1      10.193 -10.014   3.107  1.00  0.00     0.029 A 
ATOM     34  C   UNL     1       9.625  -9.052   3.925  1.00  0.00     0.049 A 
ATOM     35  H   UNL     1       8.279  -7.505   3.422  1.00  0.00     0.167 HD
ATOM     36  C   UNL     1       9.237  -7.875   6.074  1.00  0.00     0.074 A 
ATOM     37  C   UNL     1       9.437  -7.697   7.498  1.00  0.00     0.031 C 
ATOM     38  C   UNL     1       9.805  -8.864   5.342  1.00  0.00     0.037 A 
BRANCH  25  39
ATOM     39  C   UNL     1       8.344  -8.764  -0.662  1.00  0.00     0.057 A 
ATOM     40  C   UNL     1       9.073  -8.134  -1.678  1.00  0.00     0.134 A 
ATOM     41  C   UNL     1       7.854 -10.051  -0.926  1.00  0.00     0.134 A 
ATOM     42  F   UNL     1       9.564  -6.899  -1.496  1.00  0.00    -0.206 F 
ATOM     43  C   UNL     1       9.301  -8.755  -2.909  1.00  0.00     0.040 A 
ATOM     44  C   UNL     1       8.095 -10.692  -2.143  1.00  0.00     0.040 A 
ATOM     45  F   UNL     1       7.155 -10.717   0.005  1.00  0.00    -0.206 F 
ATOM     46  C   UNL     1       8.820 -10.043  -3.140  1.00  0.00     0.006 A 
ENDBRANCH  25  39
BRANCH  26  47
ATOM     47  C   UNL     1       6.936  -4.381   8.221  1.00  0.00     0.057 A 
ATOM     48  C   UNL     1       7.959  -3.717   8.905  1.00  0.00     0.134 A 
ATOM     49  C   UNL     1       5.677  -4.432   8.834  1.00  0.00     0.134 A 
ATOM     50  F   UNL     1       9.190  -3.644   8.376  1.00  0.00    -0.206 F 
ATOM     51  C   UNL     1       7.747  -3.150  10.162  1.00  0.00     0.040 A 
ATOM     52  C   UNL     1       5.441  -3.837  10.072  1.00  0.00     0.040 A 
ATOM     53  F   UNL     1       4.649  -5.040   8.223  1.00  0.00    -0.206 F 
ATOM     54  C   UNL     1       6.482  -3.204  10.746  1.00  0.00     0.006 A 
ENDBRANCH  26  47
BRANCH  38  55
ATOM     55  C   UNL     1      10.710  -9.806   6.080  1.00  0.00     0.057 A 
ATOM     56  C   UNL     1      10.214 -10.732   7.008  1.00  0.00     0.134 A 
ATOM     57  C   UNL     1      12.095  -9.773   5.874  1.00  0.00     0.134 A 
ATOM     58  F   UNL     1       8.899 -10.799   7.265  1.00  0.00    -0.206 F 
ATOM     59  C   UNL     1      11.068 -11.563   7.734  1.00  0.00     0.040 A 
ATOM     60  C   UNL     1      12.955 -10.623   6.571  1.00  0.00     0.040 A 
ATOM     61  F   UNL     1      12.634  -8.915   4.995  1.00  0.00    -0.206 F 
ATOM     62  C   UNL     1      12.442 -11.512   7.513  1.00  0.00     0.006 A 
ENDBRANCH  38  55
ENDBRANCH  12  13
ENDBRANCH   5   7
ENDBRANCH   2   3
ENDBRANCH   1   2
BRANCH   1  63
ATOM     63  C   UNL     1       4.915   2.133  -2.755  1.00  0.00     0.023 C 
BRANCH  63  64
ATOM     64  C   UNL     1       6.073   2.829  -2.018  1.00  0.00     0.116 C 
BRANCH  64  65
ATOM     65  N   UNL     1       6.998   3.382  -2.997  1.00  0.00    -0.355 N 
ATOM     66  C   UNL     1       6.835   4.431  -3.862  1.00  0.00     0.230 C 
ATOM     67  H   UNL     1       7.874   2.933  -3.045  1.00  0.00     0.163 HD
ATOM     68  O   UNL     1       7.353   4.306  -4.975  1.00  0.00    -0.274 OA
BRANCH  66  69
ATOM     69  C   UNL     1       6.301   5.779  -3.395  1.00  0.00     0.097 C 
ATOM     70  C   UNL     1       7.491   6.418  -2.673  1.00  0.00     0.139 C 
ATOM     71  C   UNL     1       6.003   6.793  -4.515  1.00  0.00     0.117 C 
ATOM     72  C   UNL     1       4.990   5.778  -2.614  1.00  0.00     0.141 C 
ATOM     73  N   UNL     1       7.410   7.827  -2.960  1.00  0.00    -0.341 N 
ATOM     74  C   UNL     1       6.420   8.113  -3.893  1.00  0.00     0.228 C 
ATOM     75  C   UNL     1       4.506   6.730  -4.780  1.00  0.00     0.136 C 
ATOM     76  N   UNL     1       3.957   6.210  -3.543  1.00  0.00    -0.324 N 
ATOM     77  O   UNL     1       5.995   9.204  -4.200  1.00  0.00    -0.274 OA
BRANCH  73  78
ATOM     78  C   UNL     1       8.184   8.794  -2.203  1.00  0.00     0.123 C 
BRANCH  78  79
ATOM     79  C   UNL     1       9.138   9.635  -3.007  1.00  0.00     0.008 C 
ATOM     80  C   UNL     1       9.136   9.820  -4.510  1.00  0.00     0.006 C 
ATOM     81  C   UNL     1       8.620  10.915  -3.623  1.00  0.00     0.006 C 
ENDBRANCH  78  79
ENDBRANCH  73  78
BRANCH  76  82
ATOM     82  C   UNL     1       2.736   5.642  -3.483  1.00  0.00     0.298 A 
ATOM     83  N   UNL     1       1.895   5.349  -4.452  1.00  0.00    -0.193 NA
ATOM     84  O   UNL     1       2.367   5.164  -2.250  1.00  0.00    -0.423 OA
ATOM     85  C   UNL     1       0.957   4.550  -3.840  1.00  0.00     0.111 A 
ATOM     86  C   UNL     1       1.242   4.444  -2.490  1.00  0.00     0.156 A 
ATOM     87  C   UNL     1      -0.141   3.844  -4.348  1.00  0.00     0.032 A 
ATOM     88  C   UNL     1       0.522   3.692  -1.573  1.00  0.00     0.049 A 
ATOM     89  C   UNL     1      -0.890   3.057  -3.457  1.00  0.00     0.003 A 
ATOM     90  C   UNL     1      -0.563   2.983  -2.097  1.00  0.00     0.004 A 
ENDBRANCH  76  82
ENDBRANCH  66  69
ENDBRANCH  64  65
ENDBRANCH  63  64
ENDBRANCH   1  63
TORSDOF 14
