REMARK SMILES CC1(C)[C@H](C(=O)NCCCCNC(=O)c2ccc(-c3c4nc(c(-c5c(F)cccc5F)c5ccc([nH]5)c(-c5c(F)cccc5F)c5nc(c(-c6c(F)cccc6F)c6ccc3[nH]6)C=C5)C=C4)cc2)[C@@H]1C(=O)Nc1ccon1
REMARK SMILES IDX 9 1 8 2 7 3 5 4 6 5 4 7 1 8 2 9 3 10 69 11 70 12 71 13 72 14
REMARK SMILES IDX 73 16 74 17 77 18 75 19 76 20 10 21 11 22 12 23 13 24 14 26
REMARK SMILES IDX 15 27 16 28 68 29 17 30 67 31 18 32 19 33 20 34 61 35 21 36
REMARK SMILES IDX 66 37 60 38 62 39 22 40 65 41 59 42 58 43 23 45 49 46 32 47
REMARK SMILES IDX 48 48 33 49 36 50 47 51 63 52 34 53 35 54 46 56 64 57 37 58
REMARK SMILES IDX 24 59 25 60 30 61 26 62 27 63 29 64 31 65 28 66 50 67 51 68
REMARK SMILES IDX 56 69 52 70 53 71 55 72 57 73 54 74 38 75 39 76 44 77 40 78
REMARK SMILES IDX 41 79 43 80 45 81 42 82
REMARK H PARENT 7 6 72 15 12 25 62 44 36 55
REMARK Flexibility Score: inf
ROOT
ATOM      1  C   UNL     1       0.243   4.120  -0.846  1.00  0.00     0.023 C 
ENDROOT
BRANCH   1   2
ATOM      2  C   UNL     1      -0.830   3.102  -0.474  1.00  0.00     0.116 C 
BRANCH   2   3
ATOM      3  N   UNL     1      -1.150   2.235  -1.585  1.00  0.00    -0.356 N 
ATOM      4  C   UNL     1      -1.128   0.889  -1.797  1.00  0.00     0.224 C 
ATOM      5  O   UNL     1      -1.453   0.527  -2.930  1.00  0.00    -0.275 OA
ATOM      6  H   UNL     1      -1.457   2.735  -2.375  1.00  0.00     0.163 HD
BRANCH   4   7
ATOM      7  C   UNL     1      -0.820  -0.196  -0.828  1.00  0.00     0.098 C 
ATOM      8  C   UNL     1       1.029  -1.676   0.167  1.00  0.00     0.013 C 
ATOM      9  C   UNL     1       0.338  -0.327   0.140  1.00  0.00    -0.011 C 
ATOM     10  C   UNL     1       1.319   0.805   0.313  1.00  0.00     0.013 C 
ATOM     11  C   UNL     1      -1.129  -0.288   0.638  1.00  0.00     0.098 C 
BRANCH  11  12
ATOM     12  C   UNL     1      -1.677   0.778   1.501  1.00  0.00     0.230 C 
ATOM     13  O   UNL     1      -1.037   1.141   2.485  1.00  0.00    -0.274 OA
ATOM     14  N   UNL     1      -2.885   1.360   1.235  1.00  0.00    -0.308 N 
ATOM     15  H   UNL     1      -3.118   2.104   1.836  1.00  0.00     0.171 HD
BRANCH  14  16
ATOM     16  C   UNL     1      -3.832   1.091   0.277  1.00  0.00     0.175 A 
ATOM     17  C   UNL     1      -4.027  -0.047  -0.533  1.00  0.00     0.092 A 
ATOM     18  N   UNL     1      -4.766   2.016   0.021  1.00  0.00    -0.062 NA
ATOM     19  C   UNL     1      -5.069   0.291  -1.357  1.00  0.00     0.233 A 
ATOM     20  O   UNL     1      -5.517   1.525  -1.029  1.00  0.00    -0.363 OA
ENDBRANCH  14  16
ENDBRANCH  11  12
ENDBRANCH   4   7
ENDBRANCH   2   3
ENDBRANCH   1   2
BRANCH   1  21
ATOM     21  C   UNL     1      -0.266   5.290  -1.685  1.00  0.00     0.023 C 
BRANCH  21  22
ATOM     22  C   UNL     1      -1.378   6.113  -1.040  1.00  0.00     0.116 C 
BRANCH  22  23
ATOM     23  N   UNL     1      -1.023   6.630   0.275  1.00  0.00    -0.352 N 
ATOM     24  C   UNL     1      -1.117   7.916   0.752  1.00  0.00     0.251 C 
ATOM     25  H   UNL     1      -0.666   5.967   0.910  1.00  0.00     0.163 HD
ATOM     26  O   UNL     1      -0.670   8.216   1.853  1.00  0.00    -0.269 OA
BRANCH  24  27
ATOM     27  C   UNL     1      -1.731   8.945  -0.107  1.00  0.00     0.039 A 
ATOM     28  C   UNL     1      -0.996  10.091  -0.417  1.00  0.00     0.014 A 
ATOM     29  C   UNL     1      -2.989   8.724  -0.672  1.00  0.00     0.014 A 
ATOM     30  C   UNL     1      -1.481  10.972  -1.385  1.00  0.00     0.010 A 
ATOM     31  C   UNL     1      -3.439   9.568  -1.680  1.00  0.00     0.010 A 
ATOM     32  C   UNL     1      -2.677  10.684  -2.062  1.00  0.00    -0.014 A 
BRANCH  32  33
ATOM     33  C   UNL     1      -3.128  11.497  -3.216  1.00  0.00     0.031 A 
ATOM     34  C   UNL     1      -4.410  12.270  -3.137  1.00  0.00     0.074 A 
ATOM     35  C   UNL     1      -2.433  11.449  -4.370  1.00  0.00     0.049 A 
ATOM     36  N   UNL     1      -5.037  12.928  -4.078  1.00  0.00    -0.248 NA
ATOM     37  C   UNL     1      -5.092  12.282  -1.833  1.00  0.00     0.031 C 
ATOM     38  C   UNL     1      -1.196  10.695  -4.583  1.00  0.00     0.029 A 
ATOM     39  N   UNL     1      -2.683  12.028  -5.588  1.00  0.00    -0.354 N 
ATOM     40  C   UNL     1      -6.193  13.417  -3.487  1.00  0.00     0.074 A 
ATOM     41  C   UNL     1      -6.202  12.947  -2.118  1.00  0.00     0.031 C 
ATOM     42  C   UNL     1      -0.788  10.869  -5.851  1.00  0.00     0.029 A 
ATOM     43  C   UNL     1      -1.756  11.709  -6.550  1.00  0.00     0.049 A 
ATOM     44  H   UNL     1      -3.454  12.618  -5.757  1.00  0.00     0.167 HD
ATOM     45  C   UNL     1      -7.151  14.202  -4.033  1.00  0.00     0.037 A 
ATOM     46  C   UNL     1      -1.702  12.040  -7.853  1.00  0.00     0.037 A 
ATOM     47  C   UNL     1      -7.125  14.688  -5.387  1.00  0.00     0.049 A 
ATOM     48  C   UNL     1      -2.791  12.890  -8.442  1.00  0.00     0.074 A 
ATOM     49  C   UNL     1      -8.006  15.556  -6.008  1.00  0.00     0.029 A 
ATOM     50  N   UNL     1      -6.170  14.343  -6.330  1.00  0.00    -0.354 N 
ATOM     51  N   UNL     1      -3.846  13.401  -7.855  1.00  0.00    -0.248 NA
ATOM     52  C   UNL     1      -2.687  13.202  -9.874  1.00  0.00     0.031 C 
ATOM     53  C   UNL     1      -7.605  15.705  -7.340  1.00  0.00     0.029 A 
ATOM     54  C   UNL     1      -6.455  14.957  -7.538  1.00  0.00     0.049 A 
ATOM     55  H   UNL     1      -5.402  13.749  -6.165  1.00  0.00     0.167 HD
ATOM     56  C   UNL     1      -4.524  14.105  -8.840  1.00  0.00     0.074 A 
ATOM     57  C   UNL     1      -3.754  13.968 -10.060  1.00  0.00     0.031 C 
ATOM     58  C   UNL     1      -5.681  14.803  -8.742  1.00  0.00     0.037 A 
BRANCH  45  59
ATOM     59  C   UNL     1      -8.306  14.586  -3.159  1.00  0.00     0.057 A 
ATOM     60  C   UNL     1      -8.164  15.511  -2.117  1.00  0.00     0.134 A 
ATOM     61  C   UNL     1      -9.578  14.044  -3.375  1.00  0.00     0.134 A 
ATOM     62  F   UNL     1      -6.967  16.056  -1.850  1.00  0.00    -0.206 F 
ATOM     63  C   UNL     1      -9.242  15.866  -1.304  1.00  0.00     0.040 A 
ATOM     64  C   UNL     1     -10.669  14.408  -2.584  1.00  0.00     0.040 A 
ATOM     65  F   UNL     1      -9.783  13.155  -4.359  1.00  0.00    -0.206 F 
ATOM     66  C   UNL     1     -10.501  15.317  -1.541  1.00  0.00     0.006 A 
ENDBRANCH  45  59
BRANCH  46  67
ATOM     67  C   UNL     1      -0.572  11.568  -8.690  1.00  0.00     0.057 A 
ATOM     68  C   UNL     1       0.424  12.454  -9.116  1.00  0.00     0.134 A 
ATOM     69  C   UNL     1      -0.456  10.229  -9.079  1.00  0.00     0.134 A 
ATOM     70  F   UNL     1       0.354  13.753  -8.790  1.00  0.00    -0.206 F 
ATOM     71  C   UNL     1       1.491  12.028  -9.908  1.00  0.00     0.040 A 
ATOM     72  C   UNL     1       0.616   9.784  -9.855  1.00  0.00     0.040 A 
ATOM     73  F   UNL     1      -1.376   9.331  -8.698  1.00  0.00    -0.206 F 
ATOM     74  C   UNL     1       1.591  10.687 -10.275  1.00  0.00     0.006 A 
ENDBRANCH  46  67
BRANCH  58  75
ATOM     75  C   UNL     1      -6.179  15.477  -9.984  1.00  0.00     0.057 A 
ATOM     76  C   UNL     1      -6.796  14.754 -11.012  1.00  0.00     0.134 A 
ATOM     77  C   UNL     1      -6.086  16.867 -10.130  1.00  0.00     0.134 A 
ATOM     78  F   UNL     1      -6.900  13.419 -10.935  1.00  0.00    -0.206 F 
ATOM     79  C   UNL     1      -7.295  15.390 -12.149  1.00  0.00     0.040 A 
ATOM     80  C   UNL     1      -6.599  17.516 -11.254  1.00  0.00     0.040 A 
ATOM     81  F   UNL     1      -5.511  17.615  -9.177  1.00  0.00    -0.206 F 
ATOM     82  C   UNL     1      -7.204  16.776 -12.269  1.00  0.00     0.006 A 
ENDBRANCH  58  75
ENDBRANCH  32  33
ENDBRANCH  24  27
ENDBRANCH  22  23
ENDBRANCH  21  22
ENDBRANCH   1  21
TORSDOF 13
