REMARK SMILES CCc1ccc(-c2cc(Cl)cc3c2O[C@H](C(F)(F)F)C(C(=O)NCCCCNC(=O)c2ccc(-c4c5nc(c(-c6c(F)cccc6F)c6ccc([nH]6)c(-c6c(F)cccc6F)c6nc(c(-c7c(F)cccc7F)c7ccc4[nH]7)C=C6)C=C5)cc2)=C3)cc1
REMARK SMILES IDX 25 1 24 2 23 3 21 4 22 5 20 7 7 8 8 9 13 10 9 11 12 12 14 13
REMARK SMILES IDX 10 14 11 15 85 16 15 17 6 18 3 19 4 20 87 21 5 22 86 23 2 24
REMARK SMILES IDX 1 25 16 26 17 27 18 28 19 29 26 30 27 31 28 32 29 33 30 35
REMARK SMILES IDX 31 36 32 37 84 38 33 39 83 40 34 41 35 42 36 43 77 44 37 45
REMARK SMILES IDX 82 46 76 47 78 48 38 49 81 50 75 51 74 52 39 54 65 55 48 56
REMARK SMILES IDX 64 57 49 58 52 59 63 60 79 61 50 62 51 63 62 65 80 66 53 67
REMARK SMILES IDX 40 68 41 69 46 70 42 71 43 72 45 73 47 74 44 75 66 76 67 77
REMARK SMILES IDX 72 78 68 79 69 80 71 81 73 82 70 83 54 84 55 85 60 86 56 87
REMARK SMILES IDX 57 88 59 89 61 90 58 91
REMARK H PARENT 23 6 28 34 78 53 52 64
REMARK Flexibility Score: inf
ROOT
ATOM      1  C   UNL     1      -0.951 -12.227   7.970  1.00  0.00     0.023 C 
ENDROOT
BRANCH   1   2
ATOM      2  C   UNL     1      -0.002 -11.021   8.013  1.00  0.00     0.116 C 
BRANCH   2   3
ATOM      3  N   UNL     1       0.718 -10.927   6.762  1.00  0.00    -0.352 N 
ATOM      4  C   UNL     1       0.965  -9.857   5.975  1.00  0.00     0.251 C 
ATOM      5  O   UNL     1       1.134 -10.057   4.776  1.00  0.00    -0.270 OA
ATOM      6  H   UNL     1       1.087 -11.778   6.432  1.00  0.00     0.163 HD
BRANCH   4   7
ATOM      7  C   UNL     1       1.136  -8.514   6.608  1.00  0.00     0.067 C 
ATOM      8  C   UNL     1       1.357  -6.265   3.217  1.00  0.00     0.026 A 
ATOM      9  C   UNL     1       2.273  -6.918   2.348  1.00  0.00     0.033 A 
ATOM     10  C   UNL     1       1.349  -6.702   4.555  1.00  0.00     0.135 A 
ATOM     11  C   UNL     1       3.223  -7.829   2.800  1.00  0.00     0.042 A 
ATOM     12  C   UNL     1       2.403  -7.535   5.014  1.00  0.00     0.019 A 
ATOM     13  O   UNL     1       0.324  -6.413   5.446  1.00  0.00    -0.475 OA
ATOM     14  Cl  UNL     1       4.253  -8.620   1.675  1.00  0.00    -0.084 Cl
ATOM     15  C   UNL     1       3.344  -8.086   4.150  1.00  0.00     0.032 A 
ATOM     16  C   UNL     1       2.365  -7.994   6.420  1.00  0.00     0.025 C 
ATOM     17  C   UNL     1      -0.012  -7.537   6.375  1.00  0.00     0.314 C 
BRANCH   8  18
ATOM     18  C   UNL     1       0.670  -5.090   2.612  1.00  0.00    -0.015 A 
ATOM     19  C   UNL     1       0.407  -2.817   0.886  1.00  0.00    -0.048 A 
ATOM     20  C   UNL     1      -0.039  -4.086   0.489  1.00  0.00     0.004 A 
ATOM     21  C   UNL     1       0.861  -2.675   2.202  1.00  0.00     0.004 A 
ATOM     22  C   UNL     1       0.071  -5.196   1.342  1.00  0.00     0.009 A 
ATOM     23  C   UNL     1       0.983  -3.793   3.055  1.00  0.00     0.009 A 
BRANCH  19  24
ATOM     24  C   UNL     1       0.409  -1.711  -0.150  1.00  0.00     0.032 C 
ATOM     25  C   UNL     1       1.007  -0.363   0.238  1.00  0.00     0.009 C 
ENDBRANCH  19  24
ENDBRANCH   8  18
BRANCH  17  26
ATOM     26  C   UNL     1      -0.486  -7.017   7.752  1.00  0.00     0.429 C 
ATOM     27  F   UNL     1      -0.121  -5.737   7.984  1.00  0.00    -0.167 F 
ATOM     28  F   UNL     1      -1.834  -7.090   7.868  1.00  0.00    -0.167 F 
ATOM     29  F   UNL     1       0.018  -7.751   8.781  1.00  0.00    -0.167 F 
ENDBRANCH  17  26
ENDBRANCH   4   7
ENDBRANCH   2   3
ENDBRANCH   1   2
BRANCH   1  30
ATOM     30  C   UNL     1      -0.276 -13.588   7.739  1.00  0.00     0.023 C 
BRANCH  30  31
ATOM     31  C   UNL     1       0.830 -13.934   8.730  1.00  0.00     0.116 C 
BRANCH  31  32
ATOM     32  N   UNL     1       0.319 -14.082  10.083  1.00  0.00    -0.352 N 
ATOM     33  C   UNL     1       0.363 -15.171  10.917  1.00  0.00     0.251 C 
ATOM     34  H   UNL     1      -0.122 -13.285  10.456  1.00  0.00     0.163 HD
ATOM     35  O   UNL     1      -0.301 -15.179  11.953  1.00  0.00    -0.269 OA
BRANCH  33  36
ATOM     36  C   UNL     1       1.181 -16.349  10.559  1.00  0.00     0.039 A 
ATOM     37  C   UNL     1       0.623 -17.623  10.691  1.00  0.00     0.014 A 
ATOM     38  C   UNL     1       2.489 -16.201  10.089  1.00  0.00     0.014 A 
ATOM     39  C   UNL     1       1.346 -18.742  10.274  1.00  0.00     0.010 A 
ATOM     40  C   UNL     1       3.181 -17.310   9.606  1.00  0.00     0.010 A 
ATOM     41  C   UNL     1       2.612 -18.591   9.682  1.00  0.00    -0.014 A 
BRANCH  41  42
ATOM     42  C   UNL     1       3.326 -19.753   9.093  1.00  0.00     0.031 A 
ATOM     43  C   UNL     1       4.650 -20.201   9.645  1.00  0.00     0.074 A 
ATOM     44  C   UNL     1       2.808 -20.364   8.009  1.00  0.00     0.049 A 
ATOM     45  N   UNL     1       5.441 -21.155   9.222  1.00  0.00    -0.248 NA
ATOM     46  C   UNL     1       5.165 -19.468  10.811  1.00  0.00     0.031 C 
ATOM     47  C   UNL     1       1.555 -19.993   7.348  1.00  0.00     0.029 A 
ATOM     48  N   UNL     1       3.275 -21.419   7.264  1.00  0.00    -0.354 N 
ATOM     49  C   UNL     1       6.547 -21.132  10.062  1.00  0.00     0.074 A 
ATOM     50  C   UNL     1       6.350 -20.036  10.986  1.00  0.00     0.031 C 
ATOM     51  C   UNL     1       1.342 -20.820   6.313  1.00  0.00     0.029 A 
ATOM     52  C   UNL     1       2.461 -21.750   6.208  1.00  0.00     0.049 A 
ATOM     53  H   UNL     1       4.113 -21.893   7.468  1.00  0.00     0.167 HD
ATOM     54  C   UNL     1       7.618 -21.961  10.074  1.00  0.00     0.037 A 
ATOM     55  C   UNL     1       2.605 -22.687   5.252  1.00  0.00     0.037 A 
ATOM     56  C   UNL     1       7.806 -23.058   9.159  1.00  0.00     0.049 A 
ATOM     57  C   UNL     1       3.819 -23.574   5.269  1.00  0.00     0.074 A 
ATOM     58  C   UNL     1       8.825 -23.994   9.134  1.00  0.00     0.029 A 
ATOM     59  N   UNL     1       6.962 -23.358   8.099  1.00  0.00    -0.354 N 
ATOM     60  N   UNL     1       4.816 -23.593   6.120  1.00  0.00    -0.248 NA
ATOM     61  C   UNL     1       3.928 -24.569   4.193  1.00  0.00     0.031 C 
ATOM     62  C   UNL     1       8.629 -24.825   8.026  1.00  0.00     0.029 A 
ATOM     63  C   UNL     1       7.458 -24.441   7.392  1.00  0.00     0.049 A 
ATOM     64  H   UNL     1       6.134 -22.872   7.882  1.00  0.00     0.167 HD
ATOM     65  C   UNL     1       5.660 -24.610   5.694  1.00  0.00     0.074 A 
ATOM     66  C   UNL     1       5.046 -25.201   4.524  1.00  0.00     0.031 C 
ATOM     67  C   UNL     1       6.841 -25.016   6.223  1.00  0.00     0.037 A 
BRANCH  54  68
ATOM     68  C   UNL     1       8.676 -21.714  11.112  1.00  0.00     0.057 A 
ATOM     69  C   UNL     1       8.446 -21.951  12.474  1.00  0.00     0.134 A 
ATOM     70  C   UNL     1       9.953 -21.275  10.742  1.00  0.00     0.134 A 
ATOM     71  F   UNL     1       7.242 -22.365  12.899  1.00  0.00    -0.206 F 
ATOM     72  C   UNL     1       9.438 -21.735  13.432  1.00  0.00     0.040 A 
ATOM     73  C   UNL     1      10.963 -21.083  11.687  1.00  0.00     0.040 A 
ATOM     74  F   UNL     1      10.246 -21.037   9.454  1.00  0.00    -0.206 F 
ATOM     75  C   UNL     1      10.704 -21.307  13.037  1.00  0.00     0.006 A 
ENDBRANCH  54  68
BRANCH  55  76
ATOM     76  C   UNL     1       1.570 -22.840   4.198  1.00  0.00     0.057 A 
ATOM     77  C   UNL     1       0.755 -23.977   4.145  1.00  0.00     0.134 A 
ATOM     78  C   UNL     1       1.374 -21.862   3.216  1.00  0.00     0.134 A 
ATOM     79  F   UNL     1       0.907 -24.959   5.046  1.00  0.00    -0.206 F 
ATOM     80  C   UNL     1      -0.203 -24.145   3.143  1.00  0.00     0.040 A 
ATOM     81  C   UNL     1       0.402 -22.003   2.225  1.00  0.00     0.040 A 
ATOM     82  F   UNL     1       2.117 -20.745   3.214  1.00  0.00    -0.206 F 
ATOM     83  C   UNL     1      -0.385 -23.153   2.183  1.00  0.00     0.006 A 
ENDBRANCH  55  76
BRANCH  67  84
ATOM     84  C   UNL     1       7.539 -26.160   5.547  1.00  0.00     0.057 A 
ATOM     85  C   UNL     1       8.150 -26.015   4.295  1.00  0.00     0.134 A 
ATOM     86  C   UNL     1       7.632 -27.411   6.171  1.00  0.00     0.134 A 
ATOM     87  F   UNL     1       8.085 -24.848   3.637  1.00  0.00    -0.206 F 
ATOM     88  C   UNL     1       8.810 -27.080   3.678  1.00  0.00     0.040 A 
ATOM     89  C   UNL     1       8.314 -28.474   5.577  1.00  0.00     0.040 A 
ATOM     90  F   UNL     1       7.076 -27.616   7.374  1.00  0.00    -0.206 F 
ATOM     91  C   UNL     1       8.900 -28.311   4.323  1.00  0.00     0.006 A 
ENDBRANCH  67  84
ENDBRANCH  41  42
ENDBRANCH  33  36
ENDBRANCH  31  32
ENDBRANCH  30  31
ENDBRANCH   1  30
TORSDOF 14
