REMARK SMILES CC(C)C[C@H](CNC(=O)[C@]1([NH3+])CCC[C@@H](C)C1)C(=O)NCCCCNC(=O)c1ccc(-c2c3nc(c(-c4c(F)cccc4F)c4ccc([nH]4)c(-c4c(F)cccc4F)c4nc(c(-c5c(F)cccc5F)c5ccc2[nH]5)C=C4)C=C3)cc1
REMARK SMILES IDX 21 1 20 2 18 3 19 4 5 6 4 7 2 8 1 9 3 10 6 11 7 12 8 13 9 15
REMARK SMILES IDX 10 16 12 17 17 18 13 19 15 20 14 21 16 22 11 23 22 27 23 28
REMARK SMILES IDX 24 29 25 30 26 31 27 33 28 34 29 35 81 36 30 37 80 38 31 39
REMARK SMILES IDX 32 40 33 41 74 42 34 43 79 44 73 45 75 46 35 47 78 48 72 49
REMARK SMILES IDX 71 50 36 52 62 53 45 54 61 55 46 56 49 57 60 58 76 59 47 60
REMARK SMILES IDX 48 61 59 63 77 64 50 65 37 66 38 67 43 68 39 69 40 70 42 71
REMARK SMILES IDX 44 72 41 73 63 74 64 75 69 76 65 77 66 78 68 79 70 80 67 81
REMARK SMILES IDX 51 82 52 83 57 84 53 85 54 86 56 87 58 88 55 89
REMARK H PARENT 20 5 7 14 11 24 11 25 11 26 25 32 75 51 49 62
REMARK Flexibility Score: inf
ROOT
ATOM      1  C   UNL     1      -2.059  -5.052   0.027  1.00  0.00     0.116 C 
ENDROOT
BRANCH   1   2
ATOM      2  N   UNL     1      -0.754  -5.586   0.343  1.00  0.00    -0.356 N 
ATOM      3  C   UNL     1       0.381  -4.951   0.720  1.00  0.00     0.224 C 
ATOM      4  O   UNL     1       1.417  -5.619   0.763  1.00  0.00    -0.275 OA
ATOM      5  H   UNL     1      -0.678  -6.565   0.274  1.00  0.00     0.163 HD
BRANCH   3   6
ATOM      6  C   UNL     1       0.382  -3.485   1.121  1.00  0.00     0.098 C 
BRANCH   6   7
ATOM      7  C   UNL     1      -0.404  -3.226   2.413  1.00  0.00     0.018 C 
BRANCH   7   8
ATOM      8  C   UNL     1       0.314  -3.740   3.680  1.00  0.00    -0.017 C 
ATOM      9  C   UNL     1       1.609  -2.971   3.973  1.00  0.00     0.007 C 
ATOM     10  C   UNL     1      -0.636  -3.607   4.871  1.00  0.00     0.007 C 
ENDBRANCH   7   8
ENDBRANCH   6   7
BRANCH   6  11
ATOM     11  C   UNL     1       0.049  -2.550  -0.059  1.00  0.00     0.129 C 
BRANCH  11  12
ATOM     12  N   UNL     1      -0.324  -1.167   0.310  1.00  0.00    -0.350 N 
ATOM     13  C   UNL     1       0.385   0.022   0.270  1.00  0.00     0.281 C 
ATOM     14  H   UNL     1      -1.245  -1.075   0.645  1.00  0.00     0.163 HD
ATOM     15  O   UNL     1      -0.154   1.046   0.683  1.00  0.00    -0.268 OA
BRANCH  13  16
ATOM     16  C   UNL     1       1.810  -0.001  -0.355  1.00  0.00     0.174 C 
ATOM     17  C   UNL     1       2.686  -0.827   0.604  1.00  0.00     0.079 C 
ATOM     18  C   UNL     1       2.546   1.354  -0.470  1.00  0.00     0.082 C 
ATOM     19  C   UNL     1       4.045  -1.154   0.035  1.00  0.00     0.007 C 
ATOM     20  C   UNL     1       4.022   1.206  -0.964  1.00  0.00    -0.008 C 
ATOM     21  C   UNL     1       4.817   0.136  -0.186  1.00  0.00     0.004 C 
ATOM     22  C   UNL     1       4.140   0.937  -2.470  1.00  0.00     0.008 C 
BRANCH  16  23
ATOM     23  N   UNL     1       1.635  -0.517  -1.742  1.00  0.00    -0.345 N 
ATOM     24  H   UNL     1       2.542  -0.556  -2.207  1.00  0.00     0.345 HD
ATOM     25  H   UNL     1       1.013   0.104  -2.259  1.00  0.00     0.345 HD
ATOM     26  H   UNL     1       1.230  -1.452  -1.708  1.00  0.00     0.345 HD
ENDBRANCH  16  23
ENDBRANCH  13  16
ENDBRANCH  11  12
ENDBRANCH   6  11
ENDBRANCH   3   6
ENDBRANCH   1   2
BRANCH   1  27
ATOM     27  C   UNL     1      -2.331  -5.187  -1.470  1.00  0.00     0.023 C 
BRANCH  27  28
ATOM     28  C   UNL     1      -2.462  -6.637  -1.941  1.00  0.00     0.023 C 
BRANCH  28  29
ATOM     29  C   UNL     1      -3.416  -7.481  -1.107  1.00  0.00     0.116 C 
BRANCH  29  30
ATOM     30  N   UNL     1      -4.732  -6.872  -0.980  1.00  0.00    -0.352 N 
ATOM     31  C   UNL     1      -5.957  -7.484  -1.023  1.00  0.00     0.251 C 
ATOM     32  H   UNL     1      -4.744  -5.897  -0.847  1.00  0.00     0.163 HD
ATOM     33  O   UNL     1      -6.991  -6.823  -1.037  1.00  0.00    -0.269 OA
BRANCH  31  34
ATOM     34  C   UNL     1      -6.004  -8.953  -1.090  1.00  0.00     0.039 A 
ATOM     35  C   UNL     1      -6.733  -9.558  -2.114  1.00  0.00     0.014 A 
ATOM     36  C   UNL     1      -5.263  -9.718  -0.184  1.00  0.00     0.014 A 
ATOM     37  C   UNL     1      -6.672 -10.941  -2.266  1.00  0.00     0.010 A 
ATOM     38  C   UNL     1      -5.142 -11.086  -0.386  1.00  0.00     0.010 A 
ATOM     39  C   UNL     1      -5.849 -11.710  -1.426  1.00  0.00    -0.014 A 
BRANCH  39  40
ATOM     40  C   UNL     1      -5.721 -13.174  -1.613  1.00  0.00     0.031 A 
ATOM     41  C   UNL     1      -6.195 -14.109  -0.538  1.00  0.00     0.074 A 
ATOM     42  C   UNL     1      -5.123 -13.653  -2.720  1.00  0.00     0.049 A 
ATOM     43  N   UNL     1      -6.112 -15.413  -0.482  1.00  0.00    -0.248 NA
ATOM     44  C   UNL     1      -6.818 -13.495   0.646  1.00  0.00     0.031 C 
ATOM     45  C   UNL     1      -4.574 -12.841  -3.808  1.00  0.00     0.029 A 
ATOM     46  N   UNL     1      -4.867 -14.944  -3.108  1.00  0.00    -0.354 N 
ATOM     47  C   UNL     1      -6.660 -15.772   0.742  1.00  0.00     0.074 A 
ATOM     48  C   UNL     1      -7.015 -14.547   1.424  1.00  0.00     0.031 C 
ATOM     49  C   UNL     1      -4.066 -13.652  -4.749  1.00  0.00     0.029 A 
ATOM     50  C   UNL     1      -4.220 -15.037  -4.316  1.00  0.00     0.049 A 
ATOM     51  H   UNL     1      -5.122 -15.728  -2.571  1.00  0.00     0.167 HD
ATOM     52  C   UNL     1      -6.874 -17.012   1.240  1.00  0.00     0.037 A 
ATOM     53  C   UNL     1      -3.796 -16.120  -4.994  1.00  0.00     0.037 A 
ATOM     54  C   UNL     1      -6.540 -18.227   0.547  1.00  0.00     0.049 A 
ATOM     55  C   UNL     1      -4.043 -17.486  -4.418  1.00  0.00     0.074 A 
ATOM     56  C   UNL     1      -6.763 -19.534   0.942  1.00  0.00     0.029 A 
ATOM     57  N   UNL     1      -5.908 -18.283  -0.686  1.00  0.00    -0.354 N 
ATOM     58  N   UNL     1      -4.625 -17.815  -3.290  1.00  0.00    -0.248 NA
ATOM     59  C   UNL     1      -3.584 -18.633  -5.214  1.00  0.00     0.031 C 
ATOM     60  C   UNL     1      -6.229 -20.382  -0.035  1.00  0.00     0.029 A 
ATOM     61  C   UNL     1      -5.717 -19.602  -1.060  1.00  0.00     0.049 A 
ATOM     62  H   UNL     1      -5.635 -17.500  -1.218  1.00  0.00     0.167 HD
ATOM     63  C   UNL     1      -4.625 -19.203  -3.252  1.00  0.00     0.074 A 
ATOM     64  C   UNL     1      -4.000 -19.654  -4.478  1.00  0.00     0.031 C 
ATOM     65  C   UNL     1      -5.099 -20.031  -2.289  1.00  0.00     0.037 A 
BRANCH  52  66
ATOM     66  C   UNL     1      -7.508 -17.110   2.597  1.00  0.00     0.057 A 
ATOM     67  C   UNL     1      -8.849 -16.761   2.811  1.00  0.00     0.134 A 
ATOM     68  C   UNL     1      -6.780 -17.579   3.697  1.00  0.00     0.134 A 
ATOM     69  F   UNL     1      -9.598 -16.289   1.803  1.00  0.00    -0.206 F 
ATOM     70  C   UNL     1      -9.434 -16.849   4.075  1.00  0.00     0.040 A 
ATOM     71  C   UNL     1      -7.362 -17.700   4.960  1.00  0.00     0.040 A 
ATOM     72  F   UNL     1      -5.493 -17.934   3.561  1.00  0.00    -0.206 F 
ATOM     73  C   UNL     1      -8.691 -17.327   5.153  1.00  0.00     0.006 A 
ENDBRANCH  52  66
BRANCH  53  74
ATOM     74  C   UNL     1      -3.113 -15.957  -6.302  1.00  0.00     0.057 A 
ATOM     75  C   UNL     1      -3.735 -16.344  -7.495  1.00  0.00     0.134 A 
ATOM     76  C   UNL     1      -1.823 -15.420  -6.392  1.00  0.00     0.134 A 
ATOM     77  F   UNL     1      -4.964 -16.881  -7.472  1.00  0.00    -0.206 F 
ATOM     78  C   UNL     1      -3.092 -16.222  -8.728  1.00  0.00     0.040 A 
ATOM     79  C   UNL     1      -1.179 -15.268  -7.621  1.00  0.00     0.040 A 
ATOM     80  F   UNL     1      -1.177 -15.021  -5.287  1.00  0.00    -0.206 F 
ATOM     81  C   UNL     1      -1.811 -15.678  -8.793  1.00  0.00     0.006 A 
ENDBRANCH  53  74
BRANCH  65  82
ATOM     82  C   UNL     1      -4.992 -21.506  -2.539  1.00  0.00     0.057 A 
ATOM     83  C   UNL     1      -3.765 -22.179  -2.480  1.00  0.00     0.134 A 
ATOM     84  C   UNL     1      -6.137 -22.269  -2.800  1.00  0.00     0.134 A 
ATOM     85  F   UNL     1      -2.629 -21.504  -2.246  1.00  0.00    -0.206 F 
ATOM     86  C   UNL     1      -3.679 -23.555  -2.695  1.00  0.00     0.040 A 
ATOM     87  C   UNL     1      -6.067 -23.649  -2.990  1.00  0.00     0.040 A 
ATOM     88  F   UNL     1      -7.344 -21.686  -2.861  1.00  0.00    -0.206 F 
ATOM     89  C   UNL     1      -4.833 -24.295  -2.944  1.00  0.00     0.006 A 
ENDBRANCH  65  82
ENDBRANCH  39  40
ENDBRANCH  31  34
ENDBRANCH  29  30
ENDBRANCH  28  29
ENDBRANCH  27  28
ENDBRANCH   1  27
TORSDOF 17
