REMARK SMILES Cc1ccc(CCC(=O)N2CCC3(CC2)[C@H](C(=O)NCCCCNC(=O)c2ccc(-c4c5nc(c(-c6c(F)cccc6F)c6ccc([nH]6)c(-c6c(F)cccc6F)c6nc(c(-c7c(F)cccc7F)c7ccc4[nH]7)C=C6)C=C5)cc2)CC(=O)N3C)cc1
REMARK SMILES IDX 21 1 20 2 19 3 17 4 18 5 16 7 8 8 9 9 10 10 11 11 15 12
REMARK SMILES IDX 12 13 14 14 13 15 84 16 81 17 82 18 85 19 83 20 7 21 6 22
REMARK SMILES IDX 5 23 1 24 2 25 3 26 87 27 4 28 86 29 22 30 23 31 24 32 25 33
REMARK SMILES IDX 26 35 27 36 28 37 80 38 29 39 79 40 30 41 31 42 32 43 73 44
REMARK SMILES IDX 33 45 78 46 72 47 74 48 34 49 77 50 71 51 70 52 35 54 61 55
REMARK SMILES IDX 44 56 60 57 45 58 48 59 59 60 75 61 46 62 47 63 58 65 76 66
REMARK SMILES IDX 49 67 36 68 37 69 42 70 38 71 39 72 41 73 43 74 40 75 62 76
REMARK SMILES IDX 63 77 68 78 64 79 65 80 67 81 69 82 66 83 50 84 51 85 56 86
REMARK SMILES IDX 52 87 53 88 55 89 57 90 54 91
REMARK H PARENT 19 6 24 34 74 53 48 64
REMARK Flexibility Score: inf
ROOT
ATOM      1  C   UNL     1       1.172  -5.664  -3.963  1.00  0.00     0.023 C 
ENDROOT
BRANCH   1   2
ATOM      2  C   UNL     1       2.280  -4.721  -4.467  1.00  0.00     0.116 C 
BRANCH   2   3
ATOM      3  N   UNL     1       1.850  -3.460  -5.063  1.00  0.00    -0.356 N 
ATOM      4  C   UNL     1       1.616  -2.201  -4.618  1.00  0.00     0.226 C 
ATOM      5  O   UNL     1       1.370  -1.363  -5.496  1.00  0.00    -0.275 OA
ATOM      6  H   UNL     1       1.689  -3.545  -6.031  1.00  0.00     0.163 HD
BRANCH   4   7
ATOM      7  C   UNL     1       1.608  -1.743  -3.156  1.00  0.00     0.113 C 
ATOM      8  C   UNL     1      -3.368  -1.704  -1.314  1.00  0.00     0.222 C 
ATOM      9  O   UNL     1      -4.370  -2.269  -1.764  1.00  0.00    -0.275 OA
ATOM     10  N   UNL     1      -2.156  -2.365  -1.246  1.00  0.00    -0.343 N 
ATOM     11  C   UNL     1      -1.831  -3.400  -2.201  1.00  0.00     0.122 C 
ATOM     12  C   UNL     1      -1.076  -2.083  -0.337  1.00  0.00     0.122 C 
ATOM     13  C   UNL     1      -0.618  -2.928  -2.995  1.00  0.00     0.051 C 
ATOM     14  C   UNL     1       0.127  -1.500  -1.078  1.00  0.00     0.051 C 
ATOM     15  C   UNL     1       0.631  -2.462  -2.186  1.00  0.00     0.058 C 
ATOM     16  N   UNL     1       1.552  -3.441  -1.569  1.00  0.00    -0.339 N 
ATOM     17  C   UNL     1       2.989  -1.828  -2.531  1.00  0.00     0.116 C 
ATOM     18  C   UNL     1       2.888  -3.025  -1.638  1.00  0.00     0.223 C 
ATOM     19  C   UNL     1       1.208  -4.454  -0.589  1.00  0.00     0.147 C 
ATOM     20  O   UNL     1       3.833  -3.526  -1.048  1.00  0.00    -0.275 OA
BRANCH   8  21
ATOM     21  C   UNL     1      -3.412  -0.190  -1.071  1.00  0.00     0.105 C 
BRANCH  21  22
ATOM     22  C   UNL     1      -3.311   0.380   0.354  1.00  0.00     0.045 C 
BRANCH  22  23
ATOM     23  C   UNL     1      -1.927   0.888   0.725  1.00  0.00    -0.047 A 
ATOM     24  C   UNL     1       2.343   1.185   1.036  1.00  0.00     0.044 C 
ATOM     25  C   UNL     1       0.843   1.232   1.044  1.00  0.00    -0.051 A 
ATOM     26  C   UNL     1       0.106   0.530   2.003  1.00  0.00     0.004 A 
ATOM     27  C   UNL     1       0.162   1.901   0.021  1.00  0.00     0.004 A 
ATOM     28  C   UNL     1      -1.278   0.392   1.866  1.00  0.00     0.004 A 
ATOM     29  C   UNL     1      -1.217   1.738  -0.132  1.00  0.00     0.004 A 
ENDBRANCH  22  23
ENDBRANCH  21  22
ENDBRANCH   8  21
ENDBRANCH   4   7
ENDBRANCH   2   3
ENDBRANCH   1   2
BRANCH   1  30
ATOM     30  C   UNL     1      -0.027  -5.882  -4.894  1.00  0.00     0.023 C 
BRANCH  30  31
ATOM     31  C   UNL     1       0.260  -6.896  -5.975  1.00  0.00     0.116 C 
BRANCH  31  32
ATOM     32  N   UNL     1       0.047  -8.281  -5.569  1.00  0.00    -0.352 N 
ATOM     33  C   UNL     1       0.649  -9.425  -6.056  1.00  0.00     0.251 C 
ATOM     34  H   UNL     1      -0.615  -8.418  -4.853  1.00  0.00     0.163 HD
ATOM     35  O   UNL     1       0.328 -10.533  -5.631  1.00  0.00    -0.269 OA
BRANCH  33  36
ATOM     36  C   UNL     1       1.788  -9.283  -6.990  1.00  0.00     0.039 A 
ATOM     37  C   UNL     1       2.991  -9.902  -6.640  1.00  0.00     0.014 A 
ATOM     38  C   UNL     1       1.750  -8.316  -7.993  1.00  0.00     0.014 A 
ATOM     39  C   UNL     1       4.186  -9.354  -7.091  1.00  0.00     0.010 A 
ATOM     40  C   UNL     1       2.933  -7.697  -8.342  1.00  0.00     0.010 A 
ATOM     41  C   UNL     1       4.146  -8.177  -7.839  1.00  0.00    -0.014 A 
BRANCH  41  42
ATOM     42  C   UNL     1       5.325  -7.354  -8.075  1.00  0.00     0.031 A 
ATOM     43  C   UNL     1       5.974  -7.383  -9.398  1.00  0.00     0.074 A 
ATOM     44  C   UNL     1       5.824  -6.567  -7.096  1.00  0.00     0.049 A 
ATOM     45  N   UNL     1       7.239  -7.220  -9.589  1.00  0.00    -0.248 NA
ATOM     46  C   UNL     1       5.233  -7.648 -10.624  1.00  0.00     0.031 C 
ATOM     47  C   UNL     1       6.881  -5.566  -7.219  1.00  0.00     0.029 A 
ATOM     48  N   UNL     1       5.606  -6.674  -5.717  1.00  0.00    -0.354 N 
ATOM     49  C   UNL     1       7.444  -7.101 -10.945  1.00  0.00     0.074 A 
ATOM     50  C   UNL     1       6.174  -7.434 -11.547  1.00  0.00     0.031 C 
ATOM     51  C   UNL     1       7.422  -5.357  -6.009  1.00  0.00     0.029 A 
ATOM     52  C   UNL     1       6.816  -6.305  -5.090  1.00  0.00     0.049 A 
ATOM     53  H   UNL     1       4.773  -6.952  -5.272  1.00  0.00     0.167 HD
ATOM     54  C   UNL     1       8.627  -6.602 -11.406  1.00  0.00     0.037 A 
ATOM     55  C   UNL     1       7.494  -7.174  -4.289  1.00  0.00     0.037 A 
ATOM     56  C   UNL     1       9.531  -6.290 -10.301  1.00  0.00     0.049 A 
ATOM     57  C   UNL     1       8.880  -7.503  -4.788  1.00  0.00     0.074 A 
ATOM     58  C   UNL     1       9.787  -5.111  -9.620  1.00  0.00     0.029 A 
ATOM     59  N   UNL     1      10.072  -7.314  -9.534  1.00  0.00    -0.354 N 
ATOM     60  N   UNL     1       9.290  -7.253  -6.001  1.00  0.00    -0.248 NA
ATOM     61  C   UNL     1       9.898  -8.175  -3.984  1.00  0.00     0.031 C 
ATOM     62  C   UNL     1      10.432  -5.436  -8.404  1.00  0.00     0.029 A 
ATOM     63  C   UNL     1      10.591  -6.809  -8.356  1.00  0.00     0.049 A 
ATOM     64  H   UNL     1      10.084  -8.264  -9.792  1.00  0.00     0.167 HD
ATOM     65  C   UNL     1      10.556  -7.748  -6.167  1.00  0.00     0.074 A 
ATOM     66  C   UNL     1      10.905  -8.290  -4.867  1.00  0.00     0.031 C 
ATOM     67  C   UNL     1      11.199  -7.689  -7.369  1.00  0.00     0.037 A 
BRANCH  54  68
ATOM     68  C   UNL     1       8.821  -6.097 -12.818  1.00  0.00     0.057 A 
ATOM     69  C   UNL     1       9.686  -5.019 -13.090  1.00  0.00     0.134 A 
ATOM     70  C   UNL     1       8.142  -6.589 -13.946  1.00  0.00     0.134 A 
ATOM     71  F   UNL     1      10.506  -4.518 -12.157  1.00  0.00    -0.206 F 
ATOM     72  C   UNL     1       9.755  -4.392 -14.341  1.00  0.00     0.040 A 
ATOM     73  C   UNL     1       8.156  -5.939 -15.189  1.00  0.00     0.040 A 
ATOM     74  F   UNL     1       7.476  -7.751 -13.908  1.00  0.00    -0.206 F 
ATOM     75  C   UNL     1       8.953  -4.822 -15.386  1.00  0.00     0.006 A 
ENDBRANCH  54  68
BRANCH  55  76
ATOM     76  C   UNL     1       6.598  -8.106  -3.556  1.00  0.00     0.057 A 
ATOM     77  C   UNL     1       5.726  -7.569  -2.592  1.00  0.00     0.134 A 
ATOM     78  C   UNL     1       6.301  -9.380  -4.045  1.00  0.00     0.134 A 
ATOM     79  F   UNL     1       5.958  -6.350  -2.082  1.00  0.00    -0.206 F 
ATOM     80  C   UNL     1       4.541  -8.213  -2.226  1.00  0.00     0.040 A 
ATOM     81  C   UNL     1       5.123 -10.040  -3.676  1.00  0.00     0.040 A 
ATOM     82  F   UNL     1       7.075  -9.950  -4.979  1.00  0.00    -0.206 F 
ATOM     83  C   UNL     1       4.219  -9.439  -2.799  1.00  0.00     0.006 A 
ENDBRANCH  55  76
BRANCH  67  84
ATOM     84  C   UNL     1      12.491  -8.383  -7.713  1.00  0.00     0.057 A 
ATOM     85  C   UNL     1      12.887  -9.616  -7.178  1.00  0.00     0.134 A 
ATOM     86  C   UNL     1      13.317  -7.878  -8.742  1.00  0.00     0.134 A 
ATOM     87  F   UNL     1      12.142 -10.256  -6.267  1.00  0.00    -0.206 F 
ATOM     88  C   UNL     1      14.046 -10.279  -7.603  1.00  0.00     0.040 A 
ATOM     89  C   UNL     1      14.446  -8.555  -9.209  1.00  0.00     0.040 A 
ATOM     90  F   UNL     1      13.047  -6.714  -9.353  1.00  0.00    -0.206 F 
ATOM     91  C   UNL     1      14.823  -9.756  -8.630  1.00  0.00     0.006 A 
ENDBRANCH  67  84
ENDBRANCH  41  42
ENDBRANCH  33  36
ENDBRANCH  31  32
ENDBRANCH  30  31
ENDBRANCH   1  30
TORSDOF 14
