REMARK SMILES C[C@@H]1C[N@@H+](CC(C)(C)C(=O)NCCCCNC(=O)c2ccc(-c3c4nc(c(-c5c(F)cccc5F)c5ccc([nH]5)c(-c5c(F)cccc5F)c5nc(c(-c6c(F)cccc6F)c6ccc3[nH]6)C=C5)C=C4)cc2)CC[C@@H]1[NH3+]
REMARK SMILES IDX 13 1 12 2 11 3 9 4 10 5 6 7 7 8 8 9 5 10 4 11 1 12 2 13 3 14
REMARK SMILES IDX 75 15 74 16 73 17 76 19 14 23 15 24 16 25 17 26 18 28 19 29
REMARK SMILES IDX 20 30 72 31 21 32 71 33 22 34 23 35 24 36 65 37 25 38 70 39
REMARK SMILES IDX 64 40 66 41 26 42 69 43 63 44 62 45 27 47 53 48 36 49 52 50
REMARK SMILES IDX 37 51 40 52 51 53 67 54 38 55 39 56 50 58 68 59 41 60 28 61
REMARK SMILES IDX 29 62 34 63 30 64 31 65 33 66 35 67 32 68 54 69 55 70 60 71
REMARK SMILES IDX 56 72 57 73 59 74 61 75 58 76 42 77 43 78 48 79 44 80 45 81
REMARK SMILES IDX 47 82 49 83 46 84
REMARK H PARENT 11 6 4 18 76 20 76 21 76 22 16 27 66 46 40 57
REMARK Flexibility Score: inf
ROOT
ATOM      1  C   UNL     1      -6.558   3.772  -0.145  1.00  0.00     0.023 C 
ENDROOT
BRANCH   1   2
ATOM      2  C   UNL     1      -5.076   4.065  -0.363  1.00  0.00     0.116 C 
BRANCH   2   3
ATOM      3  N   UNL     1      -4.272   2.967   0.122  1.00  0.00    -0.355 N 
ATOM      4  C   UNL     1      -3.604   2.000  -0.555  1.00  0.00     0.231 C 
ATOM      5  O   UNL     1      -3.510   0.922   0.041  1.00  0.00    -0.274 OA
ATOM      6  H   UNL     1      -4.196   2.912   1.102  1.00  0.00     0.163 HD
BRANCH   4   7
ATOM      7  C   UNL     1      -3.066   2.194  -1.986  1.00  0.00     0.092 C 
ATOM      8  C   UNL     1      -2.651   3.632  -2.337  1.00  0.00     0.027 C 
ATOM      9  C   UNL     1      -4.209   1.770  -2.934  1.00  0.00     0.027 C 
BRANCH   7  10
ATOM     10  C   UNL     1      -1.853   1.210  -2.219  1.00  0.00     0.278 C 
BRANCH  10  11
ATOM     11  N   UNL     1      -0.549   1.358  -1.531  1.00  0.00    -0.333 N 
ATOM     12  C   UNL     1       1.512  -0.153   0.256  1.00  0.00     0.020 C 
ATOM     13  C   UNL     1       0.762   1.141   0.604  1.00  0.00     0.099 C 
ATOM     14  C   UNL     1      -0.619   1.174  -0.077  1.00  0.00     0.271 C 
ATOM     15  C   UNL     1       1.516   2.427   0.224  1.00  0.00     0.194 C 
ATOM     16  C   UNL     1       1.641   2.538  -1.296  1.00  0.00     0.126 C 
ATOM     17  C   UNL     1       0.250   2.512  -1.935  1.00  0.00     0.268 C 
ATOM     18  H   UNL     1      -0.014   0.564  -1.883  1.00  0.00     0.348 HD
BRANCH  15  19
ATOM     19  N   UNL     1       2.826   2.521   0.870  1.00  0.00    -0.355 N 
ATOM     20  H   UNL     1       3.416   1.750   0.556  1.00  0.00     0.344 HD
ATOM     21  H   UNL     1       2.711   2.471   1.882  1.00  0.00     0.344 HD
ATOM     22  H   UNL     1       3.265   3.408   0.621  1.00  0.00     0.344 HD
ENDBRANCH  15  19
ENDBRANCH  10  11
ENDBRANCH   7  10
ENDBRANCH   4   7
ENDBRANCH   2   3
ENDBRANCH   1   2
BRANCH   1  23
ATOM     23  C   UNL     1      -6.979   3.698   1.323  1.00  0.00     0.023 C 
BRANCH  23  24
ATOM     24  C   UNL     1      -6.578   4.903   2.164  1.00  0.00     0.116 C 
BRANCH  24  25
ATOM     25  N   UNL     1      -7.036   6.161   1.595  1.00  0.00    -0.352 N 
ATOM     26  C   UNL     1      -7.705   7.197   2.201  1.00  0.00     0.251 C 
ATOM     27  H   UNL     1      -6.838   6.289   0.639  1.00  0.00     0.163 HD
ATOM     28  O   UNL     1      -8.149   8.120   1.538  1.00  0.00    -0.269 OA
BRANCH  26  29
ATOM     29  C   UNL     1      -7.905   7.162   3.664  1.00  0.00     0.039 A 
ATOM     30  C   UNL     1      -9.177   7.425   4.175  1.00  0.00     0.014 A 
ATOM     31  C   UNL     1      -6.846   6.846   4.519  1.00  0.00     0.014 A 
ATOM     32  C   UNL     1      -9.402   7.310   5.546  1.00  0.00     0.010 A 
ATOM     33  C   UNL     1      -7.091   6.650   5.873  1.00  0.00     0.010 A 
ATOM     34  C   UNL     1      -8.369   6.888   6.401  1.00  0.00    -0.014 A 
BRANCH  34  35
ATOM     35  C   UNL     1      -8.608   6.700   7.853  1.00  0.00     0.031 A 
ATOM     36  C   UNL     1      -7.876   7.552   8.852  1.00  0.00     0.074 A 
ATOM     37  C   UNL     1      -9.438   5.725   8.270  1.00  0.00     0.049 A 
ATOM     38  N   UNL     1      -7.915   7.510  10.159  1.00  0.00    -0.248 NA
ATOM     39  C   UNL     1      -6.955   8.565   8.312  1.00  0.00     0.031 C 
ATOM     40  C   UNL     1     -10.161   4.796   7.399  1.00  0.00     0.029 A 
ATOM     41  N   UNL     1      -9.809   5.349   9.536  1.00  0.00    -0.354 N 
ATOM     42  C   UNL     1      -7.018   8.477  10.594  1.00  0.00     0.074 A 
ATOM     43  C   UNL     1      -6.405   9.047   9.415  1.00  0.00     0.031 C 
ATOM     44  C   UNL     1     -10.909   3.977   8.154  1.00  0.00     0.029 A 
ATOM     45  C   UNL     1     -10.692   4.296   9.561  1.00  0.00     0.049 A 
ATOM     46  H   UNL     1      -9.475   5.791  10.350  1.00  0.00     0.167 HD
ATOM     47  C   UNL     1      -6.750   8.873  11.861  1.00  0.00     0.037 A 
ATOM     48  C   UNL     1     -11.259   3.660  10.603  1.00  0.00     0.037 A 
ATOM     49  C   UNL     1      -7.382   8.320  13.029  1.00  0.00     0.049 A 
ATOM     50  C   UNL     1     -10.948   4.121  12.000  1.00  0.00     0.074 A 
ATOM     51  C   UNL     1      -7.229   8.695  14.352  1.00  0.00     0.029 A 
ATOM     52  N   UNL     1      -8.287   7.268  13.013  1.00  0.00    -0.354 N 
ATOM     53  N   UNL     1     -10.157   5.090  12.394  1.00  0.00    -0.248 NA
ATOM     54  C   UNL     1     -11.614   3.406  13.097  1.00  0.00     0.031 C 
ATOM     55  C   UNL     1      -8.004   7.840  15.141  1.00  0.00     0.029 A 
ATOM     56  C   UNL     1      -8.682   6.967  14.306  1.00  0.00     0.049 A 
ATOM     57  H   UNL     1      -8.601   6.805  12.203  1.00  0.00     0.167 HD
ATOM     58  C   UNL     1     -10.253   5.120  13.779  1.00  0.00     0.074 A 
ATOM     59  C   UNL     1     -11.191   4.082  14.155  1.00  0.00     0.031 C 
ATOM     60  C   UNL     1      -9.622   5.933  14.662  1.00  0.00     0.037 A 
BRANCH  47  61
ATOM     61  C   UNL     1      -5.730   9.960  12.045  1.00  0.00     0.057 A 
ATOM     62  C   UNL     1      -5.978  11.281  11.649  1.00  0.00     0.134 A 
ATOM     63  C   UNL     1      -4.497   9.689  12.650  1.00  0.00     0.134 A 
ATOM     64  F   UNL     1      -7.133  11.607  11.050  1.00  0.00    -0.206 F 
ATOM     65  C   UNL     1      -5.025  12.287  11.821  1.00  0.00     0.040 A 
ATOM     66  C   UNL     1      -3.548  10.691  12.855  1.00  0.00     0.040 A 
ATOM     67  F   UNL     1      -4.196   8.446  13.057  1.00  0.00    -0.206 F 
ATOM     68  C   UNL     1      -3.808  11.994  12.433  1.00  0.00     0.006 A 
ENDBRANCH  47  61
BRANCH  48  69
ATOM     69  C   UNL     1     -12.200   2.536  10.365  1.00  0.00     0.057 A 
ATOM     70  C   UNL     1     -13.567   2.668  10.635  1.00  0.00     0.134 A 
ATOM     71  C   UNL     1     -11.758   1.303   9.871  1.00  0.00     0.134 A 
ATOM     72  F   UNL     1     -14.050   3.819  11.127  1.00  0.00    -0.206 F 
ATOM     73  C   UNL     1     -14.457   1.610  10.444  1.00  0.00     0.040 A 
ATOM     74  C   UNL     1     -12.640   0.245   9.649  1.00  0.00     0.040 A 
ATOM     75  F   UNL     1     -10.461   1.115   9.583  1.00  0.00    -0.206 F 
ATOM     76  C   UNL     1     -13.994   0.395   9.944  1.00  0.00     0.006 A 
ENDBRANCH  48  69
BRANCH  60  77
ATOM     77  C   UNL     1      -9.952   5.757  16.115  1.00  0.00     0.057 A 
ATOM     78  C   UNL     1      -9.518   4.643  16.844  1.00  0.00     0.134 A 
ATOM     79  C   UNL     1     -10.683   6.735  16.802  1.00  0.00     0.134 A 
ATOM     80  F   UNL     1      -8.824   3.664  16.243  1.00  0.00    -0.206 F 
ATOM     81  C   UNL     1      -9.822   4.495  18.198  1.00  0.00     0.040 A 
ATOM     82  C   UNL     1     -10.968   6.612  18.162  1.00  0.00     0.040 A 
ATOM     83  F   UNL     1     -11.120   7.832  16.165  1.00  0.00    -0.206 F 
ATOM     84  C   UNL     1     -10.543   5.485  18.862  1.00  0.00     0.006 A 
ENDBRANCH  60  77
ENDBRANCH  34  35
ENDBRANCH  26  29
ENDBRANCH  24  25
ENDBRANCH  23  24
ENDBRANCH   1  23
TORSDOF 14
