REMARK SMILES N#Cc1nccnc1N(CC(=O)NCCCCNC(=O)c1ccc(-c2c3nc(c(-c4c(F)cccc4F)c4ccc([nH]4)c(-c4c(F)cccc4F)c4nc(c(-c5c(F)cccc5F)c5ccc2[nH]5)C=C4)C=C3)cc1)CC(F)(F)F
REMARK SMILES IDX 15 1 14 2 13 3 11 4 12 5 10 7 9 8 8 9 3 10 4 11 5 12 7 13
REMARK SMILES IDX 6 14 2 15 1 16 75 17 76 18 77 19 78 20 79 21 16 22 17 23
REMARK SMILES IDX 18 24 19 25 20 27 21 28 22 29 74 30 23 31 73 32 24 33 25 34
REMARK SMILES IDX 26 35 67 36 27 37 72 38 66 39 68 40 28 41 71 42 65 43 64 44
REMARK SMILES IDX 29 46 55 47 38 48 54 49 39 50 42 51 53 52 69 53 40 54 41 55
REMARK SMILES IDX 52 57 70 58 43 59 30 60 31 61 36 62 32 63 33 64 35 65 37 66
REMARK SMILES IDX 34 67 56 68 57 69 62 70 58 71 59 72 61 73 63 74 60 75 44 76
REMARK SMILES IDX 45 77 50 78 46 79 47 80 49 81 51 82 48 83
REMARK H PARENT 13 6 18 26 68 45 42 56
REMARK Flexibility Score: inf
ROOT
ATOM      1  C   UNL     1       3.625  -2.230   3.048  1.00  0.00     0.023 C 
ENDROOT
BRANCH   1   2
ATOM      2  C   UNL     1       4.646  -3.191   2.445  1.00  0.00     0.116 C 
BRANCH   2   3
ATOM      3  N   UNL     1       4.012  -4.305   1.770  1.00  0.00    -0.355 N 
ATOM      4  C   UNL     1       3.801  -4.471   0.431  1.00  0.00     0.239 C 
ATOM      5  O   UNL     1       3.190  -5.471   0.046  1.00  0.00    -0.273 OA
ATOM      6  H   UNL     1       3.692  -5.034   2.350  1.00  0.00     0.163 HD
BRANCH   4   7
ATOM      7  C   UNL     1       4.317  -3.426  -0.564  1.00  0.00     0.218 C 
BRANCH   7   8
ATOM      8  N   UNL     1       3.524  -2.166  -0.543  1.00  0.00    -0.336 N 
BRANCH   8   9
ATOM      9  C   UNL     1       4.210  -0.971  -0.383  1.00  0.00     0.166 A 
ATOM     10  C   UNL     1       3.718   0.348  -0.467  1.00  0.00     0.183 A 
ATOM     11  N   UNL     1       4.480   1.469  -0.243  1.00  0.00    -0.240 NA
ATOM     12  C   UNL     1       5.772   1.265   0.061  1.00  0.00     0.133 A 
ATOM     13  N   UNL     1       5.536  -1.100  -0.090  1.00  0.00    -0.235 NA
ATOM     14  C   UNL     1       6.294   0.000   0.128  1.00  0.00     0.133 A 
BRANCH  10  15
ATOM     15  C   UNL     1       2.378   0.689  -0.843  1.00  0.00     0.123 C 
ATOM     16  N   UNL     1       1.292   0.939  -1.167  1.00  0.00    -0.191 NA
ENDBRANCH  10  15
ENDBRANCH   8   9
BRANCH   8  17
ATOM     17  C   UNL     1       2.076  -2.326  -0.873  1.00  0.00     0.234 C 
BRANCH  17  18
ATOM     18  C   UNL     1       1.073  -2.210   0.293  1.00  0.00     0.405 C 
ATOM     19  F   UNL     1       1.249  -1.078   1.009  1.00  0.00    -0.169 F 
ATOM     20  F   UNL     1      -0.198  -2.205  -0.170  1.00  0.00    -0.169 F 
ATOM     21  F   UNL     1       1.179  -3.249   1.152  1.00  0.00    -0.169 F 
ENDBRANCH  17  18
ENDBRANCH   8  17
ENDBRANCH   7   8
ENDBRANCH   4   7
ENDBRANCH   2   3
ENDBRANCH   1   2
BRANCH   1  22
ATOM     22  C   UNL     1       2.832  -2.816   4.214  1.00  0.00     0.023 C 
BRANCH  22  23
ATOM     23  C   UNL     1       3.693  -3.209   5.402  1.00  0.00     0.116 C 
BRANCH  23  24
ATOM     24  N   UNL     1       4.421  -2.084   5.979  1.00  0.00    -0.352 N 
ATOM     25  C   UNL     1       4.650  -1.804   7.307  1.00  0.00     0.251 C 
ATOM     26  H   UNL     1       4.797  -1.442   5.335  1.00  0.00     0.163 HD
ATOM     27  O   UNL     1       5.154  -0.740   7.647  1.00  0.00    -0.269 OA
BRANCH  25  28
ATOM     28  C   UNL     1       4.233  -2.796   8.318  1.00  0.00     0.039 A 
ATOM     29  C   UNL     1       4.484  -4.149   8.099  1.00  0.00     0.014 A 
ATOM     30  C   UNL     1       3.491  -2.384   9.427  1.00  0.00     0.014 A 
ATOM     31  C   UNL     1       3.796  -5.094   8.842  1.00  0.00     0.010 A 
ATOM     32  C   UNL     1       2.910  -3.345  10.258  1.00  0.00     0.010 A 
ATOM     33  C   UNL     1       2.995  -4.708   9.930  1.00  0.00    -0.014 A 
BRANCH  33  34
ATOM     34  C   UNL     1       2.233  -5.753  10.664  1.00  0.00     0.031 A 
ATOM     35  C   UNL     1       0.727  -5.716  10.726  1.00  0.00     0.074 A 
ATOM     36  C   UNL     1       2.899  -6.796  11.200  1.00  0.00     0.049 A 
ATOM     37  N   UNL     1      -0.099  -6.571  11.278  1.00  0.00    -0.248 NA
ATOM     38  C   UNL     1       0.058  -4.568  10.094  1.00  0.00     0.031 C 
ATOM     39  C   UNL     1       4.355  -6.963  11.190  1.00  0.00     0.029 A 
ATOM     40  N   UNL     1       2.441  -7.928  11.822  1.00  0.00    -0.354 N 
ATOM     41  C   UNL     1      -1.375  -6.058  11.073  1.00  0.00     0.074 A 
ATOM     42  C   UNL     1      -1.213  -4.792  10.393  1.00  0.00     0.031 C 
ATOM     43  C   UNL     1       4.665  -8.158  11.713  1.00  0.00     0.029 A 
ATOM     44  C   UNL     1       3.442  -8.801  12.174  1.00  0.00     0.049 A 
ATOM     45  H   UNL     1       1.488  -8.099  11.999  1.00  0.00     0.167 HD
ATOM     46  C   UNL     1      -2.575  -6.598  11.402  1.00  0.00     0.037 A 
ATOM     47  C   UNL     1       3.385  -9.981  12.818  1.00  0.00     0.037 A 
ATOM     48  C   UNL     1      -2.737  -7.859  12.081  1.00  0.00     0.049 A 
ATOM     49  C   UNL     1       2.047 -10.511  13.248  1.00  0.00     0.074 A 
ATOM     50  C   UNL     1      -3.908  -8.492  12.460  1.00  0.00     0.029 A 
ATOM     51  N   UNL     1      -1.693  -8.675  12.491  1.00  0.00    -0.354 N 
ATOM     52  N   UNL     1       0.851 -10.018  13.039  1.00  0.00    -0.248 NA
ATOM     53  C   UNL     1       2.056 -11.766  14.010  1.00  0.00     0.031 C 
ATOM     54  C   UNL     1      -3.571  -9.657  13.158  1.00  0.00     0.029 A 
ATOM     55  C   UNL     1      -2.193  -9.793  13.142  1.00  0.00     0.049 A 
ATOM     56  H   UNL     1      -0.738  -8.489  12.341  1.00  0.00     0.167 HD
ATOM     57  C   UNL     1      -0.037 -10.921  13.610  1.00  0.00     0.074 A 
ATOM     58  C   UNL     1       0.761 -12.001  14.153  1.00  0.00     0.031 C 
ATOM     59  C   UNL     1      -1.390 -10.864  13.677  1.00  0.00     0.037 A 
BRANCH  46  60
ATOM     60  C   UNL     1      -3.806  -5.804  11.058  1.00  0.00     0.057 A 
ATOM     61  C   UNL     1      -4.607  -5.255  12.069  1.00  0.00     0.134 A 
ATOM     62  C   UNL     1      -4.206  -5.584   9.732  1.00  0.00     0.134 A 
ATOM     63  F   UNL     1      -4.294  -5.436  13.361  1.00  0.00    -0.206 F 
ATOM     64  C   UNL     1      -5.751  -4.511  11.774  1.00  0.00     0.040 A 
ATOM     65  C   UNL     1      -5.328  -4.810   9.425  1.00  0.00     0.040 A 
ATOM     66  F   UNL     1      -3.483  -6.072   8.713  1.00  0.00    -0.206 F 
ATOM     67  C   UNL     1      -6.107  -4.275  10.449  1.00  0.00     0.006 A 
ENDBRANCH  46  60
BRANCH  47  68
ATOM     68  C   UNL     1       4.630 -10.734  13.120  1.00  0.00     0.057 A 
ATOM     69  C   UNL     1       5.586 -10.233  14.012  1.00  0.00     0.134 A 
ATOM     70  C   UNL     1       4.867 -11.997  12.565  1.00  0.00     0.134 A 
ATOM     71  F   UNL     1       5.426  -9.024  14.571  1.00  0.00    -0.206 F 
ATOM     72  C   UNL     1       6.729 -10.960  14.345  1.00  0.00     0.040 A 
ATOM     73  C   UNL     1       5.987 -12.752  12.918  1.00  0.00     0.040 A 
ATOM     74  F   UNL     1       3.983 -12.539  11.714  1.00  0.00    -0.206 F 
ATOM     75  C   UNL     1       6.923 -12.232  13.810  1.00  0.00     0.006 A 
ENDBRANCH  47  68
BRANCH  59  76
ATOM     76  C   UNL     1      -2.091 -12.036  14.306  1.00  0.00     0.057 A 
ATOM     77  C   UNL     1      -2.885 -12.886  13.525  1.00  0.00     0.134 A 
ATOM     78  C   UNL     1      -1.977 -12.337  15.670  1.00  0.00     0.134 A 
ATOM     79  F   UNL     1      -3.051 -12.653  12.214  1.00  0.00    -0.206 F 
ATOM     80  C   UNL     1      -3.529 -13.996  14.073  1.00  0.00     0.040 A 
ATOM     81  C   UNL     1      -2.583 -13.467  16.222  1.00  0.00     0.040 A 
ATOM     82  F   UNL     1      -1.223 -11.572  16.475  1.00  0.00    -0.206 F 
ATOM     83  C   UNL     1      -3.365 -14.298  15.423  1.00  0.00     0.006 A 
ENDBRANCH  59  76
ENDBRANCH  33  34
ENDBRANCH  25  28
ENDBRANCH  23  24
ENDBRANCH  22  23
ENDBRANCH   1  22
TORSDOF 16
