REMARK SMILES CSc1cccc(N2C[C@@H](C(=O)NCCCCNC(=O)c3ccc(-c4c5nc(c(-c6c(F)cccc6F)c6ccc([nH]6)c(-c6c(F)cccc6F)c6nc(c(-c7c(F)cccc7F)c7ccc4[nH]7)C=C6)C=C5)cc3)CC2=O)c1
REMARK SMILES IDX 15 1 14 2 13 3 11 4 12 5 10 7 8 8 9 9 76 10 75 11 77 12 7 13
REMARK SMILES IDX 3 14 4 15 78 16 5 17 6 18 2 19 1 20 16 21 17 22 18 23 19 24
REMARK SMILES IDX 20 26 21 27 22 28 74 29 23 30 73 31 24 32 25 33 26 34 67 35
REMARK SMILES IDX 27 36 72 37 66 38 68 39 28 40 71 41 65 42 64 43 29 45 55 46
REMARK SMILES IDX 38 47 54 48 39 49 42 50 53 51 69 52 40 53 41 54 52 56 70 57
REMARK SMILES IDX 43 58 30 59 31 60 36 61 32 62 33 63 35 64 37 65 34 66 56 67
REMARK SMILES IDX 57 68 62 69 58 70 59 71 61 72 63 73 60 74 44 75 45 76 50 77
REMARK SMILES IDX 46 78 47 79 49 80 51 81 48 82
REMARK H PARENT 13 6 18 25 68 44 42 55
REMARK Flexibility Score: inf
ROOT
ATOM      1  C   UNL     1       0.419   5.153  -5.395  1.00  0.00     0.023 C 
ENDROOT
BRANCH   1   2
ATOM      2  C   UNL     1       0.376   3.777  -6.058  1.00  0.00     0.116 C 
BRANCH   2   3
ATOM      3  N   UNL     1       1.110   3.757  -7.311  1.00  0.00    -0.356 N 
ATOM      4  C   UNL     1       2.238   3.102  -7.687  1.00  0.00     0.225 C 
ATOM      5  O   UNL     1       2.627   3.269  -8.845  1.00  0.00    -0.275 OA
ATOM      6  H   UNL     1       0.718   4.321  -8.017  1.00  0.00     0.163 HD
BRANCH   4   7
ATOM      7  C   UNL     1       2.995   2.165  -6.768  1.00  0.00     0.107 C 
ATOM      8  N   UNL     1       2.395   0.691  -5.026  1.00  0.00    -0.312 N 
ATOM      9  C   UNL     1       2.211   0.908  -6.441  1.00  0.00     0.139 C 
ATOM     10  C   UNL     1       3.003   1.775  -4.396  1.00  0.00     0.227 C 
ATOM     11  C   UNL     1       3.432   2.768  -5.444  1.00  0.00     0.116 C 
ATOM     12  O   UNL     1       3.222   1.935  -3.203  1.00  0.00    -0.274 OA
BRANCH   8  13
ATOM     13  C   UNL     1       1.933  -0.479  -4.372  1.00  0.00     0.045 A 
ATOM     14  C   UNL     1       1.006  -1.585  -2.398  1.00  0.00     0.009 A 
ATOM     15  C   UNL     1       1.073  -2.810  -3.070  1.00  0.00     0.015 A 
ATOM     16  C   UNL     1       1.454  -0.430  -3.054  1.00  0.00     0.041 A 
ATOM     17  C   UNL     1       1.555  -2.878  -4.375  1.00  0.00     0.003 A 
ATOM     18  C   UNL     1       1.960  -1.715  -5.030  1.00  0.00     0.026 A 
BRANCH  14  19
ATOM     19  S   UNL     1       0.283  -1.600  -0.761  1.00  0.00    -0.130 SA
ATOM     20  C   UNL     1       0.964  -0.098  -0.008  1.00  0.00     0.091 C 
ENDBRANCH  14  19
ENDBRANCH   8  13
ENDBRANCH   4   7
ENDBRANCH   2   3
ENDBRANCH   1   2
BRANCH   1  21
ATOM     21  C   UNL     1      -0.280   6.267  -6.178  1.00  0.00     0.023 C 
BRANCH  21  22
ATOM     22  C   UNL     1      -1.736   5.994  -6.536  1.00  0.00     0.116 C 
BRANCH  22  23
ATOM     23  N   UNL     1      -2.575   5.764  -5.369  1.00  0.00    -0.352 N 
ATOM     24  C   UNL     1      -3.743   6.388  -4.998  1.00  0.00     0.251 C 
ATOM     25  H   UNL     1      -2.261   5.060  -4.756  1.00  0.00     0.163 HD
ATOM     26  O   UNL     1      -4.247   6.162  -3.903  1.00  0.00    -0.269 OA
BRANCH  24  27
ATOM     27  C   UNL     1      -4.366   7.366  -5.912  1.00  0.00     0.039 A 
ATOM     28  C   UNL     1      -4.716   8.624  -5.417  1.00  0.00     0.014 A 
ATOM     29  C   UNL     1      -4.551   7.061  -7.263  1.00  0.00     0.014 A 
ATOM     30  C   UNL     1      -5.153   9.614  -6.299  1.00  0.00     0.010 A 
ATOM     31  C   UNL     1      -4.917   8.069  -8.150  1.00  0.00     0.010 A 
ATOM     32  C   UNL     1      -5.197   9.361  -7.680  1.00  0.00    -0.014 A 
BRANCH  32  33
ATOM     33  C   UNL     1      -5.463  10.448  -8.656  1.00  0.00     0.031 A 
ATOM     34  C   UNL     1      -6.669  10.390  -9.549  1.00  0.00     0.074 A 
ATOM     35  C   UNL     1      -4.559  11.437  -8.804  1.00  0.00     0.049 A 
ATOM     36  N   UNL     1      -7.002  11.180 -10.538  1.00  0.00    -0.248 NA
ATOM     37  C   UNL     1      -7.613   9.287  -9.315  1.00  0.00     0.031 C 
ATOM     38  C   UNL     1      -3.328  11.582  -8.024  1.00  0.00     0.029 A 
ATOM     39  N   UNL     1      -4.525  12.498  -9.675  1.00  0.00    -0.354 N 
ATOM     40  C   UNL     1      -8.186  10.666 -11.050  1.00  0.00     0.074 A 
ATOM     41  C   UNL     1      -8.488   9.470 -10.293  1.00  0.00     0.031 C 
ATOM     42  C   UNL     1      -2.667  12.672  -8.443  1.00  0.00     0.029 A 
ATOM     43  C   UNL     1      -3.396  13.274  -9.554  1.00  0.00     0.049 A 
ATOM     44  H   UNL     1      -5.240  12.685 -10.325  1.00  0.00     0.167 HD
ATOM     45  C   UNL     1      -8.957  11.157 -12.049  1.00  0.00     0.037 A 
ATOM     46  C   UNL     1      -2.981  14.334 -10.273  1.00  0.00     0.037 A 
ATOM     47  C   UNL     1      -8.654  12.352 -12.792  1.00  0.00     0.049 A 
ATOM     48  C   UNL     1      -3.833  14.830 -11.408  1.00  0.00     0.074 A 
ATOM     49  C   UNL     1      -9.407  12.965 -13.779  1.00  0.00     0.029 A 
ATOM     50  N   UNL     1      -7.502  13.108 -12.642  1.00  0.00    -0.354 N 
ATOM     51  N   UNL     1      -4.989  14.379 -11.832  1.00  0.00    -0.248 NA
ATOM     52  C   UNL     1      -3.321  15.978 -12.170  1.00  0.00     0.031 C 
ATOM     53  C   UNL     1      -8.682  14.056 -14.268  1.00  0.00     0.029 A 
ATOM     54  C   UNL     1      -7.503  14.158 -13.547  1.00  0.00     0.049 A 
ATOM     55  H   UNL     1      -6.787  12.927 -11.989  1.00  0.00     0.167 HD
ATOM     56  C   UNL     1      -5.351  15.198 -12.893  1.00  0.00     0.074 A 
ATOM     57  C   UNL     1      -4.303  16.187 -13.036  1.00  0.00     0.031 C 
ATOM     58  C   UNL     1      -6.452  15.134 -13.681  1.00  0.00     0.037 A 
BRANCH  45  59
ATOM     59  C   UNL     1     -10.202  10.397 -12.405  1.00  0.00     0.057 A 
ATOM     60  C   UNL     1     -11.311  10.349 -11.550  1.00  0.00     0.134 A 
ATOM     61  C   UNL     1     -10.312   9.745 -13.640  1.00  0.00     0.134 A 
ATOM     62  F   UNL     1     -11.269  10.944 -10.348  1.00  0.00    -0.206 F 
ATOM     63  C   UNL     1     -12.474   9.662 -11.900  1.00  0.00     0.040 A 
ATOM     64  C   UNL     1     -11.480   9.079 -14.014  1.00  0.00     0.040 A 
ATOM     65  F   UNL     1      -9.291   9.757 -14.511  1.00  0.00    -0.206 F 
ATOM     66  C   UNL     1     -12.564   9.031 -13.139  1.00  0.00     0.006 A 
ENDBRANCH  45  59
BRANCH  46  67
ATOM     67  C   UNL     1      -1.690  14.994  -9.950  1.00  0.00     0.057 A 
ATOM     68  C   UNL     1      -1.651  16.292  -9.429  1.00  0.00     0.134 A 
ATOM     69  C   UNL     1      -0.464  14.350 -10.165  1.00  0.00     0.134 A 
ATOM     70  F   UNL     1      -2.789  16.969  -9.219  1.00  0.00    -0.206 F 
ATOM     71  C   UNL     1      -0.443  16.934  -9.153  1.00  0.00     0.040 A 
ATOM     72  C   UNL     1       0.750  14.969  -9.867  1.00  0.00     0.040 A 
ATOM     73  F   UNL     1      -0.431  13.102 -10.656  1.00  0.00    -0.206 F 
ATOM     74  C   UNL     1       0.763  16.270  -9.367  1.00  0.00     0.006 A 
ENDBRANCH  46  67
BRANCH  58  75
ATOM     75  C   UNL     1      -6.589  16.169 -14.760  1.00  0.00     0.057 A 
ATOM     76  C   UNL     1      -5.784  16.151 -15.906  1.00  0.00     0.134 A 
ATOM     77  C   UNL     1      -7.573  17.163 -14.677  1.00  0.00     0.134 A 
ATOM     78  F   UNL     1      -4.813  15.235 -16.041  1.00  0.00    -0.206 F 
ATOM     79  C   UNL     1      -5.941  17.095 -16.922  1.00  0.00     0.040 A 
ATOM     80  C   UNL     1      -7.758  18.094 -15.699  1.00  0.00     0.040 A 
ATOM     81  F   UNL     1      -8.383  17.232 -13.610  1.00  0.00    -0.206 F 
ATOM     82  C   UNL     1      -6.938  18.064 -16.824  1.00  0.00     0.006 A 
ENDBRANCH  58  75
ENDBRANCH  32  33
ENDBRANCH  24  27
ENDBRANCH  22  23
ENDBRANCH  21  22
ENDBRANCH   1  21
TORSDOF 13
