REMARK SMILES CCCC(=O)N(c1cc2sc(=O)oc2c2ccccc12)S(=O)(=O)c1ccc(C(=O)NCCCCNC(=O)c2ccc(-c3c4nc(c(-c5c(F)cccc5F)c5ccc([nH]5)c(-c5c(F)cccc5F)c5nc(c(-c6c(F)cccc6F)c6ccc3[nH]6)C=C5)C=C4)cc2)cc1
REMARK SMILES IDX 31 1 30 2 28 3 29 4 27 6 24 7 25 8 93 9 26 10 92 11 21 12
REMARK SMILES IDX 22 13 23 14 6 15 4 16 5 17 3 18 2 19 1 20 7 21 8 22 20 23
REMARK SMILES IDX 9 24 15 25 19 26 10 27 14 28 16 29 18 30 11 31 13 32 17 33
REMARK SMILES IDX 12 34 32 35 33 36 34 37 35 38 36 39 37 41 38 42 39 43 91 44
REMARK SMILES IDX 40 45 90 46 41 47 42 48 43 49 84 50 44 51 89 52 83 53 85 54
REMARK SMILES IDX 45 55 88 56 82 57 81 58 46 60 72 61 55 62 71 63 56 64 59 65
REMARK SMILES IDX 70 66 86 67 57 68 58 69 69 71 87 72 60 73 47 74 48 75 53 76
REMARK SMILES IDX 49 77 50 78 52 79 54 80 51 81 73 82 74 83 79 84 75 85 76 86
REMARK SMILES IDX 78 87 80 88 77 89 61 90 62 91 67 92 63 93 64 94 66 95 68 96
REMARK SMILES IDX 65 97
REMARK H PARENT 30 5 35 40 85 59 59 70
REMARK Flexibility Score: inf
ROOT
ATOM      1  C   UNL     1       3.055  -6.851   5.886  1.00  0.00     0.116 C 
ENDROOT
BRANCH   1   2
ATOM      2  N   UNL     1       3.038  -5.559   6.547  1.00  0.00    -0.352 N 
ATOM      3  C   UNL     1       2.295  -4.432   6.278  1.00  0.00     0.251 C 
ATOM      4  O   UNL     1       2.430  -3.459   7.020  1.00  0.00    -0.269 OA
ATOM      5  H   UNL     1       3.656  -5.476   7.309  1.00  0.00     0.163 HD
BRANCH   3   6
ATOM      6  C   UNL     1       1.413  -4.316   5.076  1.00  0.00     0.039 A 
ATOM      7  C   UNL     1       0.200  -3.943   2.572  1.00  0.00     0.088 A 
ATOM      8  C   UNL     1       0.432  -2.848   3.406  1.00  0.00     0.023 A 
ATOM      9  C   UNL     1       0.370  -5.228   3.081  1.00  0.00     0.023 A 
ATOM     10  C   UNL     1       1.103  -3.028   4.620  1.00  0.00     0.015 A 
ATOM     11  C   UNL     1       0.905  -5.401   4.359  1.00  0.00     0.015 A 
BRANCH   7  12
ATOM     12  S   UNL     1      -0.426  -3.733   0.905  1.00  0.00     0.270 S 
ATOM     13  O   UNL     1      -1.681  -3.035   1.058  1.00  0.00    -0.201 OA
ATOM     14  O   UNL     1      -0.361  -5.058   0.307  1.00  0.00    -0.201 OA
BRANCH  12  15
ATOM     15  N   UNL     1       0.683  -2.763   0.024  1.00  0.00    -0.202 N 
BRANCH  15  16
ATOM     16  C   UNL     1       0.370  -2.502  -1.358  1.00  0.00     0.241 C 
ATOM     17  O   UNL     1      -0.677  -2.893  -1.869  1.00  0.00    -0.273 OA
BRANCH  16  18
ATOM     18  C   UNL     1       1.384  -1.774  -2.238  1.00  0.00     0.101 C 
BRANCH  18  19
ATOM     19  C   UNL     1       1.101  -0.281  -2.424  1.00  0.00     0.006 C 
ATOM     20  C   UNL     1       2.240   0.596  -1.920  1.00  0.00     0.004 C 
ENDBRANCH  18  19
ENDBRANCH  16  18
ENDBRANCH  15  16
BRANCH  15  21
ATOM     21  C   UNL     1       1.415  -1.744   0.730  1.00  0.00     0.070 A 
ATOM     22  C   UNL     1       2.666  -2.139   1.235  1.00  0.00     0.051 A 
ATOM     23  C   UNL     1       0.894  -0.434   0.991  1.00  0.00     0.010 A 
ATOM     24  C   UNL     1       3.382  -1.254   2.018  1.00  0.00     0.080 A 
ATOM     25  C   UNL     1       1.710   0.493   1.697  1.00  0.00     0.028 A 
ATOM     26  C   UNL     1      -0.382   0.014   0.578  1.00  0.00     0.011 A 
ATOM     27  S   UNL     1       4.876  -1.549   2.884  1.00  0.00    -0.052 S 
ATOM     28  C   UNL     1       2.920   0.037   2.236  1.00  0.00     0.157 A 
ATOM     29  C   UNL     1       1.298   1.833   1.830  1.00  0.00     0.013 A 
ATOM     30  C   UNL     1      -0.771   1.349   0.709  1.00  0.00     0.001 A 
ATOM     31  C   UNL     1       4.780   0.097   3.522  1.00  0.00     0.396 A 
ATOM     32  O   UNL     1       3.706   0.853   3.060  1.00  0.00    -0.413 OA
ATOM     33  C   UNL     1       0.083   2.265   1.306  1.00  0.00     0.001 A 
ATOM     34  O   UNL     1       5.607   0.537   4.308  1.00  0.00    -0.233 OA
ENDBRANCH  15  21
ENDBRANCH  12  15
ENDBRANCH   7  12
ENDBRANCH   3   6
ENDBRANCH   1   2
BRANCH   1  35
ATOM     35  C   UNL     1       4.288  -7.708   6.134  1.00  0.00     0.023 C 
BRANCH  35  36
ATOM     36  C   UNL     1       4.654  -7.937   7.595  1.00  0.00     0.023 C 
BRANCH  36  37
ATOM     37  C   UNL     1       3.491  -8.384   8.482  1.00  0.00     0.116 C 
BRANCH  37  38
ATOM     38  N   UNL     1       3.159  -9.800   8.380  1.00  0.00    -0.352 N 
ATOM     39  C   UNL     1       3.806 -10.887   8.931  1.00  0.00     0.251 C 
ATOM     40  H   UNL     1       2.362 -10.011   7.843  1.00  0.00     0.163 HD
ATOM     41  O   UNL     1       3.396 -12.028   8.761  1.00  0.00    -0.269 OA
BRANCH  39  42
ATOM     42  C   UNL     1       5.068 -10.643   9.648  1.00  0.00     0.039 A 
ATOM     43  C   UNL     1       5.104  -9.723  10.696  1.00  0.00     0.014 A 
ATOM     44  C   UNL     1       6.238 -11.191   9.118  1.00  0.00     0.014 A 
ATOM     45  C   UNL     1       6.318  -9.173  11.063  1.00  0.00     0.010 A 
ATOM     46  C   UNL     1       7.462 -10.687   9.539  1.00  0.00     0.010 A 
ATOM     47  C   UNL     1       7.494  -9.633  10.464  1.00  0.00    -0.014 A 
BRANCH  47  48
ATOM     48  C   UNL     1       8.731  -9.048  10.991  1.00  0.00     0.031 A 
ATOM     49  C   UNL     1       9.518 -10.086  11.736  1.00  0.00     0.074 A 
ATOM     50  C   UNL     1       9.407  -8.108  10.298  1.00  0.00     0.049 A 
ATOM     51  N   UNL     1      10.258 -10.985  11.158  1.00  0.00    -0.248 NA
ATOM     52  C   UNL     1       9.235 -10.373  13.144  1.00  0.00     0.031 C 
ATOM     53  C   UNL     1       9.614  -8.077   8.850  1.00  0.00     0.029 A 
ATOM     54  N   UNL     1      10.149  -7.047  10.774  1.00  0.00    -0.354 N 
ATOM     55  C   UNL     1      10.523 -11.966  12.099  1.00  0.00     0.074 A 
ATOM     56  C   UNL     1       9.859 -11.550  13.313  1.00  0.00     0.031 C 
ATOM     57  C   UNL     1      10.558  -7.157   8.570  1.00  0.00     0.029 A 
ATOM     58  C   UNL     1      10.962  -6.465   9.799  1.00  0.00     0.049 A 
ATOM     59  H   UNL     1      10.111  -6.733  11.706  1.00  0.00     0.167 HD
ATOM     60  C   UNL     1      11.288 -13.054  11.821  1.00  0.00     0.037 A 
ATOM     61  C   UNL     1      12.245  -6.080  10.064  1.00  0.00     0.037 A 
ATOM     62  C   UNL     1      11.843 -13.086  10.501  1.00  0.00     0.049 A 
ATOM     63  C   UNL     1      12.965  -7.406  10.101  1.00  0.00     0.074 A 
ATOM     64  C   UNL     1      11.632 -13.734   9.305  1.00  0.00     0.029 A 
ATOM     65  N   UNL     1      12.922 -12.268  10.270  1.00  0.00    -0.354 N 
ATOM     66  N   UNL     1      13.337  -8.102   9.059  1.00  0.00    -0.248 NA
ATOM     67  C   UNL     1      12.919  -8.164  11.352  1.00  0.00     0.031 C 
ATOM     68  C   UNL     1      12.293 -12.931   8.321  1.00  0.00     0.029 A 
ATOM     69  C   UNL     1      12.834 -11.827   8.979  1.00  0.00     0.049 A 
ATOM     70  H   UNL     1      13.630 -12.042  10.915  1.00  0.00     0.167 HD
ATOM     71  C   UNL     1      13.289  -9.438   9.467  1.00  0.00     0.074 A 
ATOM     72  C   UNL     1      13.069  -9.402  10.899  1.00  0.00     0.031 C 
ATOM     73  C   UNL     1      13.230 -10.492   8.598  1.00  0.00     0.037 A 
BRANCH  60  74
ATOM     74  C   UNL     1      11.787 -14.042  12.797  1.00  0.00     0.057 A 
ATOM     75  C   UNL     1      11.099 -15.207  13.132  1.00  0.00     0.134 A 
ATOM     76  C   UNL     1      13.141 -13.952  13.155  1.00  0.00     0.134 A 
ATOM     77  F   UNL     1       9.805 -15.355  12.816  1.00  0.00    -0.206 F 
ATOM     78  C   UNL     1      11.764 -16.278  13.740  1.00  0.00     0.040 A 
ATOM     79  C   UNL     1      13.818 -15.018  13.736  1.00  0.00     0.040 A 
ATOM     80  F   UNL     1      13.842 -12.843  12.865  1.00  0.00    -0.206 F 
ATOM     81  C   UNL     1      13.132 -16.195  14.013  1.00  0.00     0.006 A 
ENDBRANCH  60  74
BRANCH  61  82
ATOM     82  C   UNL     1      12.406  -4.992  11.075  1.00  0.00     0.057 A 
ATOM     83  C   UNL     1      13.196  -5.031  12.231  1.00  0.00     0.134 A 
ATOM     84  C   UNL     1      11.699  -3.791  10.864  1.00  0.00     0.134 A 
ATOM     85  F   UNL     1      14.016  -6.058  12.487  1.00  0.00    -0.206 F 
ATOM     86  C   UNL     1      13.171  -4.006  13.186  1.00  0.00     0.040 A 
ATOM     87  C   UNL     1      11.685  -2.748  11.795  1.00  0.00     0.040 A 
ATOM     88  F   UNL     1      10.994  -3.610   9.736  1.00  0.00    -0.206 F 
ATOM     89  C   UNL     1      12.400  -2.867  12.979  1.00  0.00     0.006 A 
ENDBRANCH  61  82
BRANCH  73  90
ATOM     90  C   UNL     1      13.361 -10.147   7.156  1.00  0.00     0.057 A 
ATOM     91  C   UNL     1      12.303 -10.323   6.253  1.00  0.00     0.134 A 
ATOM     92  C   UNL     1      14.571  -9.665   6.648  1.00  0.00     0.134 A 
ATOM     93  F   UNL     1      11.102 -10.756   6.668  1.00  0.00    -0.206 F 
ATOM     94  C   UNL     1      12.459 -10.074   4.889  1.00  0.00     0.040 A 
ATOM     95  C   UNL     1      14.727  -9.378   5.292  1.00  0.00     0.040 A 
ATOM     96  F   UNL     1      15.628  -9.488   7.456  1.00  0.00    -0.206 F 
ATOM     97  C   UNL     1      13.674  -9.596   4.406  1.00  0.00     0.006 A 
ENDBRANCH  73  90
ENDBRANCH  47  48
ENDBRANCH  39  42
ENDBRANCH  37  38
ENDBRANCH  36  37
ENDBRANCH  35  36
ENDBRANCH   1  35
TORSDOF 17
