REMARK SMILES O=C(NCCCCNC(=O)[C@@H](Cc1ccc(O)cc1)Nc1c2ccccc2nc2ccccc12)c1ccc(-c2c3nc(c(-c4c(F)cccc4F)c4ccc([nH]4)c(-c4c(F)cccc4F)c4nc(c(-c5c(F)cccc5F)c5ccc2[nH]5)C=C4)C=C3)cc1
REMARK SMILES IDX 6 1 5 2 4 3 3 4 1 5 2 6 35 8 36 9 88 10 37 11 87 12 38 13
REMARK SMILES IDX 39 14 40 15 81 16 41 17 86 18 80 19 82 20 42 21 85 22 79 23
REMARK SMILES IDX 78 24 43 26 69 27 52 28 68 29 53 30 56 31 67 32 83 33 54 34
REMARK SMILES IDX 55 35 66 37 84 38 57 39 44 40 45 41 50 42 46 43 47 44 49 45
REMARK SMILES IDX 51 46 48 47 70 48 71 49 76 50 72 51 73 52 75 53 77 54 74 55
REMARK SMILES IDX 58 56 59 57 64 58 60 59 61 60 63 61 65 62 62 63 7 64 8 65
REMARK SMILES IDX 9 66 10 68 11 69 12 70 13 71 14 72 19 73 15 74 18 75 16 76
REMARK SMILES IDX 17 77 20 79 21 81 22 82 34 83 23 84 27 85 29 86 33 87 24 88
REMARK SMILES IDX 26 89 28 90 30 91 32 92 25 93 31 94
REMARK H PARENT 3 7 82 25 56 36 8 67 17 78 20 80
REMARK Flexibility Score: inf
ROOT
ATOM      1  C   UNL     1       5.518  -3.290  -1.014  1.00  0.00     0.023 C 
ENDROOT
BRANCH   1   2
ATOM      2  C   UNL     1       5.732  -2.315   0.132  1.00  0.00     0.023 C 
BRANCH   2   3
ATOM      3  C   UNL     1       5.061  -0.962  -0.058  1.00  0.00     0.116 C 
BRANCH   3   4
ATOM      4  N   UNL     1       3.627  -1.014  -0.324  1.00  0.00    -0.352 N 
ATOM      5  O   UNL     1       1.491  -0.262  -0.261  1.00  0.00    -0.269 OA
ATOM      6  C   UNL     1       2.661  -0.085   0.018  1.00  0.00     0.251 C 
ATOM      7  H   UNL     1       3.307  -1.810  -0.807  1.00  0.00     0.163 HD
BRANCH   6   8
ATOM      8  C   UNL     1       3.101   1.101   0.792  1.00  0.00     0.039 A 
ATOM      9  C   UNL     1       4.189   1.848   0.346  1.00  0.00     0.014 A 
ATOM     10  C   UNL     1       2.545   1.337   2.051  1.00  0.00     0.014 A 
ATOM     11  C   UNL     1       4.865   2.659   1.247  1.00  0.00     0.010 A 
ATOM     12  C   UNL     1       3.167   2.243   2.918  1.00  0.00     0.010 A 
ATOM     13  C   UNL     1       4.379   2.851   2.553  1.00  0.00    -0.014 A 
BRANCH  13  14
ATOM     14  C   UNL     1       5.190   3.655   3.509  1.00  0.00     0.031 A 
ATOM     15  C   UNL     1       5.760   3.042   4.765  1.00  0.00     0.074 A 
ATOM     16  C   UNL     1       5.502   4.926   3.189  1.00  0.00     0.049 A 
ATOM     17  N   UNL     1       6.543   3.587   5.664  1.00  0.00    -0.248 NA
ATOM     18  C   UNL     1       5.403   1.645   5.059  1.00  0.00     0.031 C 
ATOM     19  C   UNL     1       5.019   5.638   2.004  1.00  0.00     0.029 A 
ATOM     20  N   UNL     1       6.336   5.827   3.801  1.00  0.00    -0.354 N 
ATOM     21  C   UNL     1       6.731   2.622   6.647  1.00  0.00     0.074 A 
ATOM     22  C   UNL     1       5.979   1.456   6.238  1.00  0.00     0.031 C 
ATOM     23  C   UNL     1       5.632   6.827   1.927  1.00  0.00     0.029 A 
ATOM     24  C   UNL     1       6.496   6.992   3.090  1.00  0.00     0.049 A 
ATOM     25  H   UNL     1       6.776   5.656   4.665  1.00  0.00     0.167 HD
ATOM     26  C   UNL     1       7.465   2.698   7.784  1.00  0.00     0.037 A 
ATOM     27  C   UNL     1       7.254   8.074   3.341  1.00  0.00     0.037 A 
ATOM     28  C   UNL     1       8.262   3.835   8.168  1.00  0.00     0.049 A 
ATOM     29  C   UNL     1       8.088   8.117   4.586  1.00  0.00     0.074 A 
ATOM     30  C   UNL     1       9.062   3.989   9.288  1.00  0.00     0.029 A 
ATOM     31  N   UNL     1       8.371   5.006   7.436  1.00  0.00    -0.354 N 
ATOM     32  N   UNL     1       8.244   7.197   5.506  1.00  0.00    -0.248 NA
ATOM     33  C   UNL     1       8.840   9.354   4.833  1.00  0.00     0.031 C 
ATOM     34  C   UNL     1       9.637   5.265   9.246  1.00  0.00     0.029 A 
ATOM     35  C   UNL     1       9.219   5.891   8.083  1.00  0.00     0.049 A 
ATOM     36  H   UNL     1       7.915   5.184   6.582  1.00  0.00     0.167 HD
ATOM     37  C   UNL     1       9.114   7.742   6.439  1.00  0.00     0.074 A 
ATOM     38  C   UNL     1       9.472   9.061   5.961  1.00  0.00     0.031 C 
ATOM     39  C   UNL     1       9.568   7.199   7.595  1.00  0.00     0.037 A 
BRANCH  26  40
ATOM     40  C   UNL     1       7.427   1.524   8.718  1.00  0.00     0.057 A 
ATOM     41  C   UNL     1       8.127   0.340   8.454  1.00  0.00     0.134 A 
ATOM     42  C   UNL     1       6.723   1.603   9.927  1.00  0.00     0.134 A 
ATOM     43  F   UNL     1       8.811   0.196   7.309  1.00  0.00    -0.206 F 
ATOM     44  C   UNL     1       8.115  -0.730   9.352  1.00  0.00     0.040 A 
ATOM     45  C   UNL     1       6.719   0.548  10.841  1.00  0.00     0.040 A 
ATOM     46  F   UNL     1       6.037   2.712  10.244  1.00  0.00    -0.206 F 
ATOM     47  C   UNL     1       7.415  -0.624  10.553  1.00  0.00     0.006 A 
ENDBRANCH  26  40
BRANCH  27  48
ATOM     48  C   UNL     1       7.261   9.202   2.379  1.00  0.00     0.057 A 
ATOM     49  C   UNL     1       8.380   9.460   1.581  1.00  0.00     0.134 A 
ATOM     50  C   UNL     1       6.143  10.028   2.217  1.00  0.00     0.134 A 
ATOM     51  F   UNL     1       9.486   8.712   1.705  1.00  0.00    -0.206 F 
ATOM     52  C   UNL     1       8.390  10.506   0.657  1.00  0.00     0.040 A 
ATOM     53  C   UNL     1       6.130  11.060   1.280  1.00  0.00     0.040 A 
ATOM     54  F   UNL     1       5.038   9.822   2.948  1.00  0.00    -0.206 F 
ATOM     55  C   UNL     1       7.258  11.304   0.499  1.00  0.00     0.006 A 
ENDBRANCH  27  48
BRANCH  39  56
ATOM     56  C   UNL     1      10.513   8.030   8.406  1.00  0.00     0.057 A 
ATOM     57  C   UNL     1      10.066   9.117   9.167  1.00  0.00     0.134 A 
ATOM     58  C   UNL     1      11.881   7.734   8.434  1.00  0.00     0.134 A 
ATOM     59  F   UNL     1       8.769   9.459   9.168  1.00  0.00    -0.206 F 
ATOM     60  C   UNL     1      10.953   9.898   9.910  1.00  0.00     0.040 A 
ATOM     61  C   UNL     1      12.774   8.496   9.188  1.00  0.00     0.040 A 
ATOM     62  F   UNL     1      12.370   6.702   7.729  1.00  0.00    -0.206 F 
ATOM     63  C   UNL     1      12.311   9.585   9.924  1.00  0.00     0.006 A 
ENDBRANCH  39  56
ENDBRANCH  13  14
ENDBRANCH   6   8
ENDBRANCH   3   4
ENDBRANCH   2   3
ENDBRANCH   1   2
BRANCH   1  64
ATOM     64  C   UNL     1       6.086  -2.865  -2.366  1.00  0.00     0.116 C 
BRANCH  64  65
ATOM     65  N   UNL     1       7.284  -3.610  -2.670  1.00  0.00    -0.354 N 
ATOM     66  C   UNL     1       7.472  -4.813  -3.273  1.00  0.00     0.242 C 
ATOM     67  H   UNL     1       8.117  -3.166  -2.390  1.00  0.00     0.163 HD
ATOM     68  O   UNL     1       8.614  -5.281  -3.169  1.00  0.00    -0.273 OA
BRANCH  66  69
ATOM     69  C   UNL     1       6.386  -5.593  -4.068  1.00  0.00     0.173 C 
BRANCH  69  70
ATOM     70  C   UNL     1       5.293  -6.285  -3.211  1.00  0.00     0.070 C 
BRANCH  70  71
ATOM     71  C   UNL     1       4.039  -5.612  -2.686  1.00  0.00    -0.045 A 
ATOM     72  C   UNL     1       3.285  -4.670  -3.401  1.00  0.00     0.007 A 
ATOM     73  C   UNL     1       3.546  -6.026  -1.431  1.00  0.00     0.007 A 
ATOM     74  C   UNL     1       2.173  -4.043  -2.818  1.00  0.00     0.046 A 
ATOM     75  C   UNL     1       2.420  -5.427  -0.862  1.00  0.00     0.046 A 
ATOM     76  C   UNL     1       1.768  -4.409  -1.540  1.00  0.00     0.115 A 
BRANCH  76  77
ATOM     77  O   UNL     1       0.740  -3.782  -0.903  1.00  0.00    -0.508 OA
ATOM     78  H   UNL     1       0.277  -3.089  -1.331  1.00  0.00     0.293 HD
ENDBRANCH  76  77
ENDBRANCH  70  71
ENDBRANCH  69  70
BRANCH  69  79
ATOM     79  N   UNL     1       5.874  -4.828  -5.210  1.00  0.00    -0.372 N 
ATOM     80  H   UNL     1       5.417  -3.987  -4.981  1.00  0.00     0.161 HD
BRANCH  79  81
ATOM     81  C   UNL     1       5.940  -5.119  -6.583  1.00  0.00     0.054 A 
ATOM     82  C   UNL     1       6.044  -6.447  -7.146  1.00  0.00     0.024 A 
ATOM     83  C   UNL     1       5.892  -3.996  -7.494  1.00  0.00     0.024 A 
ATOM     84  C   UNL     1       6.045  -7.697  -6.459  1.00  0.00     0.012 A 
ATOM     85  C   UNL     1       6.125  -6.542  -8.553  1.00  0.00     0.073 A 
ATOM     86  C   UNL     1       5.946  -4.271  -8.874  1.00  0.00     0.073 A 
ATOM     87  C   UNL     1       5.803  -2.620  -7.125  1.00  0.00     0.012 A 
ATOM     88  C   UNL     1       6.187  -8.932  -7.099  1.00  0.00     0.001 A 
ATOM     89  C   UNL     1       6.258  -7.775  -9.180  1.00  0.00     0.029 A 
ATOM     90  N   UNL     1       6.070  -5.496  -9.375  1.00  0.00    -0.248 NA
ATOM     91  C   UNL     1       5.876  -3.239  -9.801  1.00  0.00     0.029 A 
ATOM     92  C   UNL     1       5.740  -1.593  -8.071  1.00  0.00     0.001 A 
ATOM     93  C   UNL     1       6.303  -8.971  -8.472  1.00  0.00     0.002 A 
ATOM     94  C   UNL     1       5.769  -1.905  -9.418  1.00  0.00     0.002 A 
ENDBRANCH  79  81
ENDBRANCH  69  79
ENDBRANCH  66  69
ENDBRANCH  64  65
ENDBRANCH   1  64
TORSDOF 16
