REMARK SMILES CC1(C)CCN(C(=O)N[C@](C)(C(=O)NCCCCNC(=O)c2ccc(-c3c4nc(c(-c5c(F)cccc5F)c5ccc([nH]5)c(-c5c(F)cccc5F)c5nc(c(-c6c(F)cccc6F)c6ccc3[nH]6)C=C5)C=C4)cc2)c2ccccc2)C1
REMARK SMILES IDX 16 1 15 2 14 3 12 4 13 5 10 7 11 8 9 9 7 10 8 11 6 13 1 14
REMARK SMILES IDX 2 15 3 16 4 17 82 18 5 19 76 20 77 21 81 22 78 23 80 24
REMARK SMILES IDX 79 25 17 26 18 27 19 28 20 29 21 31 22 32 23 33 75 34 24 35
REMARK SMILES IDX 74 36 25 37 26 38 27 39 68 40 28 41 73 42 67 43 69 44 29 45
REMARK SMILES IDX 72 46 66 47 65 48 30 50 56 51 39 52 55 53 40 54 43 55 54 56
REMARK SMILES IDX 70 57 41 58 42 59 53 61 71 62 44 63 31 64 32 65 37 66 33 67
REMARK SMILES IDX 34 68 36 69 38 70 35 71 57 72 58 73 63 74 59 75 60 76 62 77
REMARK SMILES IDX 64 78 61 79 45 80 46 81 51 82 47 83 48 84 50 85 52 86 49 87
REMARK H PARENT 14 6 9 12 19 30 69 49 43 60
REMARK Flexibility Score: inf
ROOT
ATOM      1  C   UNL     1       3.918   5.975  -1.827  1.00  0.00     0.023 C 
ENDROOT
BRANCH   1   2
ATOM      2  C   UNL     1       2.839   6.265  -0.776  1.00  0.00     0.116 C 
BRANCH   2   3
ATOM      3  N   UNL     1       1.526   5.896  -1.257  1.00  0.00    -0.354 N 
ATOM      4  C   UNL     1       0.833   4.725  -1.311  1.00  0.00     0.250 C 
ATOM      5  O   UNL     1      -0.045   4.740  -2.185  1.00  0.00    -0.272 OA
ATOM      6  H   UNL     1       1.024   6.658  -1.626  1.00  0.00     0.163 HD
BRANCH   4   7
ATOM      7  C   UNL     1       1.121   3.443  -0.395  1.00  0.00     0.143 C 
ATOM      8  C   UNL     1       2.602   3.022  -0.573  1.00  0.00     0.051 C 
BRANCH   7   9
ATOM      9  N   UNL     1       1.013   3.814   1.047  1.00  0.00    -0.320 N 
ATOM     10  C   UNL     1      -0.088   4.113   1.773  1.00  0.00     0.318 C 
ATOM     11  O   UNL     1      -0.262   5.301   2.054  1.00  0.00    -0.249 OA
ATOM     12  H   UNL     1       1.864   3.846   1.540  1.00  0.00     0.166 HD
BRANCH  10  13
ATOM     13  N   UNL     1      -0.810   3.112   2.356  1.00  0.00    -0.324 N 
ATOM     14  C   UNL     1      -1.417  -0.051   3.976  1.00  0.00     0.013 C 
ATOM     15  C   UNL     1      -1.816   1.033   2.971  1.00  0.00    -0.016 C 
ATOM     16  C   UNL     1      -2.714   0.396   1.899  1.00  0.00     0.013 C 
ATOM     17  C   UNL     1      -2.580   2.196   3.642  1.00  0.00     0.030 C 
ATOM     18  C   UNL     1      -0.558   1.685   2.360  1.00  0.00     0.127 C 
ATOM     19  C   UNL     1      -1.730   3.437   3.425  1.00  0.00     0.122 C 
ENDBRANCH  10  13
ENDBRANCH   7   9
BRANCH   7  20
ATOM     20  C   UNL     1       0.200   2.268  -0.815  1.00  0.00    -0.013 A 
ATOM     21  C   UNL     1      -1.186   2.469  -0.980  1.00  0.00     0.007 A 
ATOM     22  C   UNL     1       0.681   0.960  -1.050  1.00  0.00     0.007 A 
ATOM     23  C   UNL     1      -2.033   1.436  -1.391  1.00  0.00     0.000 A 
ATOM     24  C   UNL     1      -0.172  -0.081  -1.427  1.00  0.00     0.000 A 
ATOM     25  C   UNL     1      -1.528   0.159  -1.605  1.00  0.00     0.000 A 
ENDBRANCH   7  20
ENDBRANCH   4   7
ENDBRANCH   2   3
ENDBRANCH   1   2
BRANCH   1  26
ATOM     26  C   UNL     1       3.737   6.691  -3.170  1.00  0.00     0.023 C 
BRANCH  26  27
ATOM     27  C   UNL     1       3.606   8.207  -3.093  1.00  0.00     0.116 C 
BRANCH  27  28
ATOM     28  N   UNL     1       4.725   8.841  -2.414  1.00  0.00    -0.352 N 
ATOM     29  C   UNL     1       5.397   9.995  -2.746  1.00  0.00     0.251 C 
ATOM     30  H   UNL     1       5.046   8.380  -1.605  1.00  0.00     0.163 HD
ATOM     31  O   UNL     1       6.388  10.340  -2.123  1.00  0.00    -0.269 OA
BRANCH  29  32
ATOM     32  C   UNL     1       4.926  10.790  -3.899  1.00  0.00     0.039 A 
ATOM     33  C   UNL     1       5.840  11.128  -4.899  1.00  0.00     0.014 A 
ATOM     34  C   UNL     1       3.580  11.148  -4.013  1.00  0.00     0.014 A 
ATOM     35  C   UNL     1       5.386  11.752  -6.062  1.00  0.00     0.010 A 
ATOM     36  C   UNL     1       3.120  11.714  -5.196  1.00  0.00     0.010 A 
ATOM     37  C   UNL     1       4.017  12.005  -6.237  1.00  0.00    -0.014 A 
BRANCH  37  38
ATOM     38  C   UNL     1       3.488  12.538  -7.515  1.00  0.00     0.031 A 
ATOM     39  C   UNL     1       2.852  13.895  -7.561  1.00  0.00     0.074 A 
ATOM     40  C   UNL     1       3.501  11.756  -8.612  1.00  0.00     0.049 A 
ATOM     41  N   UNL     1       2.244  14.490  -8.556  1.00  0.00    -0.248 NA
ATOM     42  C   UNL     1       2.880  14.677  -6.316  1.00  0.00     0.031 C 
ATOM     43  C   UNL     1       4.059  10.404  -8.683  1.00  0.00     0.029 A 
ATOM     44  N   UNL     1       3.016  11.982  -9.875  1.00  0.00    -0.354 N 
ATOM     45  C   UNL     1       1.803  15.706  -8.053  1.00  0.00     0.074 A 
ATOM     46  C   UNL     1       2.173  15.745  -6.654  1.00  0.00     0.031 C 
ATOM     47  C   UNL     1       3.907   9.931  -9.930  1.00  0.00     0.029 A 
ATOM     48  C   UNL     1       3.204  10.926 -10.733  1.00  0.00     0.049 A 
ATOM     49  H   UNL     1       2.576  12.821 -10.142  1.00  0.00     0.167 HD
ATOM     50  C   UNL     1       1.162  16.706  -8.704  1.00  0.00     0.037 A 
ATOM     51  C   UNL     1       2.840  10.774 -12.020  1.00  0.00     0.037 A 
ATOM     52  C   UNL     1       0.814  16.670 -10.100  1.00  0.00     0.049 A 
ATOM     53  C   UNL     1       2.094  11.881 -12.708  1.00  0.00     0.074 A 
ATOM     54  C   UNL     1       0.237  17.662 -10.871  1.00  0.00     0.029 A 
ATOM     55  N   UNL     1       1.004  15.575 -10.931  1.00  0.00    -0.354 N 
ATOM     56  N   UNL     1       1.744  13.055 -12.242  1.00  0.00    -0.248 NA
ATOM     57  C   UNL     1       1.684  11.637 -14.098  1.00  0.00     0.031 C 
ATOM     58  C   UNL     1       0.036  17.153 -12.159  1.00  0.00     0.029 A 
ATOM     59  C   UNL     1       0.524  15.856 -12.200  1.00  0.00     0.049 A 
ATOM     60  H   UNL     1       1.418  14.725 -10.659  1.00  0.00     0.167 HD
ATOM     61  C   UNL     1       1.095  13.700 -13.286  1.00  0.00     0.074 A 
ATOM     62  C   UNL     1       1.106  12.789 -14.413  1.00  0.00     0.031 C 
ATOM     63  C   UNL     1       0.541  14.937 -13.309  1.00  0.00     0.037 A 
BRANCH  50  64
ATOM     64  C   UNL     1       0.792  17.918  -7.902  1.00  0.00     0.057 A 
ATOM     65  C   UNL     1       1.759  18.820  -7.437  1.00  0.00     0.134 A 
ATOM     66  C   UNL     1      -0.546  18.190  -7.593  1.00  0.00     0.134 A 
ATOM     67  F   UNL     1       3.060  18.610  -7.687  1.00  0.00    -0.206 F 
ATOM     68  C   UNL     1       1.411  19.930  -6.666  1.00  0.00     0.040 A 
ATOM     69  C   UNL     1      -0.909  19.311  -6.845  1.00  0.00     0.040 A 
ATOM     70  F   UNL     1      -1.522  17.371  -8.011  1.00  0.00    -0.206 F 
ATOM     71  C   UNL     1       0.072  20.180  -6.371  1.00  0.00     0.006 A 
ENDBRANCH  50  64
BRANCH  51  72
ATOM     72  C   UNL     1       3.200   9.533 -12.749  1.00  0.00     0.057 A 
ATOM     73  C   UNL     1       4.194   9.548 -13.734  1.00  0.00     0.134 A 
ATOM     74  C   UNL     1       2.575   8.310 -12.478  1.00  0.00     0.134 A 
ATOM     75  F   UNL     1       4.813  10.694 -14.049  1.00  0.00    -0.206 F 
ATOM     76  C   UNL     1       4.550   8.392 -14.430  1.00  0.00     0.040 A 
ATOM     77  C   UNL     1       2.935   7.143 -13.152  1.00  0.00     0.040 A 
ATOM     78  F   UNL     1       1.618   8.231 -11.542  1.00  0.00    -0.206 F 
ATOM     79  C   UNL     1       3.923   7.183 -14.135  1.00  0.00     0.006 A 
ENDBRANCH  51  72
BRANCH  63  80
ATOM     80  C   UNL     1      -0.079  15.385 -14.598  1.00  0.00     0.057 A 
ATOM     81  C   UNL     1      -1.315  14.890 -15.031  1.00  0.00     0.134 A 
ATOM     82  C   UNL     1       0.547  16.354 -15.393  1.00  0.00     0.134 A 
ATOM     83  F   UNL     1      -1.956  13.949 -14.322  1.00  0.00    -0.206 F 
ATOM     84  C   UNL     1      -1.902  15.335 -16.216  1.00  0.00     0.040 A 
ATOM     85  C   UNL     1      -0.041  16.822 -16.568  1.00  0.00     0.040 A 
ATOM     86  F   UNL     1       1.731  16.871 -15.031  1.00  0.00    -0.206 F 
ATOM     87  C   UNL     1      -1.268  16.310 -16.984  1.00  0.00     0.006 A 
ENDBRANCH  63  80
ENDBRANCH  37  38
ENDBRANCH  29  32
ENDBRANCH  27  28
ENDBRANCH  26  27
ENDBRANCH   1  26
TORSDOF 14
