REMARK SMILES Cc1nc(NC(=O)[C@H]2[C@@H]3CC[C@@H](C3)[C@@H]2C(=O)NCCCCNC(=O)c2ccc(-c3c4nc(c(-c5c(F)cccc5F)c5ccc([nH]5)c(-c5c(F)cccc5F)c5nc(c(-c6c(F)cccc6F)c6ccc3[nH]6)C=C5)C=C4)cc2)sc1-c1ccccc1
REMARK SMILES IDX 19 1 18 2 17 3 15 4 16 5 14 7 8 8 9 9 10 10 13 11 12 12
REMARK SMILES IDX 11 13 6 14 5 15 7 17 4 18 1 19 2 20 3 21 80 22 79 23 81 24
REMARK SMILES IDX 82 25 86 26 83 27 85 28 84 29 20 30 21 31 22 32 23 33 24 35
REMARK SMILES IDX 25 36 26 37 78 38 27 39 77 40 28 41 29 42 30 43 71 44 31 45
REMARK SMILES IDX 76 46 70 47 72 48 32 49 75 50 69 51 68 52 33 54 59 55 42 56
REMARK SMILES IDX 58 57 43 58 46 59 57 60 73 61 44 62 45 63 56 65 74 66 47 67
REMARK SMILES IDX 34 68 35 69 40 70 36 71 37 72 39 73 41 74 38 75 60 76 61 77
REMARK SMILES IDX 66 78 62 79 63 80 65 81 67 82 64 83 48 84 49 85 54 86 50 87
REMARK SMILES IDX 51 88 53 89 55 90 52 91
REMARK H PARENT 17 6 5 16 22 34 72 53 46 64
REMARK Flexibility Score: inf
ROOT
ATOM      1  C   UNL     1      -4.268  -0.682  -1.062  1.00  0.00     0.023 C 
ENDROOT
BRANCH   1   2
ATOM      2  C   UNL     1      -4.465   0.806  -0.793  1.00  0.00     0.116 C 
BRANCH   2   3
ATOM      3  N   UNL     1      -3.779   1.289   0.387  1.00  0.00    -0.356 N 
ATOM      4  C   UNL     1      -2.698   2.100   0.562  1.00  0.00     0.224 C 
ATOM      5  O   UNL     1      -2.491   2.448   1.728  1.00  0.00    -0.275 OA
ATOM      6  H   UNL     1      -4.172   0.967   1.230  1.00  0.00     0.163 HD
BRANCH   4   7
ATOM      7  C   UNL     1      -1.783   2.531  -0.603  1.00  0.00     0.094 C 
ATOM      8  C   UNL     1      -0.750   3.619  -0.132  1.00  0.00     0.094 C 
ATOM      9  C   UNL     1      -1.170   4.828  -1.040  1.00  0.00     0.002 C 
ATOM     10  C   UNL     1      -2.579   5.341  -0.680  1.00  0.00     0.005 C 
ATOM     11  C   UNL     1      -1.422   4.121  -2.367  1.00  0.00     0.009 C 
ATOM     12  C   UNL     1      -2.510   3.230  -1.780  1.00  0.00     0.002 C 
ATOM     13  C   UNL     1      -3.506   4.269  -1.257  1.00  0.00     0.005 C 
BRANCH   8  14
ATOM     14  C   UNL     1       0.777   3.412  -0.333  1.00  0.00     0.230 C 
ATOM     15  N   UNL     1       1.454   2.243  -0.260  1.00  0.00    -0.302 N 
ATOM     16  H   UNL     1       2.390   2.270  -0.564  1.00  0.00     0.172 HD
ATOM     17  O   UNL     1       1.492   4.394  -0.591  1.00  0.00    -0.274 OA
BRANCH  15  18
ATOM     18  C   UNL     1       1.010   1.041   0.176  1.00  0.00     0.190 A 
ATOM     19  C   UNL     1      -1.534  -1.051   1.488  1.00  0.00     0.068 C 
ATOM     20  C   UNL     1      -0.265  -0.564   0.914  1.00  0.00     0.058 A 
ATOM     21  N   UNL     1      -0.061   0.795   0.869  1.00  0.00    -0.225 NA
ATOM     22  C   UNL     1       0.683  -1.327   0.253  1.00  0.00     0.059 A 
ATOM     23  S   UNL     1       1.937  -0.314  -0.314  1.00  0.00    -0.096 S 
BRANCH  22  24
ATOM     24  C   UNL     1       0.595  -2.758   0.002  1.00  0.00    -0.006 A 
ATOM     25  C   UNL     1       0.946  -3.660   1.012  1.00  0.00     0.009 A 
ATOM     26  C   UNL     1      -0.143  -3.211  -1.102  1.00  0.00     0.009 A 
ATOM     27  C   UNL     1       0.512  -4.985   0.949  1.00  0.00     0.001 A 
ATOM     28  C   UNL     1      -0.575  -4.537  -1.163  1.00  0.00     0.001 A 
ATOM     29  C   UNL     1      -0.263  -5.417  -0.128  1.00  0.00     0.000 A 
ENDBRANCH  22  24
ENDBRANCH  15  18
ENDBRANCH   8  14
ENDBRANCH   4   7
ENDBRANCH   2   3
ENDBRANCH   1   2
BRANCH   1  30
ATOM     30  C   UNL     1      -4.784  -1.612   0.040  1.00  0.00     0.023 C 
BRANCH  30  31
ATOM     31  C   UNL     1      -6.235  -1.396   0.431  1.00  0.00     0.116 C 
BRANCH  31  32
ATOM     32  N   UNL     1      -7.132  -1.538  -0.702  1.00  0.00    -0.352 N 
ATOM     33  C   UNL     1      -8.232  -2.348  -0.826  1.00  0.00     0.251 C 
ATOM     34  H   UNL     1      -6.923  -0.979  -1.485  1.00  0.00     0.163 HD
ATOM     35  O   UNL     1      -8.746  -2.534  -1.920  1.00  0.00    -0.269 OA
BRANCH  33  36
ATOM     36  C   UNL     1      -8.776  -3.004   0.380  1.00  0.00     0.039 A 
ATOM     37  C   UNL     1      -9.135  -4.351   0.315  1.00  0.00     0.014 A 
ATOM     38  C   UNL     1      -8.907  -2.289   1.574  1.00  0.00     0.014 A 
ATOM     39  C   UNL     1      -9.580  -4.995   1.469  1.00  0.00     0.010 A 
ATOM     40  C   UNL     1      -9.258  -2.955   2.740  1.00  0.00     0.010 A 
ATOM     41  C   UNL     1      -9.612  -4.310   2.696  1.00  0.00    -0.014 A 
BRANCH  41  42
ATOM     42  C   UNL     1     -10.024  -4.993   3.945  1.00  0.00     0.031 A 
ATOM     43  C   UNL     1     -11.245  -4.524   4.686  1.00  0.00     0.074 A 
ATOM     44  C   UNL     1      -9.262  -5.989   4.437  1.00  0.00     0.049 A 
ATOM     45  N   UNL     1     -11.734  -4.949   5.823  1.00  0.00    -0.248 NA
ATOM     46  C   UNL     1     -12.000  -3.409   4.090  1.00  0.00     0.031 C 
ATOM     47  C   UNL     1      -8.024  -6.487   3.832  1.00  0.00     0.029 A 
ATOM     48  N   UNL     1      -9.411  -6.756   5.564  1.00  0.00    -0.354 N 
ATOM     49  C   UNL     1     -12.839  -4.148   6.081  1.00  0.00     0.074 A 
ATOM     50  C   UNL     1     -12.917  -3.173   5.016  1.00  0.00     0.031 C 
ATOM     51  C   UNL     1      -7.541  -7.491   4.581  1.00  0.00     0.029 A 
ATOM     52  C   UNL     1      -8.409  -7.680   5.738  1.00  0.00     0.049 A 
ATOM     53  H   UNL     1     -10.164  -6.654   6.189  1.00  0.00     0.167 HD
ATOM     54  C   UNL     1     -13.723  -4.235   7.101  1.00  0.00     0.037 A 
ATOM     55  C   UNL     1      -8.210  -8.571   6.727  1.00  0.00     0.037 A 
ATOM     56  C   UNL     1     -13.652  -5.227   8.140  1.00  0.00     0.049 A 
ATOM     57  C   UNL     1      -9.209  -8.644   7.849  1.00  0.00     0.074 A 
ATOM     58  C   UNL     1     -14.536  -5.448   9.181  1.00  0.00     0.029 A 
ATOM     59  N   UNL     1     -12.635  -6.161   8.272  1.00  0.00    -0.354 N 
ATOM     60  N   UNL     1     -10.297  -7.936   8.035  1.00  0.00    -0.248 NA
ATOM     61  C   UNL     1      -8.957  -9.644   8.896  1.00  0.00     0.031 C 
ATOM     62  C   UNL     1     -14.025  -6.479   9.974  1.00  0.00     0.029 A 
ATOM     63  C   UNL     1     -12.854  -6.941   9.394  1.00  0.00     0.049 A 
ATOM     64  H   UNL     1     -11.871  -6.254   7.658  1.00  0.00     0.167 HD
ATOM     65  C   UNL     1     -10.873  -8.422   9.201  1.00  0.00     0.074 A 
ATOM     66  C   UNL     1     -10.024  -9.499   9.667  1.00  0.00     0.031 C 
ATOM     67  C   UNL     1     -12.000  -8.014   9.834  1.00  0.00     0.037 A 
BRANCH  54  68
ATOM     68  C   UNL     1     -14.846  -3.239   7.143  1.00  0.00     0.057 A 
ATOM     69  C   UNL     1     -15.893  -3.263   6.213  1.00  0.00     0.134 A 
ATOM     70  C   UNL     1     -14.909  -2.278   8.160  1.00  0.00     0.134 A 
ATOM     71  F   UNL     1     -15.887  -4.149   5.205  1.00  0.00    -0.206 F 
ATOM     72  C   UNL     1     -16.953  -2.357   6.281  1.00  0.00     0.040 A 
ATOM     73  C   UNL     1     -15.978  -1.385   8.256  1.00  0.00     0.040 A 
ATOM     74  F   UNL     1     -13.942  -2.200   9.086  1.00  0.00    -0.206 F 
ATOM     75  C   UNL     1     -17.002  -1.421   7.312  1.00  0.00     0.006 A 
ENDBRANCH  54  68
BRANCH  55  76
ATOM     76  C   UNL     1      -7.026  -9.469   6.702  1.00  0.00     0.057 A 
ATOM     77  C   UNL     1      -7.167 -10.851   6.533  1.00  0.00     0.134 A 
ATOM     78  C   UNL     1      -5.728  -8.972   6.872  1.00  0.00     0.134 A 
ATOM     79  F   UNL     1      -8.385 -11.392   6.379  1.00  0.00    -0.206 F 
ATOM     80  C   UNL     1      -6.066 -11.710   6.566  1.00  0.00     0.040 A 
ATOM     81  C   UNL     1      -4.615  -9.814   6.877  1.00  0.00     0.040 A 
ATOM     82  F   UNL     1      -5.521  -7.655   7.027  1.00  0.00    -0.206 F 
ATOM     83  C   UNL     1      -4.785 -11.190   6.735  1.00  0.00     0.006 A 
ENDBRANCH  55  76
BRANCH  67  84
ATOM     84  C   UNL     1     -12.396  -8.757  11.076  1.00  0.00     0.057 A 
ATOM     85  C   UNL     1     -11.678  -8.637  12.272  1.00  0.00     0.134 A 
ATOM     86  C   UNL     1     -13.536  -9.572  11.084  1.00  0.00     0.134 A 
ATOM     87  F   UNL     1     -10.570  -7.883  12.328  1.00  0.00    -0.206 F 
ATOM     88  C   UNL     1     -12.064  -9.323  13.425  1.00  0.00     0.040 A 
ATOM     89  C   UNL     1     -13.950 -10.236  12.238  1.00  0.00     0.040 A 
ATOM     90  F   UNL     1     -14.276  -9.720   9.974  1.00  0.00    -0.206 F 
ATOM     91  C   UNL     1     -13.208 -10.119  13.411  1.00  0.00     0.006 A 
ENDBRANCH  67  84
ENDBRANCH  41  42
ENDBRANCH  33  36
ENDBRANCH  31  32
ENDBRANCH  30  31
ENDBRANCH   1  30
TORSDOF 14
