REMARK SMILES Nc1c(CC(=O)NCCCCNC(=O)c2ccc(-c3c4nc(c(-c5c(F)cccc5F)c5ccc([nH]5)c(-c5c(F)cccc5F)c5nc(c(-c6c(F)cccc6F)c6ccc3[nH]6)C=C5)C=C4)cc2)cccc1C(=O)c1ccc(Br)cc1
REMARK SMILES IDX 9 1 8 2 7 3 5 4 6 5 4 7 3 8 2 9 72 10 69 11 71 12 70 13 1 14
REMARK SMILES IDX 73 17 74 18 75 19 76 20 81 21 77 22 80 23 78 24 79 25 10 26
REMARK SMILES IDX 11 27 12 28 13 29 14 31 15 32 16 33 68 34 17 35 67 36 18 37
REMARK SMILES IDX 19 38 20 39 61 40 21 41 66 42 60 43 62 44 22 45 65 46 59 47
REMARK SMILES IDX 58 48 23 50 49 51 32 52 48 53 33 54 36 55 47 56 63 57 34 58
REMARK SMILES IDX 35 59 46 61 64 62 37 63 24 64 25 65 30 66 26 67 27 68 29 69
REMARK SMILES IDX 31 70 28 71 50 72 51 73 56 74 52 75 53 76 55 77 57 78 54 79
REMARK SMILES IDX 38 80 39 81 44 82 40 83 41 84 43 85 45 86 42 87
REMARK H PARENT 7 6 1 15 1 16 12 30 62 49 36 60
REMARK Flexibility Score: inf
ROOT
ATOM      1  C   UNL     1       0.642  -0.689   3.332  1.00  0.00     0.023 C 
ENDROOT
BRANCH   1   2
ATOM      2  C   UNL     1       1.588  -1.768   2.805  1.00  0.00     0.116 C 
BRANCH   2   3
ATOM      3  N   UNL     1       0.875  -2.977   2.448  1.00  0.00    -0.356 N 
ATOM      4  C   UNL     1       0.441  -3.385   1.220  1.00  0.00     0.224 C 
ATOM      5  O   UNL     1      -0.223  -4.422   1.156  1.00  0.00    -0.275 OA
ATOM      6  H   UNL     1       0.677  -3.588   3.194  1.00  0.00     0.163 HD
BRANCH   4   7
ATOM      7  C   UNL     1       0.831  -2.623  -0.038  1.00  0.00     0.137 C 
BRANCH   7   8
ATOM      8  C   UNL     1       0.226  -1.233  -0.157  1.00  0.00    -0.015 A 
ATOM      9  C   UNL     1       1.014  -0.049  -0.181  1.00  0.00     0.046 A 
ATOM     10  C   UNL     1       0.358   1.210  -0.184  1.00  0.00     0.046 A 
ATOM     11  C   UNL     1      -1.179  -1.146  -0.179  1.00  0.00     0.006 A 
ATOM     12  C   UNL     1      -1.051   1.252  -0.184  1.00  0.00     0.014 A 
ATOM     13  C   UNL     1      -1.813   0.088  -0.189  1.00  0.00     0.001 A 
BRANCH   9  14
ATOM     14  N   UNL     1       2.398  -0.180  -0.150  1.00  0.00    -0.398 N 
ATOM     15  H   UNL     1       2.808  -1.075  -0.150  1.00  0.00     0.156 HD
ATOM     16  H   UNL     1       2.968   0.622  -0.128  1.00  0.00     0.156 HD
ENDBRANCH   9  14
BRANCH  10  17
ATOM     17  C   UNL     1       1.021   2.559  -0.133  1.00  0.00     0.195 C 
ATOM     18  O   UNL     1       0.360   3.568   0.114  1.00  0.00    -0.289 OA
BRANCH  17  19
ATOM     19  C   UNL     1       2.473   2.759  -0.292  1.00  0.00     0.023 A 
ATOM     20  C   UNL     1       3.175   3.334   0.775  1.00  0.00     0.013 A 
ATOM     21  C   UNL     1       3.147   2.349  -1.447  1.00  0.00     0.013 A 
ATOM     22  C   UNL     1       4.567   3.426   0.719  1.00  0.00     0.016 A 
ATOM     23  C   UNL     1       4.541   2.430  -1.493  1.00  0.00     0.016 A 
ATOM     24  C   UNL     1       5.244   2.956  -0.406  1.00  0.00     0.018 A 
ATOM     25  Br  UNL     1       7.133   3.006  -0.448  1.00  0.00    -0.051 Br
ENDBRANCH  17  19
ENDBRANCH  10  17
ENDBRANCH   7   8
ENDBRANCH   4   7
ENDBRANCH   2   3
ENDBRANCH   1   2
BRANCH   1  26
ATOM     26  C   UNL     1       0.101  -0.967   4.736  1.00  0.00     0.023 C 
BRANCH  26  27
ATOM     27  C   UNL     1       1.168  -1.115   5.814  1.00  0.00     0.116 C 
BRANCH  27  28
ATOM     28  N   UNL     1       2.004   0.066   5.954  1.00  0.00    -0.352 N 
ATOM     29  C   UNL     1       2.546   0.602   7.095  1.00  0.00     0.251 C 
ATOM     30  H   UNL     1       2.209   0.546   5.119  1.00  0.00     0.163 HD
ATOM     31  O   UNL     1       3.129   1.683   7.051  1.00  0.00    -0.269 OA
BRANCH  29  32
ATOM     32  C   UNL     1       2.401  -0.108   8.383  1.00  0.00     0.039 A 
ATOM     33  C   UNL     1       2.052   0.627   9.518  1.00  0.00     0.014 A 
ATOM     34  C   UNL     1       2.604  -1.488   8.476  1.00  0.00     0.014 A 
ATOM     35  C   UNL     1       1.867  -0.028  10.736  1.00  0.00     0.010 A 
ATOM     36  C   UNL     1       2.336  -2.151   9.671  1.00  0.00     0.010 A 
ATOM     37  C   UNL     1       1.984  -1.426  10.818  1.00  0.00    -0.014 A 
BRANCH  37  38
ATOM     38  C   UNL     1       1.764  -2.133  12.105  1.00  0.00     0.031 A 
ATOM     39  C   UNL     1       2.891  -2.884  12.761  1.00  0.00     0.074 A 
ATOM     40  C   UNL     1       0.541  -2.124  12.671  1.00  0.00     0.049 A 
ATOM     41  N   UNL     1       2.894  -3.556  13.885  1.00  0.00    -0.248 NA
ATOM     42  C   UNL     1       4.179  -2.906  12.048  1.00  0.00     0.031 C 
ATOM     43  C   UNL     1      -0.648  -1.482  12.107  1.00  0.00     0.029 A 
ATOM     44  N   UNL     1       0.096  -2.671  13.848  1.00  0.00    -0.354 N 
ATOM     45  C   UNL     1       4.174  -4.083  14.007  1.00  0.00     0.074 A 
ATOM     46  C   UNL     1       4.900  -3.711  12.813  1.00  0.00     0.031 C 
ATOM     47  C   UNL     1      -1.677  -1.641  12.955  1.00  0.00     0.029 A 
ATOM     48  C   UNL     1      -1.230  -2.421  14.104  1.00  0.00     0.049 A 
ATOM     49  H   UNL     1       0.673  -3.192  14.452  1.00  0.00     0.167 HD
ATOM     50  C   UNL     1       4.707  -4.788  15.033  1.00  0.00     0.037 A 
ATOM     51  C   UNL     1      -1.998  -2.779  15.151  1.00  0.00     0.037 A 
ATOM     52  C   UNL     1       3.988  -5.140  16.230  1.00  0.00     0.049 A 
ATOM     53  C   UNL     1      -1.383  -3.562  16.278  1.00  0.00     0.074 A 
ATOM     54  C   UNL     1       4.454  -5.801  17.353  1.00  0.00     0.029 A 
ATOM     55  N   UNL     1       2.648  -4.863  16.456  1.00  0.00    -0.354 N 
ATOM     56  N   UNL     1      -0.149  -3.984  16.417  1.00  0.00    -0.248 NA
ATOM     57  C   UNL     1      -2.266  -3.906  17.401  1.00  0.00     0.031 C 
ATOM     58  C   UNL     1       3.383  -5.969  18.237  1.00  0.00     0.029 A 
ATOM     59  C   UNL     1       2.264  -5.362  17.691  1.00  0.00     0.049 A 
ATOM     60  H   UNL     1       2.057  -4.383  15.832  1.00  0.00     0.167 HD
ATOM     61  C   UNL     1      -0.101  -4.619  17.652  1.00  0.00     0.074 A 
ATOM     62  C   UNL     1      -1.424  -4.505  18.230  1.00  0.00     0.031 C 
ATOM     63  C   UNL     1       0.943  -5.242  18.253  1.00  0.00     0.037 A 
BRANCH  50  64
ATOM     64  C   UNL     1       6.140  -5.220  14.906  1.00  0.00     0.057 A 
ATOM     65  C   UNL     1       7.197  -4.299  14.937  1.00  0.00     0.134 A 
ATOM     66  C   UNL     1       6.472  -6.575  14.778  1.00  0.00     0.134 A 
ATOM     67  F   UNL     1       6.950  -2.984  15.043  1.00  0.00    -0.206 F 
ATOM     68  C   UNL     1       8.527  -4.706  14.815  1.00  0.00     0.040 A 
ATOM     69  C   UNL     1       7.800  -6.997  14.687  1.00  0.00     0.040 A 
ATOM     70  F   UNL     1       5.512  -7.511  14.747  1.00  0.00    -0.206 F 
ATOM     71  C   UNL     1       8.831  -6.060  14.698  1.00  0.00     0.006 A 
ENDBRANCH  50  64
BRANCH  51  72
ATOM     72  C   UNL     1      -3.427  -2.376  15.199  1.00  0.00     0.057 A 
ATOM     73  C   UNL     1      -3.884  -1.439  16.133  1.00  0.00     0.134 A 
ATOM     74  C   UNL     1      -4.372  -2.928  14.326  1.00  0.00     0.134 A 
ATOM     75  F   UNL     1      -3.030  -0.888  17.009  1.00  0.00    -0.206 F 
ATOM     76  C   UNL     1      -5.231  -1.083  16.215  1.00  0.00     0.040 A 
ATOM     77  C   UNL     1      -5.718  -2.560  14.378  1.00  0.00     0.040 A 
ATOM     78  F   UNL     1      -3.999  -3.825  13.402  1.00  0.00    -0.206 F 
ATOM     79  C   UNL     1      -6.152  -1.642  15.332  1.00  0.00     0.006 A 
ENDBRANCH  51  72
BRANCH  63  80
ATOM     80  C   UNL     1       0.700  -5.819  19.618  1.00  0.00     0.057 A 
ATOM     81  C   UNL     1      -0.113  -6.943  19.816  1.00  0.00     0.134 A 
ATOM     82  C   UNL     1       1.302  -5.252  20.749  1.00  0.00     0.134 A 
ATOM     83  F   UNL     1      -0.728  -7.528  18.777  1.00  0.00    -0.206 F 
ATOM     84  C   UNL     1      -0.347  -7.459  21.091  1.00  0.00     0.040 A 
ATOM     85  C   UNL     1       1.101  -5.778  22.026  1.00  0.00     0.040 A 
ATOM     86  F   UNL     1       2.102  -4.181  20.631  1.00  0.00    -0.206 F 
ATOM     87  C   UNL     1       0.266  -6.879  22.200  1.00  0.00     0.006 A 
ENDBRANCH  63  80
ENDBRANCH  37  38
ENDBRANCH  29  32
ENDBRANCH  27  28
ENDBRANCH  26  27
ENDBRANCH   1  26
TORSDOF 15
