REMARK SMILES C[C@H](CNS(=O)(=O)c1ccc(C(=O)NCCCCNC(=O)c2ccc(-c3c4nc(c(-c5c(F)cccc5F)c5ccc([nH]5)c(-c5c(F)cccc5F)c5nc(c(-c6c(F)cccc6F)c6ccc3[nH]6)C=C5)C=C4)cc2)o1)c1ccccc1
REMARK SMILES IDX 15 1 14 2 12 3 13 4 11 6 8 7 9 8 76 9 10 10 5 11 6 12 7 13
REMARK SMILES IDX 4 14 3 16 2 17 1 18 77 19 78 20 82 21 79 22 81 23 80 24
REMARK SMILES IDX 16 25 17 26 18 27 19 28 20 29 21 31 22 32 23 33 75 34 24 35
REMARK SMILES IDX 74 36 25 37 26 38 27 39 68 40 28 41 73 42 67 43 69 44 29 45
REMARK SMILES IDX 72 46 66 47 65 48 30 50 56 51 39 52 55 53 40 54 43 55 54 56
REMARK SMILES IDX 70 57 41 58 42 59 53 61 71 62 44 63 31 64 32 65 37 66 33 67
REMARK SMILES IDX 34 68 36 69 38 70 35 71 57 72 58 73 63 74 59 75 60 76 62 77
REMARK SMILES IDX 64 78 61 79 45 80 46 81 51 82 47 83 48 84 50 85 52 86 49 87
REMARK H PARENT 14 5 4 15 19 30 69 49 43 60
REMARK Flexibility Score: inf
ROOT
ATOM      1  C   UNL     1       7.138   0.901   3.907  1.00  0.00     0.116 C 
ENDROOT
BRANCH   1   2
ATOM      2  N   UNL     1       6.779   0.212   2.688  1.00  0.00    -0.349 N 
ATOM      3  C   UNL     1       5.544  -0.131   2.189  1.00  0.00     0.287 C 
ATOM      4  O   UNL     1       5.538  -0.624   1.059  1.00  0.00    -0.266 OA
ATOM      5  H   UNL     1       7.541  -0.053   2.123  1.00  0.00     0.163 HD
BRANCH   3   6
ATOM      6  C   UNL     1       4.331   0.102   2.952  1.00  0.00     0.193 A 
ATOM      7  C   UNL     1       2.108   0.339   3.089  1.00  0.00     0.234 A 
ATOM      8  C   UNL     1       2.623   0.483   4.367  1.00  0.00     0.065 A 
ATOM      9  O   UNL     1       3.163   0.113   2.236  1.00  0.00    -0.438 OA
ATOM     10  C   UNL     1       4.023   0.299   4.285  1.00  0.00     0.058 A 
BRANCH   7  11
ATOM     11  S   UNL     1       0.425   0.387   2.500  1.00  0.00     0.274 S 
ATOM     12  O   UNL     1       0.184   1.766   2.136  1.00  0.00    -0.204 OA
ATOM     13  O   UNL     1      -0.348  -0.274   3.527  1.00  0.00    -0.204 OA
BRANCH  11  14
ATOM     14  N   UNL     1       0.320  -0.569   1.114  1.00  0.00    -0.208 NA
ATOM     15  H   UNL     1       0.781  -1.456   1.315  1.00  0.00     0.141 HD
BRANCH  14  16
ATOM     16  C   UNL     1       0.928  -0.014  -0.123  1.00  0.00     0.107 C 
BRANCH  16  17
ATOM     17  C   UNL     1       0.448  -0.794  -1.374  1.00  0.00     0.031 C 
ATOM     18  C   UNL     1       1.164  -2.150  -1.447  1.00  0.00     0.014 C 
BRANCH  17  19
ATOM     19  C   UNL     1      -1.079  -0.852  -1.429  1.00  0.00    -0.044 A 
ATOM     20  C   UNL     1      -1.807   0.353  -1.456  1.00  0.00     0.004 A 
ATOM     21  C   UNL     1      -1.798  -2.054  -1.364  1.00  0.00     0.004 A 
ATOM     22  C   UNL     1      -3.199   0.356  -1.361  1.00  0.00     0.000 A 
ATOM     23  C   UNL     1      -3.193  -2.050  -1.281  1.00  0.00     0.000 A 
ATOM     24  C   UNL     1      -3.892  -0.847  -1.265  1.00  0.00     0.000 A 
ENDBRANCH  17  19
ENDBRANCH  16  17
ENDBRANCH  14  16
ENDBRANCH  11  14
ENDBRANCH   7  11
ENDBRANCH   3   6
ENDBRANCH   1   2
BRANCH   1  25
ATOM     25  C   UNL     1       7.585  -0.084   4.986  1.00  0.00     0.023 C 
BRANCH  25  26
ATOM     26  C   UNL     1       9.037  -0.549   4.839  1.00  0.00     0.023 C 
BRANCH  26  27
ATOM     27  C   UNL     1      10.082   0.562   4.904  1.00  0.00     0.116 C 
BRANCH  27  28
ATOM     28  N   UNL     1      10.003   1.362   6.117  1.00  0.00    -0.352 N 
ATOM     29  C   UNL     1      11.026   1.947   6.823  1.00  0.00     0.251 C 
ATOM     30  H   UNL     1       9.098   1.503   6.479  1.00  0.00     0.163 HD
ATOM     31  O   UNL     1      10.807   2.508   7.891  1.00  0.00    -0.269 OA
BRANCH  29  32
ATOM     32  C   UNL     1      12.404   1.855   6.300  1.00  0.00     0.039 A 
ATOM     33  C   UNL     1      13.415   1.396   7.146  1.00  0.00     0.014 A 
ATOM     34  C   UNL     1      12.681   2.172   4.968  1.00  0.00     0.014 A 
ATOM     35  C   UNL     1      14.696   1.183   6.633  1.00  0.00     0.010 A 
ATOM     36  C   UNL     1      13.937   1.892   4.442  1.00  0.00     0.010 A 
ATOM     37  C   UNL     1      14.955   1.390   5.268  1.00  0.00    -0.014 A 
BRANCH  37  38
ATOM     38  C   UNL     1      16.280   1.075   4.680  1.00  0.00     0.031 A 
ATOM     39  C   UNL     1      17.122   2.170   4.086  1.00  0.00     0.074 A 
ATOM     40  C   UNL     1      16.692  -0.206   4.615  1.00  0.00     0.049 A 
ATOM     41  N   UNL     1      18.267   2.084   3.459  1.00  0.00    -0.248 NA
ATOM     42  C   UNL     1      16.591   3.539   4.185  1.00  0.00     0.031 C 
ATOM     43  C   UNL     1      15.944  -1.363   5.111  1.00  0.00     0.029 A 
ATOM     44  N   UNL     1      17.838  -0.751   4.093  1.00  0.00    -0.354 N 
ATOM     45  C   UNL     1      18.586   3.381   3.078  1.00  0.00     0.074 A 
ATOM     46  C   UNL     1      17.489   4.227   3.495  1.00  0.00     0.031 C 
ATOM     47  C   UNL     1      16.659  -2.477   4.889  1.00  0.00     0.029 A 
ATOM     48  C   UNL     1      17.896  -2.120   4.202  1.00  0.00     0.049 A 
ATOM     49  H   UNL     1      18.551  -0.213   3.679  1.00  0.00     0.167 HD
ATOM     50  C   UNL     1      19.703   3.830   2.459  1.00  0.00     0.037 A 
ATOM     51  C   UNL     1      18.837  -2.989   3.786  1.00  0.00     0.037 A 
ATOM     52  C   UNL     1      20.803   2.989   2.066  1.00  0.00     0.049 A 
ATOM     53  C   UNL     1      20.063  -2.466   3.091  1.00  0.00     0.074 A 
ATOM     54  C   UNL     1      22.005   3.356   1.488  1.00  0.00     0.029 A 
ATOM     55  N   UNL     1      20.832   1.609   2.209  1.00  0.00    -0.354 N 
ATOM     56  N   UNL     1      20.385  -1.229   2.801  1.00  0.00    -0.248 NA
ATOM     57  C   UNL     1      21.061  -3.460   2.671  1.00  0.00     0.031 C 
ATOM     58  C   UNL     1      22.743   2.195   1.239  1.00  0.00     0.029 A 
ATOM     59  C   UNL     1      22.022   1.108   1.708  1.00  0.00     0.049 A 
ATOM     60  H   UNL     1      20.113   1.067   2.607  1.00  0.00     0.167 HD
ATOM     61  C   UNL     1      21.631  -1.292   2.192  1.00  0.00     0.074 A 
ATOM     62  C   UNL     1      22.014  -2.689   2.166  1.00  0.00     0.031 C 
ATOM     63  C   UNL     1      22.391  -0.284   1.698  1.00  0.00     0.037 A 
BRANCH  50  64
ATOM     64  C   UNL     1      19.791   5.301   2.171  1.00  0.00     0.057 A 
ATOM     65  C   UNL     1      19.951   6.245   3.195  1.00  0.00     0.134 A 
ATOM     66  C   UNL     1      19.748   5.777   0.855  1.00  0.00     0.134 A 
ATOM     67  F   UNL     1      19.988   5.857   4.479  1.00  0.00    -0.206 F 
ATOM     68  C   UNL     1      20.037   7.611   2.921  1.00  0.00     0.040 A 
ATOM     69  C   UNL     1      19.861   7.138   0.567  1.00  0.00     0.040 A 
ATOM     70  F   UNL     1      19.602   4.928  -0.173  1.00  0.00    -0.206 F 
ATOM     71  C   UNL     1      19.999   8.060   1.603  1.00  0.00     0.006 A 
ENDBRANCH  50  64
BRANCH  51  72
ATOM     72  C   UNL     1      18.667  -4.444   4.032  1.00  0.00     0.057 A 
ATOM     73  C   UNL     1      19.480  -5.119   4.949  1.00  0.00     0.134 A 
ATOM     74  C   UNL     1      17.700  -5.194   3.353  1.00  0.00     0.134 A 
ATOM     75  F   UNL     1      20.437  -4.458   5.617  1.00  0.00    -0.206 F 
ATOM     76  C   UNL     1      19.354  -6.492   5.168  1.00  0.00     0.040 A 
ATOM     77  C   UNL     1      17.545  -6.563   3.580  1.00  0.00     0.040 A 
ATOM     78  F   UNL     1      16.884  -4.605   2.467  1.00  0.00    -0.206 F 
ATOM     79  C   UNL     1      18.380  -7.217   4.485  1.00  0.00     0.006 A 
ENDBRANCH  51  72
BRANCH  63  80
ATOM     80  C   UNL     1      23.728  -0.650   1.121  1.00  0.00     0.057 A 
ATOM     81  C   UNL     1      23.848  -1.311  -0.108  1.00  0.00     0.134 A 
ATOM     82  C   UNL     1      24.910  -0.295   1.785  1.00  0.00     0.134 A 
ATOM     83  F   UNL     1      22.755  -1.689  -0.786  1.00  0.00    -0.206 F 
ATOM     84  C   UNL     1      25.097  -1.625  -0.646  1.00  0.00     0.040 A 
ATOM     85  C   UNL     1      26.164  -0.580   1.243  1.00  0.00     0.040 A 
ATOM     86  F   UNL     1      24.864   0.347   2.961  1.00  0.00    -0.206 F 
ATOM     87  C   UNL     1      26.259  -1.252   0.026  1.00  0.00     0.006 A 
ENDBRANCH  63  80
ENDBRANCH  37  38
ENDBRANCH  29  32
ENDBRANCH  27  28
ENDBRANCH  26  27
ENDBRANCH  25  26
ENDBRANCH   1  25
TORSDOF 16
