REMARK SMILES COCCNS(=O)(=O)Cc1ccc(C(=O)NCCCCNC(=O)c2ccc(-c3c4nc(c(-c5c(F)cccc5F)c5ccc([nH]5)c(-c5c(F)cccc5F)c5nc(c(-c6c(F)cccc6F)c6ccc3[nH]6)C=C5)C=C4)cc2)cc1
REMARK SMILES IDX 14 1 15 2 16 3 13 5 10 6 11 7 79 8 12 9 78 10 9 11 6 12 7 13
REMARK SMILES IDX 8 14 5 15 4 17 3 18 2 19 1 20 17 21 18 22 19 23 20 24 21 25
REMARK SMILES IDX 22 26 23 28 24 29 25 30 77 31 26 32 76 33 27 34 28 35 29 36
REMARK SMILES IDX 70 37 30 38 75 39 69 40 71 41 31 42 74 43 68 44 67 45 32 47
REMARK SMILES IDX 58 48 41 49 57 50 42 51 45 52 56 53 72 54 43 55 44 56 55 58
REMARK SMILES IDX 73 59 46 60 33 61 34 62 39 63 35 64 36 65 38 66 40 67 37 68
REMARK SMILES IDX 59 69 60 70 65 71 61 72 62 73 64 74 66 75 63 76 47 77 48 78
REMARK SMILES IDX 53 79 49 80 50 81 52 82 54 83 51 84
REMARK H PARENT 16 4 5 16 21 27 71 46 45 57
REMARK Flexibility Score: inf
ROOT
ATOM      1  C   UNL     1       6.741   5.393   1.376  1.00  0.00     0.251 C 
ATOM      2  O   UNL     1       7.351   4.344   1.581  1.00  0.00    -0.269 OA
ATOM      3  N   UNL     1       7.479   6.509   1.077  1.00  0.00    -0.352 N 
ATOM      4  H   UNL     1       8.450   6.355   1.044  1.00  0.00     0.163 HD
ENDROOT
BRANCH   1   5
ATOM      5  C   UNL     1       5.251   5.384   1.385  1.00  0.00     0.039 A 
ATOM      6  C   UNL     1       2.422   5.197   1.201  1.00  0.00    -0.032 A 
ATOM      7  C   UNL     1       3.238   4.091   0.936  1.00  0.00     0.005 A 
ATOM      8  C   UNL     1       3.049   6.388   1.594  1.00  0.00     0.005 A 
ATOM      9  C   UNL     1       4.631   4.181   1.035  1.00  0.00     0.014 A 
ATOM     10  C   UNL     1       4.440   6.469   1.715  1.00  0.00     0.014 A 
BRANCH   6  11
ATOM     11  C   UNL     1       0.932   5.233   0.965  1.00  0.00     0.189 C 
BRANCH  11  12
ATOM     12  S   UNL     1       0.022   3.806   1.557  1.00  0.00     0.215 S 
ATOM     13  O   UNL     1      -1.379   4.005   1.246  1.00  0.00    -0.212 OA
ATOM     14  O   UNL     1       0.434   3.482   2.904  1.00  0.00    -0.212 OA
BRANCH  12  15
ATOM     15  N   UNL     1       0.534   2.524   0.599  1.00  0.00    -0.213 NA
ATOM     16  H   UNL     1       1.554   2.510   0.632  1.00  0.00     0.141 HD
BRANCH  15  17
ATOM     17  C   UNL     1       0.143   2.513  -0.827  1.00  0.00     0.127 C 
BRANCH  17  18
ATOM     18  C   UNL     1       0.954   1.465  -1.600  1.00  0.00     0.176 C 
BRANCH  18  19
ATOM     19  O   UNL     1       0.501   0.128  -1.378  1.00  0.00    -0.383 OA
ATOM     20  C   UNL     1       1.091  -0.515  -0.257  1.00  0.00     0.194 C 
ENDBRANCH  18  19
ENDBRANCH  17  18
ENDBRANCH  15  17
ENDBRANCH  12  15
ENDBRANCH  11  12
ENDBRANCH   6  11
ENDBRANCH   1   5
BRANCH   3  21
ATOM     21  C   UNL     1       7.083   7.873   0.800  1.00  0.00     0.116 C 
BRANCH  21  22
ATOM     22  C   UNL     1       7.154   8.708   2.080  1.00  0.00     0.023 C 
BRANCH  22  23
ATOM     23  C   UNL     1       8.575   9.105   2.480  1.00  0.00     0.023 C 
BRANCH  23  24
ATOM     24  C   UNL     1       9.302   9.960   1.453  1.00  0.00     0.116 C 
BRANCH  24  25
ATOM     25  N   UNL     1       8.585  11.181   1.117  1.00  0.00    -0.352 N 
ATOM     26  C   UNL     1       9.108  12.411   0.804  1.00  0.00     0.251 C 
ATOM     27  H   UNL     1       7.602  11.117   1.115  1.00  0.00     0.163 HD
ATOM     28  O   UNL     1       8.380  13.387   0.664  1.00  0.00    -0.269 OA
BRANCH  26  29
ATOM     29  C   UNL     1      10.571  12.543   0.677  1.00  0.00     0.039 A 
ATOM     30  C   UNL     1      11.223  13.540   1.402  1.00  0.00     0.014 A 
ATOM     31  C   UNL     1      11.294  11.637  -0.103  1.00  0.00     0.014 A 
ATOM     32  C   UNL     1      12.616  13.590   1.393  1.00  0.00     0.010 A 
ATOM     33  C   UNL     1      12.681  11.637  -0.045  1.00  0.00     0.010 A 
ATOM     34  C   UNL     1      13.356  12.616   0.701  1.00  0.00    -0.014 A 
BRANCH  34  35
ATOM     35  C   UNL     1      14.838  12.605   0.745  1.00  0.00     0.031 A 
ATOM     36  C   UNL     1      15.629  12.811  -0.517  1.00  0.00     0.074 A 
ATOM     37  C   UNL     1      15.468  12.351   1.908  1.00  0.00     0.049 A 
ATOM     38  N   UNL     1      16.925  12.785  -0.693  1.00  0.00    -0.248 NA
ATOM     39  C   UNL     1      14.861  13.050  -1.749  1.00  0.00     0.031 C 
ATOM     40  C   UNL     1      14.809  12.086   3.189  1.00  0.00     0.029 A 
ATOM     41  N   UNL     1      16.806  12.267   2.200  1.00  0.00    -0.354 N 
ATOM     42  C   UNL     1      17.125  12.991  -2.052  1.00  0.00     0.074 A 
ATOM     43  C   UNL     1      15.818  13.081  -2.664  1.00  0.00     0.031 C 
ATOM     44  C   UNL     1      15.744  11.899   4.134  1.00  0.00     0.029 A 
ATOM     45  C   UNL     1      17.065  11.988   3.521  1.00  0.00     0.049 A 
ATOM     46  H   UNL     1      17.514  12.395   1.528  1.00  0.00     0.167 HD
ATOM     47  C   UNL     1      18.293  13.121  -2.724  1.00  0.00     0.037 A 
ATOM     48  C   UNL     1      18.237  11.816   4.161  1.00  0.00     0.037 A 
ATOM     49  C   UNL     1      19.590  13.051  -2.106  1.00  0.00     0.049 A 
ATOM     50  C   UNL     1      19.520  11.947   3.386  1.00  0.00     0.074 A 
ATOM     51  C   UNL     1      20.832  13.229  -2.688  1.00  0.00     0.029 A 
ATOM     52  N   UNL     1      19.812  12.774  -0.765  1.00  0.00    -0.354 N 
ATOM     53  N   UNL     1      19.696  12.220   2.116  1.00  0.00    -0.248 NA
ATOM     54  C   UNL     1      20.768  11.753   4.136  1.00  0.00     0.031 C 
ATOM     55  C   UNL     1      21.808  13.005  -1.712  1.00  0.00     0.029 A 
ATOM     56  C   UNL     1      21.173  12.748  -0.508  1.00  0.00     0.049 A 
ATOM     57  H   UNL     1      19.107  12.618  -0.095  1.00  0.00     0.167 HD
ATOM     58  C   UNL     1      21.071  12.262   1.922  1.00  0.00     0.074 A 
ATOM     59  C   UNL     1      21.681  12.002   3.209  1.00  0.00     0.031 C 
ATOM     60  C   UNL     1      21.765  12.496   0.782  1.00  0.00     0.037 A 
BRANCH  47  61
ATOM     61  C   UNL     1      18.218  13.351  -4.206  1.00  0.00     0.057 A 
ATOM     62  C   UNL     1      17.735  14.551  -4.746  1.00  0.00     0.134 A 
ATOM     63  C   UNL     1      18.669  12.376  -5.104  1.00  0.00     0.134 A 
ATOM     64  F   UNL     1      17.276  15.523  -3.943  1.00  0.00    -0.206 F 
ATOM     65  C   UNL     1      17.678  14.761  -6.125  1.00  0.00     0.040 A 
ATOM     66  C   UNL     1      18.646  12.586  -6.484  1.00  0.00     0.040 A 
ATOM     67  F   UNL     1      19.149  11.206  -4.656  1.00  0.00    -0.206 F 
ATOM     68  C   UNL     1      18.143  13.780  -6.998  1.00  0.00     0.006 A 
ENDBRANCH  47  61
BRANCH  48  69
ATOM     69  C   UNL     1      18.258  11.522   5.617  1.00  0.00     0.057 A 
ATOM     70  C   UNL     1      18.753  12.455   6.536  1.00  0.00     0.134 A 
ATOM     71  C   UNL     1      17.803  10.299   6.124  1.00  0.00     0.134 A 
ATOM     72  F   UNL     1      19.220  13.639   6.110  1.00  0.00    -0.206 F 
ATOM     73  C   UNL     1      18.820  12.174   7.901  1.00  0.00     0.040 A 
ATOM     74  C   UNL     1      17.837  10.015   7.491  1.00  0.00     0.040 A 
ATOM     75  F   UNL     1      17.308   9.365   5.299  1.00  0.00    -0.206 F 
ATOM     76  C   UNL     1      18.357  10.951   8.383  1.00  0.00     0.006 A 
ENDBRANCH  48  69
BRANCH  60  77
ATOM     77  C   UNL     1      23.263  12.525   0.881  1.00  0.00     0.057 A 
ATOM     78  C   UNL     1      24.016  11.364   1.101  1.00  0.00     0.134 A 
ATOM     79  C   UNL     1      23.963  13.727   0.714  1.00  0.00     0.134 A 
ATOM     80  F   UNL     1      23.407  10.182   1.281  1.00  0.00    -0.206 F 
ATOM     81  C   UNL     1      25.409  11.402   1.177  1.00  0.00     0.040 A 
ATOM     82  C   UNL     1      25.357  13.773   0.756  1.00  0.00     0.040 A 
ATOM     83  F   UNL     1      23.305  14.874   0.490  1.00  0.00    -0.206 F 
ATOM     84  C   UNL     1      26.084  12.608   0.996  1.00  0.00     0.006 A 
ENDBRANCH  60  77
ENDBRANCH  34  35
ENDBRANCH  26  29
ENDBRANCH  24  25
ENDBRANCH  23  24
ENDBRANCH  22  23
ENDBRANCH  21  22
ENDBRANCH   3  21
TORSDOF 17
