REMARK SMILES Cc1ccc(Nc2c(Cl)cc(Cl)cc2Cl)c(CC(=O)NCCCCNC(=O)c2ccc(-c3c4nc(c(-c5c(F)cccc5F)c5ccc([nH]5)c(-c5c(F)cccc5F)c5nc(c(-c6c(F)cccc6F)c6ccc3[nH]6)C=C5)C=C4)cc2)c1
REMARK SMILES IDX 22 1 21 2 20 3 18 4 19 5 17 7 16 8 1 9 2 10 3 11 82 12 4 13
REMARK SMILES IDX 5 14 6 15 7 17 8 18 14 19 9 20 10 21 13 22 15 23 11 24 12 25
REMARK SMILES IDX 23 26 24 27 25 28 26 29 27 31 28 32 29 33 81 34 30 35 80 36
REMARK SMILES IDX 31 37 32 38 33 39 74 40 34 41 79 42 73 43 75 44 35 45 78 46
REMARK SMILES IDX 72 47 71 48 36 50 62 51 45 52 61 53 46 54 49 55 60 56 76 57
REMARK SMILES IDX 47 58 48 59 59 61 77 62 50 63 37 64 38 65 43 66 39 67 40 68
REMARK SMILES IDX 42 69 44 70 41 71 63 72 64 73 69 74 65 75 66 76 68 77 70 78
REMARK SMILES IDX 67 79 51 80 52 81 57 82 53 83 54 84 56 85 58 86 55 87
REMARK H PARENT 20 6 6 16 25 30 75 49 49 60
REMARK Flexibility Score: inf
ROOT
ATOM      1  C   UNL     1      -0.180   1.152  -3.167  1.00  0.00     0.023 C 
ENDROOT
BRANCH   1   2
ATOM      2  C   UNL     1      -0.599   2.571  -2.747  1.00  0.00     0.116 C 
BRANCH   2   3
ATOM      3  N   UNL     1      -2.001   2.676  -2.380  1.00  0.00    -0.356 N 
ATOM      4  C   UNL     1      -2.596   2.567  -1.159  1.00  0.00     0.224 C 
ATOM      5  O   UNL     1      -3.829   2.572  -1.105  1.00  0.00    -0.275 OA
ATOM      6  H   UNL     1      -2.616   2.853  -3.129  1.00  0.00     0.163 HD
BRANCH   4   7
ATOM      7  C   UNL     1      -1.777   2.413   0.110  1.00  0.00     0.137 C 
BRANCH   7   8
ATOM      8  C   UNL     1      -1.073   1.079   0.208  1.00  0.00    -0.015 A 
ATOM      9  C   UNL     1       2.582  -0.043   0.262  1.00  0.00     0.044 C 
ATOM     10  C   UNL     1       1.084  -0.080   0.257  1.00  0.00    -0.051 A 
ATOM     11  C   UNL     1       0.411  -1.294   0.145  1.00  0.00     0.005 A 
ATOM     12  C   UNL     1       0.335   1.097   0.320  1.00  0.00     0.009 A 
ATOM     13  C   UNL     1      -0.986  -1.328   0.093  1.00  0.00     0.026 A 
ATOM     14  C   UNL     1      -1.758  -0.154   0.116  1.00  0.00     0.042 A 
BRANCH  14  15
ATOM     15  N   UNL     1      -3.170  -0.208   0.085  1.00  0.00    -0.353 N 
ATOM     16  H   UNL     1      -3.624   0.664   0.038  1.00  0.00     0.167 HD
BRANCH  15  17
ATOM     17  C   UNL     1      -4.025  -1.337   0.109  1.00  0.00     0.076 A 
ATOM     18  C   UNL     1      -4.040  -2.267   1.170  1.00  0.00     0.067 A 
ATOM     19  C   UNL     1      -4.852  -1.607  -1.003  1.00  0.00     0.067 A 
ATOM     20  Cl  UNL     1      -3.164  -1.999   2.641  1.00  0.00    -0.082 Cl
ATOM     21  C   UNL     1      -4.819  -3.427   1.104  1.00  0.00     0.043 A 
ATOM     22  C   UNL     1      -5.637  -2.761  -1.068  1.00  0.00     0.043 A 
ATOM     23  Cl  UNL     1      -4.898  -0.533  -2.361  1.00  0.00    -0.082 Cl
ATOM     24  C   UNL     1      -5.606  -3.669  -0.017  1.00  0.00     0.044 A 
ATOM     25  Cl  UNL     1      -6.549  -5.105  -0.103  1.00  0.00    -0.084 Cl
ENDBRANCH  15  17
ENDBRANCH  14  15
ENDBRANCH   7   8
ENDBRANCH   4   7
ENDBRANCH   2   3
ENDBRANCH   1   2
BRANCH   1  26
ATOM     26  C   UNL     1      -0.973   0.537  -4.321  1.00  0.00     0.023 C 
BRANCH  26  27
ATOM     27  C   UNL     1      -0.684   1.169  -5.672  1.00  0.00     0.116 C 
BRANCH  27  28
ATOM     28  N   UNL     1       0.440   0.581  -6.392  1.00  0.00    -0.352 N 
ATOM     29  C   UNL     1       1.076   1.025  -7.541  1.00  0.00     0.251 C 
ATOM     30  H   UNL     1       0.798  -0.251  -6.006  1.00  0.00     0.163 HD
ATOM     31  O   UNL     1       1.980   0.370  -8.037  1.00  0.00    -0.269 OA
BRANCH  29  32
ATOM     32  C   UNL     1       0.756   2.375  -8.076  1.00  0.00     0.039 A 
ATOM     33  C   UNL     1       1.833   3.216  -8.378  1.00  0.00     0.014 A 
ATOM     34  C   UNL     1      -0.538   2.884  -8.036  1.00  0.00     0.014 A 
ATOM     35  C   UNL     1       1.649   4.594  -8.339  1.00  0.00     0.010 A 
ATOM     36  C   UNL     1      -0.706   4.248  -7.897  1.00  0.00     0.010 A 
ATOM     37  C   UNL     1       0.407   5.092  -7.954  1.00  0.00    -0.014 A 
BRANCH  37  38
ATOM     38  C   UNL     1       0.227   6.434  -7.411  1.00  0.00     0.031 A 
ATOM     39  C   UNL     1      -0.493   7.471  -8.172  1.00  0.00     0.074 A 
ATOM     40  C   UNL     1       0.654   6.693  -6.152  1.00  0.00     0.049 A 
ATOM     41  N   UNL     1      -0.490   8.719  -7.848  1.00  0.00    -0.248 NA
ATOM     42  C   UNL     1      -1.219   7.201  -9.411  1.00  0.00     0.031 C 
ATOM     43  C   UNL     1       0.318   7.838  -5.308  1.00  0.00     0.029 A 
ATOM     44  N   UNL     1       1.713   6.067  -5.476  1.00  0.00    -0.354 N 
ATOM     45  C   UNL     1      -1.428   9.348  -8.622  1.00  0.00     0.074 A 
ATOM     46  C   UNL     1      -1.747   8.404  -9.663  1.00  0.00     0.031 C 
ATOM     47  C   UNL     1       1.310   8.027  -4.425  1.00  0.00     0.029 A 
ATOM     48  C   UNL     1       2.375   7.104  -4.773  1.00  0.00     0.049 A 
ATOM     49  H   UNL     1       1.947   5.111  -5.487  1.00  0.00     0.167 HD
ATOM     50  C   UNL     1      -1.918  10.547  -8.208  1.00  0.00     0.037 A 
ATOM     51  C   UNL     1       3.649   7.464  -5.104  1.00  0.00     0.037 A 
ATOM     52  C   UNL     1      -1.046  11.161  -7.205  1.00  0.00     0.049 A 
ATOM     53  C   UNL     1       3.804   8.892  -5.590  1.00  0.00     0.074 A 
ATOM     54  C   UNL     1      -1.119  11.438  -5.852  1.00  0.00     0.029 A 
ATOM     55  N   UNL     1       0.269  11.405  -7.569  1.00  0.00    -0.354 N 
ATOM     56  N   UNL     1       2.825   9.745  -5.722  1.00  0.00    -0.248 NA
ATOM     57  C   UNL     1       5.080   9.437  -6.062  1.00  0.00     0.031 C 
ATOM     58  C   UNL     1       0.198  11.778  -5.401  1.00  0.00     0.029 A 
ATOM     59  C   UNL     1       1.053  11.744  -6.487  1.00  0.00     0.049 A 
ATOM     60  H   UNL     1       0.604  11.344  -8.493  1.00  0.00     0.167 HD
ATOM     61  C   UNL     1       3.291  10.878  -6.336  1.00  0.00     0.074 A 
ATOM     62  C   UNL     1       4.710  10.643  -6.521  1.00  0.00     0.031 C 
ATOM     63  C   UNL     1       2.482  11.914  -6.703  1.00  0.00     0.037 A 
BRANCH  50  64
ATOM     64  C   UNL     1      -3.245  11.123  -8.640  1.00  0.00     0.057 A 
ATOM     65  C   UNL     1      -3.602  12.437  -8.286  1.00  0.00     0.134 A 
ATOM     66  C   UNL     1      -4.267  10.399  -9.292  1.00  0.00     0.134 A 
ATOM     67  F   UNL     1      -2.750  13.237  -7.629  1.00  0.00    -0.206 F 
ATOM     68  C   UNL     1      -4.863  12.985  -8.566  1.00  0.00     0.040 A 
ATOM     69  C   UNL     1      -5.509  10.954  -9.629  1.00  0.00     0.040 A 
ATOM     70  F   UNL     1      -4.155   9.097  -9.579  1.00  0.00    -0.206 F 
ATOM     71  C   UNL     1      -5.817  12.250  -9.255  1.00  0.00     0.006 A 
ENDBRANCH  50  64
BRANCH  51  72
ATOM     72  C   UNL     1       4.476   6.312  -5.554  1.00  0.00     0.057 A 
ATOM     73  C   UNL     1       4.708   5.254  -4.656  1.00  0.00     0.134 A 
ATOM     74  C   UNL     1       4.736   6.068  -6.904  1.00  0.00     0.134 A 
ATOM     75  F   UNL     1       4.478   5.420  -3.343  1.00  0.00    -0.206 F 
ATOM     76  C   UNL     1       5.068   3.979  -5.094  1.00  0.00     0.040 A 
ATOM     77  C   UNL     1       5.116   4.798  -7.354  1.00  0.00     0.040 A 
ATOM     78  F   UNL     1       4.514   7.015  -7.826  1.00  0.00    -0.206 F 
ATOM     79  C   UNL     1       5.243   3.741  -6.453  1.00  0.00     0.006 A 
ENDBRANCH  51  72
BRANCH  63  80
ATOM     80  C   UNL     1       3.008  13.162  -7.353  1.00  0.00     0.057 A 
ATOM     81  C   UNL     1       4.120  13.854  -6.852  1.00  0.00     0.134 A 
ATOM     82  C   UNL     1       2.350  13.768  -8.440  1.00  0.00     0.134 A 
ATOM     83  F   UNL     1       4.794  13.396  -5.786  1.00  0.00    -0.206 F 
ATOM     84  C   UNL     1       4.572  15.052  -7.420  1.00  0.00     0.040 A 
ATOM     85  C   UNL     1       2.763  14.986  -8.985  1.00  0.00     0.040 A 
ATOM     86  F   UNL     1       1.295  13.189  -9.032  1.00  0.00    -0.206 F 
ATOM     87  C   UNL     1       3.885  15.629  -8.482  1.00  0.00     0.006 A 
ENDBRANCH  63  80
ENDBRANCH  37  38
ENDBRANCH  29  32
ENDBRANCH  27  28
ENDBRANCH  26  27
ENDBRANCH   1  26
TORSDOF 14
