REMARK SMILES Cc1ccc(C(=O)NCCCCNC(=O)c2ccc(-c3c4nc(c(-c5c(F)cccc5F)c5ccc([nH]5)c(-c5c(F)cccc5F)c5nc(c(-c6c(F)cccc6F)c6ccc3[nH]6)C=C5)C=C4)cc2)cc1NC(=O)c1ccc(Br)o1
REMARK SMILES IDX 10 1 9 2 8 3 6 4 7 5 5 7 1 8 2 9 3 10 71 11 4 12 70 13 72 14
REMARK SMILES IDX 73 15 74 17 75 18 76 19 80 20 77 21 78 22 79 23 11 24 12 25
REMARK SMILES IDX 13 26 14 27 15 29 16 30 17 31 69 32 18 33 68 34 19 35 20 36
REMARK SMILES IDX 21 37 62 38 22 39 67 40 61 41 63 42 23 43 66 44 60 45 59 46
REMARK SMILES IDX 24 48 50 49 33 50 49 51 34 52 37 53 48 54 64 55 35 56 36 57
REMARK SMILES IDX 47 59 65 60 38 61 25 62 26 63 31 64 27 65 28 66 30 67 32 68
REMARK SMILES IDX 29 69 51 70 52 71 57 72 53 73 54 74 56 75 58 76 55 77 39 78
REMARK SMILES IDX 40 79 45 80 41 81 42 82 44 83 46 84 43 85
REMARK H PARENT 8 6 72 16 13 28 63 47 37 58
REMARK Flexibility Score: inf
ROOT
ATOM      1  C   UNL     1      -4.097   2.784  -2.327  1.00  0.00     0.023 C 
ENDROOT
BRANCH   1   2
ATOM      2  C   UNL     1      -3.474   2.274  -1.029  1.00  0.00     0.116 C 
BRANCH   2   3
ATOM      3  N   UNL     1      -3.880   0.937  -0.629  1.00  0.00    -0.352 N 
ATOM      4  C   UNL     1      -3.155  -0.134  -0.154  1.00  0.00     0.251 C 
ATOM      5  O   UNL     1      -3.767  -1.162   0.134  1.00  0.00    -0.269 OA
ATOM      6  H   UNL     1      -4.846   0.766  -0.713  1.00  0.00     0.163 HD
BRANCH   4   7
ATOM      7  C   UNL     1      -1.669  -0.121  -0.023  1.00  0.00     0.041 A 
ATOM      8  C   UNL     1       2.644  -0.382   0.060  1.00  0.00     0.046 C 
ATOM      9  C   UNL     1       1.144  -0.207   0.073  1.00  0.00    -0.027 A 
ATOM     10  C   UNL     1       0.391  -1.377  -0.141  1.00  0.00     0.006 A 
ATOM     11  C   UNL     1       0.474   1.020   0.304  1.00  0.00     0.045 A 
ATOM     12  C   UNL     1      -0.999  -1.332  -0.206  1.00  0.00     0.014 A 
ATOM     13  C   UNL     1      -0.925   1.020   0.306  1.00  0.00     0.040 A 
BRANCH  11  14
ATOM     14  N   UNL     1       1.247   2.183   0.495  1.00  0.00    -0.319 N 
ATOM     15  C   UNL     1       1.026   3.543   0.508  1.00  0.00     0.291 C 
ATOM     16  H   UNL     1       2.193   1.967   0.663  1.00  0.00     0.170 HD
ATOM     17  O   UNL     1       2.046   4.237   0.567  1.00  0.00    -0.265 OA
BRANCH  15  18
ATOM     18  C   UNL     1      -0.279   4.151   0.428  1.00  0.00     0.193 A 
ATOM     19  C   UNL     1      -1.314   4.278   1.340  1.00  0.00     0.057 A 
ATOM     20  O   UNL     1      -0.545   4.936  -0.663  1.00  0.00    -0.444 OA
ATOM     21  C   UNL     1      -2.257   5.172   0.769  1.00  0.00     0.059 A 
ATOM     22  C   UNL     1      -1.729   5.562  -0.440  1.00  0.00     0.170 A 
ATOM     23  Br  UNL     1      -2.495   6.802  -1.601  1.00  0.00    -0.008 Br
ENDBRANCH  15  18
ENDBRANCH  11  14
ENDBRANCH   4   7
ENDBRANCH   2   3
ENDBRANCH   1   2
BRANCH   1  24
ATOM     24  C   UNL     1      -5.600   3.027  -2.317  1.00  0.00     0.023 C 
BRANCH  24  25
ATOM     25  C   UNL     1      -6.103   4.098  -1.359  1.00  0.00     0.116 C 
BRANCH  25  26
ATOM     26  N   UNL     1      -5.924   5.481  -1.783  1.00  0.00    -0.352 N 
ATOM     27  C   UNL     1      -6.320   6.659  -1.164  1.00  0.00     0.251 C 
ATOM     28  H   UNL     1      -5.451   5.597  -2.638  1.00  0.00     0.163 HD
ATOM     29  O   UNL     1      -6.127   7.731  -1.731  1.00  0.00    -0.269 OA
BRANCH  27  30
ATOM     30  C   UNL     1      -6.846   6.660   0.229  1.00  0.00     0.039 A 
ATOM     31  C   UNL     1      -6.551   7.750   1.067  1.00  0.00     0.014 A 
ATOM     32  C   UNL     1      -7.483   5.552   0.766  1.00  0.00     0.014 A 
ATOM     33  C   UNL     1      -6.672   7.619   2.452  1.00  0.00     0.010 A 
ATOM     34  C   UNL     1      -7.477   5.364   2.126  1.00  0.00     0.010 A 
ATOM     35  C   UNL     1      -7.025   6.380   2.970  1.00  0.00    -0.014 A 
BRANCH  35  36
ATOM     36  C   UNL     1      -6.928   5.975   4.362  1.00  0.00     0.031 A 
ATOM     37  C   UNL     1      -8.165   5.705   5.124  1.00  0.00     0.074 A 
ATOM     38  C   UNL     1      -5.726   5.516   4.779  1.00  0.00     0.049 A 
ATOM     39  N   UNL     1      -8.188   5.350   6.360  1.00  0.00    -0.248 NA
ATOM     40  C   UNL     1      -9.506   5.843   4.548  1.00  0.00     0.031 C 
ATOM     41  C   UNL     1      -5.443   4.585   5.868  1.00  0.00     0.029 A 
ATOM     42  N   UNL     1      -4.462   5.996   4.402  1.00  0.00    -0.354 N 
ATOM     43  C   UNL     1      -9.452   4.878   6.622  1.00  0.00     0.074 A 
ATOM     44  C   UNL     1     -10.263   5.339   5.528  1.00  0.00     0.031 C 
ATOM     45  C   UNL     1      -4.178   4.772   6.279  1.00  0.00     0.029 A 
ATOM     46  C   UNL     1      -3.691   5.954   5.589  1.00  0.00     0.049 A 
ATOM     47  H   UNL     1      -4.175   6.296   3.509  1.00  0.00     0.167 HD
ATOM     48  C   UNL     1      -9.613   4.007   7.654  1.00  0.00     0.037 A 
ATOM     49  C   UNL     1      -3.318   7.109   6.217  1.00  0.00     0.037 A 
ATOM     50  C   UNL     1      -8.446   4.033   8.534  1.00  0.00     0.049 A 
ATOM     51  C   UNL     1      -3.850   7.236   7.628  1.00  0.00     0.074 A 
ATOM     52  C   UNL     1      -7.410   3.152   8.779  1.00  0.00     0.029 A 
ATOM     53  N   UNL     1      -8.078   5.247   9.112  1.00  0.00    -0.354 N 
ATOM     54  N   UNL     1      -4.874   6.568   8.086  1.00  0.00    -0.248 NA
ATOM     55  C   UNL     1      -3.271   8.123   8.634  1.00  0.00     0.031 C 
ATOM     56  C   UNL     1      -6.349   3.894   9.374  1.00  0.00     0.029 A 
ATOM     57  C   UNL     1      -6.769   5.203   9.547  1.00  0.00     0.049 A 
ATOM     58  H   UNL     1      -8.670   6.029   9.198  1.00  0.00     0.167 HD
ATOM     59  C   UNL     1      -5.108   6.918   9.389  1.00  0.00     0.074 A 
ATOM     60  C   UNL     1      -4.068   7.885   9.691  1.00  0.00     0.031 C 
ATOM     61  C   UNL     1      -6.142   6.393  10.111  1.00  0.00     0.037 A 
BRANCH  48  62
ATOM     62  C   UNL     1     -10.730   2.993   7.765  1.00  0.00     0.057 A 
ATOM     63  C   UNL     1     -10.861   2.212   8.930  1.00  0.00     0.134 A 
ATOM     64  C   UNL     1     -11.611   2.630   6.724  1.00  0.00     0.134 A 
ATOM     65  F   UNL     1     -10.076   2.417   9.997  1.00  0.00    -0.206 F 
ATOM     66  C   UNL     1     -11.788   1.164   9.046  1.00  0.00     0.040 A 
ATOM     67  C   UNL     1     -12.577   1.621   6.847  1.00  0.00     0.040 A 
ATOM     68  F   UNL     1     -11.548   3.178   5.505  1.00  0.00    -0.206 F 
ATOM     69  C   UNL     1     -12.661   0.873   8.008  1.00  0.00     0.006 A 
ENDBRANCH  48  62
BRANCH  49  70
ATOM     70  C   UNL     1      -3.114   8.236   5.263  1.00  0.00     0.057 A 
ATOM     71  C   UNL     1      -2.099   8.112   4.295  1.00  0.00     0.134 A 
ATOM     72  C   UNL     1      -4.115   9.179   5.015  1.00  0.00     0.134 A 
ATOM     73  F   UNL     1      -1.109   7.220   4.469  1.00  0.00    -0.206 F 
ATOM     74  C   UNL     1      -2.149   8.795   3.077  1.00  0.00     0.040 A 
ATOM     75  C   UNL     1      -4.163   9.886   3.806  1.00  0.00     0.040 A 
ATOM     76  F   UNL     1      -5.129   9.343   5.877  1.00  0.00    -0.206 F 
ATOM     77  C   UNL     1      -3.207   9.660   2.816  1.00  0.00     0.006 A 
ENDBRANCH  49  70
BRANCH  61  78
ATOM     78  C   UNL     1      -6.626   6.910  11.444  1.00  0.00     0.057 A 
ATOM     79  C   UNL     1      -6.529   8.249  11.852  1.00  0.00     0.134 A 
ATOM     80  C   UNL     1      -7.363   6.072  12.310  1.00  0.00     0.134 A 
ATOM     81  F   UNL     1      -5.963   9.181  11.074  1.00  0.00    -0.206 F 
ATOM     82  C   UNL     1      -7.068   8.707  13.062  1.00  0.00     0.040 A 
ATOM     83  C   UNL     1      -7.952   6.530  13.492  1.00  0.00     0.040 A 
ATOM     84  F   UNL     1      -7.566   4.776  12.032  1.00  0.00    -0.206 F 
ATOM     85  C   UNL     1      -7.791   7.850  13.882  1.00  0.00     0.006 A 
ENDBRANCH  61  78
ENDBRANCH  35  36
ENDBRANCH  27  30
ENDBRANCH  25  26
ENDBRANCH  24  25
ENDBRANCH   1  24
TORSDOF 13
