REMARK SMILES CC[C@@]1(C(=O)NCCCCNC(=O)c2ccc(-c3c4nc(c(-c5c(F)cccc5F)c5ccc([nH]5)c(-c5c(F)cccc5F)c5nc(c(-c6c(F)cccc6F)c6ccc3[nH]6)C=C5)C=C4)cc2)CCC[N@@H+](Cc2ccc(C3CC3)cc2)C1
REMARK SMILES IDX 8 1 7 2 6 3 4 4 5 5 3 7 68 8 82 9 69 10 71 11 70 12 2 14
REMARK SMILES IDX 1 15 72 16 73 17 74 18 81 19 75 20 80 21 76 22 77 23 78 24
REMARK SMILES IDX 79 25 9 26 10 27 11 28 12 29 13 31 14 32 15 33 67 34 16 35
REMARK SMILES IDX 66 36 17 37 18 38 19 39 60 40 20 41 65 42 59 43 61 44 21 45
REMARK SMILES IDX 64 46 58 47 57 48 22 50 48 51 31 52 47 53 32 54 35 55 46 56
REMARK SMILES IDX 62 57 33 58 34 59 45 61 63 62 36 63 23 64 24 65 29 66 25 67
REMARK SMILES IDX 26 68 28 69 30 70 27 71 49 72 50 73 55 74 51 75 52 76 54 77
REMARK SMILES IDX 56 78 53 79 37 80 38 81 43 82 39 83 40 84 42 85 44 86 41 87
REMARK H PARENT 6 6 71 13 11 30 61 49 35 60
REMARK Flexibility Score: inf
ROOT
ATOM      1  C   UNL     1       0.858  -3.697   2.517  1.00  0.00     0.023 C 
ENDROOT
BRANCH   1   2
ATOM      2  C   UNL     1      -0.439  -3.657   1.699  1.00  0.00     0.116 C 
BRANCH   2   3
ATOM      3  N   UNL     1      -0.666  -2.399   0.993  1.00  0.00    -0.355 N 
ATOM      4  C   UNL     1      -0.738  -2.264  -0.374  1.00  0.00     0.231 C 
ATOM      5  O   UNL     1      -1.840  -1.960  -0.840  1.00  0.00    -0.274 OA
ATOM      6  H   UNL     1      -0.776  -1.585   1.537  1.00  0.00     0.163 HD
BRANCH   4   7
ATOM      7  C   UNL     1       0.559  -2.169  -1.222  1.00  0.00     0.098 C 
ATOM      8  C   UNL     1       0.233  -2.349  -2.738  1.00  0.00     0.028 C 
ATOM      9  C   UNL     1       1.634  -3.193  -0.828  1.00  0.00     0.279 C 
ATOM     10  C   UNL     1       0.051  -3.807  -3.159  1.00  0.00     0.063 C 
ATOM     11  N   UNL     1       1.270  -4.551  -1.213  1.00  0.00    -0.330 N 
ATOM     12  C   UNL     1       1.187  -4.701  -2.659  1.00  0.00     0.262 C 
ATOM     13  H   UNL     1       0.330  -4.624  -0.825  1.00  0.00     0.348 HD
BRANCH   7  14
ATOM     14  C   UNL     1       1.080  -0.701  -1.068  1.00  0.00     0.019 C 
ATOM     15  C   UNL     1       1.660  -0.300   0.283  1.00  0.00     0.005 C 
ENDBRANCH   7  14
BRANCH  11  16
ATOM     16  C   UNL     1       1.815  -5.698  -0.491  1.00  0.00     0.299 C 
BRANCH  16  17
ATOM     17  C   UNL     1       3.289  -5.837  -0.176  1.00  0.00     0.006 A 
ATOM     18  C   UNL     1       3.865  -7.115  -0.242  1.00  0.00     0.010 A 
ATOM     19  C   UNL     1       4.070  -4.825   0.388  1.00  0.00     0.010 A 
ATOM     20  C   UNL     1       5.171  -7.353   0.210  1.00  0.00     0.004 A 
ATOM     21  C   UNL     1       5.376  -5.066   0.831  1.00  0.00     0.004 A 
ATOM     22  C   UNL     1       5.967  -6.332   0.751  1.00  0.00    -0.045 A 
BRANCH  22  23
ATOM     23  C   UNL     1       7.376  -6.630   1.225  1.00  0.00     0.019 C 
ATOM     24  C   UNL     1       8.406  -5.542   1.417  1.00  0.00     0.009 C 
ATOM     25  C   UNL     1       7.813  -6.226   2.614  1.00  0.00     0.009 C 
ENDBRANCH  22  23
ENDBRANCH  16  17
ENDBRANCH  11  16
ENDBRANCH   4   7
ENDBRANCH   2   3
ENDBRANCH   1   2
BRANCH   1  26
ATOM     26  C   UNL     1       0.760  -4.370   3.885  1.00  0.00     0.023 C 
BRANCH  26  27
ATOM     27  C   UNL     1       0.054  -5.718   3.940  1.00  0.00     0.116 C 
BRANCH  27  28
ATOM     28  N   UNL     1       0.778  -6.842   3.369  1.00  0.00    -0.352 N 
ATOM     29  C   UNL     1       0.686  -8.171   3.753  1.00  0.00     0.251 C 
ATOM     30  H   UNL     1       1.399  -6.638   2.632  1.00  0.00     0.163 HD
ATOM     31  O   UNL     1       1.353  -9.037   3.206  1.00  0.00    -0.269 OA
BRANCH  29  32
ATOM     32  C   UNL     1      -0.185  -8.515   4.906  1.00  0.00     0.039 A 
ATOM     33  C   UNL     1       0.379  -9.171   6.003  1.00  0.00     0.014 A 
ATOM     34  C   UNL     1      -1.503  -8.058   4.963  1.00  0.00     0.014 A 
ATOM     35  C   UNL     1      -0.337  -9.249   7.203  1.00  0.00     0.010 A 
ATOM     36  C   UNL     1      -2.175  -8.054   6.182  1.00  0.00     0.010 A 
ATOM     37  C   UNL     1      -1.590  -8.624   7.324  1.00  0.00    -0.014 A 
BRANCH  37  38
ATOM     38  C   UNL     1      -2.280  -8.504   8.639  1.00  0.00     0.031 A 
ATOM     39  C   UNL     1      -3.658  -9.077   8.831  1.00  0.00     0.074 A 
ATOM     40  C   UNL     1      -1.717  -7.781   9.629  1.00  0.00     0.049 A 
ATOM     41  N   UNL     1      -4.464  -8.967   9.857  1.00  0.00    -0.248 NA
ATOM     42  C   UNL     1      -4.219  -9.841   7.706  1.00  0.00     0.031 C 
ATOM     43  C   UNL     1      -0.423  -7.099   9.557  1.00  0.00     0.029 A 
ATOM     44  N   UNL     1      -2.173  -7.483  10.892  1.00  0.00    -0.354 N 
ATOM     45  C   UNL     1      -5.637  -9.613   9.486  1.00  0.00     0.074 A 
ATOM     46  C   UNL     1      -5.452 -10.075   8.127  1.00  0.00     0.031 C 
ATOM     47  C   UNL     1      -0.178  -6.488  10.728  1.00  0.00     0.029 A 
ATOM     48  C   UNL     1      -1.309  -6.703  11.623  1.00  0.00     0.049 A 
ATOM     49  H   UNL     1      -3.038  -7.799  11.239  1.00  0.00     0.167 HD
ATOM     50  C   UNL     1      -6.758  -9.824  10.217  1.00  0.00     0.037 A 
ATOM     51  C   UNL     1      -1.415  -6.213  12.873  1.00  0.00     0.037 A 
ATOM     52  C   UNL     1      -6.924  -9.420  11.587  1.00  0.00     0.049 A 
ATOM     53  C   UNL     1      -2.643  -6.514  13.686  1.00  0.00     0.074 A 
ATOM     54  C   UNL     1      -7.989  -9.669  12.436  1.00  0.00     0.029 A 
ATOM     55  N   UNL     1      -5.997  -8.689  12.312  1.00  0.00    -0.354 N 
ATOM     56  N   UNL     1      -3.712  -7.192  13.346  1.00  0.00    -0.248 NA
ATOM     57  C   UNL     1      -2.677  -5.989  15.059  1.00  0.00     0.031 C 
ATOM     58  C   UNL     1      -7.715  -9.069  13.669  1.00  0.00     0.029 A 
ATOM     59  C   UNL     1      -6.468  -8.472  13.597  1.00  0.00     0.049 A 
ATOM     60  H   UNL     1      -5.131  -8.372  11.966  1.00  0.00     0.167 HD
ATOM     61  C   UNL     1      -4.532  -7.195  14.466  1.00  0.00     0.074 A 
ATOM     62  C   UNL     1      -3.833  -6.463  15.501  1.00  0.00     0.031 C 
ATOM     63  C   UNL     1      -5.756  -7.754  14.621  1.00  0.00     0.037 A 
BRANCH  50  64
ATOM     64  C   UNL     1      -7.890 -10.543   9.547  1.00  0.00     0.057 A 
ATOM     65  C   UNL     1      -7.828 -11.914   9.264  1.00  0.00     0.134 A 
ATOM     66  C   UNL     1      -9.066  -9.864   9.205  1.00  0.00     0.134 A 
ATOM     67  F   UNL     1      -6.723 -12.618   9.556  1.00  0.00    -0.206 F 
ATOM     68  C   UNL     1      -8.884 -12.578   8.639  1.00  0.00     0.040 A 
ATOM     69  C   UNL     1     -10.139 -10.523   8.602  1.00  0.00     0.040 A 
ATOM     70  F   UNL     1      -9.193  -8.552   9.454  1.00  0.00    -0.206 F 
ATOM     71  C   UNL     1     -10.046 -11.883   8.312  1.00  0.00     0.006 A 
ENDBRANCH  50  64
BRANCH  51  72
ATOM     72  C   UNL     1      -0.312  -5.408  13.454  1.00  0.00     0.057 A 
ATOM     73  C   UNL     1       0.516  -5.939  14.451  1.00  0.00     0.134 A 
ATOM     74  C   UNL     1      -0.068  -4.092  13.045  1.00  0.00     0.134 A 
ATOM     75  F   UNL     1       0.316  -7.188  14.898  1.00  0.00    -0.206 F 
ATOM     76  C   UNL     1       1.534  -5.184  15.034  1.00  0.00     0.040 A 
ATOM     77  C   UNL     1       0.961  -3.333  13.605  1.00  0.00     0.040 A 
ATOM     78  F   UNL     1      -0.822  -3.529  12.090  1.00  0.00    -0.206 F 
ATOM     79  C   UNL     1       1.761  -3.877  14.609  1.00  0.00     0.006 A 
ENDBRANCH  51  72
BRANCH  63  80
ATOM     80  C   UNL     1      -6.404  -7.627  15.966  1.00  0.00     0.057 A 
ATOM     81  C   UNL     1      -6.977  -6.425  16.397  1.00  0.00     0.134 A 
ATOM     82  C   UNL     1      -6.492  -8.732  16.822  1.00  0.00     0.134 A 
ATOM     83  F   UNL     1      -6.912  -5.327  15.628  1.00  0.00    -0.206 F 
ATOM     84  C   UNL     1      -7.604  -6.322  17.639  1.00  0.00     0.040 A 
ATOM     85  C   UNL     1      -7.135  -8.647  18.057  1.00  0.00     0.040 A 
ATOM     86  F   UNL     1      -5.968  -9.914  16.464  1.00  0.00    -0.206 F 
ATOM     87  C   UNL     1      -7.690  -7.438  18.470  1.00  0.00     0.006 A 
ENDBRANCH  63  80
ENDBRANCH  37  38
ENDBRANCH  29  32
ENDBRANCH  27  28
ENDBRANCH  26  27
ENDBRANCH   1  26
TORSDOF 15
