REMARK SMILES CC(C)N1C[C@@H](C(=O)NCCCCNC(=O)c2ccc(-c3c4nc(c(-c5c(F)cccc5F)c5ccc([nH]5)c(-c5c(F)cccc5F)c5nc(c(-c6c(F)cccc6F)c6ccc3[nH]6)C=C5)C=C4)cc2)CC1=O
REMARK SMILES IDX 12 1 11 2 10 3 9 4 7 5 8 6 6 8 4 9 5 10 72 11 71 12 73 13
REMARK SMILES IDX 2 14 1 15 3 16 13 17 14 18 15 19 16 21 17 22 18 23 70 24
REMARK SMILES IDX 19 25 69 26 20 27 21 28 22 29 63 30 23 31 68 32 62 33 64 34
REMARK SMILES IDX 24 35 67 36 61 37 60 38 25 40 51 41 34 42 50 43 35 44 38 45
REMARK SMILES IDX 49 46 65 47 36 48 37 49 48 51 66 52 39 53 26 54 27 55 32 56
REMARK SMILES IDX 28 57 29 58 31 59 33 60 30 61 52 62 53 63 58 64 54 65 55 66
REMARK SMILES IDX 57 67 59 68 56 69 40 70 41 71 46 72 42 73 43 74 45 75 47 76
REMARK SMILES IDX 44 77
REMARK H PARENT 9 7 14 20 64 39 38 50
REMARK Flexibility Score: inf
ROOT
ATOM      1  C   UNL     1      -5.166  -1.505   3.169  1.00  0.00     0.023 C 
ENDROOT
BRANCH   1   2
ATOM      2  C   UNL     1      -4.093  -0.824   2.319  1.00  0.00     0.023 C 
BRANCH   2   3
ATOM      3  C   UNL     1      -3.296  -1.766   1.422  1.00  0.00     0.116 C 
BRANCH   3   4
ATOM      4  N   UNL     1      -4.137  -2.393   0.419  1.00  0.00    -0.356 N 
ATOM      5  C   UNL     1      -4.122  -2.319  -0.937  1.00  0.00     0.225 C 
ATOM      6  O   UNL     1      -4.980  -2.960  -1.548  1.00  0.00    -0.275 OA
ATOM      7  H   UNL     1      -4.842  -2.975   0.785  1.00  0.00     0.163 HD
BRANCH   5   8
ATOM      8  C   UNL     1      -3.092  -1.515  -1.700  1.00  0.00     0.107 C 
ATOM      9  N   UNL     1      -0.881  -0.812  -1.265  1.00  0.00    -0.339 N 
ATOM     10  C   UNL     1      -1.676  -2.005  -1.453  1.00  0.00     0.133 C 
ATOM     11  C   UNL     1      -1.641   0.346  -1.328  1.00  0.00     0.223 C 
ATOM     12  C   UNL     1      -3.097  -0.021  -1.412  1.00  0.00     0.115 C 
ATOM     13  O   UNL     1      -1.227   1.496  -1.287  1.00  0.00    -0.275 OA
BRANCH   9  14
ATOM     14  C   UNL     1       0.587  -0.815  -1.165  1.00  0.00     0.078 C 
ATOM     15  C   UNL     1       1.067  -0.088   0.098  1.00  0.00     0.031 C 
ATOM     16  C   UNL     1       1.205  -2.217  -1.187  1.00  0.00     0.031 C 
ENDBRANCH   9  14
ENDBRANCH   5   8
ENDBRANCH   3   4
ENDBRANCH   2   3
ENDBRANCH   1   2
BRANCH   1  17
ATOM     17  C   UNL     1      -4.668  -2.647   4.046  1.00  0.00     0.116 C 
BRANCH  17  18
ATOM     18  N   UNL     1      -3.638  -2.232   4.986  1.00  0.00    -0.352 N 
ATOM     19  C   UNL     1      -3.548  -2.479   6.335  1.00  0.00     0.251 C 
ATOM     20  H   UNL     1      -2.903  -1.701   4.602  1.00  0.00     0.163 HD
ATOM     21  O   UNL     1      -2.679  -1.932   7.006  1.00  0.00    -0.269 OA
BRANCH  19  22
ATOM     22  C   UNL     1      -4.522  -3.384   6.979  1.00  0.00     0.039 A 
ATOM     23  C   UNL     1      -5.118  -2.992   8.179  1.00  0.00     0.014 A 
ATOM     24  C   UNL     1      -4.858  -4.606   6.391  1.00  0.00     0.014 A 
ATOM     25  C   UNL     1      -6.098  -3.800   8.759  1.00  0.00     0.010 A 
ATOM     26  C   UNL     1      -5.895  -5.366   6.923  1.00  0.00     0.010 A 
ATOM     27  C   UNL     1      -6.519  -4.977   8.118  1.00  0.00    -0.014 A 
BRANCH  27  28
ATOM     28  C   UNL     1      -7.594  -5.826   8.691  1.00  0.00     0.031 A 
ATOM     29  C   UNL     1      -7.293  -7.240   9.108  1.00  0.00     0.074 A 
ATOM     30  C   UNL     1      -8.851  -5.349   8.782  1.00  0.00     0.049 A 
ATOM     31  N   UNL     1      -8.105  -8.159   9.566  1.00  0.00    -0.248 NA
ATOM     32  C   UNL     1      -5.900  -7.691   8.964  1.00  0.00     0.031 C 
ATOM     33  C   UNL     1      -9.282  -4.012   8.369  1.00  0.00     0.029 A 
ATOM     34  N   UNL     1     -10.001  -5.939   9.243  1.00  0.00    -0.354 N 
ATOM     35  C   UNL     1      -7.326  -9.294   9.750  1.00  0.00     0.074 A 
ATOM     36  C   UNL     1      -5.992  -8.969   9.295  1.00  0.00     0.031 C 
ATOM     37  C   UNL     1     -10.594  -3.876   8.620  1.00  0.00     0.029 A 
ATOM     38  C   UNL     1     -11.106  -5.126   9.172  1.00  0.00     0.049 A 
ATOM     39  H   UNL     1     -10.030  -6.859   9.593  1.00  0.00     0.167 HD
ATOM     40  C   UNL     1      -7.681 -10.491  10.275  1.00  0.00     0.037 A 
ATOM     41  C   UNL     1     -12.388  -5.365   9.506  1.00  0.00     0.037 A 
ATOM     42  C   UNL     1      -9.004 -10.804  10.746  1.00  0.00     0.049 A 
ATOM     43  C   UNL     1     -12.761  -6.707  10.075  1.00  0.00     0.074 A 
ATOM     44  C   UNL     1      -9.454 -11.970  11.341  1.00  0.00     0.029 A 
ATOM     45  N   UNL     1     -10.092  -9.947  10.672  1.00  0.00    -0.354 N 
ATOM     46  N   UNL     1     -11.999  -7.750  10.304  1.00  0.00    -0.248 NA
ATOM     47  C   UNL     1     -14.170  -6.902  10.442  1.00  0.00     0.031 C 
ATOM     48  C   UNL     1     -10.825 -11.838  11.580  1.00  0.00     0.029 A 
ATOM     49  C   UNL     1     -11.217 -10.567  11.192  1.00  0.00     0.049 A 
ATOM     50  H   UNL     1     -10.069  -9.034  10.305  1.00  0.00     0.167 HD
ATOM     51  C   UNL     1     -12.827  -8.708  10.876  1.00  0.00     0.074 A 
ATOM     52  C   UNL     1     -14.146  -8.118  10.968  1.00  0.00     0.031 C 
ATOM     53  C   UNL     1     -12.521  -9.962  11.291  1.00  0.00     0.037 A 
BRANCH  40  54
ATOM     54  C   UNL     1      -6.619 -11.549  10.368  1.00  0.00     0.057 A 
ATOM     55  C   UNL     1      -5.533 -11.435  11.248  1.00  0.00     0.134 A 
ATOM     56  C   UNL     1      -6.696 -12.710   9.588  1.00  0.00     0.134 A 
ATOM     57  F   UNL     1      -5.391 -10.344  12.015  1.00  0.00    -0.206 F 
ATOM     58  C   UNL     1      -4.548 -12.421  11.326  1.00  0.00     0.040 A 
ATOM     59  C   UNL     1      -5.734 -13.718   9.681  1.00  0.00     0.040 A 
ATOM     60  F   UNL     1      -7.710 -12.889   8.729  1.00  0.00    -0.206 F 
ATOM     61  C   UNL     1      -4.652 -13.571  10.546  1.00  0.00     0.006 A 
ENDBRANCH  40  54
BRANCH  41  62
ATOM     62  C   UNL     1     -13.414  -4.304   9.336  1.00  0.00     0.057 A 
ATOM     63  C   UNL     1     -14.017  -3.697  10.445  1.00  0.00     0.134 A 
ATOM     64  C   UNL     1     -13.829  -3.883   8.067  1.00  0.00     0.134 A 
ATOM     65  F   UNL     1     -13.675  -4.069  11.687  1.00  0.00    -0.206 F 
ATOM     66  C   UNL     1     -15.013  -2.729  10.299  1.00  0.00     0.040 A 
ATOM     67  C   UNL     1     -14.804  -2.896   7.906  1.00  0.00     0.040 A 
ATOM     68  F   UNL     1     -13.285  -4.417   6.964  1.00  0.00    -0.206 F 
ATOM     69  C   UNL     1     -15.406  -2.324   9.025  1.00  0.00     0.006 A 
ENDBRANCH  41  62
BRANCH  53  70
ATOM     70  C   UNL     1     -13.617 -10.762  11.936  1.00  0.00     0.057 A 
ATOM     71  C   UNL     1     -14.702 -11.267  11.208  1.00  0.00     0.134 A 
ATOM     72  C   UNL     1     -13.563 -11.061  13.304  1.00  0.00     0.134 A 
ATOM     73  F   UNL     1     -14.820 -11.008   9.897  1.00  0.00    -0.206 F 
ATOM     74  C   UNL     1     -15.707 -12.015  11.822  1.00  0.00     0.040 A 
ATOM     75  C   UNL     1     -14.545 -11.835  13.923  1.00  0.00     0.040 A 
ATOM     76  F   UNL     1     -12.546 -10.618  14.059  1.00  0.00    -0.206 F 
ATOM     77  C   UNL     1     -15.626 -12.307  13.183  1.00  0.00     0.006 A 
ENDBRANCH  53  70
ENDBRANCH  27  28
ENDBRANCH  19  22
ENDBRANCH  17  18
ENDBRANCH   1  17
TORSDOF 12
