REMARK SMILES CC(C)CC(=O)Nc1ccc(NC(=O)[C@@H]2CCCC[C@@H]2C(=O)NCCCCNC(=O)c2ccc(-c3c4nc(c(-c5c(F)cccc5F)c5ccc([nH]5)c(-c5c(F)cccc5F)c5nc(c(-c6c(F)cccc6F)c6ccc3[nH]6)C=C5)C=C4)cc2)cc1
REMARK SMILES IDX 24 1 23 2 21 3 22 4 20 6 15 7 16 8 17 9 19 10 18 11 13 12
REMARK SMILES IDX 12 13 14 15 11 16 8 17 9 18 86 19 10 20 85 21 7 22 5 23 6 24
REMARK SMILES IDX 4 26 2 27 1 28 3 29 25 30 26 31 27 32 28 33 29 34 30 36
REMARK SMILES IDX 31 37 32 38 84 39 33 40 83 41 34 42 35 43 36 44 77 45 37 46
REMARK SMILES IDX 82 47 76 48 78 49 38 50 81 51 75 52 74 53 39 55 65 56 48 57
REMARK SMILES IDX 64 58 49 59 52 60 63 61 79 62 50 63 51 64 62 66 80 67 53 68
REMARK SMILES IDX 40 69 41 70 46 71 42 72 43 73 45 74 47 75 44 76 66 77 67 78
REMARK SMILES IDX 72 79 68 80 69 81 71 82 73 83 70 84 54 85 55 86 60 87 56 88
REMARK SMILES IDX 57 89 59 90 61 91 58 92
REMARK H PARENT 23 5 12 14 7 25 28 35 78 54 52 65
REMARK Flexibility Score: inf
ROOT
ATOM      1  C   UNL     1       2.297   1.312   6.548  1.00  0.00     0.116 C 
ENDROOT
BRANCH   1   2
ATOM      2  N   UNL     1       1.458   1.986   7.508  1.00  0.00    -0.356 N 
ATOM      3  C   UNL     1       0.464   2.893   7.341  1.00  0.00     0.223 C 
ATOM      4  O   UNL     1       0.058   3.416   8.381  1.00  0.00    -0.275 OA
ATOM      5  H   UNL     1       1.638   1.746   8.446  1.00  0.00     0.163 HD
BRANCH   3   6
ATOM      6  C   UNL     1      -0.176   3.183   5.961  1.00  0.00     0.091 C 
ATOM      7  C   UNL     1       0.516   4.211   5.042  1.00  0.00     0.091 C 
ATOM      8  C   UNL     1       0.704   5.543   5.769  1.00  0.00     0.014 C 
ATOM      9  C   UNL     1      -0.674   6.152   6.009  1.00  0.00     0.001 C 
ATOM     10  C   UNL     1      -1.603   3.745   6.219  1.00  0.00     0.014 C 
ATOM     11  C   UNL     1      -1.623   5.199   6.737  1.00  0.00     0.001 C 
BRANCH   7  12
ATOM     12  C   UNL     1       1.759   3.774   4.312  1.00  0.00     0.228 C 
ATOM     13  N   UNL     1       1.757   2.911   3.267  1.00  0.00    -0.326 N 
ATOM     14  H   UNL     1       2.634   2.482   3.139  1.00  0.00     0.169 HD
ATOM     15  O   UNL     1       2.864   4.244   4.600  1.00  0.00    -0.274 OA
BRANCH  13  16
ATOM     16  C   UNL     1       0.815   2.478   2.321  1.00  0.00     0.041 A 
ATOM     17  C   UNL     1      -0.772   1.652   0.142  1.00  0.00     0.041 A 
ATOM     18  C   UNL     1      -1.358   2.304   1.218  1.00  0.00     0.028 A 
ATOM     19  C   UNL     1       0.605   1.494   0.119  1.00  0.00     0.028 A 
ATOM     20  C   UNL     1      -0.566   2.692   2.319  1.00  0.00     0.028 A 
ATOM     21  C   UNL     1       1.386   1.862   1.205  1.00  0.00     0.028 A 
BRANCH  17  22
ATOM     22  N   UNL     1      -1.535   1.185  -0.935  1.00  0.00    -0.326 N 
ATOM     23  C   UNL     1      -1.288   0.031  -1.652  1.00  0.00     0.224 C 
ATOM     24  O   UNL     1      -1.677  -0.075  -2.814  1.00  0.00    -0.275 OA
ATOM     25  H   UNL     1      -2.313   1.725  -1.204  1.00  0.00     0.169 HD
BRANCH  23  26
ATOM     26  C   UNL     1      -0.747  -1.171  -0.869  1.00  0.00     0.103 C 
BRANCH  26  27
ATOM     27  C   UNL     1       0.446  -1.932  -1.474  1.00  0.00    -0.008 C 
ATOM     28  C   UNL     1       1.805  -1.362  -1.056  1.00  0.00     0.008 C 
ATOM     29  C   UNL     1       0.386  -3.392  -1.011  1.00  0.00     0.008 C 
ENDBRANCH  26  27
ENDBRANCH  23  26
ENDBRANCH  17  22
ENDBRANCH  13  16
ENDBRANCH   7  12
ENDBRANCH   3   6
ENDBRANCH   1   2
BRANCH   1  30
ATOM     30  C   UNL     1       3.616   2.063   6.398  1.00  0.00     0.023 C 
BRANCH  30  31
ATOM     31  C   UNL     1       4.617   1.917   7.532  1.00  0.00     0.023 C 
BRANCH  31  32
ATOM     32  C   UNL     1       5.105   0.508   7.782  1.00  0.00     0.116 C 
BRANCH  32  33
ATOM     33  N   UNL     1       5.747  -0.106   6.627  1.00  0.00    -0.352 N 
ATOM     34  C   UNL     1       6.899  -0.858   6.602  1.00  0.00     0.251 C 
ATOM     35  H   UNL     1       5.302   0.034   5.760  1.00  0.00     0.163 HD
ATOM     36  O   UNL     1       7.377  -1.254   5.545  1.00  0.00    -0.269 OA
BRANCH  34  37
ATOM     37  C   UNL     1       7.575  -1.135   7.884  1.00  0.00     0.039 A 
ATOM     38  C   UNL     1       8.919  -0.789   8.037  1.00  0.00     0.014 A 
ATOM     39  C   UNL     1       6.832  -1.610   8.966  1.00  0.00     0.014 A 
ATOM     40  C   UNL     1       9.498  -0.840   9.306  1.00  0.00     0.010 A 
ATOM     41  C   UNL     1       7.377  -1.554  10.240  1.00  0.00     0.010 A 
ATOM     42  C   UNL     1       8.717  -1.177  10.423  1.00  0.00    -0.014 A 
BRANCH  42  43
ATOM     43  C   UNL     1       9.272  -1.188  11.800  1.00  0.00     0.031 A 
ATOM     44  C   UNL     1       9.252  -2.472  12.583  1.00  0.00     0.074 A 
ATOM     45  C   UNL     1       9.692  -0.046  12.377  1.00  0.00     0.049 A 
ATOM     46  N   UNL     1       9.521  -2.678  13.846  1.00  0.00    -0.248 NA
ATOM     47  C   UNL     1       8.821  -3.678  11.856  1.00  0.00     0.031 C 
ATOM     48  C   UNL     1       9.713   1.274  11.744  1.00  0.00     0.029 A 
ATOM     49  N   UNL     1      10.168   0.188  13.644  1.00  0.00    -0.354 N 
ATOM     50  C   UNL     1       9.252  -4.023  14.070  1.00  0.00     0.074 A 
ATOM     51  C   UNL     1       8.743  -4.568  12.832  1.00  0.00     0.031 C 
ATOM     52  C   UNL     1      10.200   2.173  12.616  1.00  0.00     0.029 A 
ATOM     53  C   UNL     1      10.486   1.504  13.880  1.00  0.00     0.049 A 
ATOM     54  H   UNL     1      10.271  -0.521  14.319  1.00  0.00     0.167 HD
ATOM     55  C   UNL     1       9.440  -4.747  15.197  1.00  0.00     0.037 A 
ATOM     56  C   UNL     1      10.948   2.099  14.996  1.00  0.00     0.037 A 
ATOM     57  C   UNL     1      10.003  -4.214  16.407  1.00  0.00     0.049 A 
ATOM     58  C   UNL     1      11.182   1.267  16.228  1.00  0.00     0.074 A 
ATOM     59  C   UNL     1      10.303  -4.877  17.584  1.00  0.00     0.029 A 
ATOM     60  N   UNL     1      10.365  -2.888  16.588  1.00  0.00    -0.354 N 
ATOM     61  N   UNL     1      10.974  -0.014  16.412  1.00  0.00    -0.248 NA
ATOM     62  C   UNL     1      11.721   1.963  17.405  1.00  0.00     0.031 C 
ATOM     63  C   UNL     1      10.821  -3.944  18.488  1.00  0.00     0.029 A 
ATOM     64  C   UNL     1      10.880  -2.710  17.860  1.00  0.00     0.049 A 
ATOM     65  H   UNL     1      10.270  -2.178  15.912  1.00  0.00     0.167 HD
ATOM     66  C   UNL     1      11.386  -0.284  17.710  1.00  0.00     0.074 A 
ATOM     67  C   UNL     1      11.863   0.965  18.266  1.00  0.00     0.031 C 
ATOM     68  C   UNL     1      11.371  -1.461  18.383  1.00  0.00     0.037 A 
BRANCH  55  69
ATOM     69  C   UNL     1       9.045  -6.194  15.159  1.00  0.00     0.057 A 
ATOM     70  C   UNL     1       9.752  -7.133  14.397  1.00  0.00     0.134 A 
ATOM     71  C   UNL     1       7.949  -6.655  15.898  1.00  0.00     0.134 A 
ATOM     72  F   UNL     1      10.802  -6.753  13.652  1.00  0.00    -0.206 F 
ATOM     73  C   UNL     1       9.363  -8.472  14.343  1.00  0.00     0.040 A 
ATOM     74  C   UNL     1       7.568  -7.998  15.876  1.00  0.00     0.040 A 
ATOM     75  F   UNL     1       7.230  -5.810  16.652  1.00  0.00    -0.206 F 
ATOM     76  C   UNL     1       8.270  -8.909  15.090  1.00  0.00     0.006 A 
ENDBRANCH  55  69
BRANCH  56  77
ATOM     77  C   UNL     1      11.252   3.553  14.996  1.00  0.00     0.057 A 
ATOM     78  C   UNL     1      12.575   4.009  15.043  1.00  0.00     0.134 A 
ATOM     79  C   UNL     1      10.239   4.518  14.962  1.00  0.00     0.134 A 
ATOM     80  F   UNL     1      13.589   3.132  15.096  1.00  0.00    -0.206 F 
ATOM     81  C   UNL     1      12.880   5.370  15.076  1.00  0.00     0.040 A 
ATOM     82  C   UNL     1      10.530   5.883  14.972  1.00  0.00     0.040 A 
ATOM     83  F   UNL     1       8.952   4.146  14.910  1.00  0.00    -0.206 F 
ATOM     84  C   UNL     1      11.855   6.312  15.037  1.00  0.00     0.006 A 
ENDBRANCH  56  77
BRANCH  68  85
ATOM     85  C   UNL     1      11.933  -1.466  19.773  1.00  0.00     0.057 A 
ATOM     86  C   UNL     1      11.240  -0.907  20.853  1.00  0.00     0.134 A 
ATOM     87  C   UNL     1      13.158  -2.091  20.039  1.00  0.00     0.134 A 
ATOM     88  F   UNL     1      10.067  -0.285  20.660  1.00  0.00    -0.206 F 
ATOM     89  C   UNL     1      11.755  -0.954  22.149  1.00  0.00     0.040 A 
ATOM     90  C   UNL     1      13.671  -2.166  21.334  1.00  0.00     0.040 A 
ATOM     91  F   UNL     1      13.865  -2.654  19.048  1.00  0.00    -0.206 F 
ATOM     92  C   UNL     1      12.970  -1.593  22.393  1.00  0.00     0.006 A 
ENDBRANCH  68  85
ENDBRANCH  42  43
ENDBRANCH  34  37
ENDBRANCH  32  33
ENDBRANCH  31  32
ENDBRANCH  30  31
ENDBRANCH   1  30
TORSDOF 16
