REMARK SMILES NC(=O)C[C@H](NC(=O)C1(c2ccccc2)CCN(C(=O)[C@@H]2CCC[NH2+]2)CC1)C(=O)NCCCCNC(=O)c1ccc(-c2c3nc(c(-c4c(F)cccc4F)c4ccc([nH]4)c(-c4c(F)cccc4F)c4nc(c(-c5c(F)cccc5F)c5ccc2[nH]5)C=C4)C=C3)cc1
REMARK SMILES IDX 32 1 31 2 30 3 28 4 29 5 5 7 4 8 2 9 1 10 3 13 6 14 7 15
REMARK SMILES IDX 8 17 9 18 16 19 27 20 17 21 26 22 18 23 19 24 20 25 10 26
REMARK SMILES IDX 11 27 15 28 12 29 14 30 13 31 21 32 22 33 25 34 23 35 24 36
REMARK SMILES IDX 33 39 34 40 35 41 36 42 37 44 38 45 39 46 91 47 40 48 90 49
REMARK SMILES IDX 41 50 42 51 43 52 84 53 44 54 89 55 83 56 85 57 45 58 88 59
REMARK SMILES IDX 82 60 81 61 46 63 72 64 55 65 71 66 56 67 59 68 70 69 86 70
REMARK SMILES IDX 57 71 58 72 69 74 87 75 60 76 47 77 48 78 53 79 49 80 50 81
REMARK SMILES IDX 52 82 54 83 51 84 73 85 74 86 79 87 75 88 76 89 78 90 80 91
REMARK SMILES IDX 77 92 61 93 62 94 67 95 63 96 64 97 66 98 68 99 65 100
REMARK H PARENT 30 6 1 11 1 12 6 16 25 37 25 38 35 43 85 62 59 73
REMARK Flexibility Score: inf
ROOT
ATOM      1  C   UNL     1       3.113  -0.035  -5.580  1.00  0.00     0.023 C 
ENDROOT
BRANCH   1   2
ATOM      2  C   UNL     1       3.517   0.613  -4.275  1.00  0.00     0.116 C 
BRANCH   2   3
ATOM      3  N   UNL     1       3.323   2.034  -4.233  1.00  0.00    -0.354 N 
ATOM      4  C   UNL     1       2.656   2.779  -3.321  1.00  0.00     0.243 C 
ATOM      5  O   UNL     1       2.874   3.997  -3.370  1.00  0.00    -0.273 OA
ATOM      6  H   UNL     1       3.733   2.539  -4.972  1.00  0.00     0.163 HD
BRANCH   4   7
ATOM      7  C   UNL     1       1.585   2.222  -2.332  1.00  0.00     0.180 C 
BRANCH   7   8
ATOM      8  C   UNL     1       1.591   3.160  -1.095  1.00  0.00     0.134 C 
BRANCH   8   9
ATOM      9  C   UNL     1       0.618   2.827   0.010  1.00  0.00     0.220 C 
ATOM     10  N   UNL     1       0.868   3.471   1.189  1.00  0.00    -0.370 N 
ATOM     11  H   UNL     1       0.285   3.316   1.967  1.00  0.00     0.159 HD
ATOM     12  H   UNL     1       1.630   4.090   1.260  1.00  0.00     0.159 HD
ATOM     13  O   UNL     1      -0.333   2.068  -0.103  1.00  0.00    -0.275 OA
ENDBRANCH   8   9
ENDBRANCH   7   8
BRANCH   7  14
ATOM     14  N   UNL     1       1.194   0.797  -2.098  1.00  0.00    -0.343 N 
ATOM     15  C   UNL     1       1.490  -0.388  -1.521  1.00  0.00     0.231 C 
ATOM     16  H   UNL     1       0.344   0.665  -2.577  1.00  0.00     0.164 HD
ATOM     17  O   UNL     1       0.462  -1.074  -1.371  1.00  0.00    -0.274 OA
BRANCH  15  18
ATOM     18  C   UNL     1       2.873  -1.038  -1.134  1.00  0.00     0.077 C 
ATOM     19  C   UNL     1       2.667  -1.786   0.231  1.00  0.00     0.043 C 
ATOM     20  C   UNL     1       4.004  -0.025  -0.910  1.00  0.00     0.043 C 
ATOM     21  C   UNL     1       2.510  -0.850   1.437  1.00  0.00     0.121 C 
ATOM     22  C   UNL     1       3.682   0.903   0.226  1.00  0.00     0.121 C 
ATOM     23  N   UNL     1       3.536   0.199   1.470  1.00  0.00    -0.337 N 
ATOM     24  C   UNL     1       4.042   0.633   2.691  1.00  0.00     0.280 C 
ATOM     25  O   UNL     1       3.675   0.107   3.748  1.00  0.00    -0.268 OA
BRANCH  18  26
ATOM     26  C   UNL     1       3.286  -2.162  -2.154  1.00  0.00    -0.032 A 
ATOM     27  C   UNL     1       4.636  -2.484  -2.405  1.00  0.00     0.005 A 
ATOM     28  C   UNL     1       2.324  -2.988  -2.773  1.00  0.00     0.005 A 
ATOM     29  C   UNL     1       4.997  -3.557  -3.228  1.00  0.00     0.000 A 
ATOM     30  C   UNL     1       2.688  -4.045  -3.619  1.00  0.00     0.000 A 
ATOM     31  C   UNL     1       4.026  -4.328  -3.849  1.00  0.00     0.000 A 
ENDBRANCH  18  26
BRANCH  24  32
ATOM     32  C   UNL     1       5.057   1.807   2.756  1.00  0.00     0.272 C 
ATOM     33  C   UNL     1       4.515   3.177   2.377  1.00  0.00     0.081 C 
ATOM     34  N   UNL     1       6.280   1.584   1.946  1.00  0.00    -0.336 N 
ATOM     35  C   UNL     1       5.731   3.903   1.831  1.00  0.00     0.068 C 
ATOM     36  C   UNL     1       6.575   2.809   1.202  1.00  0.00     0.261 C 
ATOM     37  H   UNL     1       6.126   0.814   1.295  1.00  0.00     0.346 HD
ATOM     38  H   UNL     1       7.064   1.348   2.555  1.00  0.00     0.346 HD
ENDBRANCH  24  32
ENDBRANCH  15  18
ENDBRANCH   7  14
ENDBRANCH   4   7
ENDBRANCH   2   3
ENDBRANCH   1   2
BRANCH   1  39
ATOM     39  C   UNL     1       4.071   0.220  -6.734  1.00  0.00     0.023 C 
BRANCH  39  40
ATOM     40  C   UNL     1       5.543  -0.050  -6.439  1.00  0.00     0.116 C 
BRANCH  40  41
ATOM     41  N   UNL     1       5.813  -1.373  -5.889  1.00  0.00    -0.352 N 
ATOM     42  C   UNL     1       6.865  -2.215  -6.181  1.00  0.00     0.251 C 
ATOM     43  H   UNL     1       5.164  -1.707  -5.228  1.00  0.00     0.163 HD
ATOM     44  O   UNL     1       6.976  -3.324  -5.686  1.00  0.00    -0.269 OA
BRANCH  42  45
ATOM     45  C   UNL     1       7.847  -1.760  -7.175  1.00  0.00     0.039 A 
ATOM     46  C   UNL     1       7.984  -2.499  -8.351  1.00  0.00     0.014 A 
ATOM     47  C   UNL     1       8.494  -0.536  -7.000  1.00  0.00     0.014 A 
ATOM     48  C   UNL     1       8.700  -1.954  -9.412  1.00  0.00     0.010 A 
ATOM     49  C   UNL     1       9.141   0.036  -8.082  1.00  0.00     0.010 A 
ATOM     50  C   UNL     1       9.229  -0.660  -9.301  1.00  0.00    -0.014 A 
BRANCH  50  51
ATOM     51  C   UNL     1       9.873   0.015 -10.448  1.00  0.00     0.031 A 
ATOM     52  C   UNL     1      11.319   0.390 -10.350  1.00  0.00     0.074 A 
ATOM     53  C   UNL     1       9.125   0.391 -11.503  1.00  0.00     0.049 A 
ATOM     54  N   UNL     1      12.029   1.157 -11.133  1.00  0.00    -0.248 NA
ATOM     55  C   UNL     1      12.054  -0.136  -9.187  1.00  0.00     0.031 C 
ATOM     56  C   UNL     1       7.698   0.109 -11.678  1.00  0.00     0.029 A 
ATOM     57  N   UNL     1       9.459   1.116 -12.618  1.00  0.00    -0.354 N 
ATOM     58  C   UNL     1      13.281   1.236 -10.539  1.00  0.00     0.074 A 
ATOM     59  C   UNL     1      13.222   0.474  -9.311  1.00  0.00     0.031 C 
ATOM     60  C   UNL     1       7.282   0.647 -12.836  1.00  0.00     0.029 A 
ATOM     61  C   UNL     1       8.398   1.349 -13.460  1.00  0.00     0.049 A 
ATOM     62  H   UNL     1      10.371   1.439 -12.798  1.00  0.00     0.167 HD
ATOM     63  C   UNL     1      14.384   1.875 -10.991  1.00  0.00     0.037 A 
ATOM     64  C   UNL     1       8.335   2.067 -14.597  1.00  0.00     0.037 A 
ATOM     65  C   UNL     1      14.434   2.594 -12.235  1.00  0.00     0.049 A 
ATOM     66  C   UNL     1       9.580   2.752 -15.089  1.00  0.00     0.074 A 
ATOM     67  C   UNL     1      15.512   3.232 -12.820  1.00  0.00     0.029 A 
ATOM     68  N   UNL     1      13.354   2.758 -13.090  1.00  0.00    -0.354 N 
ATOM     69  N   UNL     1      10.772   2.787 -14.542  1.00  0.00    -0.248 NA
ATOM     70  C   UNL     1       9.476   3.494 -16.352  1.00  0.00     0.031 C 
ATOM     71  C   UNL     1      15.076   3.809 -14.017  1.00  0.00     0.029 A 
ATOM     72  C   UNL     1      13.738   3.495 -14.196  1.00  0.00     0.049 A 
ATOM     73  H   UNL     1      12.449   2.403 -12.934  1.00  0.00     0.167 HD
ATOM     74  C   UNL     1      11.567   3.524 -15.408  1.00  0.00     0.074 A 
ATOM     75  C   UNL     1      10.722   3.917 -16.518  1.00  0.00     0.031 C 
ATOM     76  C   UNL     1      12.879   3.846 -15.298  1.00  0.00     0.037 A 
BRANCH  63  77
ATOM     77  C   UNL     1      15.613   1.819 -10.134  1.00  0.00     0.057 A 
ATOM     78  C   UNL     1      16.342   0.635  -9.962  1.00  0.00     0.134 A 
ATOM     79  C   UNL     1      16.077   2.965  -9.476  1.00  0.00     0.134 A 
ATOM     80  F   UNL     1      15.939  -0.502 -10.550  1.00  0.00    -0.206 F 
ATOM     81  C   UNL     1      17.471   0.585  -9.144  1.00  0.00     0.040 A 
ATOM     82  C   UNL     1      17.222   2.934  -8.678  1.00  0.00     0.040 A 
ATOM     83  F   UNL     1      15.427   4.132  -9.598  1.00  0.00    -0.206 F 
ATOM     84  C   UNL     1      17.918   1.739  -8.504  1.00  0.00     0.006 A 
ENDBRANCH  63  77
BRANCH  64  85
ATOM     85  C   UNL     1       7.061   2.157 -15.353  1.00  0.00     0.057 A 
ATOM     86  C   UNL     1       6.906   1.497 -16.578  1.00  0.00     0.134 A 
ATOM     87  C   UNL     1       5.970   2.890 -14.874  1.00  0.00     0.134 A 
ATOM     88  F   UNL     1       7.921   0.790 -17.096  1.00  0.00    -0.206 F 
ATOM     89  C   UNL     1       5.719   1.577 -17.308  1.00  0.00     0.040 A 
ATOM     90  C   UNL     1       4.769   2.961 -15.582  1.00  0.00     0.040 A 
ATOM     91  F   UNL     1       6.050   3.536 -13.701  1.00  0.00    -0.206 F 
ATOM     92  C   UNL     1       4.643   2.308 -16.807  1.00  0.00     0.006 A 
ENDBRANCH  64  85
BRANCH  76  93
ATOM     93  C   UNL     1      13.495   4.612 -16.427  1.00  0.00     0.057 A 
ATOM     94  C   UNL     1      13.273   5.983 -16.597  1.00  0.00     0.134 A 
ATOM     95  C   UNL     1      14.386   3.981 -17.304  1.00  0.00     0.134 A 
ATOM     96  F   UNL     1      12.421   6.638 -15.795  1.00  0.00    -0.206 F 
ATOM     97  C   UNL     1      13.912   6.701 -17.609  1.00  0.00     0.040 A 
ATOM     98  C   UNL     1      15.047   4.692 -18.305  1.00  0.00     0.040 A 
ATOM     99  F   UNL     1      14.646   2.670 -17.185  1.00  0.00    -0.206 F 
ATOM    100  C   UNL     1      14.809   6.056 -18.459  1.00  0.00     0.006 A 
ENDBRANCH  76  93
ENDBRANCH  50  51
ENDBRANCH  42  45
ENDBRANCH  40  41
ENDBRANCH  39  40
ENDBRANCH   1  39
TORSDOF 17
