REMARK SMILES Nc1cccc(C(=O)N[C@@H]2C=C[C@@H](C(=O)NCCCCNC(=O)c3ccc(-c4c5nc(c(-c6c(F)cccc6F)c6ccc([nH]6)c(-c6c(F)cccc6F)c6nc(c(-c7c(F)cccc7F)c7ccc4[nH]7)C=C6)C=C5)cc3)C2)c1
REMARK SMILES IDX 18 1 17 2 16 3 14 4 15 5 13 7 10 8 11 9 78 10 12 11 9 12
REMARK SMILES IDX 7 13 8 14 6 16 2 17 3 18 79 19 4 20 5 21 1 22 19 25 20 26
REMARK SMILES IDX 21 27 22 28 23 30 24 31 25 32 77 33 26 34 76 35 27 36 28 37
REMARK SMILES IDX 29 38 70 39 30 40 75 41 69 42 71 43 31 44 74 45 68 46 67 47
REMARK SMILES IDX 32 49 58 50 41 51 57 52 42 53 45 54 56 55 72 56 43 57 44 58
REMARK SMILES IDX 55 60 73 61 46 62 33 63 34 64 39 65 35 66 36 67 38 68 40 69
REMARK SMILES IDX 37 70 59 71 60 72 65 73 61 74 62 75 64 76 66 77 63 78 47 79
REMARK SMILES IDX 48 80 53 81 49 82 50 83 52 84 54 85 51 86
REMARK H PARENT 16 6 9 15 1 23 1 24 21 29 71 48 45 59
REMARK Flexibility Score: inf
ROOT
ATOM      1  C   UNL     1      -1.511   2.704   3.436  1.00  0.00     0.023 C 
ENDROOT
BRANCH   1   2
ATOM      2  C   UNL     1      -0.244   3.556   3.511  1.00  0.00     0.116 C 
BRANCH   2   3
ATOM      3  N   UNL     1       0.903   2.768   3.902  1.00  0.00    -0.356 N 
ATOM      4  C   UNL     1       2.007   2.362   3.225  1.00  0.00     0.227 C 
ATOM      5  O   UNL     1       2.820   1.688   3.869  1.00  0.00    -0.274 OA
ATOM      6  H   UNL     1       0.878   2.467   4.839  1.00  0.00     0.163 HD
BRANCH   4   7
ATOM      7  C   UNL     1       2.321   2.745   1.775  1.00  0.00     0.103 C 
ATOM      8  C   UNL     1       0.902   3.941   0.143  1.00  0.00     0.106 C 
ATOM      9  C   UNL     1       1.964   4.813   0.729  1.00  0.00    -0.006 C 
ATOM     10  C   UNL     1       1.243   2.543   0.703  1.00  0.00     0.047 C 
ATOM     11  C   UNL     1       2.705   4.181   1.642  1.00  0.00    -0.016 C 
BRANCH   8  12
ATOM     12  N   UNL     1       0.885   4.005  -1.303  1.00  0.00    -0.346 N 
ATOM     13  C   UNL     1       0.577   5.041  -2.156  1.00  0.00     0.251 C 
ATOM     14  O   UNL     1       0.521   4.821  -3.364  1.00  0.00    -0.269 OA
ATOM     15  H   UNL     1       1.136   3.166  -1.752  1.00  0.00     0.164 HD
BRANCH  13  16
ATOM     16  C   UNL     1       0.428   6.436  -1.665  1.00  0.00     0.041 A 
ATOM     17  C   UNL     1      -0.183   8.048   0.043  1.00  0.00     0.032 A 
ATOM     18  C   UNL     1       0.494   9.038  -0.671  1.00  0.00     0.025 A 
ATOM     19  C   UNL     1      -0.291   6.772  -0.514  1.00  0.00     0.039 A 
ATOM     20  C   UNL     1       1.121   8.742  -1.883  1.00  0.00     0.003 A 
ATOM     21  C   UNL     1       1.104   7.437  -2.372  1.00  0.00     0.014 A 
BRANCH  17  22
ATOM     22  N   UNL     1      -0.811   8.347   1.241  1.00  0.00    -0.399 N 
ATOM     23  H   UNL     1      -0.730   9.249   1.628  1.00  0.00     0.156 HD
ATOM     24  H   UNL     1      -1.339   7.658   1.706  1.00  0.00     0.156 HD
ENDBRANCH  17  22
ENDBRANCH  13  16
ENDBRANCH   8  12
ENDBRANCH   4   7
ENDBRANCH   2   3
ENDBRANCH   1   2
BRANCH   1  25
ATOM     25  C   UNL     1      -1.988   2.165   4.788  1.00  0.00     0.023 C 
BRANCH  25  26
ATOM     26  C   UNL     1      -2.305   3.229   5.835  1.00  0.00     0.116 C 
BRANCH  26  27
ATOM     27  N   UNL     1      -3.378   4.123   5.427  1.00  0.00    -0.352 N 
ATOM     28  C   UNL     1      -4.457   4.567   6.155  1.00  0.00     0.251 C 
ATOM     29  H   UNL     1      -3.324   4.456   4.502  1.00  0.00     0.163 HD
ATOM     30  O   UNL     1      -5.340   5.218   5.612  1.00  0.00    -0.269 OA
BRANCH  28  31
ATOM     31  C   UNL     1      -4.562   4.225   7.590  1.00  0.00     0.039 A 
ATOM     32  C   UNL     1      -5.773   3.728   8.077  1.00  0.00     0.014 A 
ATOM     33  C   UNL     1      -3.466   4.374   8.445  1.00  0.00     0.014 A 
ATOM     34  C   UNL     1      -5.865   3.314   9.407  1.00  0.00     0.010 A 
ATOM     35  C   UNL     1      -3.538   3.894   9.749  1.00  0.00     0.010 A 
ATOM     36  C   UNL     1      -4.738   3.358  10.243  1.00  0.00    -0.014 A 
BRANCH  36  37
ATOM     37  C   UNL     1      -4.791   2.839  11.633  1.00  0.00     0.031 A 
ATOM     38  C   UNL     1      -4.580   3.766  12.797  1.00  0.00     0.074 A 
ATOM     39  C   UNL     1      -4.953   1.519  11.845  1.00  0.00     0.049 A 
ATOM     40  N   UNL     1      -4.521   3.489  14.075  1.00  0.00    -0.248 NA
ATOM     41  C   UNL     1      -4.378   5.188  12.480  1.00  0.00     0.031 C 
ATOM     42  C   UNL     1      -5.104   0.506  10.798  1.00  0.00     0.029 A 
ATOM     43  N   UNL     1      -5.000   0.800  13.012  1.00  0.00    -0.354 N 
ATOM     44  C   UNL     1      -4.263   4.696  14.711  1.00  0.00     0.074 A 
ATOM     45  C   UNL     1      -4.119   5.696  13.675  1.00  0.00     0.031 C 
ATOM     46  C   UNL     1      -5.239  -0.700  11.371  1.00  0.00     0.029 A 
ATOM     47  C   UNL     1      -5.153  -0.551  12.821  1.00  0.00     0.049 A 
ATOM     48  H   UNL     1      -4.931   1.214  13.903  1.00  0.00     0.167 HD
ATOM     49  C   UNL     1      -4.179   4.954  16.038  1.00  0.00     0.037 A 
ATOM     50  C   UNL     1      -5.208  -1.559  13.711  1.00  0.00     0.037 A 
ATOM     51  C   UNL     1      -4.340   3.961  17.068  1.00  0.00     0.049 A 
ATOM     52  C   UNL     1      -5.123  -1.250  15.179  1.00  0.00     0.074 A 
ATOM     53  C   UNL     1      -4.338   4.133  18.441  1.00  0.00     0.029 A 
ATOM     54  N   UNL     1      -4.528   2.606  16.835  1.00  0.00    -0.354 N 
ATOM     55  N   UNL     1      -4.958  -0.092  15.771  1.00  0.00    -0.248 NA
ATOM     56  C   UNL     1      -5.242  -2.386  16.104  1.00  0.00     0.031 C 
ATOM     57  C   UNL     1      -4.481   2.876  19.040  1.00  0.00     0.029 A 
ATOM     58  C   UNL     1      -4.620   1.927  18.039  1.00  0.00     0.049 A 
ATOM     59  H   UNL     1      -4.587   2.189  15.945  1.00  0.00     0.167 HD
ATOM     60  C   UNL     1      -4.971  -0.355  17.134  1.00  0.00     0.074 A 
ATOM     61  C   UNL     1      -5.180  -1.782  17.282  1.00  0.00     0.031 C 
ATOM     62  C   UNL     1      -4.822   0.506  18.171  1.00  0.00     0.037 A 
BRANCH  49  63
ATOM     63  C   UNL     1      -3.900   6.372  16.444  1.00  0.00     0.057 A 
ATOM     64  C   UNL     1      -4.846   7.391  16.267  1.00  0.00     0.134 A 
ATOM     65  C   UNL     1      -2.676   6.724  17.026  1.00  0.00     0.134 A 
ATOM     66  F   UNL     1      -6.035   7.125  15.703  1.00  0.00    -0.206 F 
ATOM     67  C   UNL     1      -4.572   8.714  16.619  1.00  0.00     0.040 A 
ATOM     68  C   UNL     1      -2.401   8.039  17.410  1.00  0.00     0.040 A 
ATOM     69  F   UNL     1      -1.727   5.799  17.232  1.00  0.00    -0.206 F 
ATOM     70  C   UNL     1      -3.347   9.039  17.197  1.00  0.00     0.006 A 
ENDBRANCH  49  63
BRANCH  50  71
ATOM     71  C   UNL     1      -5.371  -2.955  13.233  1.00  0.00     0.057 A 
ATOM     72  C   UNL     1      -6.576  -3.644  13.408  1.00  0.00     0.134 A 
ATOM     73  C   UNL     1      -4.331  -3.626  12.578  1.00  0.00     0.134 A 
ATOM     74  F   UNL     1      -7.602  -3.059  14.043  1.00  0.00    -0.206 F 
ATOM     75  C   UNL     1      -6.739  -4.956  12.961  1.00  0.00     0.040 A 
ATOM     76  C   UNL     1      -4.488  -4.930  12.105  1.00  0.00     0.040 A 
ATOM     77  F   UNL     1      -3.155  -3.016  12.372  1.00  0.00    -0.206 F 
ATOM     78  C   UNL     1      -5.694  -5.600  12.301  1.00  0.00     0.006 A 
ENDBRANCH  50  71
BRANCH  62  79
ATOM     79  C   UNL     1      -4.897  -0.069  19.555  1.00  0.00     0.057 A 
ATOM     80  C   UNL     1      -3.866  -0.855  20.085  1.00  0.00     0.134 A 
ATOM     81  C   UNL     1      -6.000   0.192  20.378  1.00  0.00     0.134 A 
ATOM     82  F   UNL     1      -2.788  -1.153  19.343  1.00  0.00    -0.206 F 
ATOM     83  C   UNL     1      -3.939  -1.378  21.377  1.00  0.00     0.040 A 
ATOM     84  C   UNL     1      -6.073  -0.304  21.680  1.00  0.00     0.040 A 
ATOM     85  F   UNL     1      -7.019   0.944  19.933  1.00  0.00    -0.206 F 
ATOM     86  C   UNL     1      -5.043  -1.097  22.180  1.00  0.00     0.006 A 
ENDBRANCH  62  79
ENDBRANCH  36  37
ENDBRANCH  28  31
ENDBRANCH  26  27
ENDBRANCH  25  26
ENDBRANCH   1  25
TORSDOF 14
