REMARK SMILES O=C(NCCCCNC(=O)c1ccc(-c2c3nc(c(-c4c(F)cccc4F)c4ccc([nH]4)c(-c4c(F)cccc4F)c4nc(c(-c5c(F)cccc5F)c5ccc2[nH]5)C=C4)C=C3)cc1)C1=NN(c2ccc([N+](=O)[O-])cc2)[C@H](c2ccccc2)C1
REMARK SMILES IDX 5 1 4 2 3 3 1 4 2 5 65 7 66 8 84 9 67 10 77 11 68 12 69 13
REMARK SMILES IDX 76 14 70 15 75 16 71 17 72 18 73 19 74 20 78 21 79 22 83 23
REMARK SMILES IDX 80 24 82 25 81 26 6 27 7 28 8 29 9 30 10 32 11 33 12 34
REMARK SMILES IDX 64 35 13 36 63 37 14 38 15 39 16 40 57 41 17 42 62 43 56 44
REMARK SMILES IDX 58 45 18 46 61 47 55 48 54 49 19 51 45 52 28 53 44 54 29 55
REMARK SMILES IDX 32 56 43 57 59 58 30 59 31 60 42 62 60 63 33 64 20 65 21 66
REMARK SMILES IDX 26 67 22 68 23 69 25 70 27 71 24 72 46 73 47 74 52 75 48 76
REMARK SMILES IDX 49 77 51 78 53 79 50 80 34 81 35 82 40 83 36 84 37 85 39 86
REMARK SMILES IDX 41 87 38 88
REMARK H PARENT 3 6 8 31 58 50 32 61
REMARK Flexibility Score: inf
ROOT
ATOM      1  C   UNL     1       4.833  -0.017   2.385  1.00  0.00     0.023 C 
ENDROOT
BRANCH   1   2
ATOM      2  C   UNL     1       4.432  -0.538   1.009  1.00  0.00     0.116 C 
BRANCH   2   3
ATOM      3  N   UNL     1       2.994  -0.486   0.784  1.00  0.00    -0.351 N 
ATOM      4  O   UNL     1       1.099   0.150  -0.318  1.00  0.00    -0.268 OA
ATOM      5  C   UNL     1       2.320   0.172  -0.219  1.00  0.00     0.267 C 
ATOM      6  H   UNL     1       2.437  -0.981   1.427  1.00  0.00     0.163 HD
BRANCH   5   7
ATOM      7  C   UNL     1       3.110   0.996  -1.196  1.00  0.00     0.128 C 
ATOM      8  N   UNL     1       4.194   0.565  -1.753  1.00  0.00    -0.171 NA
ATOM      9  C   UNL     1       2.653   2.360  -1.587  1.00  0.00     0.096 C 
ATOM     10  N   UNL     1       4.751   1.639  -2.362  1.00  0.00    -0.257 N 
ATOM     11  C   UNL     1       3.916   2.852  -2.321  1.00  0.00     0.144 C 
BRANCH  10  12
ATOM     12  C   UNL     1       5.894   1.431  -3.111  1.00  0.00     0.061 A 
ATOM     13  C   UNL     1       5.878   0.554  -4.206  1.00  0.00     0.035 A 
ATOM     14  C   UNL     1       7.120   1.998  -2.735  1.00  0.00     0.035 A 
ATOM     15  C   UNL     1       7.040   0.278  -4.933  1.00  0.00     0.088 A 
ATOM     16  C   UNL     1       8.292   1.735  -3.449  1.00  0.00     0.088 A 
ATOM     17  C   UNL     1       8.245   0.876  -4.551  1.00  0.00     0.269 A 
BRANCH  17  18
ATOM     18  N   UNL     1       9.472   0.591  -5.303  1.00  0.00     0.062 N 
ATOM     19  O   UNL     1       9.416  -0.270  -6.193  1.00  0.00    -0.258 OA
ATOM     20  O   UNL     1      10.491   1.232  -5.008  1.00  0.00    -0.258 OA
ENDBRANCH  17  18
ENDBRANCH  10  12
BRANCH  11  21
ATOM     21  C   UNL     1       4.622   4.059  -1.716  1.00  0.00    -0.023 A 
ATOM     22  C   UNL     1       4.463   4.481  -0.386  1.00  0.00     0.006 A 
ATOM     23  C   UNL     1       5.486   4.810  -2.538  1.00  0.00     0.006 A 
ATOM     24  C   UNL     1       5.126   5.617   0.093  1.00  0.00     0.000 A 
ATOM     25  C   UNL     1       6.179   5.919  -2.048  1.00  0.00     0.000 A 
ATOM     26  C   UNL     1       5.990   6.329  -0.734  1.00  0.00     0.000 A 
ENDBRANCH  11  21
ENDBRANCH   5   7
ENDBRANCH   2   3
ENDBRANCH   1   2
BRANCH   1  27
ATOM     27  C   UNL     1       4.368  -0.869   3.563  1.00  0.00     0.023 C 
BRANCH  27  28
ATOM     28  C   UNL     1       4.761  -2.341   3.504  1.00  0.00     0.116 C 
BRANCH  28  29
ATOM     29  N   UNL     1       6.196  -2.553   3.410  1.00  0.00    -0.352 N 
ATOM     30  C   UNL     1       6.989  -3.460   4.071  1.00  0.00     0.251 C 
ATOM     31  H   UNL     1       6.669  -1.960   2.783  1.00  0.00     0.163 HD
ATOM     32  O   UNL     1       8.208  -3.417   3.938  1.00  0.00    -0.269 OA
BRANCH  30  33
ATOM     33  C   UNL     1       6.385  -4.471   4.968  1.00  0.00     0.039 A 
ATOM     34  C   UNL     1       7.004  -4.732   6.194  1.00  0.00     0.014 A 
ATOM     35  C   UNL     1       5.235  -5.178   4.604  1.00  0.00     0.014 A 
ATOM     36  C   UNL     1       6.444  -5.661   7.075  1.00  0.00     0.010 A 
ATOM     37  C   UNL     1       4.638  -6.051   5.511  1.00  0.00     0.010 A 
ATOM     38  C   UNL     1       5.243  -6.311   6.750  1.00  0.00    -0.014 A 
BRANCH  38  39
ATOM     39  C   UNL     1       4.632  -7.300   7.673  1.00  0.00     0.031 A 
ATOM     40  C   UNL     1       4.542  -8.747   7.269  1.00  0.00     0.074 A 
ATOM     41  C   UNL     1       4.121  -6.897   8.852  1.00  0.00     0.049 A 
ATOM     42  N   UNL     1       3.984  -9.750   7.899  1.00  0.00    -0.248 NA
ATOM     43  C   UNL     1       5.135  -9.109   5.971  1.00  0.00     0.031 C 
ATOM     44  C   UNL     1       4.103  -5.518   9.343  1.00  0.00     0.029 A 
ATOM     45  N   UNL     1       3.508  -7.613   9.850  1.00  0.00    -0.354 N 
ATOM     46  C   UNL     1       4.147 -10.853   7.071  1.00  0.00     0.074 A 
ATOM     47  C   UNL     1       4.808 -10.388   5.871  1.00  0.00     0.031 C 
ATOM     48  C   UNL     1       3.523  -5.491  10.555  1.00  0.00     0.029 A 
ATOM     49  C   UNL     1       3.108  -6.843  10.915  1.00  0.00     0.049 A 
ATOM     50  H   UNL     1       3.368  -8.586   9.806  1.00  0.00     0.167 HD
ATOM     51  C   UNL     1       3.803 -12.143   7.298  1.00  0.00     0.037 A 
ATOM     52  C   UNL     1       2.480  -7.192  12.054  1.00  0.00     0.037 A 
ATOM     53  C   UNL     1       3.172 -12.615   8.502  1.00  0.00     0.049 A 
ATOM     54  C   UNL     1       2.147  -8.637  12.299  1.00  0.00     0.074 A 
ATOM     55  C   UNL     1       2.788 -13.904   8.829  1.00  0.00     0.029 A 
ATOM     56  N   UNL     1       2.848 -11.813   9.585  1.00  0.00    -0.354 N 
ATOM     57  N   UNL     1       2.334  -9.674  11.519  1.00  0.00    -0.248 NA
ATOM     58  C   UNL     1       1.531  -8.965  13.594  1.00  0.00     0.031 C 
ATOM     59  C   UNL     1       2.222 -13.880  10.109  1.00  0.00     0.029 A 
ATOM     60  C   UNL     1       2.283 -12.582  10.588  1.00  0.00     0.049 A 
ATOM     61  H   UNL     1       2.998 -10.841   9.634  1.00  0.00     0.167 HD
ATOM     62  C   UNL     1       1.894 -10.776  12.239  1.00  0.00     0.074 A 
ATOM     63  C   UNL     1       1.440 -10.285  13.523  1.00  0.00     0.031 C 
ATOM     64  C   UNL     1       1.865 -12.080  11.870  1.00  0.00     0.037 A 
BRANCH  51  65
ATOM     65  C   UNL     1       4.126 -13.139   6.224  1.00  0.00     0.057 A 
ATOM     66  C   UNL     1       5.444 -13.544   5.977  1.00  0.00     0.134 A 
ATOM     67  C   UNL     1       3.114 -13.718   5.450  1.00  0.00     0.134 A 
ATOM     68  F   UNL     1       6.460 -13.014   6.675  1.00  0.00    -0.206 F 
ATOM     69  C   UNL     1       5.747 -14.475   4.982  1.00  0.00     0.040 A 
ATOM     70  C   UNL     1       3.402 -14.668   4.468  1.00  0.00     0.040 A 
ATOM     71  F   UNL     1       1.831 -13.376   5.638  1.00  0.00    -0.206 F 
ATOM     72  C   UNL     1       4.723 -15.045   4.229  1.00  0.00     0.006 A 
ENDBRANCH  51  65
BRANCH  52  73
ATOM     73  C   UNL     1       2.154  -6.163  13.072  1.00  0.00     0.057 A 
ATOM     74  C   UNL     1       2.845  -6.106  14.288  1.00  0.00     0.134 A 
ATOM     75  C   UNL     1       1.126  -5.236  12.869  1.00  0.00     0.134 A 
ATOM     76  F   UNL     1       3.828  -6.982  14.547  1.00  0.00    -0.206 F 
ATOM     77  C   UNL     1       2.506  -5.184  15.279  1.00  0.00     0.040 A 
ATOM     78  C   UNL     1       0.792  -4.293  13.842  1.00  0.00     0.040 A 
ATOM     79  F   UNL     1       0.432  -5.234  11.721  1.00  0.00    -0.206 F 
ATOM     80  C   UNL     1       1.477  -4.272  15.056  1.00  0.00     0.006 A 
ENDBRANCH  52  73
BRANCH  64  81
ATOM     81  C   UNL     1       1.383 -13.068  12.889  1.00  0.00     0.057 A 
ATOM     82  C   UNL     1       0.029 -13.184  13.226  1.00  0.00     0.134 A 
ATOM     83  C   UNL     1       2.287 -13.928  13.524  1.00  0.00     0.134 A 
ATOM     84  F   UNL     1      -0.884 -12.380  12.661  1.00  0.00    -0.206 F 
ATOM     85  C   UNL     1      -0.406 -14.104  14.181  1.00  0.00     0.040 A 
ATOM     86  C   UNL     1       1.862 -14.867  14.463  1.00  0.00     0.040 A 
ATOM     87  F   UNL     1       3.597 -13.871  13.239  1.00  0.00    -0.206 F 
ATOM     88  C   UNL     1       0.512 -14.952  14.799  1.00  0.00     0.006 A 
ENDBRANCH  64  81
ENDBRANCH  38  39
ENDBRANCH  30  33
ENDBRANCH  28  29
ENDBRANCH  27  28
ENDBRANCH   1  27
TORSDOF 14
