REMARK SMILES CCN(c1cccc(C)c1)c1nc(OCC(=O)NCCCCNC(=O)c2ccc(-c3c4nc(c(-c5c(F)cccc5F)c5ccc([nH]5)c(-c5c(F)cccc5F)c5nc(c(-c6c(F)cccc6F)c6ccc3[nH]6)C=C5)C=C4)cc2)cc(-c2ccc(C)cc2)n1
REMARK SMILES IDX 19 1 18 2 16 3 17 4 15 6 14 7 13 8 11 9 12 10 89 11 81 12
REMARK SMILES IDX 80 13 3 14 2 15 1 16 4 17 5 18 10 19 6 20 8 21 7 22 9 23
REMARK SMILES IDX 82 24 83 25 88 26 84 27 87 28 85 29 86 30 20 31 21 32 22 33
REMARK SMILES IDX 23 34 24 35 25 37 26 38 27 39 79 40 28 41 78 42 29 43 30 44
REMARK SMILES IDX 31 45 72 46 32 47 77 48 71 49 73 50 33 51 76 52 70 53 69 54
REMARK SMILES IDX 34 56 60 57 43 58 59 59 44 60 47 61 58 62 74 63 45 64 46 65
REMARK SMILES IDX 57 67 75 68 48 69 35 70 36 71 41 72 37 73 38 74 40 75 42 76
REMARK SMILES IDX 39 77 61 78 62 79 67 80 63 81 64 82 66 83 68 84 65 85 49 86
REMARK SMILES IDX 50 87 55 88 51 89 52 90 54 91 56 92 53 93
REMARK H PARENT 18 5 23 36 73 55 47 66
REMARK Flexibility Score: inf
ROOT
ATOM      1  C   UNL     1       5.253   6.439   1.027  1.00  0.00     0.116 C 
ENDROOT
BRANCH   1   2
ATOM      2  N   UNL     1       6.354   5.524   0.784  1.00  0.00    -0.353 N 
ATOM      3  C   UNL     1       6.753   4.966  -0.395  1.00  0.00     0.258 C 
ATOM      4  O   UNL     1       7.731   4.215  -0.391  1.00  0.00    -0.271 OA
ATOM      5  H   UNL     1       6.883   5.273   1.575  1.00  0.00     0.163 HD
BRANCH   3   6
ATOM      6  C   UNL     1       6.000   5.286  -1.694  1.00  0.00     0.331 C 
BRANCH   6   7
ATOM      7  O   UNL     1       4.615   4.995  -1.734  1.00  0.00    -0.467 OA
BRANCH   7   8
ATOM      8  C   UNL     1       4.229   3.701  -1.531  1.00  0.00     0.219 A 
ATOM      9  C   UNL     1       2.410   2.376  -1.008  1.00  0.00     0.233 A 
ATOM     10  N   UNL     1       2.912   3.585  -1.316  1.00  0.00    -0.177 NA
ATOM     11  N   UNL     1       3.185   1.286  -0.907  1.00  0.00    -0.212 NA
ATOM     12  C   UNL     1       4.492   1.414  -1.196  1.00  0.00     0.080 A 
ATOM     13  C   UNL     1       5.067   2.620  -1.525  1.00  0.00     0.097 A 
BRANCH   9  14
ATOM     14  N   UNL     1       1.025   2.266  -0.807  1.00  0.00    -0.311 N 
BRANCH  14  15
ATOM     15  C   UNL     1       0.595   1.380   0.280  1.00  0.00     0.122 C 
ATOM     16  C   UNL     1       0.681  -0.100  -0.074  1.00  0.00     0.028 C 
ENDBRANCH  14  15
BRANCH  14  17
ATOM     17  C   UNL     1       0.053   2.917  -1.589  1.00  0.00     0.044 A 
ATOM     18  C   UNL     1      -1.080   3.528  -1.034  1.00  0.00     0.026 A 
ATOM     19  C   UNL     1       0.202   2.982  -2.987  1.00  0.00     0.029 A 
ATOM     20  C   UNL     1      -2.030   4.163  -1.841  1.00  0.00     0.002 A 
ATOM     21  C   UNL     1      -0.751   3.603  -3.811  1.00  0.00    -0.049 A 
ATOM     22  C   UNL     1      -1.871   4.194  -3.224  1.00  0.00     0.003 A 
ATOM     23  C   UNL     1      -0.559   3.606  -5.298  1.00  0.00     0.044 C 
ENDBRANCH  14  17
ENDBRANCH   9  14
BRANCH  12  24
ATOM     24  C   UNL     1       5.292   0.187  -1.192  1.00  0.00     0.000 A 
ATOM     25  C   UNL     1       6.380   0.037  -0.318  1.00  0.00     0.010 A 
ATOM     26  C   UNL     1       5.039  -0.831  -2.123  1.00  0.00     0.010 A 
ATOM     27  C   UNL     1       7.212  -1.083  -0.395  1.00  0.00     0.004 A 
ATOM     28  C   UNL     1       5.877  -1.946  -2.208  1.00  0.00     0.004 A 
ATOM     29  C   UNL     1       6.974  -2.076  -1.351  1.00  0.00    -0.051 A 
ATOM     30  C   UNL     1       7.897  -3.251  -1.486  1.00  0.00     0.044 C 
ENDBRANCH  12  24
ENDBRANCH   7   8
ENDBRANCH   6   7
ENDBRANCH   3   6
ENDBRANCH   1   2
BRANCH   1  31
ATOM     31  C   UNL     1       4.039   5.766   1.680  1.00  0.00     0.023 C 
BRANCH  31  32
ATOM     32  C   UNL     1       4.309   5.017   2.987  1.00  0.00     0.023 C 
BRANCH  32  33
ATOM     33  C   UNL     1       4.843   5.885   4.115  1.00  0.00     0.116 C 
BRANCH  33  34
ATOM     34  N   UNL     1       3.843   6.655   4.833  1.00  0.00    -0.352 N 
ATOM     35  C   UNL     1       3.980   7.565   5.871  1.00  0.00     0.251 C 
ATOM     36  H   UNL     1       2.917   6.507   4.534  1.00  0.00     0.163 HD
ATOM     37  O   UNL     1       2.975   7.989   6.420  1.00  0.00    -0.269 OA
BRANCH  35  38
ATOM     38  C   UNL     1       5.308   8.154   6.221  1.00  0.00     0.039 A 
ATOM     39  C   UNL     1       5.330   9.455   6.753  1.00  0.00     0.014 A 
ATOM     40  C   UNL     1       6.505   7.564   5.841  1.00  0.00     0.014 A 
ATOM     41  C   UNL     1       6.480  10.236   6.640  1.00  0.00     0.010 A 
ATOM     42  C   UNL     1       7.596   8.364   5.598  1.00  0.00     0.010 A 
ATOM     43  C   UNL     1       7.562   9.715   5.943  1.00  0.00    -0.014 A 
BRANCH  43  44
ATOM     44  C   UNL     1       8.678  10.487   5.424  1.00  0.00     0.031 A 
ATOM     45  C   UNL     1      10.028  10.304   5.992  1.00  0.00     0.074 A 
ATOM     46  C   UNL     1       8.500  11.137   4.252  1.00  0.00     0.049 A 
ATOM     47  N   UNL     1      11.025  11.074   5.732  1.00  0.00    -0.248 NA
ATOM     48  C   UNL     1      10.364   9.228   6.921  1.00  0.00     0.031 C 
ATOM     49  C   UNL     1       9.525  11.573   3.309  1.00  0.00     0.029 A 
ATOM     50  N   UNL     1       7.315  11.696   3.755  1.00  0.00    -0.354 N 
ATOM     51  C   UNL     1      12.162  10.468   6.213  1.00  0.00     0.074 A 
ATOM     52  C   UNL     1      11.694   9.342   6.986  1.00  0.00     0.031 C 
ATOM     53  C   UNL     1       9.015  12.536   2.525  1.00  0.00     0.029 A 
ATOM     54  C   UNL     1       7.703  12.860   3.054  1.00  0.00     0.049 A 
ATOM     55  H   UNL     1       6.401  11.350   3.869  1.00  0.00     0.167 HD
ATOM     56  C   UNL     1      13.377  10.922   5.797  1.00  0.00     0.037 A 
ATOM     57  C   UNL     1       7.331  14.100   3.488  1.00  0.00     0.037 A 
ATOM     58  C   UNL     1      13.226  12.067   4.907  1.00  0.00     0.049 A 
ATOM     59  C   UNL     1       8.498  14.999   3.827  1.00  0.00     0.074 A 
ATOM     60  C   UNL     1      13.187  12.182   3.527  1.00  0.00     0.029 A 
ATOM     61  N   UNL     1      12.738  13.261   5.419  1.00  0.00    -0.354 N 
ATOM     62  N   UNL     1       9.692  14.560   4.117  1.00  0.00    -0.248 NA
ATOM     63  C   UNL     1       8.422  16.456   3.854  1.00  0.00     0.031 C 
ATOM     64  C   UNL     1      12.630  13.445   3.209  1.00  0.00     0.029 A 
ATOM     65  C   UNL     1      12.354  14.102   4.395  1.00  0.00     0.049 A 
ATOM     66  H   UNL     1      12.675  13.477   6.377  1.00  0.00     0.167 HD
ATOM     67  C   UNL     1      10.530  15.620   4.357  1.00  0.00     0.074 A 
ATOM     68  C   UNL     1       9.688  16.786   4.172  1.00  0.00     0.031 C 
ATOM     69  C   UNL     1      11.845  15.433   4.685  1.00  0.00     0.037 A 
BRANCH  56  70
ATOM     70  C   UNL     1      14.673  10.183   5.997  1.00  0.00     0.057 A 
ATOM     71  C   UNL     1      15.700  10.251   5.034  1.00  0.00     0.134 A 
ATOM     72  C   UNL     1      14.965   9.376   7.108  1.00  0.00     0.134 A 
ATOM     73  F   UNL     1      15.600  11.030   3.949  1.00  0.00    -0.206 F 
ATOM     74  C   UNL     1      16.885   9.512   5.129  1.00  0.00     0.040 A 
ATOM     75  C   UNL     1      16.126   8.592   7.193  1.00  0.00     0.040 A 
ATOM     76  F   UNL     1      14.162   9.346   8.180  1.00  0.00    -0.206 F 
ATOM     77  C   UNL     1      17.089   8.654   6.197  1.00  0.00     0.006 A 
ENDBRANCH  56  70
BRANCH  57  78
ATOM     78  C   UNL     1       6.007  14.091   4.166  1.00  0.00     0.057 A 
ATOM     79  C   UNL     1       4.874  13.784   3.389  1.00  0.00     0.134 A 
ATOM     80  C   UNL     1       5.896  13.916   5.549  1.00  0.00     0.134 A 
ATOM     81  F   UNL     1       4.915  13.932   2.055  1.00  0.00    -0.206 F 
ATOM     82  C   UNL     1       3.736  13.193   3.944  1.00  0.00     0.040 A 
ATOM     83  C   UNL     1       4.752  13.340   6.117  1.00  0.00     0.040 A 
ATOM     84  F   UNL     1       6.938  14.169   6.355  1.00  0.00    -0.206 F 
ATOM     85  C   UNL     1       3.691  12.933   5.310  1.00  0.00     0.006 A 
ENDBRANCH  57  78
BRANCH  69  86
ATOM     86  C   UNL     1      12.818  16.459   5.231  1.00  0.00     0.057 A 
ATOM     87  C   UNL     1      12.448  17.636   5.894  1.00  0.00     0.134 A 
ATOM     88  C   UNL     1      14.210  16.186   5.247  1.00  0.00     0.134 A 
ATOM     89  F   UNL     1      11.165  17.984   6.052  1.00  0.00    -0.206 F 
ATOM     90  C   UNL     1      13.386  18.493   6.489  1.00  0.00     0.040 A 
ATOM     91  C   UNL     1      15.146  17.001   5.890  1.00  0.00     0.040 A 
ATOM     92  F   UNL     1      14.730  15.096   4.663  1.00  0.00    -0.206 F 
ATOM     93  C   UNL     1      14.736  18.169   6.506  1.00  0.00     0.006 A 
ENDBRANCH  69  86
ENDBRANCH  43  44
ENDBRANCH  35  38
ENDBRANCH  33  34
ENDBRANCH  32  33
ENDBRANCH  31  32
ENDBRANCH   1  31
TORSDOF 17
