REMARK SMILES Cc1ccc(S(=O)(=O)n2cc(C(=O)C(=O)NCC(=O)NCC(=O)NCCCCNC(=O)c3ccc(-c4c5nc(c(-c6c(F)cccc6F)c6ccc([nH]6)c(-c6c(F)cccc6F)c6nc(c(-c7c(F)cccc7F)c7ccc4[nH]7)C=C6)C=C5)cc3)c3ccccc32)cc1
REMARK SMILES IDX 22 1 23 2 24 3 21 5 20 6 18 7 19 8 17 10 16 11 14 12 15 13
REMARK SMILES IDX 12 15 13 16 11 17 9 18 10 19 91 20 86 21 90 22 87 23 89 24
REMARK SMILES IDX 88 25 6 26 7 27 8 28 5 29 1 30 2 31 3 32 93 33 4 34 92 35
REMARK SMILES IDX 25 36 26 37 27 38 28 39 29 40 30 41 31 43 32 44 33 45 85 46
REMARK SMILES IDX 34 47 84 48 35 49 36 50 37 51 78 52 38 53 83 54 77 55 79 56
REMARK SMILES IDX 39 57 82 58 76 59 75 60 40 62 66 63 49 64 65 65 50 66 53 67
REMARK SMILES IDX 64 68 80 69 51 70 52 71 63 73 81 74 54 75 41 76 42 77 47 78
REMARK SMILES IDX 43 79 44 80 46 81 48 82 45 83 67 84 68 85 73 86 69 87 70 88
REMARK SMILES IDX 72 89 74 90 71 91 55 92 56 93 61 94 57 95 58 96 60 97 62 98
REMARK SMILES IDX 59 99
REMARK H PARENT 24 4 20 9 16 14 29 42 79 61 53 72
REMARK Flexibility Score: inf
ROOT
ATOM      1  C   UNL     1     -10.131   3.445   1.201  1.00  0.00     0.239 C 
ATOM      2  O   UNL     1     -10.440   2.735   0.240  1.00  0.00    -0.273 OA
ATOM      3  N   UNL     1     -10.290   2.915   2.451  1.00  0.00    -0.355 N 
ATOM      4  H   UNL     1     -10.819   2.086   2.494  1.00  0.00     0.163 HD
ENDROOT
BRANCH   1   5
ATOM      5  C   UNL     1      -9.433   4.800   0.981  1.00  0.00     0.216 C 
BRANCH   5   6
ATOM      6  N   UNL     1      -9.875   5.855   1.877  1.00  0.00    -0.346 N 
ATOM      7  C   UNL     1      -9.188   6.649   2.744  1.00  0.00     0.239 C 
ATOM      8  O   UNL     1      -9.848   7.426   3.440  1.00  0.00    -0.273 OA
ATOM      9  H   UNL     1     -10.844   6.027   1.854  1.00  0.00     0.164 HD
BRANCH   7  10
ATOM     10  C   UNL     1      -7.652   6.627   2.842  1.00  0.00     0.216 C 
BRANCH  10  11
ATOM     11  N   UNL     1      -7.083   5.383   3.359  1.00  0.00    -0.340 N 
ATOM     12  C   UNL     1      -6.338   4.392   2.751  1.00  0.00     0.292 C 
ATOM     13  O   UNL     1      -6.177   3.333   3.348  1.00  0.00    -0.265 OA
ATOM     14  H   UNL     1      -7.263   5.223   4.314  1.00  0.00     0.164 HD
BRANCH  12  15
ATOM     15  C   UNL     1      -5.742   4.611   1.343  1.00  0.00     0.252 C 
ATOM     16  O   UNL     1      -5.857   5.732   0.855  1.00  0.00    -0.283 OA
BRANCH  15  17
ATOM     17  C   UNL     1      -5.064   3.559   0.576  1.00  0.00     0.054 A 
ATOM     18  N   UNL     1      -4.156   1.638  -0.115  1.00  0.00    -0.240 N 
ATOM     19  C   UNL     1      -4.853   2.233   0.911  1.00  0.00     0.117 A 
ATOM     20  C   UNL     1      -3.901   2.533  -1.134  1.00  0.00     0.065 A 
ATOM     21  C   UNL     1      -4.458   3.749  -0.719  1.00  0.00     0.012 A 
ATOM     22  C   UNL     1      -3.213   2.415  -2.356  1.00  0.00     0.028 A 
ATOM     23  C   UNL     1      -4.324   4.873  -1.567  1.00  0.00     0.011 A 
ATOM     24  C   UNL     1      -3.076   3.554  -3.155  1.00  0.00     0.002 A 
ATOM     25  C   UNL     1      -3.627   4.768  -2.770  1.00  0.00     0.001 A 
BRANCH  18  26
ATOM     26  S   UNL     1      -3.591   0.029  -0.077  1.00  0.00     0.268 S 
ATOM     27  O   UNL     1      -3.932  -0.522  -1.371  1.00  0.00    -0.201 OA
ATOM     28  O   UNL     1      -4.102  -0.537   1.161  1.00  0.00    -0.201 OA
BRANCH  26  29
ATOM     29  C   UNL     1      -1.821   0.073   0.046  1.00  0.00     0.088 A 
ATOM     30  C   UNL     1       2.481  -0.051   0.025  1.00  0.00     0.044 C 
ATOM     31  C   UNL     1       0.981  -0.003   0.053  1.00  0.00    -0.051 A 
ATOM     32  C   UNL     1       0.243  -1.191  -0.009  1.00  0.00     0.005 A 
ATOM     33  C   UNL     1       0.303   1.218   0.142  1.00  0.00     0.005 A 
ATOM     34  C   UNL     1      -1.153  -1.155  -0.018  1.00  0.00     0.022 A 
ATOM     35  C   UNL     1      -1.094   1.260   0.153  1.00  0.00     0.022 A 
ENDBRANCH  26  29
ENDBRANCH  18  26
ENDBRANCH  15  17
ENDBRANCH  12  15
ENDBRANCH  10  11
ENDBRANCH   7  10
ENDBRANCH   5   6
ENDBRANCH   1   5
BRANCH   3  36
ATOM     36  C   UNL     1      -9.792   3.399   3.720  1.00  0.00     0.116 C 
BRANCH  36  37
ATOM     37  C   UNL     1     -10.861   4.027   4.615  1.00  0.00     0.023 C 
BRANCH  37  38
ATOM     38  C   UNL     1     -11.863   3.029   5.185  1.00  0.00     0.023 C 
BRANCH  38  39
ATOM     39  C   UNL     1     -11.259   2.024   6.153  1.00  0.00     0.116 C 
BRANCH  39  40
ATOM     40  N   UNL     1     -11.246   2.418   7.556  1.00  0.00    -0.352 N 
ATOM     41  C   UNL     1     -10.807   1.708   8.665  1.00  0.00     0.251 C 
ATOM     42  H   UNL     1     -11.600   3.317   7.744  1.00  0.00     0.163 HD
ATOM     43  O   UNL     1     -10.944   2.193   9.785  1.00  0.00    -0.269 OA
BRANCH  41  44
ATOM     44  C   UNL     1     -10.004   0.465   8.498  1.00  0.00     0.039 A 
ATOM     45  C   UNL     1      -8.883   0.317   9.326  1.00  0.00     0.014 A 
ATOM     46  C   UNL     1     -10.114  -0.300   7.346  1.00  0.00     0.014 A 
ATOM     47  C   UNL     1      -7.741  -0.281   8.813  1.00  0.00     0.010 A 
ATOM     48  C   UNL     1      -8.956  -0.738   6.762  1.00  0.00     0.010 A 
ATOM     49  C   UNL     1      -7.763  -0.657   7.476  1.00  0.00    -0.014 A 
BRANCH  49  50
ATOM     50  C   UNL     1      -6.601  -1.057   6.718  1.00  0.00     0.031 A 
ATOM     51  C   UNL     1      -6.302  -2.493   6.700  1.00  0.00     0.074 A 
ATOM     52  C   UNL     1      -5.974  -0.126   5.968  1.00  0.00     0.049 A 
ATOM     53  N   UNL     1      -5.130  -2.997   6.578  1.00  0.00    -0.248 NA
ATOM     54  C   UNL     1      -7.341  -3.502   6.903  1.00  0.00     0.031 C 
ATOM     55  C   UNL     1      -4.947  -0.310   4.952  1.00  0.00     0.029 A 
ATOM     56  N   UNL     1      -6.043   1.268   6.133  1.00  0.00    -0.354 N 
ATOM     57  C   UNL     1      -5.293  -4.347   6.343  1.00  0.00     0.074 A 
ATOM     58  C   UNL     1      -6.658  -4.630   6.701  1.00  0.00     0.031 C 
ATOM     59  C   UNL     1      -4.250   0.836   4.836  1.00  0.00     0.029 A 
ATOM     60  C   UNL     1      -4.741   1.745   5.862  1.00  0.00     0.049 A 
ATOM     61  H   UNL     1      -6.832   1.801   6.384  1.00  0.00     0.167 HD
ATOM     62  C   UNL     1      -4.295  -5.012   5.694  1.00  0.00     0.037 A 
ATOM     63  C   UNL     1      -3.989   2.292   6.862  1.00  0.00     0.037 A 
ATOM     64  C   UNL     1      -3.199  -4.080   5.423  1.00  0.00     0.049 A 
ATOM     65  C   UNL     1      -2.773   1.446   7.157  1.00  0.00     0.074 A 
ATOM     66  C   UNL     1      -2.923  -3.295   4.314  1.00  0.00     0.029 A 
ATOM     67  N   UNL     1      -2.484  -3.535   6.484  1.00  0.00    -0.354 N 
ATOM     68  N   UNL     1      -2.706   0.163   6.921  1.00  0.00    -0.248 NA
ATOM     69  C   UNL     1      -1.523   1.988   7.681  1.00  0.00     0.031 C 
ATOM     70  C   UNL     1      -2.103  -2.217   4.741  1.00  0.00     0.029 A 
ATOM     71  C   UNL     1      -1.862  -2.362   6.098  1.00  0.00     0.049 A 
ATOM     72  H   UNL     1      -2.429  -3.930   7.384  1.00  0.00     0.167 HD
ATOM     73  C   UNL     1      -1.449  -0.289   7.219  1.00  0.00     0.074 A 
ATOM     74  C   UNL     1      -0.746   0.891   7.689  1.00  0.00     0.031 C 
ATOM     75  C   UNL     1      -1.070  -1.591   7.046  1.00  0.00     0.037 A 
BRANCH  62  76
ATOM     76  C   UNL     1      -4.422  -6.362   5.019  1.00  0.00     0.057 A 
ATOM     77  C   UNL     1      -3.531  -6.718   3.984  1.00  0.00     0.134 A 
ATOM     78  C   UNL     1      -5.394  -7.341   5.294  1.00  0.00     0.134 A 
ATOM     79  F   UNL     1      -2.495  -5.938   3.647  1.00  0.00    -0.206 F 
ATOM     80  C   UNL     1      -3.647  -7.899   3.239  1.00  0.00     0.040 A 
ATOM     81  C   UNL     1      -5.543  -8.513   4.535  1.00  0.00     0.040 A 
ATOM     82  F   UNL     1      -6.216  -7.255   6.344  1.00  0.00    -0.206 F 
ATOM     83  C   UNL     1      -4.672  -8.794   3.496  1.00  0.00     0.006 A 
ENDBRANCH  62  76
BRANCH  63  84
ATOM     84  C   UNL     1      -4.829   3.020   7.860  1.00  0.00     0.057 A 
ATOM     85  C   UNL     1      -5.579   4.123   7.401  1.00  0.00     0.134 A 
ATOM     86  C   UNL     1      -5.260   2.415   9.043  1.00  0.00     0.134 A 
ATOM     87  F   UNL     1      -5.205   4.779   6.288  1.00  0.00    -0.206 F 
ATOM     88  C   UNL     1      -6.799   4.484   7.980  1.00  0.00     0.040 A 
ATOM     89  C   UNL     1      -6.467   2.791   9.649  1.00  0.00     0.040 A 
ATOM     90  F   UNL     1      -4.597   1.371   9.561  1.00  0.00    -0.206 F 
ATOM     91  C   UNL     1      -7.271   3.780   9.081  1.00  0.00     0.006 A 
ENDBRANCH  63  84
BRANCH  75  92
ATOM     92  C   UNL     1       0.149  -2.224   7.669  1.00  0.00     0.057 A 
ATOM     93  C   UNL     1       0.763  -1.751   8.838  1.00  0.00     0.134 A 
ATOM     94  C   UNL     1       0.663  -3.448   7.181  1.00  0.00     0.134 A 
ATOM     95  F   UNL     1       0.290  -0.690   9.504  1.00  0.00    -0.206 F 
ATOM     96  C   UNL     1       1.868  -2.386   9.417  1.00  0.00     0.040 A 
ATOM     97  C   UNL     1       1.715  -4.130   7.795  1.00  0.00     0.040 A 
ATOM     98  F   UNL     1       0.149  -4.056   6.101  1.00  0.00    -0.206 F 
ATOM     99  C   UNL     1       2.342  -3.583   8.902  1.00  0.00     0.006 A 
ENDBRANCH  75  92
ENDBRANCH  49  50
ENDBRANCH  41  44
ENDBRANCH  39  40
ENDBRANCH  38  39
ENDBRANCH  37  38
ENDBRANCH  36  37
ENDBRANCH   3  36
TORSDOF 18
