REMARK SMILES Cc1ccc(C(=O)NC2CC2)cc1NC(=O)[C@@H]1[C@@H](C(=O)NCCCCNC(=O)c2ccc(-c3c4nc(c(-c5c(F)cccc5F)c5ccc([nH]5)c(-c5c(F)cccc5F)c5nc(c(-c6c(F)cccc6F)c6ccc3[nH]6)C=C5)C=C4)cc2)[C@H]2C=C[C@@H]1C2
REMARK SMILES IDX 22 1 21 2 19 3 20 4 18 6 17 7 86 8 83 9 85 10 87 11 84 12
REMARK SMILES IDX 15 13 14 14 16 16 13 17 1 18 2 19 3 20 4 21 12 22 5 23 6 24
REMARK SMILES IDX 7 25 8 26 9 28 10 29 11 30 23 31 24 32 25 33 26 34 27 35
REMARK SMILES IDX 28 37 29 38 30 39 82 40 31 41 81 42 32 43 33 44 34 45 75 46
REMARK SMILES IDX 35 47 80 48 74 49 76 50 36 51 79 52 73 53 72 54 37 56 63 57
REMARK SMILES IDX 46 58 62 59 47 60 50 61 61 62 77 63 48 64 49 65 60 67 78 68
REMARK SMILES IDX 51 69 38 70 39 71 44 72 40 73 41 74 43 75 45 76 42 77 64 78
REMARK SMILES IDX 65 79 70 80 66 81 67 82 69 83 71 84 68 85 52 86 53 87 58 88
REMARK SMILES IDX 54 89 55 90 57 91 59 92 56 93
REMARK H PARENT 21 5 14 15 8 27 26 36 76 55 50 66
REMARK Flexibility Score: inf
ROOT
ATOM      1  C   UNL     1      -3.616   7.747   0.720  1.00  0.00     0.116 C 
ENDROOT
BRANCH   1   2
ATOM      2  N   UNL     1      -3.139   6.849  -0.313  1.00  0.00    -0.356 N 
ATOM      3  C   UNL     1      -2.205   5.871  -0.351  1.00  0.00     0.224 C 
ATOM      4  O   UNL     1      -2.012   5.383  -1.472  1.00  0.00    -0.275 OA
ATOM      5  H   UNL     1      -3.595   6.979  -1.176  1.00  0.00     0.163 HD
BRANCH   3   6
ATOM      6  C   UNL     1      -1.343   5.427   0.830  1.00  0.00     0.098 C 
ATOM      7  C   UNL     1      -0.969   3.895   0.631  1.00  0.00     0.099 C 
ATOM      8  C   UNL     1      -1.279   3.277   2.019  1.00  0.00     0.025 C 
ATOM      9  C   UNL     1      -1.924   5.407   2.260  1.00  0.00     0.025 C 
ATOM     10  C   UNL     1      -2.781   3.276   2.201  1.00  0.00    -0.027 C 
ATOM     11  C   UNL     1      -0.954   4.439   2.954  1.00  0.00     0.017 C 
ATOM     12  C   UNL     1      -3.171   4.554   2.319  1.00  0.00    -0.027 C 
BRANCH   7  13
ATOM     13  C   UNL     1       0.465   3.630   0.200  1.00  0.00     0.228 C 
ATOM     14  N   UNL     1       0.905   2.367  -0.116  1.00  0.00    -0.326 N 
ATOM     15  H   UNL     1       1.866   2.330  -0.325  1.00  0.00     0.169 HD
ATOM     16  O   UNL     1       1.306   4.534   0.198  1.00  0.00    -0.274 OA
BRANCH  14  17
ATOM     17  C   UNL     1       0.264   1.109  -0.204  1.00  0.00     0.044 A 
ATOM     18  C   UNL     1       2.493  -0.107   0.272  1.00  0.00     0.046 C 
ATOM     19  C   UNL     1       1.003  -0.062   0.056  1.00  0.00    -0.027 A 
ATOM     20  C   UNL     1       0.330  -1.295   0.090  1.00  0.00     0.006 A 
ATOM     21  C   UNL     1      -1.046  -1.372  -0.131  1.00  0.00     0.014 A 
ATOM     22  C   UNL     1      -1.090   0.981  -0.561  1.00  0.00     0.040 A 
ATOM     23  C   UNL     1      -1.782  -0.233  -0.476  1.00  0.00     0.041 A 
BRANCH  23  24
ATOM     24  C   UNL     1      -3.249  -0.432  -0.731  1.00  0.00     0.251 C 
ATOM     25  O   UNL     1      -3.699  -1.581  -0.717  1.00  0.00    -0.269 OA
ATOM     26  N   UNL     1      -4.155   0.585  -0.949  1.00  0.00    -0.349 N 
ATOM     27  H   UNL     1      -5.083   0.281  -1.072  1.00  0.00     0.164 HD
BRANCH  26  28
ATOM     28  C   UNL     1      -3.988   1.990  -1.028  1.00  0.00     0.082 C 
ATOM     29  C   UNL     1      -3.897   2.654  -2.373  1.00  0.00     0.027 C 
ATOM     30  C   UNL     1      -5.080   2.912  -1.490  1.00  0.00     0.027 C 
ENDBRANCH  26  28
ENDBRANCH  23  24
ENDBRANCH  14  17
ENDBRANCH   7  13
ENDBRANCH   3   6
ENDBRANCH   1   2
BRANCH   1  31
ATOM     31  C   UNL     1      -3.144   9.188   0.504  1.00  0.00     0.023 C 
BRANCH  31  32
ATOM     32  C   UNL     1      -3.670   9.858  -0.768  1.00  0.00     0.023 C 
BRANCH  32  33
ATOM     33  C   UNL     1      -5.168  10.141  -0.769  1.00  0.00     0.116 C 
BRANCH  33  34
ATOM     34  N   UNL     1      -5.561  11.338  -0.038  1.00  0.00    -0.352 N 
ATOM     35  C   UNL     1      -6.827  11.813   0.279  1.00  0.00     0.251 C 
ATOM     36  H   UNL     1      -4.814  11.896   0.279  1.00  0.00     0.163 HD
ATOM     37  O   UNL     1      -6.949  12.862   0.880  1.00  0.00    -0.269 OA
BRANCH  35  38
ATOM     38  C   UNL     1      -8.021  10.966   0.009  1.00  0.00     0.039 A 
ATOM     39  C   UNL     1      -8.985  10.863   1.021  1.00  0.00     0.014 A 
ATOM     40  C   UNL     1      -8.092  10.135  -1.104  1.00  0.00     0.014 A 
ATOM     41  C   UNL     1      -9.830   9.756   1.050  1.00  0.00     0.010 A 
ATOM     42  C   UNL     1      -8.857   8.989  -1.031  1.00  0.00     0.010 A 
ATOM     43  C   UNL     1      -9.664   8.763   0.087  1.00  0.00    -0.014 A 
BRANCH  43  44
ATOM     44  C   UNL     1     -10.153   7.401   0.265  1.00  0.00     0.031 A 
ATOM     45  C   UNL     1     -11.311   6.899  -0.495  1.00  0.00     0.074 A 
ATOM     46  C   UNL     1      -9.461   6.569   1.076  1.00  0.00     0.049 A 
ATOM     47  N   UNL     1     -12.072   5.932  -0.107  1.00  0.00    -0.248 NA
ATOM     48  C   UNL     1     -11.722   7.486  -1.763  1.00  0.00     0.031 C 
ATOM     49  C   UNL     1      -9.591   5.120   1.189  1.00  0.00     0.029 A 
ATOM     50  N   UNL     1      -8.607   6.926   2.128  1.00  0.00    -0.354 N 
ATOM     51  C   UNL     1     -12.878   5.582  -1.169  1.00  0.00     0.074 A 
ATOM     52  C   UNL     1     -12.671   6.627  -2.148  1.00  0.00     0.031 C 
ATOM     53  C   UNL     1      -9.093   4.733   2.374  1.00  0.00     0.029 A 
ATOM     54  C   UNL     1      -8.768   5.937   3.120  1.00  0.00     0.049 A 
ATOM     55  H   UNL     1      -8.013   7.710   2.167  1.00  0.00     0.167 HD
ATOM     56  C   UNL     1     -13.512   4.373  -1.162  1.00  0.00     0.037 A 
ATOM     57  C   UNL     1      -9.266   6.250   4.352  1.00  0.00     0.037 A 
ATOM     58  C   UNL     1     -13.260   3.652   0.086  1.00  0.00     0.049 A 
ATOM     59  C   UNL     1     -10.551   5.532   4.694  1.00  0.00     0.074 A 
ATOM     60  C   UNL     1     -12.347   2.663   0.416  1.00  0.00     0.029 A 
ATOM     61  N   UNL     1     -13.772   4.131   1.287  1.00  0.00    -0.354 N 
ATOM     62  N   UNL     1     -11.318   4.956   3.811  1.00  0.00    -0.248 NA
ATOM     63  C   UNL     1     -11.096   5.448   6.047  1.00  0.00     0.031 C 
ATOM     64  C   UNL     1     -12.262   2.595   1.827  1.00  0.00     0.029 A 
ATOM     65  C   UNL     1     -13.136   3.528   2.356  1.00  0.00     0.049 A 
ATOM     66  H   UNL     1     -14.486   4.805   1.365  1.00  0.00     0.167 HD
ATOM     67  C   UNL     1     -12.445   4.481   4.428  1.00  0.00     0.074 A 
ATOM     68  C   UNL     1     -12.248   4.788   5.831  1.00  0.00     0.031 C 
ATOM     69  C   UNL     1     -13.457   3.893   3.726  1.00  0.00     0.037 A 
BRANCH  56  70
ATOM     70  C   UNL     1     -14.064   3.711  -2.410  1.00  0.00     0.057 A 
ATOM     71  C   UNL     1     -14.070   2.307  -2.545  1.00  0.00     0.134 A 
ATOM     72  C   UNL     1     -14.538   4.394  -3.543  1.00  0.00     0.134 A 
ATOM     73  F   UNL     1     -13.789   1.496  -1.517  1.00  0.00    -0.206 F 
ATOM     74  C   UNL     1     -14.369   1.653  -3.748  1.00  0.00     0.040 A 
ATOM     75  C   UNL     1     -14.790   3.760  -4.770  1.00  0.00     0.040 A 
ATOM     76  F   UNL     1     -14.837   5.698  -3.498  1.00  0.00    -0.206 F 
ATOM     77  C   UNL     1     -14.684   2.382  -4.882  1.00  0.00     0.006 A 
ENDBRANCH  56  70
BRANCH  57  78
ATOM     78  C   UNL     1      -8.932   7.630   4.792  1.00  0.00     0.057 A 
ATOM     79  C   UNL     1      -7.583   7.965   5.006  1.00  0.00     0.134 A 
ATOM     80  C   UNL     1      -9.836   8.686   4.652  1.00  0.00     0.134 A 
ATOM     81  F   UNL     1      -6.661   6.998   5.143  1.00  0.00    -0.206 F 
ATOM     82  C   UNL     1      -7.137   9.289   4.972  1.00  0.00     0.040 A 
ATOM     83  C   UNL     1      -9.402  10.017   4.627  1.00  0.00     0.040 A 
ATOM     84  F   UNL     1     -11.135   8.448   4.421  1.00  0.00    -0.206 F 
ATOM     85  C   UNL     1      -8.045  10.318   4.749  1.00  0.00     0.006 A 
ENDBRANCH  57  78
BRANCH  69  86
ATOM     86  C   UNL     1     -14.805   3.532   4.287  1.00  0.00     0.057 A 
ATOM     87  C   UNL     1     -15.464   4.274   5.277  1.00  0.00     0.134 A 
ATOM     88  C   UNL     1     -15.553   2.477   3.722  1.00  0.00     0.134 A 
ATOM     89  F   UNL     1     -14.905   5.364   5.822  1.00  0.00    -0.206 F 
ATOM     90  C   UNL     1     -16.756   3.956   5.716  1.00  0.00     0.040 A 
ATOM     91  C   UNL     1     -16.860   2.180   4.117  1.00  0.00     0.040 A 
ATOM     92  F   UNL     1     -15.050   1.704   2.748  1.00  0.00    -0.206 F 
ATOM     93  C   UNL     1     -17.462   2.913   5.129  1.00  0.00     0.006 A 
ENDBRANCH  69  86
ENDBRANCH  43  44
ENDBRANCH  35  38
ENDBRANCH  33  34
ENDBRANCH  32  33
ENDBRANCH  31  32
ENDBRANCH   1  31
TORSDOF 15
