REMARK SMILES CC(C)(C)OC(=O)N1C[C@@H](C(=O)NCCCCNC(=O)c2ccc(-c3c4nc(c(-c5c(F)cccc5F)c5ccc([nH]5)c(-c5c(F)cccc5F)c5nc(c(-c6c(F)cccc6F)c6ccc3[nH]6)C=C5)C=C4)cc2)[C@@]2(C1)C(=O)Nc1ccccc12
REMARK SMILES IDX 15 1 14 2 13 3 11 4 12 5 10 7 8 8 9 9 76 10 75 11 77 12
REMARK SMILES IDX 85 13 78 14 79 15 80 16 84 17 81 19 83 20 82 21 6 22 7 23
REMARK SMILES IDX 5 24 2 25 1 26 3 27 4 28 16 29 17 30 18 31 19 32 20 34 21 35
REMARK SMILES IDX 22 36 74 37 23 38 73 39 24 40 25 41 26 42 67 43 27 44 72 45
REMARK SMILES IDX 66 46 68 47 28 48 71 49 65 50 64 51 29 53 55 54 38 55 54 56
REMARK SMILES IDX 39 57 42 58 53 59 69 60 40 61 41 62 52 64 70 65 43 66 30 67
REMARK SMILES IDX 31 68 36 69 32 70 33 71 35 72 37 73 34 74 56 75 57 76 62 77
REMARK SMILES IDX 58 78 59 79 61 80 63 81 60 82 44 83 45 84 50 85 46 86 47 87
REMARK SMILES IDX 49 88 51 89 48 90
REMARK H PARENT 13 6 79 18 18 33 68 52 42 63
REMARK Flexibility Score: inf
ROOT
ATOM      1  C   UNL     1       2.677   4.167  -4.495  1.00  0.00     0.023 C 
ENDROOT
BRANCH   1   2
ATOM      2  C   UNL     1       1.230   3.942  -4.939  1.00  0.00     0.116 C 
BRANCH   2   3
ATOM      3  N   UNL     1       1.052   4.014  -6.379  1.00  0.00    -0.356 N 
ATOM      4  C   UNL     1       0.989   3.099  -7.379  1.00  0.00     0.226 C 
ATOM      5  O   UNL     1       0.780   3.570  -8.505  1.00  0.00    -0.275 OA
ATOM      6  H   UNL     1       0.953   4.939  -6.704  1.00  0.00     0.163 HD
BRANCH   4   7
ATOM      7  C   UNL     1       1.174   1.591  -7.241  1.00  0.00     0.120 C 
ATOM      8  N   UNL     1       1.003   0.622  -5.086  1.00  0.00    -0.306 N 
ATOM      9  C   UNL     1       0.211   0.965  -6.250  1.00  0.00     0.138 C 
ATOM     10  C   UNL     1       2.442   0.776  -5.326  1.00  0.00     0.145 C 
ATOM     11  C   UNL     1       2.554   1.040  -6.846  1.00  0.00     0.107 C 
ATOM     12  C   UNL     1       2.738  -0.392  -7.450  1.00  0.00     0.237 C 
ATOM     13  C   UNL     1       3.772   1.733  -7.443  1.00  0.00    -0.006 A 
ATOM     14  O   UNL     1       1.971  -1.338  -7.368  1.00  0.00    -0.274 OA
ATOM     15  N   UNL     1       3.962  -0.441  -8.087  1.00  0.00    -0.325 N 
ATOM     16  C   UNL     1       4.558   0.801  -8.123  1.00  0.00     0.045 A 
ATOM     17  C   UNL     1       4.125   3.071  -7.554  1.00  0.00     0.007 A 
ATOM     18  H   UNL     1       4.359  -1.259  -8.466  1.00  0.00     0.169 HD
ATOM     19  C   UNL     1       5.700   1.123  -8.835  1.00  0.00     0.026 A 
ATOM     20  C   UNL     1       5.266   3.435  -8.284  1.00  0.00     0.000 A 
ATOM     21  C   UNL     1       6.057   2.466  -8.911  1.00  0.00     0.002 A 
BRANCH   8  22
ATOM     22  C   UNL     1       0.369   0.058  -4.002  1.00  0.00     0.410 C 
ATOM     23  O   UNL     1      -0.799  -0.302  -4.059  1.00  0.00    -0.224 OA
BRANCH  22  24
ATOM     24  O   UNL     1       1.143   0.014  -2.888  1.00  0.00    -0.444 OA
BRANCH  24  25
ATOM     25  C   UNL     1       0.639  -0.596  -1.659  1.00  0.00     0.106 C 
ATOM     26  C   UNL     1       1.412   0.076  -0.515  1.00  0.00     0.056 C 
ATOM     27  C   UNL     1       0.982  -2.088  -1.702  1.00  0.00     0.056 C 
ATOM     28  C   UNL     1      -0.861  -0.397  -1.372  1.00  0.00     0.056 C 
ENDBRANCH  24  25
ENDBRANCH  22  24
ENDBRANCH   8  22
ENDBRANCH   4   7
ENDBRANCH   2   3
ENDBRANCH   1   2
BRANCH   1  29
ATOM     29  C   UNL     1       3.205   5.590  -4.676  1.00  0.00     0.023 C 
BRANCH  29  30
ATOM     30  C   UNL     1       2.552   6.619  -3.767  1.00  0.00     0.116 C 
BRANCH  30  31
ATOM     31  N   UNL     1       2.686   6.296  -2.355  1.00  0.00    -0.352 N 
ATOM     32  C   UNL     1       2.821   7.148  -1.288  1.00  0.00     0.251 C 
ATOM     33  H   UNL     1       2.679   5.336  -2.135  1.00  0.00     0.163 HD
ATOM     34  O   UNL     1       3.035   6.708  -0.164  1.00  0.00    -0.269 OA
BRANCH  32  35
ATOM     35  C   UNL     1       2.749   8.603  -1.517  1.00  0.00     0.039 A 
ATOM     36  C   UNL     1       3.742   9.418  -0.970  1.00  0.00     0.014 A 
ATOM     37  C   UNL     1       1.726   9.150  -2.296  1.00  0.00     0.014 A 
ATOM     38  C   UNL     1       3.745  10.782  -1.258  1.00  0.00     0.010 A 
ATOM     39  C   UNL     1       1.770  10.495  -2.639  1.00  0.00     0.010 A 
ATOM     40  C   UNL     1       2.778  11.321  -2.121  1.00  0.00    -0.014 A 
BRANCH  40  41
ATOM     41  C   UNL     1       2.794  12.754  -2.492  1.00  0.00     0.031 A 
ATOM     42  C   UNL     1       1.669  13.648  -2.059  1.00  0.00     0.074 A 
ATOM     43  C   UNL     1       3.779  13.225  -3.279  1.00  0.00     0.049 A 
ATOM     44  N   UNL     1       1.450  14.903  -2.355  1.00  0.00    -0.248 NA
ATOM     45  C   UNL     1       0.633  13.041  -1.207  1.00  0.00     0.031 C 
ATOM     46  C   UNL     1       4.896  12.436  -3.803  1.00  0.00     0.029 A 
ATOM     47  N   UNL     1       3.991  14.480  -3.788  1.00  0.00    -0.354 N 
ATOM     48  C   UNL     1       0.247  15.229  -1.744  1.00  0.00     0.074 A 
ATOM     49  C   UNL     1      -0.243  14.028  -1.102  1.00  0.00     0.031 C 
ATOM     50  C   UNL     1       5.686  13.231  -4.543  1.00  0.00     0.029 A 
ATOM     51  C   UNL     1       5.114  14.573  -4.572  1.00  0.00     0.049 A 
ATOM     52  H   UNL     1       3.394  15.242  -3.608  1.00  0.00     0.167 HD
ATOM     53  C   UNL     1      -0.381  16.427  -1.704  1.00  0.00     0.037 A 
ATOM     54  C   UNL     1       5.621  15.625  -5.241  1.00  0.00     0.037 A 
ATOM     55  C   UNL     1       0.129  17.624  -2.315  1.00  0.00     0.049 A 
ATOM     56  C   UNL     1       4.915  16.949  -5.164  1.00  0.00     0.074 A 
ATOM     57  C   UNL     1      -0.395  18.904  -2.276  1.00  0.00     0.029 A 
ATOM     58  N   UNL     1       1.288  17.687  -3.075  1.00  0.00    -0.354 N 
ATOM     59  N   UNL     1       3.810  17.259  -4.531  1.00  0.00    -0.248 NA
ATOM     60  C   UNL     1       5.528  18.069  -5.891  1.00  0.00     0.031 C 
ATOM     61  C   UNL     1       0.432  19.737  -3.039  1.00  0.00     0.029 A 
ATOM     62  C   UNL     1       1.488  18.982  -3.523  1.00  0.00     0.049 A 
ATOM     63  H   UNL     1       1.879  16.924  -3.267  1.00  0.00     0.167 HD
ATOM     64  C   UNL     1       3.607  18.613  -4.763  1.00  0.00     0.074 A 
ATOM     65  C   UNL     1       4.710  19.066  -5.585  1.00  0.00     0.031 C 
ATOM     66  C   UNL     1       2.597  19.410  -4.336  1.00  0.00     0.037 A 
BRANCH  53  67
ATOM     67  C   UNL     1      -1.685  16.495  -0.967  1.00  0.00     0.057 A 
ATOM     68  C   UNL     1      -1.746  16.416   0.431  1.00  0.00     0.134 A 
ATOM     69  C   UNL     1      -2.891  16.660  -1.659  1.00  0.00     0.134 A 
ATOM     70  F   UNL     1      -0.628  16.241   1.151  1.00  0.00    -0.206 F 
ATOM     71  C   UNL     1      -2.963  16.471   1.113  1.00  0.00     0.040 A 
ATOM     72  C   UNL     1      -4.112  16.741  -0.986  1.00  0.00     0.040 A 
ATOM     73  F   UNL     1      -2.903  16.745  -2.997  1.00  0.00    -0.206 F 
ATOM     74  C   UNL     1      -4.150  16.639   0.403  1.00  0.00     0.006 A 
ENDBRANCH  53  67
BRANCH  54  75
ATOM     75  C   UNL     1       6.877  15.476  -6.014  1.00  0.00     0.057 A 
ATOM     76  C   UNL     1       8.072  16.047  -5.562  1.00  0.00     0.134 A 
ATOM     77  C   UNL     1       6.917  14.761  -7.217  1.00  0.00     0.134 A 
ATOM     78  F   UNL     1       8.091  16.756  -4.424  1.00  0.00    -0.206 F 
ATOM     79  C   UNL     1       9.259  15.927  -6.285  1.00  0.00     0.040 A 
ATOM     80  C   UNL     1       8.102  14.616  -7.940  1.00  0.00     0.040 A 
ATOM     81  F   UNL     1       5.807  14.182  -7.699  1.00  0.00    -0.206 F 
ATOM     82  C   UNL     1       9.277  15.206  -7.477  1.00  0.00     0.006 A 
ENDBRANCH  54  75
BRANCH  66  83
ATOM     83  C   UNL     1       2.657  20.854  -4.730  1.00  0.00     0.057 A 
ATOM     84  C   UNL     1       2.361  21.273  -6.033  1.00  0.00     0.134 A 
ATOM     85  C   UNL     1       2.976  21.837  -3.786  1.00  0.00     0.134 A 
ATOM     86  F   UNL     1       2.062  20.377  -6.984  1.00  0.00    -0.206 F 
ATOM     87  C   UNL     1       2.398  22.622  -6.388  1.00  0.00     0.040 A 
ATOM     88  C   UNL     1       2.995  23.191  -4.123  1.00  0.00     0.040 A 
ATOM     89  F   UNL     1       3.262  21.499  -2.520  1.00  0.00    -0.206 F 
ATOM     90  C   UNL     1       2.710  23.586  -5.429  1.00  0.00     0.006 A 
ENDBRANCH  66  83
ENDBRANCH  40  41
ENDBRANCH  32  35
ENDBRANCH  30  31
ENDBRANCH  29  30
ENDBRANCH   1  29
TORSDOF 14
