REMARK SMILES C[C@@H]1CCCN(c2cc(Br)ccc2/C=C/C(=O)NCCCCNC(=O)c2ccc(-c3c4nc(c(-c5c(F)cccc5F)c5ccc([nH]5)c(-c5c(F)cccc5F)c5nc(c(-c6c(F)cccc6F)c6ccc3[nH]6)C=C5)C=C4)cc2)C1
REMARK SMILES IDX 20 1 19 2 18 3 16 4 17 5 15 7 14 8 13 9 7 10 8 11 9 12 12 13
REMARK SMILES IDX 10 14 11 15 6 16 1 17 2 18 3 19 80 20 4 21 5 22 21 23 22 24
REMARK SMILES IDX 23 25 24 26 25 28 26 29 27 30 79 31 28 32 78 33 29 34 30 35
REMARK SMILES IDX 31 36 72 37 32 38 77 39 71 40 73 41 33 42 76 43 70 44 69 45
REMARK SMILES IDX 34 47 60 48 43 49 59 50 44 51 47 52 58 53 74 54 45 55 46 56
REMARK SMILES IDX 57 58 75 59 48 60 35 61 36 62 41 63 37 64 38 65 40 66 42 67
REMARK SMILES IDX 39 68 61 69 62 70 67 71 63 72 64 73 66 74 68 75 65 76 49 77
REMARK SMILES IDX 50 78 55 79 51 80 52 81 54 82 56 83 53 84
REMARK H PARENT 18 6 23 27 73 46 47 57
REMARK Flexibility Score: inf
ROOT
ATOM      1  C   UNL     1       0.403   2.531   3.764  1.00  0.00     0.023 C 
ENDROOT
BRANCH   1   2
ATOM      2  C   UNL     1      -0.329   3.656   3.031  1.00  0.00     0.116 C 
BRANCH   2   3
ATOM      3  N   UNL     1       0.336   4.925   3.233  1.00  0.00    -0.353 N 
ATOM      4  C   UNL     1       1.113   5.639   2.375  1.00  0.00     0.244 C 
ATOM      5  O   UNL     1       1.518   6.752   2.704  1.00  0.00    -0.270 OA
ATOM      6  H   UNL     1       0.208   5.330   4.122  1.00  0.00     0.163 HD
BRANCH   4   7
ATOM      7  C   UNL     1       1.394   5.138   1.010  1.00  0.00     0.072 C 
ATOM      8  C   UNL     1       1.841   3.906   0.719  1.00  0.00     0.016 C 
BRANCH   8   9
ATOM      9  C   UNL     1       2.161   3.440  -0.647  1.00  0.00    -0.002 A 
ATOM     10  C   UNL     1       1.894   2.106  -1.052  1.00  0.00     0.045 A 
ATOM     11  C   UNL     1       2.312   1.701  -2.332  1.00  0.00     0.042 A 
ATOM     12  C   UNL     1       2.978   2.580  -3.186  1.00  0.00     0.020 A 
ATOM     13  C   UNL     1       2.850   4.305  -1.518  1.00  0.00     0.011 A 
ATOM     14  Br  UNL     1       3.525   1.994  -4.897  1.00  0.00    -0.051 Br
ATOM     15  C   UNL     1       3.251   3.881  -2.785  1.00  0.00     0.016 A 
BRANCH  10  16
ATOM     16  N   UNL     1       1.242   1.189  -0.239  1.00  0.00    -0.371 N 
ATOM     17  C   UNL     1      -2.407   0.123  -0.041  1.00  0.00     0.009 C 
ATOM     18  C   UNL     1      -0.940   0.061  -0.467  1.00  0.00     0.005 C 
ATOM     19  C   UNL     1      -0.280  -1.213   0.082  1.00  0.00     0.007 C 
ATOM     20  C   UNL     1      -0.189   1.314   0.011  1.00  0.00     0.119 C 
ATOM     21  C   UNL     1       1.202  -1.260  -0.284  1.00  0.00     0.022 C 
ATOM     22  C   UNL     1       1.933  -0.014   0.208  1.00  0.00     0.116 C 
ENDBRANCH  10  16
ENDBRANCH   8   9
ENDBRANCH   4   7
ENDBRANCH   2   3
ENDBRANCH   1   2
BRANCH   1  23
ATOM     23  C   UNL     1       0.047   2.419   5.247  1.00  0.00     0.023 C 
BRANCH  23  24
ATOM     24  C   UNL     1      -1.418   2.102   5.532  1.00  0.00     0.116 C 
BRANCH  24  25
ATOM     25  N   UNL     1      -1.881   0.877   4.899  1.00  0.00    -0.352 N 
ATOM     26  C   UNL     1      -2.846  -0.001   5.335  1.00  0.00     0.251 C 
ATOM     27  H   UNL     1      -1.447   0.646   4.046  1.00  0.00     0.163 HD
ATOM     28  O   UNL     1      -3.050  -1.045   4.733  1.00  0.00    -0.269 OA
BRANCH  26  29
ATOM     29  C   UNL     1      -3.603   0.312   6.566  1.00  0.00     0.039 A 
ATOM     30  C   UNL     1      -3.722  -0.674   7.547  1.00  0.00     0.014 A 
ATOM     31  C   UNL     1      -4.164   1.576   6.764  1.00  0.00     0.014 A 
ATOM     32  C   UNL     1      -4.352  -0.372   8.755  1.00  0.00     0.010 A 
ATOM     33  C   UNL     1      -4.727   1.898   7.995  1.00  0.00     0.010 A 
ATOM     34  C   UNL     1      -4.829   0.927   9.002  1.00  0.00    -0.014 A 
BRANCH  34  35
ATOM     35  C   UNL     1      -5.432   1.281  10.310  1.00  0.00     0.031 A 
ATOM     36  C   UNL     1      -6.880   1.675  10.396  1.00  0.00     0.074 A 
ATOM     37  C   UNL     1      -4.661   1.298  11.415  1.00  0.00     0.049 A 
ATOM     38  N   UNL     1      -7.577   2.038  11.443  1.00  0.00    -0.248 NA
ATOM     39  C   UNL     1      -7.640   1.688   9.136  1.00  0.00     0.031 C 
ATOM     40  C   UNL     1      -3.229   0.994  11.452  1.00  0.00     0.029 A 
ATOM     41  N   UNL     1      -4.973   1.586  12.719  1.00  0.00    -0.354 N 
ATOM     42  C   UNL     1      -8.848   2.331  10.967  1.00  0.00     0.074 A 
ATOM     43  C   UNL     1      -8.813   2.160   9.531  1.00  0.00     0.031 C 
ATOM     44  C   UNL     1      -2.793   1.084  12.719  1.00  0.00     0.029 A 
ATOM     45  C   UNL     1      -3.905   1.479  13.577  1.00  0.00     0.049 A 
ATOM     46  H   UNL     1      -5.876   1.845  13.013  1.00  0.00     0.167 HD
ATOM     47  C   UNL     1      -9.953   2.684  11.666  1.00  0.00     0.037 A 
ATOM     48  C   UNL     1      -3.833   1.675  14.907  1.00  0.00     0.037 A 
ATOM     49  C   UNL     1      -9.993   2.830  13.097  1.00  0.00     0.049 A 
ATOM     50  C   UNL     1      -5.076   2.058  15.661  1.00  0.00     0.074 A 
ATOM     51  C   UNL     1     -11.077   3.125  13.905  1.00  0.00     0.029 A 
ATOM     52  N   UNL     1      -8.896   2.693  13.935  1.00  0.00    -0.354 N 
ATOM     53  N   UNL     1      -6.290   2.255  15.208  1.00  0.00    -0.248 NA
ATOM     54  C   UNL     1      -4.940   2.235  17.114  1.00  0.00     0.031 C 
ATOM     55  C   UNL     1     -10.629   3.206  15.227  1.00  0.00     0.029 A 
ATOM     56  C   UNL     1      -9.274   2.916  15.249  1.00  0.00     0.049 A 
ATOM     57  H   UNL     1      -7.984   2.471  13.639  1.00  0.00     0.167 HD
ATOM     58  C   UNL     1      -7.068   2.552  16.320  1.00  0.00     0.074 A 
ATOM     59  C   UNL     1      -6.190   2.492  17.471  1.00  0.00     0.031 C 
ATOM     60  C   UNL     1      -8.389   2.848  16.383  1.00  0.00     0.037 A 
BRANCH  47  61
ATOM     61  C   UNL     1     -11.214   2.928  10.888  1.00  0.00     0.057 A 
ATOM     62  C   UNL     1     -11.915   1.882  10.273  1.00  0.00     0.134 A 
ATOM     63  C   UNL     1     -11.750   4.217  10.778  1.00  0.00     0.134 A 
ATOM     64  F   UNL     1     -11.448   0.625  10.330  1.00  0.00    -0.206 F 
ATOM     65  C   UNL     1     -13.089   2.112   9.554  1.00  0.00     0.040 A 
ATOM     66  C   UNL     1     -12.938   4.456  10.084  1.00  0.00     0.040 A 
ATOM     67  F   UNL     1     -11.134   5.263  11.347  1.00  0.00    -0.206 F 
ATOM     68  C   UNL     1     -13.607   3.402   9.464  1.00  0.00     0.006 A 
ENDBRANCH  47  61
BRANCH  48  69
ATOM     69  C   UNL     1      -2.545   1.479  15.619  1.00  0.00     0.057 A 
ATOM     70  C   UNL     1      -2.358   0.395  16.485  1.00  0.00     0.134 A 
ATOM     71  C   UNL     1      -1.478   2.371  15.462  1.00  0.00     0.134 A 
ATOM     72  F   UNL     1      -3.350  -0.484  16.690  1.00  0.00    -0.206 F 
ATOM     73  C   UNL     1      -1.164   0.215  17.184  1.00  0.00     0.040 A 
ATOM     74  C   UNL     1      -0.270   2.190  16.136  1.00  0.00     0.040 A 
ATOM     75  F   UNL     1      -1.592   3.425  14.640  1.00  0.00    -0.206 F 
ATOM     76  C   UNL     1      -0.113   1.113  17.007  1.00  0.00     0.006 A 
ENDBRANCH  48  69
BRANCH  60  77
ATOM     77  C   UNL     1      -8.970   3.096  17.744  1.00  0.00     0.057 A 
ATOM     78  C   UNL     1      -8.692   4.264  18.466  1.00  0.00     0.134 A 
ATOM     79  C   UNL     1      -9.843   2.168  18.326  1.00  0.00     0.134 A 
ATOM     80  F   UNL     1      -7.853   5.186  17.970  1.00  0.00    -0.206 F 
ATOM     81  C   UNL     1      -9.241   4.487  19.729  1.00  0.00     0.040 A 
ATOM     82  C   UNL     1     -10.419   2.393  19.577  1.00  0.00     0.040 A 
ATOM     83  F   UNL     1     -10.158   1.033  17.684  1.00  0.00    -0.206 F 
ATOM     84  C   UNL     1     -10.112   3.552  20.285  1.00  0.00     0.006 A 
ENDBRANCH  60  77
ENDBRANCH  34  35
ENDBRANCH  26  29
ENDBRANCH  24  25
ENDBRANCH  23  24
ENDBRANCH   1  23
TORSDOF 13
