REMARK SMILES O=C(NCCCCNC(=O)c1ccc(S(=O)(=O)Cc2ncccn2)c(F)c1)c1ccc(-c2c3nc(c(-c4c(F)cccc4F)c4ccc([nH]4)c(-c4c(F)cccc4F)c4nc(c(-c5c(F)cccc5F)c5ccc2[nH]5)C=C4)C=C3)cc1
REMARK SMILES IDX 6 1 5 2 4 3 3 4 1 5 2 6 28 8 29 9 81 10 30 11 80 12 31 13
REMARK SMILES IDX 32 14 33 15 74 16 34 17 79 18 73 19 75 20 35 21 78 22 72 23
REMARK SMILES IDX 71 24 36 26 62 27 45 28 61 29 46 30 49 31 60 32 76 33 47 34
REMARK SMILES IDX 48 35 59 37 77 38 50 39 37 40 38 41 43 42 39 43 40 44 42 45
REMARK SMILES IDX 44 46 41 47 63 48 64 49 69 50 65 51 66 52 68 53 70 54 67 55
REMARK SMILES IDX 51 56 52 57 57 58 53 59 54 60 56 61 58 62 55 63 7 64 8 65
REMARK SMILES IDX 9 66 10 68 11 69 12 70 27 71 13 72 25 73 14 74 26 75 15 76
REMARK SMILES IDX 16 77 17 78 18 79 19 80 20 81 24 82 21 83 23 84 22 85
REMARK H PARENT 3 7 75 25 49 36 8 67
REMARK Flexibility Score: inf
ROOT
ATOM      1  C   UNL     1       4.449  -0.999   3.707  1.00  0.00     0.023 C 
ENDROOT
BRANCH   1   2
ATOM      2  C   UNL     1       4.933  -0.053   2.606  1.00  0.00     0.023 C 
BRANCH   2   3
ATOM      3  C   UNL     1       4.607  -0.488   1.181  1.00  0.00     0.116 C 
BRANCH   3   4
ATOM      4  N   UNL     1       3.179  -0.619   0.947  1.00  0.00    -0.352 N 
ATOM      5  O   UNL     1       1.163  -0.127   0.071  1.00  0.00    -0.269 OA
ATOM      6  C   UNL     1       2.383   0.000   0.016  1.00  0.00     0.251 C 
ATOM      7  H   UNL     1       2.712  -1.245   1.547  1.00  0.00     0.163 HD
BRANCH   6   8
ATOM      8  C   UNL     1       2.987   0.841  -1.039  1.00  0.00     0.039 A 
ATOM      9  C   UNL     1       4.092   0.400  -1.772  1.00  0.00     0.014 A 
ATOM     10  C   UNL     1       2.411   2.084  -1.315  1.00  0.00     0.014 A 
ATOM     11  C   UNL     1       4.693   1.248  -2.698  1.00  0.00     0.010 A 
ATOM     12  C   UNL     1       2.976   2.908  -2.289  1.00  0.00     0.010 A 
ATOM     13  C   UNL     1       4.136   2.506  -2.971  1.00  0.00    -0.014 A 
BRANCH  13  14
ATOM     14  C   UNL     1       4.733   3.381  -4.007  1.00  0.00     0.031 A 
ATOM     15  C   UNL     1       5.369   4.688  -3.636  1.00  0.00     0.074 A 
ATOM     16  C   UNL     1       4.669   3.002  -5.297  1.00  0.00     0.049 A 
ATOM     17  N   UNL     1       5.863   5.615  -4.417  1.00  0.00    -0.248 NA
ATOM     18  C   UNL     1       5.457   5.000  -2.201  1.00  0.00     0.031 C 
ATOM     19  C   UNL     1       4.076   1.754  -5.778  1.00  0.00     0.029 A 
ATOM     20  N   UNL     1       5.099   3.631  -6.438  1.00  0.00    -0.354 N 
ATOM     21  C   UNL     1       6.296   6.630  -3.574  1.00  0.00     0.074 A 
ATOM     22  C   UNL     1       5.995   6.213  -2.221  1.00  0.00     0.031 C 
ATOM     23  C   UNL     1       4.191   1.701  -7.113  1.00  0.00     0.029 A 
ATOM     24  C   UNL     1       4.812   2.934  -7.585  1.00  0.00     0.049 A 
ATOM     25  H   UNL     1       5.566   4.497  -6.434  1.00  0.00     0.167 HD
ATOM     26  C   UNL     1       6.893   7.799  -3.904  1.00  0.00     0.037 A 
ATOM     27  C   UNL     1       4.998   3.261  -8.877  1.00  0.00     0.037 A 
ATOM     28  C   UNL     1       7.211   8.195  -5.251  1.00  0.00     0.049 A 
ATOM     29  C   UNL     1       5.622   4.580  -9.222  1.00  0.00     0.074 A 
ATOM     30  C   UNL     1       7.877   9.331  -5.679  1.00  0.00     0.029 A 
ATOM     31  N   UNL     1       6.878   7.474  -6.388  1.00  0.00    -0.354 N 
ATOM     32  N   UNL     1       6.057   5.517  -8.415  1.00  0.00    -0.248 NA
ATOM     33  C   UNL     1       5.772   4.895 -10.649  1.00  0.00     0.031 C 
ATOM     34  C   UNL     1       7.904   9.320  -7.076  1.00  0.00     0.029 A 
ATOM     35  C   UNL     1       7.295   8.157  -7.518  1.00  0.00     0.049 A 
ATOM     36  H   UNL     1       6.414   6.606  -6.390  1.00  0.00     0.167 HD
ATOM     37  C   UNL     1       6.543   6.527  -9.232  1.00  0.00     0.074 A 
ATOM     38  C   UNL     1       6.354   6.088 -10.600  1.00  0.00     0.031 C 
ATOM     39  C   UNL     1       7.098   7.710  -8.874  1.00  0.00     0.037 A 
BRANCH  26  40
ATOM     40  C   UNL     1       7.227   8.751  -2.793  1.00  0.00     0.057 A 
ATOM     41  C   UNL     1       6.509   9.944  -2.642  1.00  0.00     0.134 A 
ATOM     42  C   UNL     1       8.288   8.518  -1.911  1.00  0.00     0.134 A 
ATOM     43  F   UNL     1       5.486  10.232  -3.460  1.00  0.00    -0.206 F 
ATOM     44  C   UNL     1       6.839  10.874  -1.655  1.00  0.00     0.040 A 
ATOM     45  C   UNL     1       8.614   9.430  -0.906  1.00  0.00     0.040 A 
ATOM     46  F   UNL     1       9.009   7.389  -1.997  1.00  0.00    -0.206 F 
ATOM     47  C   UNL     1       7.893  10.616  -0.781  1.00  0.00     0.006 A 
ENDBRANCH  26  40
BRANCH  27  48
ATOM     48  C   UNL     1       4.571   2.304  -9.924  1.00  0.00     0.057 A 
ATOM     49  C   UNL     1       3.215   2.077 -10.191  1.00  0.00     0.134 A 
ATOM     50  C   UNL     1       5.507   1.526 -10.611  1.00  0.00     0.134 A 
ATOM     51  F   UNL     1       2.272   2.785  -9.552  1.00  0.00    -0.206 F 
ATOM     52  C   UNL     1       2.803   1.086 -11.082  1.00  0.00     0.040 A 
ATOM     53  C   UNL     1       5.109   0.544 -11.520  1.00  0.00     0.040 A 
ATOM     54  F   UNL     1       6.819   1.707 -10.403  1.00  0.00    -0.206 F 
ATOM     55  C   UNL     1       3.753   0.314 -11.748  1.00  0.00     0.006 A 
ENDBRANCH  27  48
BRANCH  39  56
ATOM     56  C   UNL     1       7.559   8.622  -9.969  1.00  0.00     0.057 A 
ATOM     57  C   UNL     1       8.925   8.789 -10.230  1.00  0.00     0.134 A 
ATOM     58  C   UNL     1       6.657   9.413 -10.690  1.00  0.00     0.134 A 
ATOM     59  F   UNL     1       9.838   8.065  -9.565  1.00  0.00    -0.206 F 
ATOM     60  C   UNL     1       9.379   9.730 -11.154  1.00  0.00     0.040 A 
ATOM     61  C   UNL     1       7.099  10.345 -11.630  1.00  0.00     0.040 A 
ATOM     62  F   UNL     1       5.336   9.291 -10.491  1.00  0.00    -0.206 F 
ATOM     63  C   UNL     1       8.465  10.513 -11.855  1.00  0.00     0.006 A 
ENDBRANCH  39  56
ENDBRANCH  13  14
ENDBRANCH   6   8
ENDBRANCH   3   4
ENDBRANCH   2   3
ENDBRANCH   1   2
BRANCH   1  64
ATOM     64  C   UNL     1       4.859  -2.461   3.536  1.00  0.00     0.116 C 
BRANCH  64  65
ATOM     65  N   UNL     1       6.304  -2.626   3.513  1.00  0.00    -0.352 N 
ATOM     66  C   UNL     1       7.092  -3.371   4.350  1.00  0.00     0.251 C 
ATOM     67  H   UNL     1       6.779  -2.137   2.803  1.00  0.00     0.163 HD
ATOM     68  O   UNL     1       8.314  -3.335   4.279  1.00  0.00    -0.269 OA
BRANCH  66  69
ATOM     69  C   UNL     1       6.446  -4.223   5.359  1.00  0.00     0.042 A 
ATOM     70  C   UNL     1       5.745  -5.367   4.960  1.00  0.00     0.015 A 
ATOM     71  C   UNL     1       6.520  -3.853   6.702  1.00  0.00     0.054 A 
ATOM     72  C   UNL     1       5.098  -6.141   5.923  1.00  0.00     0.024 A 
ATOM     73  C   UNL     1       5.843  -4.614   7.649  1.00  0.00     0.142 A 
ATOM     74  C   UNL     1       5.151  -5.758   7.271  1.00  0.00     0.103 A 
ATOM     75  F   UNL     1       5.839  -4.190   8.919  1.00  0.00    -0.206 F 
BRANCH  74  76
ATOM     76  S   UNL     1       4.250  -6.701   8.461  1.00  0.00     0.188 S 
ATOM     77  O   UNL     1       3.028  -5.942   8.682  1.00  0.00    -0.223 OA
ATOM     78  O   UNL     1       4.145  -8.047   7.922  1.00  0.00    -0.223 OA
BRANCH  76  79
ATOM     79  C   UNL     1       5.115  -6.766   9.993  1.00  0.00     0.219 C 
BRANCH  79  80
ATOM     80  C   UNL     1       6.504  -7.254   9.774  1.00  0.00     0.143 A 
ATOM     81  N   UNL     1       7.494  -6.340   9.791  1.00  0.00    -0.240 NA
ATOM     82  N   UNL     1       6.715  -8.580   9.702  1.00  0.00    -0.240 NA
ATOM     83  C   UNL     1       8.757  -6.801   9.716  1.00  0.00     0.115 A 
ATOM     84  C   UNL     1       7.995  -8.991   9.617  1.00  0.00     0.115 A 
ATOM     85  C   UNL     1       9.069  -8.134   9.625  1.00  0.00     0.040 A 
ENDBRANCH  79  80
ENDBRANCH  76  79
ENDBRANCH  74  76
ENDBRANCH  66  69
ENDBRANCH  64  65
ENDBRANCH   1  64
TORSDOF 14
