REMARK SMILES O=C(NCCCCNC(=O)[C@H]1[C@H]2CC[C@H](C2)[C@@H]1C(=O)N[C@H]1CCCc2ccccc21)c1ccc(-c2c3nc(c(-c4c(F)cccc4F)c4ccc([nH]4)c(-c4c(F)cccc4F)c4nc(c(-c5c(F)cccc5F)c5ccc2[nH]5)C=C4)C=C3)cc1
REMARK SMILES IDX 5 1 4 2 3 3 1 4 2 5 31 7 32 8 84 9 33 10 83 11 34 12 35 13
REMARK SMILES IDX 36 14 77 15 37 16 82 17 76 18 78 19 38 20 81 21 75 22 74 23
REMARK SMILES IDX 39 25 65 26 48 27 64 28 49 29 52 30 63 31 79 32 50 33 51 34
REMARK SMILES IDX 62 36 80 37 53 38 40 39 41 40 46 41 42 42 43 43 45 44 47 45
REMARK SMILES IDX 44 46 66 47 67 48 72 49 68 50 69 51 71 52 73 53 70 54 54 55
REMARK SMILES IDX 55 56 60 57 56 58 57 59 59 60 61 61 58 62 6 63 7 64 8 65
REMARK SMILES IDX 9 66 10 68 11 69 12 70 17 71 13 72 16 73 15 74 14 75 18 76
REMARK SMILES IDX 19 77 20 78 21 80 22 81 30 82 23 83 25 84 29 85 24 86 26 87
REMARK SMILES IDX 28 88 27 89
REMARK H PARENT 3 6 78 24 52 35 8 67 20 79
REMARK Flexibility Score: inf
ROOT
ATOM      1  C   UNL     1       9.690  10.221  -8.550  1.00  0.00     0.023 C 
ENDROOT
BRANCH   1   2
ATOM      2  C   UNL     1      10.331  10.146  -9.918  1.00  0.00     0.116 C 
BRANCH   2   3
ATOM      3  N   UNL     1       9.537   9.425 -10.904  1.00  0.00    -0.352 N 
ATOM      4  O   UNL     1       8.743   9.059 -13.004  1.00  0.00    -0.269 OA
ATOM      5  C   UNL     1       9.495   9.663 -12.262  1.00  0.00     0.251 C 
ATOM      6  H   UNL     1       8.973   8.693 -10.566  1.00  0.00     0.163 HD
BRANCH   5   7
ATOM      7  C   UNL     1      10.379  10.726 -12.777  1.00  0.00     0.039 A 
ATOM      8  C   UNL     1      11.736  10.690 -12.454  1.00  0.00     0.014 A 
ATOM      9  C   UNL     1       9.820  11.826 -13.428  1.00  0.00     0.014 A 
ATOM     10  C   UNL     1      12.500  11.830 -12.629  1.00  0.00     0.010 A 
ATOM     11  C   UNL     1      10.625  12.932 -13.709  1.00  0.00     0.010 A 
ATOM     12  C   UNL     1      11.961  12.955 -13.280  1.00  0.00    -0.014 A 
BRANCH  12  13
ATOM     13  C   UNL     1      12.859  14.099 -13.566  1.00  0.00     0.031 A 
ATOM     14  C   UNL     1      12.632  15.454 -12.962  1.00  0.00     0.074 A 
ATOM     15  C   UNL     1      13.932  13.866 -14.345  1.00  0.00     0.049 A 
ATOM     16  N   UNL     1      13.346  16.543 -13.104  1.00  0.00    -0.248 NA
ATOM     17  C   UNL     1      11.454  15.620 -12.097  1.00  0.00     0.031 C 
ATOM     18  C   UNL     1      14.237  12.585 -14.992  1.00  0.00     0.029 A 
ATOM     19  N   UNL     1      14.980  14.671 -14.698  1.00  0.00    -0.354 N 
ATOM     20  C   UNL     1      12.696  17.526 -12.369  1.00  0.00     0.074 A 
ATOM     21  C   UNL     1      11.519  16.910 -11.793  1.00  0.00     0.031 C 
ATOM     22  C   UNL     1      15.426  12.670 -15.600  1.00  0.00     0.029 A 
ATOM     23  C   UNL     1      15.927  14.030 -15.458  1.00  0.00     0.049 A 
ATOM     24  H   UNL     1      15.049  15.617 -14.433  1.00  0.00     0.167 HD
ATOM     25  C   UNL     1      13.056  18.820 -12.194  1.00  0.00     0.037 A 
ATOM     26  C   UNL     1      17.067  14.489 -16.001  1.00  0.00     0.037 A 
ATOM     27  C   UNL     1      14.240  19.416 -12.763  1.00  0.00     0.049 A 
ATOM     28  C   UNL     1      17.441  15.921 -15.780  1.00  0.00     0.074 A 
ATOM     29  C   UNL     1      14.691  20.720 -12.651  1.00  0.00     0.029 A 
ATOM     30  N   UNL     1      15.165  18.741 -13.546  1.00  0.00    -0.354 N 
ATOM     31  N   UNL     1      16.807  16.841 -15.094  1.00  0.00    -0.248 NA
ATOM     32  C   UNL     1      18.680  16.383 -16.415  1.00  0.00     0.031 C 
ATOM     33  C   UNL     1      15.874  20.840 -13.389  1.00  0.00     0.029 A 
ATOM     34  C   UNL     1      16.181  19.602 -13.929  1.00  0.00     0.049 A 
ATOM     35  H   UNL     1      15.108  17.789 -13.794  1.00  0.00     0.167 HD
ATOM     36  C   UNL     1      17.567  17.994 -15.217  1.00  0.00     0.074 A 
ATOM     37  C   UNL     1      18.728  17.645 -16.013  1.00  0.00     0.031 C 
ATOM     38  C   UNL     1      17.320  19.233 -14.729  1.00  0.00     0.037 A 
BRANCH  25  39
ATOM     39  C   UNL     1      12.156  19.690 -11.364  1.00  0.00     0.057 A 
ATOM     40  C   UNL     1      12.098  19.575  -9.970  1.00  0.00     0.134 A 
ATOM     41  C   UNL     1      11.384  20.695 -11.961  1.00  0.00     0.134 A 
ATOM     42  F   UNL     1      12.804  18.627  -9.336  1.00  0.00    -0.206 F 
ATOM     43  C   UNL     1      11.296  20.421  -9.200  1.00  0.00     0.040 A 
ATOM     44  C   UNL     1      10.594  21.560 -11.201  1.00  0.00     0.040 A 
ATOM     45  F   UNL     1      11.397  20.865 -13.292  1.00  0.00    -0.206 F 
ATOM     46  C   UNL     1      10.546  21.422  -9.815  1.00  0.00     0.006 A 
ENDBRANCH  25  39
BRANCH  26  47
ATOM     47  C   UNL     1      17.908  13.581 -16.816  1.00  0.00     0.057 A 
ATOM     48  C   UNL     1      19.158  13.146 -16.364  1.00  0.00     0.134 A 
ATOM     49  C   UNL     1      17.464  13.099 -18.054  1.00  0.00     0.134 A 
ATOM     50  F   UNL     1      19.642  13.583 -15.192  1.00  0.00    -0.206 F 
ATOM     51  C   UNL     1      19.942  12.273 -17.119  1.00  0.00     0.040 A 
ATOM     52  C   UNL     1      18.223  12.203 -18.805  1.00  0.00     0.040 A 
ATOM     53  F   UNL     1      16.267  13.468 -18.534  1.00  0.00    -0.206 F 
ATOM     54  C   UNL     1      19.470  11.792 -18.340  1.00  0.00     0.006 A 
ENDBRANCH  26  47
BRANCH  38  55
ATOM     55  C   UNL     1      18.337  20.287 -15.045  1.00  0.00     0.057 A 
ATOM     56  C   UNL     1      18.446  20.838 -16.328  1.00  0.00     0.134 A 
ATOM     57  C   UNL     1      19.217  20.748 -14.060  1.00  0.00     0.134 A 
ATOM     58  F   UNL     1      17.642  20.422 -17.318  1.00  0.00    -0.206 F 
ATOM     59  C   UNL     1      19.418  21.793 -16.628  1.00  0.00     0.040 A 
ATOM     60  C   UNL     1      20.178  21.719 -14.342  1.00  0.00     0.040 A 
ATOM     61  F   UNL     1      19.160  20.261 -12.811  1.00  0.00    -0.206 F 
ATOM     62  C   UNL     1      20.286  22.238 -15.632  1.00  0.00     0.006 A 
ENDBRANCH  38  55
ENDBRANCH  12  13
ENDBRANCH   5   7
ENDBRANCH   2   3
ENDBRANCH   1   2
BRANCH   1  63
ATOM     63  C   UNL     1       9.418   8.863  -7.921  1.00  0.00     0.023 C 
BRANCH  63  64
ATOM     64  C   UNL     1      10.671   8.050  -7.592  1.00  0.00     0.116 C 
BRANCH  64  65
ATOM     65  N   UNL     1      11.282   8.524  -6.376  1.00  0.00    -0.356 N 
ATOM     66  C   UNL     1      10.977   8.285  -5.078  1.00  0.00     0.224 C 
ATOM     67  H   UNL     1      12.052   9.122  -6.511  1.00  0.00     0.163 HD
ATOM     68  O   UNL     1      11.606   8.963  -4.257  1.00  0.00    -0.275 OA
BRANCH  66  69
ATOM     69  C   UNL     1      10.046   7.162  -4.603  1.00  0.00     0.094 C 
ATOM     70  C   UNL     1       9.497   7.531  -3.189  1.00  0.00     0.002 C 
ATOM     71  C   UNL     1       8.761   6.729  -5.332  1.00  0.00     0.094 C 
ATOM     72  C   UNL     1       8.538   8.736  -3.272  1.00  0.00     0.005 C 
ATOM     73  C   UNL     1       8.521   6.394  -2.930  1.00  0.00     0.009 C 
ATOM     74  C   UNL     1       7.710   6.668  -4.197  1.00  0.00     0.002 C 
ATOM     75  C   UNL     1       7.278   8.130  -3.917  1.00  0.00     0.005 C 
BRANCH  71  76
ATOM     76  C   UNL     1       8.783   5.561  -6.340  1.00  0.00     0.224 C 
ATOM     77  O   UNL     1       8.386   5.785  -7.495  1.00  0.00    -0.275 OA
ATOM     78  N   UNL     1       9.217   4.299  -6.136  1.00  0.00    -0.349 N 
ATOM     79  H   UNL     1       9.433   3.808  -6.962  1.00  0.00     0.164 HD
BRANCH  78  80
ATOM     80  C   UNL     1       9.422   3.538  -4.927  1.00  0.00     0.112 C 
ATOM     81  C   UNL     1       8.914   2.099  -5.061  1.00  0.00     0.030 C 
ATOM     82  C   UNL     1      10.838   3.508  -4.394  1.00  0.00    -0.022 A 
ATOM     83  C   UNL     1       8.859   1.476  -3.665  1.00  0.00     0.007 C 
ATOM     84  C   UNL     1      11.100   2.696  -3.274  1.00  0.00    -0.043 A 
ATOM     85  C   UNL     1      11.865   4.325  -4.885  1.00  0.00     0.006 A 
ATOM     86  C   UNL     1      10.206   1.524  -2.934  1.00  0.00     0.036 C 
ATOM     87  C   UNL     1      12.276   2.894  -2.538  1.00  0.00     0.004 A 
ATOM     88  C   UNL     1      13.034   4.515  -4.148  1.00  0.00     0.000 A 
ATOM     89  C   UNL     1      13.217   3.836  -2.949  1.00  0.00     0.000 A 
ENDBRANCH  78  80
ENDBRANCH  71  76
ENDBRANCH  66  69
ENDBRANCH  64  65
ENDBRANCH  63  64
ENDBRANCH   1  63
TORSDOF 13
