REMARK SMILES O=C(NCCCCNC(=O)C1(CCc2ccc3c(c2)CCO3)CCCCCC1)c1ccc(-c2c3nc(c(-c4c(F)cccc4F)c4ccc([nH]4)c(-c4c(F)cccc4F)c4nc(c(-c5c(F)cccc5F)c5ccc2[nH]5)C=C4)C=C3)cc1
REMARK SMILES IDX 6 1 5 2 4 3 3 4 1 5 2 6 29 8 30 9 82 10 31 11 81 12 32 13
REMARK SMILES IDX 33 14 34 15 75 16 35 17 80 18 74 19 76 20 36 21 79 22 73 23
REMARK SMILES IDX 72 24 37 26 63 27 46 28 62 29 47 30 50 31 61 32 77 33 48 34
REMARK SMILES IDX 49 35 60 37 78 38 51 39 38 40 39 41 44 42 40 43 41 44 43 45
REMARK SMILES IDX 45 46 42 47 64 48 65 49 70 50 66 51 67 52 69 53 71 54 68 55
REMARK SMILES IDX 52 56 53 57 58 58 54 59 55 60 57 61 59 62 56 63 7 64 8 65
REMARK SMILES IDX 9 66 10 68 11 69 12 70 13 71 14 72 15 73 19 74 16 75 18 76
REMARK SMILES IDX 17 77 20 78 22 79 21 80 23 81 24 82 25 83 28 85 27 86 26 87
REMARK H PARENT 3 7 76 25 50 36 8 67
REMARK Flexibility Score: 100.00
ROOT
ATOM      1  C   UNL     1       4.229  -3.750  -0.995  1.00  0.00     0.023 C 
ENDROOT
BRANCH   1   2
ATOM      2  C   UNL     1       4.665  -2.813   0.131  1.00  0.00     0.023 C 
BRANCH   2   3
ATOM      3  C   UNL     1       4.452  -1.326  -0.142  1.00  0.00     0.116 C 
BRANCH   3   4
ATOM      4  N   UNL     1       3.074  -0.984  -0.472  1.00  0.00    -0.352 N 
ATOM      5  O   UNL     1       1.153   0.212  -0.337  1.00  0.00    -0.269 OA
ATOM      6  C   UNL     1       2.339   0.097  -0.045  1.00  0.00     0.251 C 
ATOM      7  H   UNL     1       2.610  -1.606  -1.079  1.00  0.00     0.163 HD
BRANCH   6   8
ATOM      8  C   UNL     1       3.000   1.104   0.805  1.00  0.00     0.039 A 
ATOM      9  C   UNL     1       4.219   1.656   0.404  1.00  0.00     0.014 A 
ATOM     10  C   UNL     1       2.444   1.423   2.046  1.00  0.00     0.014 A 
ATOM     11  C   UNL     1       4.960   2.398   1.312  1.00  0.00     0.010 A 
ATOM     12  C   UNL     1       3.159   2.236   2.928  1.00  0.00     0.010 A 
ATOM     13  C   UNL     1       4.443   2.688   2.586  1.00  0.00    -0.014 A 
BRANCH  13  14
ATOM     14  C   UNL     1       5.271   3.470   3.535  1.00  0.00     0.031 A 
ATOM     15  C   UNL     1       5.800   2.847   4.798  1.00  0.00     0.074 A 
ATOM     16  C   UNL     1       5.595   4.737   3.217  1.00  0.00     0.049 A 
ATOM     17  N   UNL     1       6.577   3.373   5.712  1.00  0.00    -0.248 NA
ATOM     18  C   UNL     1       5.402   1.459   5.078  1.00  0.00     0.031 C 
ATOM     19  C   UNL     1       5.137   5.446   2.020  1.00  0.00     0.029 A 
ATOM     20  N   UNL     1       6.405   5.641   3.852  1.00  0.00    -0.354 N 
ATOM     21  C   UNL     1       6.735   2.396   6.687  1.00  0.00     0.074 A 
ATOM     22  C   UNL     1       5.962   1.248   6.262  1.00  0.00     0.031 C 
ATOM     23  C   UNL     1       5.719   6.653   1.977  1.00  0.00     0.029 A 
ATOM     24  C   UNL     1       6.545   6.823   3.167  1.00  0.00     0.049 A 
ATOM     25  H   UNL     1       6.844   5.462   4.714  1.00  0.00     0.167 HD
ATOM     26  C   UNL     1       7.463   2.450   7.828  1.00  0.00     0.037 A 
ATOM     27  C   UNL     1       7.258   7.923   3.464  1.00  0.00     0.037 A 
ATOM     28  C   UNL     1       8.260   3.582   8.229  1.00  0.00     0.049 A 
ATOM     29  C   UNL     1       8.067   7.950   4.726  1.00  0.00     0.074 A 
ATOM     30  C   UNL     1       9.062   3.720   9.349  1.00  0.00     0.029 A 
ATOM     31  N   UNL     1       8.361   4.768   7.519  1.00  0.00    -0.354 N 
ATOM     32  N   UNL     1       8.221   7.011   5.628  1.00  0.00    -0.248 NA
ATOM     33  C   UNL     1       8.799   9.190   5.014  1.00  0.00     0.031 C 
ATOM     34  C   UNL     1       9.622   5.002   9.333  1.00  0.00     0.029 A 
ATOM     35  C   UNL     1       9.199   5.649   8.183  1.00  0.00     0.049 A 
ATOM     36  H   UNL     1       7.903   4.958   6.667  1.00  0.00     0.167 HD
ATOM     37  C   UNL     1       9.079   7.539   6.581  1.00  0.00     0.074 A 
ATOM     38  C   UNL     1       9.427   8.874   6.138  1.00  0.00     0.031 C 
ATOM     39  C   UNL     1       9.537   6.971   7.723  1.00  0.00     0.037 A 
BRANCH  26  40
ATOM     40  C   UNL     1       7.419   1.259   8.739  1.00  0.00     0.057 A 
ATOM     41  C   UNL     1       8.087   0.066   8.436  1.00  0.00     0.134 A 
ATOM     42  C   UNL     1       6.734   1.323   9.960  1.00  0.00     0.134 A 
ATOM     43  F   UNL     1       8.751  -0.066   7.278  1.00  0.00    -0.206 F 
ATOM     44  C   UNL     1       8.061  -1.026   9.306  1.00  0.00     0.040 A 
ATOM     45  C   UNL     1       6.718   0.246  10.847  1.00  0.00     0.040 A 
ATOM     46  F   UNL     1       6.078   2.438  10.314  1.00  0.00    -0.206 F 
ATOM     47  C   UNL     1       7.380  -0.935  10.519  1.00  0.00     0.006 A 
ENDBRANCH  26  40
BRANCH  27  48
ATOM     48  C   UNL     1       7.247   9.079   2.536  1.00  0.00     0.057 A 
ATOM     49  C   UNL     1       8.374   9.404   1.774  1.00  0.00     0.134 A 
ATOM     50  C   UNL     1       6.104   9.870   2.373  1.00  0.00     0.134 A 
ATOM     51  F   UNL     1       9.502   8.689   1.899  1.00  0.00    -0.206 F 
ATOM     52  C   UNL     1       8.370  10.482   0.890  1.00  0.00     0.040 A 
ATOM     53  C   UNL     1       6.077  10.937   1.475  1.00  0.00     0.040 A 
ATOM     54  F   UNL     1       4.989   9.601   3.069  1.00  0.00    -0.206 F 
ATOM     55  C   UNL     1       7.215  11.248   0.733  1.00  0.00     0.006 A 
ENDBRANCH  27  48
BRANCH  39  56
ATOM     56  C   UNL     1      10.485   7.785   8.550  1.00  0.00     0.057 A 
ATOM     57  C   UNL     1      10.048   8.871   9.317  1.00  0.00     0.134 A 
ATOM     58  C   UNL     1      11.849   7.470   8.586  1.00  0.00     0.134 A 
ATOM     59  F   UNL     1       8.756   9.232   9.312  1.00  0.00    -0.206 F 
ATOM     60  C   UNL     1      10.940   9.633  10.073  1.00  0.00     0.040 A 
ATOM     61  C   UNL     1      12.747   8.211   9.355  1.00  0.00     0.040 A 
ATOM     62  F   UNL     1      12.329   6.437   7.876  1.00  0.00    -0.206 F 
ATOM     63  C   UNL     1      12.293   9.301  10.096  1.00  0.00     0.006 A 
ENDBRANCH  39  56
ENDBRANCH  13  14
ENDBRANCH   6   8
ENDBRANCH   3   4
ENDBRANCH   2   3
ENDBRANCH   1   2
BRANCH   1  64
ATOM     64  C   UNL     1       4.917  -3.472  -2.325  1.00  0.00     0.116 C 
BRANCH  64  65
ATOM     65  N   UNL     1       6.264  -4.002  -2.354  1.00  0.00    -0.356 N 
ATOM     66  C   UNL     1       6.908  -4.861  -3.185  1.00  0.00     0.226 C 
ATOM     67  H   UNL     1       6.830  -3.670  -1.620  1.00  0.00     0.163 HD
ATOM     68  O   UNL     1       8.117  -4.992  -2.957  1.00  0.00    -0.274 OA
BRANCH  66  69
ATOM     69  C   UNL     1       6.234  -5.595  -4.380  1.00  0.00     0.049 C 
BRANCH  69  70
ATOM     70  C   UNL     1       6.234  -4.691  -5.669  1.00  0.00     0.021 C 
BRANCH  70  71
ATOM     71  C   UNL     1       5.564  -3.303  -5.691  1.00  0.00     0.036 C 
BRANCH  71  72
ATOM     72  C   UNL     1       6.263  -2.113  -5.064  1.00  0.00    -0.047 A 
ATOM     73  C   UNL     1       7.609  -2.134  -4.643  1.00  0.00     0.007 A 
ATOM     74  C   UNL     1       5.521  -0.926  -4.887  1.00  0.00     0.011 A 
ATOM     75  C   UNL     1       8.175  -1.055  -3.956  1.00  0.00     0.047 A 
ATOM     76  C   UNL     1       6.106   0.148  -4.235  1.00  0.00    -0.002 A 
ATOM     77  C   UNL     1       7.401   0.065  -3.757  1.00  0.00     0.122 A 
ATOM     78  C   UNL     1       5.527   1.455  -3.858  1.00  0.00     0.081 C 
ATOM     79  O   UNL     1       7.809   1.173  -3.064  1.00  0.00    -0.493 OA
ATOM     80  C   UNL     1       6.789   2.156  -3.348  1.00  0.00     0.234 C 
ENDBRANCH  71  72
ENDBRANCH  70  71
ENDBRANCH  69  70
BRANCH  69  81
ATOM     81  C   UNL     1       7.186  -6.787  -4.764  1.00  0.00     0.017 C 
BRANCH  81  82
ATOM     82  C   UNL     1       7.303  -7.913  -3.734  1.00  0.00     0.001 C 
BRANCH  82  83
ATOM     83  C   UNL     1       6.308  -9.040  -3.972  1.00  0.00     0.000 CG0
ATOM     84  G   UNL     1       4.860  -8.653  -3.713  1.00  0.00     0.000 G0
ENDBRANCH  82  83
ENDBRANCH  81  82
ENDBRANCH  69  81
BRANCH  69  85
ATOM     85  C   UNL     1       4.814  -6.115  -4.024  1.00  0.00     0.017 C 
BRANCH  85  86
ATOM     86  C   UNL     1       4.363  -7.479  -4.554  1.00  0.00     0.001 C 
BRANCH  86  87
ATOM     87  C   UNL     1       4.860  -8.653  -3.713  1.00  0.00     0.000 CG0
ATOM     88  G   UNL     1       6.308  -9.040  -3.972  1.00  0.00     0.000 G0
ENDBRANCH  86  87
ENDBRANCH  85  86
ENDBRANCH  69  85
ENDBRANCH  66  69
ENDBRANCH  64  65
ENDBRANCH   1  64
TORSDOF 14
