REMARK SMILES O=C(NCCCCNC(=O)[C@H](CCc1ccccn1)c1ccccc1Br)c1ccc(-c2c3nc(c(-c4c(F)cccc4F)c4ccc([nH]4)c(-c4c(F)cccc4F)c4nc(c(-c5c(F)cccc5F)c5ccc2[nH]5)C=C4)C=C3)cc1
REMARK SMILES IDX 6 1 5 2 4 3 3 4 1 5 2 6 27 8 28 9 80 10 29 11 79 12 30 13
REMARK SMILES IDX 31 14 32 15 73 16 33 17 78 18 72 19 74 20 34 21 77 22 71 23
REMARK SMILES IDX 70 24 35 26 61 27 44 28 60 29 45 30 48 31 59 32 75 33 46 34
REMARK SMILES IDX 47 35 58 37 76 38 49 39 36 40 37 41 42 42 38 43 39 44 41 45
REMARK SMILES IDX 43 46 40 47 62 48 63 49 68 50 64 51 65 52 67 53 69 54 66 55
REMARK SMILES IDX 50 56 51 57 56 58 52 59 53 60 55 61 57 62 54 63 7 64 8 65
REMARK SMILES IDX 9 66 10 68 11 69 20 70 21 71 25 72 22 73 24 74 26 75 23 76
REMARK SMILES IDX 12 77 13 78 14 79 15 80 19 81 16 82 18 83 17 84
REMARK H PARENT 3 7 74 25 48 36 8 67
REMARK Flexibility Score: inf
ROOT
ATOM      1  C   UNL     1       5.527   8.796  -5.692  1.00  0.00     0.023 C 
ENDROOT
BRANCH   1   2
ATOM      2  C   UNL     1       4.947   8.587  -7.092  1.00  0.00     0.023 C 
BRANCH   2   3
ATOM      3  C   UNL     1       3.467   8.914  -7.226  1.00  0.00     0.116 C 
BRANCH   3   4
ATOM      4  N   UNL     1       3.147  10.288  -6.870  1.00  0.00    -0.352 N 
ATOM      5  O   UNL     1       2.178  12.316  -7.130  1.00  0.00    -0.269 OA
ATOM      6  C   UNL     1       2.262  11.143  -7.482  1.00  0.00     0.251 C 
ATOM      7  H   UNL     1       3.626  10.652  -6.091  1.00  0.00     0.163 HD
BRANCH   6   8
ATOM      8  C   UNL     1       1.431  10.639  -8.594  1.00  0.00     0.039 A 
ATOM      9  C   UNL     1       0.757   9.423  -8.470  1.00  0.00     0.014 A 
ATOM     10  C   UNL     1       1.353  11.374  -9.780  1.00  0.00     0.014 A 
ATOM     11  C   UNL     1       0.126   8.874  -9.577  1.00  0.00     0.010 A 
ATOM     12  C   UNL     1       0.641  10.860 -10.867  1.00  0.00     0.010 A 
ATOM     13  C   UNL     1       0.045   9.593 -10.782  1.00  0.00    -0.014 A 
BRANCH  13  14
ATOM     14  C   UNL     1      -0.738   9.015 -11.901  1.00  0.00     0.031 A 
ATOM     15  C   UNL     1      -0.084   8.596 -13.186  1.00  0.00     0.074 A 
ATOM     16  C   UNL     1      -2.057   8.816 -11.712  1.00  0.00     0.049 A 
ATOM     17  N   UNL     1      -0.624   8.019 -14.231  1.00  0.00    -0.248 NA
ATOM     18  C   UNL     1       1.357   8.859 -13.325  1.00  0.00     0.031 C 
ATOM     19  C   UNL     1      -2.801   9.203 -10.509  1.00  0.00     0.029 A 
ATOM     20  N   UNL     1      -2.998   8.213 -12.503  1.00  0.00    -0.354 N 
ATOM     21  C   UNL     1       0.402   7.861 -15.153  1.00  0.00     0.074 A 
ATOM     22  C   UNL     1       1.595   8.424 -14.556  1.00  0.00     0.031 C 
ATOM     23  C   UNL     1      -4.065   8.774 -10.616  1.00  0.00     0.029 A 
ATOM     24  C   UNL     1      -4.238   8.139 -11.917  1.00  0.00     0.049 A 
ATOM     25  H   UNL     1      -2.805   7.866 -13.404  1.00  0.00     0.167 HD
ATOM     26  C   UNL     1       0.350   7.290 -16.381  1.00  0.00     0.037 A 
ATOM     27  C   UNL     1      -5.392   7.625 -12.377  1.00  0.00     0.037 A 
ATOM     28  C   UNL     1      -0.839   6.721 -16.964  1.00  0.00     0.049 A 
ATOM     29  C   UNL     1      -5.415   7.001 -13.740  1.00  0.00     0.074 A 
ATOM     30  C   UNL     1      -0.988   6.109 -18.197  1.00  0.00     0.029 A 
ATOM     31  N   UNL     1      -2.083   6.690 -16.352  1.00  0.00    -0.354 N 
ATOM     32  N   UNL     1      -4.432   6.846 -14.592  1.00  0.00    -0.248 NA
ATOM     33  C   UNL     1      -6.708   6.486 -14.207  1.00  0.00     0.031 C 
ATOM     34  C   UNL     1      -2.329   5.737 -18.344  1.00  0.00     0.029 A 
ATOM     35  C   UNL     1      -3.007   6.082 -17.187  1.00  0.00     0.049 A 
ATOM     36  H   UNL     1      -2.280   7.048 -15.456  1.00  0.00     0.167 HD
ATOM     37  C   UNL     1      -4.985   6.216 -15.696  1.00  0.00     0.074 A 
ATOM     38  C   UNL     1      -6.382   5.984 -15.389  1.00  0.00     0.031 C 
ATOM     39  C   UNL     1      -4.394   5.871 -16.866  1.00  0.00     0.037 A 
BRANCH  26  40
ATOM     40  C   UNL     1       1.615   7.254 -17.190  1.00  0.00     0.057 A 
ATOM     41  C   UNL     1       2.654   6.364 -16.891  1.00  0.00     0.134 A 
ATOM     42  C   UNL     1       1.764   8.066 -18.322  1.00  0.00     0.134 A 
ATOM     43  F   UNL     1       2.578   5.567 -15.815  1.00  0.00    -0.206 F 
ATOM     44  C   UNL     1       3.801   6.289 -17.685  1.00  0.00     0.040 A 
ATOM     45  C   UNL     1       2.896   7.986 -19.134  1.00  0.00     0.040 A 
ATOM     46  F   UNL     1       0.802   8.935 -18.668  1.00  0.00    -0.206 F 
ATOM     47  C   UNL     1       3.920   7.096 -18.816  1.00  0.00     0.006 A 
ENDBRANCH  26  40
BRANCH  27  48
ATOM     48  C   UNL     1      -6.617   7.696 -11.544  1.00  0.00     0.057 A 
ATOM     49  C   UNL     1      -7.189   6.544 -10.994  1.00  0.00     0.134 A 
ATOM     50  C   UNL     1      -7.241   8.920 -11.274  1.00  0.00     0.134 A 
ATOM     51  F   UNL     1      -6.646   5.341 -11.230  1.00  0.00    -0.206 F 
ATOM     52  C   UNL     1      -8.348   6.605 -10.218  1.00  0.00     0.040 A 
ATOM     53  C   UNL     1      -8.382   8.999 -10.477  1.00  0.00     0.040 A 
ATOM     54  F   UNL     1      -6.734  10.061 -11.765  1.00  0.00    -0.206 F 
ATOM     55  C   UNL     1      -8.944   7.837  -9.953  1.00  0.00     0.006 A 
ENDBRANCH  27  48
BRANCH  39  56
ATOM     56  C   UNL     1      -5.267   5.204 -17.886  1.00  0.00     0.057 A 
ATOM     57  C   UNL     1      -6.233   5.920 -18.604  1.00  0.00     0.134 A 
ATOM     58  C   UNL     1      -5.142   3.835 -18.150  1.00  0.00     0.134 A 
ATOM     59  F   UNL     1      -6.412   7.231 -18.382  1.00  0.00    -0.206 F 
ATOM     60  C   UNL     1      -7.068   5.290 -19.528  1.00  0.00     0.040 A 
ATOM     61  C   UNL     1      -5.955   3.199 -19.089  1.00  0.00     0.040 A 
ATOM     62  F   UNL     1      -4.232   3.095 -17.499  1.00  0.00    -0.206 F 
ATOM     63  C   UNL     1      -6.926   3.926 -19.775  1.00  0.00     0.006 A 
ENDBRANCH  39  56
ENDBRANCH  13  14
ENDBRANCH   6   8
ENDBRANCH   3   4
ENDBRANCH   2   3
ENDBRANCH   1   2
BRANCH   1  64
ATOM     64  C   UNL     1       4.775   8.068  -4.577  1.00  0.00     0.116 C 
BRANCH  64  65
ATOM     65  N   UNL     1       4.829   6.634  -4.769  1.00  0.00    -0.356 N 
ATOM     66  C   UNL     1       5.869   5.819  -4.426  1.00  0.00     0.227 C 
ATOM     67  H   UNL     1       4.045   6.208  -5.186  1.00  0.00     0.163 HD
ATOM     68  O   UNL     1       6.268   5.077  -5.326  1.00  0.00    -0.274 OA
BRANCH  66  69
ATOM     69  C   UNL     1       6.595   5.961  -3.075  1.00  0.00     0.110 C 
BRANCH  69  70
ATOM     70  C   UNL     1       5.796   6.592  -1.930  1.00  0.00    -0.021 A 
ATOM     71  C   UNL     1       4.562   6.031  -1.549  1.00  0.00     0.006 A 
ATOM     72  C   UNL     1       6.207   7.766  -1.260  1.00  0.00     0.021 A 
ATOM     73  C   UNL     1       3.776   6.603  -0.544  1.00  0.00     0.000 A 
ATOM     74  C   UNL     1       5.398   8.357  -0.280  1.00  0.00     0.016 A 
ATOM     75  Br  UNL     1       7.824   8.690  -1.662  1.00  0.00    -0.051 Br
ATOM     76  C   UNL     1       4.188   7.773   0.082  1.00  0.00     0.001 A 
ENDBRANCH  69  70
BRANCH  69  77
ATOM     77  C   UNL     1       7.365   4.677  -2.651  1.00  0.00     0.025 C 
BRANCH  77  78
ATOM     78  C   UNL     1       6.603   3.494  -2.011  1.00  0.00     0.057 C 
BRANCH  78  79
ATOM     79  C   UNL     1       5.608   2.761  -2.876  1.00  0.00     0.040 A 
ATOM     80  C   UNL     1       4.464   2.188  -2.325  1.00  0.00     0.024 A 
ATOM     81  N   UNL     1       5.900   2.627  -4.184  1.00  0.00    -0.261 NA
ATOM     82  C   UNL     1       3.559   1.540  -3.165  1.00  0.00     0.003 A 
ATOM     83  C   UNL     1       4.995   2.029  -4.987  1.00  0.00     0.111 A 
ATOM     84  C   UNL     1       3.815   1.477  -4.529  1.00  0.00     0.020 A 
ENDBRANCH  78  79
ENDBRANCH  77  78
ENDBRANCH  69  77
ENDBRANCH  66  69
ENDBRANCH  64  65
ENDBRANCH   1  64
TORSDOF 15
