REMARK SMILES CCOC(=O)c1c(S(=O)(=O)N2CCC[C@@H](C(=O)NCCCCNC(=O)c3ccc(-c4c5nc(c(-c6c(F)cccc6F)c6ccc([nH]6)c(-c6c(F)cccc6F)c6nc(c(-c7c(F)cccc7F)c7ccc4[nH]7)C=C6)C=C5)cc3)C2)c(C)n(C)c1C
REMARK SMILES IDX 19 1 18 2 16 3 17 4 15 6 11 7 12 8 80 9 13 10 14 11 8 12
REMARK SMILES IDX 9 13 10 14 7 15 6 16 85 17 81 18 83 19 86 20 82 21 84 22
REMARK SMILES IDX 4 23 5 24 3 25 2 26 1 27 20 28 21 29 22 30 23 31 24 32 25 34
REMARK SMILES IDX 26 35 27 36 79 37 28 38 78 39 29 40 30 41 31 42 72 43 32 44
REMARK SMILES IDX 77 45 71 46 73 47 33 48 76 49 70 50 69 51 34 53 60 54 43 55
REMARK SMILES IDX 59 56 44 57 47 58 58 59 74 60 45 61 46 62 57 64 75 65 48 66
REMARK SMILES IDX 35 67 36 68 41 69 37 70 38 71 40 72 42 73 39 74 61 75 62 76
REMARK SMILES IDX 67 77 63 78 64 79 66 80 68 81 65 82 49 83 50 84 55 85 51 86
REMARK SMILES IDX 52 87 54 88 56 89 53 90
REMARK H PARENT 18 5 23 33 73 52 47 63
REMARK Flexibility Score: inf
ROOT
ATOM      1  C   UNL     1       1.002   3.840   0.800  1.00  0.00     0.116 C 
ENDROOT
BRANCH   1   2
ATOM      2  N   UNL     1       1.065   3.000  -0.398  1.00  0.00    -0.356 N 
ATOM      3  C   UNL     1       1.966   2.161  -0.981  1.00  0.00     0.224 C 
ATOM      4  O   UNL     1       1.561   1.608  -2.013  1.00  0.00    -0.275 OA
ATOM      5  H   UNL     1       0.234   3.056  -0.922  1.00  0.00     0.163 HD
BRANCH   3   6
ATOM      6  C   UNL     1       3.406   1.901  -0.504  1.00  0.00     0.093 C 
ATOM      7  N   UNL     1       4.852   1.792   1.581  1.00  0.00    -0.197 NA
ATOM      8  C   UNL     1       5.457   0.512   1.196  1.00  0.00     0.102 C 
ATOM      9  C   UNL     1       3.627   2.267   0.935  1.00  0.00     0.116 C 
ATOM     10  C   UNL     1       5.225   0.167  -0.269  1.00  0.00     0.018 C 
ATOM     11  C   UNL     1       3.800   0.435  -0.738  1.00  0.00     0.016 C 
BRANCH   7  12
ATOM     12  S   UNL     1       4.995   2.265   3.199  1.00  0.00     0.245 S 
ATOM     13  O   UNL     1       4.612   3.665   3.253  1.00  0.00    -0.207 OA
ATOM     14  O   UNL     1       6.280   1.822   3.692  1.00  0.00    -0.207 OA
BRANCH  12  15
ATOM     15  C   UNL     1       3.857   1.537   4.313  1.00  0.00     0.118 A 
ATOM     16  C   UNL     1       2.814   0.574   4.112  1.00  0.00     0.101 A 
ATOM     17  C   UNL     1       2.273   0.308   5.375  1.00  0.00     0.030 A 
ATOM     18  C   UNL     1       3.807   1.925   5.654  1.00  0.00     0.035 A 
ATOM     19  N   UNL     1       2.876   1.139   6.290  1.00  0.00    -0.350 N 
ATOM     20  C   UNL     1       1.250  -0.710   5.770  1.00  0.00     0.065 C 
ATOM     21  C   UNL     1       4.594   2.993   6.347  1.00  0.00     0.066 C 
ATOM     22  C   UNL     1       2.603   1.175   7.715  1.00  0.00     0.149 C 
BRANCH  16  23
ATOM     23  C   UNL     1       2.335  -0.132   2.930  1.00  0.00     0.341 C 
ATOM     24  O   UNL     1       3.020  -0.885   2.260  1.00  0.00    -0.246 OA
BRANCH  23  25
ATOM     25  O   UNL     1       0.991   0.059   2.741  1.00  0.00    -0.462 OA
BRANCH  25  26
ATOM     26  C   UNL     1       0.318  -0.918   1.929  1.00  0.00     0.230 C 
ATOM     27  C   UNL     1       0.033  -0.375   0.546  1.00  0.00     0.049 C 
ENDBRANCH  25  26
ENDBRANCH  23  25
ENDBRANCH  16  23
ENDBRANCH  12  15
ENDBRANCH   7  12
ENDBRANCH   3   6
ENDBRANCH   1   2
BRANCH   1  28
ATOM     28  C   UNL     1       0.967   5.332   0.468  1.00  0.00     0.023 C 
BRANCH  28  29
ATOM     29  C   UNL     1      -0.441   5.892   0.232  1.00  0.00     0.023 C 
BRANCH  29  30
ATOM     30  C   UNL     1      -1.322   5.935   1.481  1.00  0.00     0.116 C 
BRANCH  30  31
ATOM     31  N   UNL     1      -0.789   6.801   2.529  1.00  0.00    -0.352 N 
ATOM     32  C   UNL     1      -1.227   6.915   3.832  1.00  0.00     0.251 C 
ATOM     33  H   UNL     1      -0.028   7.371   2.275  1.00  0.00     0.163 HD
ATOM     34  O   UNL     1      -0.969   7.905   4.506  1.00  0.00    -0.269 OA
BRANCH  32  35
ATOM     35  C   UNL     1      -2.025   5.819   4.405  1.00  0.00     0.039 A 
ATOM     36  C   UNL     1      -3.227   6.090   5.062  1.00  0.00     0.014 A 
ATOM     37  C   UNL     1      -1.575   4.509   4.237  1.00  0.00     0.014 A 
ATOM     38  C   UNL     1      -4.028   5.025   5.465  1.00  0.00     0.010 A 
ATOM     39  C   UNL     1      -2.408   3.458   4.557  1.00  0.00     0.010 A 
ATOM     40  C   UNL     1      -3.630   3.708   5.184  1.00  0.00    -0.014 A 
BRANCH  40  41
ATOM     41  C   UNL     1      -4.556   2.605   5.440  1.00  0.00     0.031 A 
ATOM     42  C   UNL     1      -5.894   2.712   4.785  1.00  0.00     0.074 A 
ATOM     43  C   UNL     1      -4.199   1.448   6.036  1.00  0.00     0.049 A 
ATOM     44  N   UNL     1      -7.053   2.800   5.351  1.00  0.00    -0.248 NA
ATOM     45  C   UNL     1      -5.943   2.800   3.317  1.00  0.00     0.031 C 
ATOM     46  C   UNL     1      -2.862   1.010   6.449  1.00  0.00     0.029 A 
ATOM     47  N   UNL     1      -4.972   0.358   6.301  1.00  0.00    -0.354 N 
ATOM     48  C   UNL     1      -7.997   2.788   4.323  1.00  0.00     0.074 A 
ATOM     49  C   UNL     1      -7.254   2.918   3.095  1.00  0.00     0.031 C 
ATOM     50  C   UNL     1      -2.884  -0.318   6.700  1.00  0.00     0.029 A 
ATOM     51  C   UNL     1      -4.256  -0.783   6.628  1.00  0.00     0.049 A 
ATOM     52  H   UNL     1      -5.955   0.380   6.263  1.00  0.00     0.167 HD
ATOM     53  C   UNL     1      -9.304   2.477   4.551  1.00  0.00     0.037 A 
ATOM     54  C   UNL     1      -4.752  -2.031   6.804  1.00  0.00     0.037 A 
ATOM     55  C   UNL     1      -9.621   2.531   5.954  1.00  0.00     0.049 A 
ATOM     56  C   UNL     1      -6.205  -1.904   7.067  1.00  0.00     0.074 A 
ATOM     57  C   UNL     1      -9.587   3.508   6.929  1.00  0.00     0.029 A 
ATOM     58  N   UNL     1      -9.732   1.341   6.629  1.00  0.00    -0.354 N 
ATOM     59  N   UNL     1      -6.707  -1.393   8.155  1.00  0.00    -0.248 NA
ATOM     60  C   UNL     1      -7.114  -1.978   5.935  1.00  0.00     0.031 C 
ATOM     61  C   UNL     1      -9.171   2.830   8.113  1.00  0.00     0.029 A 
ATOM     62  C   UNL     1      -9.030   1.478   7.797  1.00  0.00     0.049 A 
ATOM     63  H   UNL     1     -10.223   0.541   6.330  1.00  0.00     0.167 HD
ATOM     64  C   UNL     1      -7.824  -0.692   7.730  1.00  0.00     0.074 A 
ATOM     65  C   UNL     1      -8.090  -1.183   6.381  1.00  0.00     0.031 C 
ATOM     66  C   UNL     1      -8.256   0.418   8.399  1.00  0.00     0.037 A 
BRANCH  53  67
ATOM     67  C   UNL     1     -10.221   1.789   3.568  1.00  0.00     0.057 A 
ATOM     68  C   UNL     1     -11.594   1.674   3.866  1.00  0.00     0.134 A 
ATOM     69  C   UNL     1      -9.770   0.977   2.510  1.00  0.00     0.134 A 
ATOM     70  F   UNL     1     -12.145   2.385   4.861  1.00  0.00    -0.206 F 
ATOM     71  C   UNL     1     -12.432   0.761   3.214  1.00  0.00     0.040 A 
ATOM     72  C   UNL     1     -10.611   0.099   1.817  1.00  0.00     0.040 A 
ATOM     73  F   UNL     1      -8.480   0.911   2.160  1.00  0.00    -0.206 F 
ATOM     74  C   UNL     1     -11.938  -0.037   2.191  1.00  0.00     0.006 A 
ENDBRANCH  53  67
BRANCH  54  75
ATOM     75  C   UNL     1      -4.106  -3.333   6.539  1.00  0.00     0.057 A 
ATOM     76  C   UNL     1      -4.614  -4.518   7.090  1.00  0.00     0.134 A 
ATOM     77  C   UNL     1      -3.145  -3.484   5.523  1.00  0.00     0.134 A 
ATOM     78  F   UNL     1      -5.556  -4.476   8.043  1.00  0.00    -0.206 F 
ATOM     79  C   UNL     1      -4.215  -5.780   6.634  1.00  0.00     0.040 A 
ATOM     80  C   UNL     1      -2.734  -4.739   5.063  1.00  0.00     0.040 A 
ATOM     81  F   UNL     1      -2.638  -2.419   4.883  1.00  0.00    -0.206 F 
ATOM     82  C   UNL     1      -3.283  -5.893   5.608  1.00  0.00     0.006 A 
ENDBRANCH  54  75
BRANCH  66  83
ATOM     83  C   UNL     1      -7.681   0.692   9.759  1.00  0.00     0.057 A 
ATOM     84  C   UNL     1      -6.325   0.955  10.005  1.00  0.00     0.134 A 
ATOM     85  C   UNL     1      -8.559   0.843  10.839  1.00  0.00     0.134 A 
ATOM     86  F   UNL     1      -5.422   0.936   9.017  1.00  0.00    -0.206 F 
ATOM     87  C   UNL     1      -5.861   1.305  11.277  1.00  0.00     0.040 A 
ATOM     88  C   UNL     1      -8.114   1.226  12.105  1.00  0.00     0.040 A 
ATOM     89  F   UNL     1      -9.879   0.664  10.666  1.00  0.00    -0.206 F 
ATOM     90  C   UNL     1      -6.758   1.448  12.330  1.00  0.00     0.006 A 
ENDBRANCH  66  83
ENDBRANCH  40  41
ENDBRANCH  32  35
ENDBRANCH  30  31
ENDBRANCH  29  30
ENDBRANCH  28  29
ENDBRANCH   1  28
TORSDOF 16
