REMARK SMILES O=C(Nc1ccccc1)N[C@H]1C[C@@H](C(=O)NCCCCNC(=O)c2ccc(-c3c4nc(c(-c5c(F)cccc5F)c5ccc([nH]5)c(-c5c(F)cccc5F)c5nc(c(-c6c(F)cccc6F)c6ccc3[nH]6)C=C5)C=C4)cc2)Nc2cc(Cl)cc(Cl)c21
REMARK SMILES IDX 18 1 17 2 16 3 14 4 15 5 13 7 11 8 12 9 86 10 79 11 84 12
REMARK SMILES IDX 78 13 80 14 83 15 85 16 81 18 82 19 10 20 1 21 2 22 3 23
REMARK SMILES IDX 4 26 5 27 9 28 6 29 8 30 7 31 19 32 20 33 21 34 22 35 23 37
REMARK SMILES IDX 24 38 25 39 77 40 26 41 76 42 27 43 28 44 29 45 70 46 30 47
REMARK SMILES IDX 75 48 69 49 71 50 31 51 74 52 68 53 67 54 32 56 58 57 41 58
REMARK SMILES IDX 57 59 42 60 45 61 56 62 72 63 43 64 44 65 55 67 73 68 46 69
REMARK SMILES IDX 33 70 34 71 39 72 35 73 36 74 38 75 40 76 37 77 59 78 60 79
REMARK SMILES IDX 65 80 61 81 62 82 64 83 66 84 63 85 47 86 48 87 53 88 49 89
REMARK SMILES IDX 50 90 52 91 54 92 51 93
REMARK H PARENT 16 6 78 17 3 24 10 25 21 36 71 55 45 66
REMARK Flexibility Score: inf
ROOT
ATOM      1  C   UNL     1       1.698  -5.669  -1.396  1.00  0.00     0.023 C 
ENDROOT
BRANCH   1   2
ATOM      2  C   UNL     1       1.001  -6.499  -0.316  1.00  0.00     0.116 C 
BRANCH   2   3
ATOM      3  N   UNL     1       1.955  -7.056   0.611  1.00  0.00    -0.354 N 
ATOM      4  C   UNL     1       2.584  -6.511   1.678  1.00  0.00     0.242 C 
ATOM      5  O   UNL     1       3.474  -7.218   2.182  1.00  0.00    -0.273 OA
ATOM      6  H   UNL     1       2.189  -7.996   0.437  1.00  0.00     0.163 HD
BRANCH   4   7
ATOM      7  C   UNL     1       2.241  -5.143   2.344  1.00  0.00     0.171 C 
ATOM      8  C   UNL     1       1.800  -2.596   2.019  1.00  0.00     0.120 C 
ATOM      9  C   UNL     1       1.455  -4.046   1.625  1.00  0.00     0.065 C 
ATOM     10  C   UNL     1       2.528  -2.466   3.335  1.00  0.00     0.016 A 
ATOM     11  C   UNL     1       3.389  -3.510   3.699  1.00  0.00     0.043 A 
ATOM     12  C   UNL     1       2.445  -1.330   4.154  1.00  0.00     0.049 A 
ATOM     13  N   UNL     1       3.504  -4.602   2.858  1.00  0.00    -0.373 N 
ATOM     14  C   UNL     1       4.055  -3.473   4.922  1.00  0.00     0.046 A 
ATOM     15  C   UNL     1       3.125  -1.287   5.370  1.00  0.00     0.041 A 
ATOM     16  Cl  UNL     1       1.535   0.066   3.700  1.00  0.00    -0.084 Cl
ATOM     17  H   UNL     1       4.377  -4.990   2.619  1.00  0.00     0.161 HD
ATOM     18  C   UNL     1       3.903  -2.372   5.760  1.00  0.00     0.044 A 
ATOM     19  Cl  UNL     1       4.678  -2.356   7.296  1.00  0.00    -0.084 Cl
BRANCH   8  20
ATOM     20  N   UNL     1       2.563  -1.902   0.984  1.00  0.00    -0.331 N 
ATOM     21  O   UNL     1       0.737  -1.023  -0.047  1.00  0.00    -0.248 OA
ATOM     22  C   UNL     1       1.951  -1.017   0.149  1.00  0.00     0.319 C 
ATOM     23  N   UNL     1       2.696   0.030  -0.300  1.00  0.00    -0.308 N 
ATOM     24  H   UNL     1       2.161   0.799  -0.601  1.00  0.00     0.171 HD
ATOM     25  H   UNL     1       3.527  -2.076   0.890  1.00  0.00     0.166 HD
BRANCH  23  26
ATOM     26  C   UNL     1       4.079   0.222  -0.416  1.00  0.00     0.042 A 
ATOM     27  C   UNL     1       4.559   1.532  -0.293  1.00  0.00     0.026 A 
ATOM     28  C   UNL     1       4.967  -0.804  -0.744  1.00  0.00     0.026 A 
ATOM     29  C   UNL     1       5.916   1.810  -0.457  1.00  0.00     0.002 A 
ATOM     30  C   UNL     1       6.322  -0.518  -0.941  1.00  0.00     0.002 A 
ATOM     31  C   UNL     1       6.798   0.785  -0.789  1.00  0.00     0.000 A 
ENDBRANCH  23  26
ENDBRANCH   8  20
ENDBRANCH   4   7
ENDBRANCH   2   3
ENDBRANCH   1   2
BRANCH   1  32
ATOM     32  C   UNL     1       2.520  -6.464  -2.404  1.00  0.00     0.023 C 
BRANCH  32  33
ATOM     33  C   UNL     1       1.773  -7.576  -3.119  1.00  0.00     0.116 C 
BRANCH  33  34
ATOM     34  N   UNL     1       0.506  -7.142  -3.688  1.00  0.00    -0.352 N 
ATOM     35  C   UNL     1      -0.019  -7.397  -4.933  1.00  0.00     0.251 C 
ATOM     36  H   UNL     1      -0.054  -6.587  -3.099  1.00  0.00     0.163 HD
ATOM     37  O   UNL     1      -1.062  -6.876  -5.289  1.00  0.00    -0.269 OA
BRANCH  35  38
ATOM     38  C   UNL     1       0.728  -8.280  -5.850  1.00  0.00     0.039 A 
ATOM     39  C   UNL     1       1.008  -7.819  -7.138  1.00  0.00     0.014 A 
ATOM     40  C   UNL     1       1.206  -9.518  -5.412  1.00  0.00     0.014 A 
ATOM     41  C   UNL     1       1.848  -8.567  -7.962  1.00  0.00     0.010 A 
ATOM     42  C   UNL     1       2.099 -10.224  -6.207  1.00  0.00     0.010 A 
ATOM     43  C   UNL     1       2.438  -9.748  -7.482  1.00  0.00    -0.014 A 
BRANCH  43  44
ATOM     44  C   UNL     1       3.446 -10.480  -8.284  1.00  0.00     0.031 A 
ATOM     45  C   UNL     1       3.158 -11.871  -8.768  1.00  0.00     0.074 A 
ATOM     46  C   UNL     1       4.651  -9.919  -8.500  1.00  0.00     0.049 A 
ATOM     47  N   UNL     1       3.942 -12.700  -9.406  1.00  0.00    -0.248 NA
ATOM     48  C   UNL     1       1.821 -12.410  -8.473  1.00  0.00     0.031 C 
ATOM     49  C   UNL     1       5.065  -8.593  -8.033  1.00  0.00     0.029 A 
ATOM     50  N   UNL     1       5.756 -10.399  -9.154  1.00  0.00    -0.354 N 
ATOM     51  C   UNL     1       3.200 -13.860  -9.580  1.00  0.00     0.074 A 
ATOM     52  C   UNL     1       1.922 -13.647  -8.937  1.00  0.00     0.031 C 
ATOM     53  C   UNL     1       6.325  -8.360  -8.432  1.00  0.00     0.029 A 
ATOM     54  C   UNL     1       6.821  -9.531  -9.147  1.00  0.00     0.049 A 
ATOM     55  H   UNL     1       5.784 -11.283  -9.588  1.00  0.00     0.167 HD
ATOM     56  C   UNL     1       3.548 -14.993 -10.235  1.00  0.00     0.037 A 
ATOM     57  C   UNL     1       8.062  -9.670  -9.651  1.00  0.00     0.037 A 
ATOM     58  C   UNL     1       4.813 -15.192 -10.890  1.00  0.00     0.049 A 
ATOM     59  C   UNL     1       8.427 -10.944 -10.359  1.00  0.00     0.074 A 
ATOM     60  C   UNL     1       5.234 -16.275 -11.641  1.00  0.00     0.029 A 
ATOM     61  N   UNL     1       5.864 -14.287 -10.868  1.00  0.00    -0.354 N 
ATOM     62  N   UNL     1       7.691 -12.006 -10.579  1.00  0.00    -0.248 NA
ATOM     63  C   UNL     1       9.795 -11.039 -10.887  1.00  0.00     0.031 C 
ATOM     64  C   UNL     1       6.556 -16.045 -12.037  1.00  0.00     0.029 A 
ATOM     65  C   UNL     1       6.943 -14.800 -11.568  1.00  0.00     0.049 A 
ATOM     66  H   UNL     1       5.845 -13.410 -10.421  1.00  0.00     0.167 HD
ATOM     67  C   UNL     1       8.497 -12.887 -11.287  1.00  0.00     0.074 A 
ATOM     68  C   UNL     1       9.773 -12.228 -11.473  1.00  0.00     0.031 C 
ATOM     69  C   UNL     1       8.207 -14.131 -11.741  1.00  0.00     0.037 A 
BRANCH  56  70
ATOM     70  C   UNL     1       2.540 -16.102 -10.277  1.00  0.00     0.057 A 
ATOM     71  C   UNL     1       1.375 -16.011 -11.050  1.00  0.00     0.134 A 
ATOM     72  C   UNL     1       2.751 -17.289  -9.565  1.00  0.00     0.134 A 
ATOM     73  F   UNL     1       1.106 -14.895 -11.745  1.00  0.00    -0.206 F 
ATOM     74  C   UNL     1       0.445 -17.050 -11.095  1.00  0.00     0.040 A 
ATOM     75  C   UNL     1       1.841 -18.346  -9.622  1.00  0.00     0.040 A 
ATOM     76  F   UNL     1       3.848 -17.444  -8.808  1.00  0.00    -0.206 F 
ATOM     77  C   UNL     1       0.681 -18.225 -10.384  1.00  0.00     0.006 A 
ENDBRANCH  56  70
BRANCH  57  78
ATOM     78  C   UNL     1       9.046  -8.568  -9.515  1.00  0.00     0.057 A 
ATOM     79  C   UNL     1       9.440  -7.814 -10.626  1.00  0.00     0.134 A 
ATOM     80  C   UNL     1       9.616  -8.243  -8.278  1.00  0.00     0.134 A 
ATOM     81  F   UNL     1       8.941  -8.091 -11.840  1.00  0.00    -0.206 F 
ATOM     82  C   UNL     1      10.378  -6.787 -10.517  1.00  0.00     0.040 A 
ATOM     83  C   UNL     1      10.538  -7.203  -8.150  1.00  0.00     0.040 A 
ATOM     84  F   UNL     1       9.273  -8.923  -7.175  1.00  0.00    -0.206 F 
ATOM     85  C   UNL     1      10.927  -6.476  -9.274  1.00  0.00     0.006 A 
ENDBRANCH  57  78
BRANCH  69  86
ATOM     86  C   UNL     1       9.284 -14.851 -12.495  1.00  0.00     0.057 A 
ATOM     87  C   UNL     1      10.401 -15.391 -11.845  1.00  0.00     0.134 A 
ATOM     88  C   UNL     1       9.183 -15.042 -13.879  1.00  0.00     0.134 A 
ATOM     89  F   UNL     1      10.563 -15.229 -10.523  1.00  0.00    -0.206 F 
ATOM     90  C   UNL     1      11.389 -16.081 -12.549  1.00  0.00     0.040 A 
ATOM     91  C   UNL     1      10.152 -15.751 -14.589  1.00  0.00     0.040 A 
ATOM     92  F   UNL     1       8.133 -14.555 -14.558  1.00  0.00    -0.206 F 
ATOM     93  C   UNL     1      11.261 -16.269 -13.924  1.00  0.00     0.006 A 
ENDBRANCH  69  86
ENDBRANCH  43  44
ENDBRANCH  35  38
ENDBRANCH  33  34
ENDBRANCH  32  33
ENDBRANCH   1  32
TORSDOF 13
