REMARK SMILES CC(C)Cc1ccc(S(=O)(=O)Nc2cnc(N3CCCC3)c(C(=O)NCCCCNC(=O)c3ccc(-c4c5nc(c(-c6c(F)cccc6F)c6ccc([nH]6)c(-c6c(F)cccc6F)c6nc(c(-c7c(F)cccc7F)c7ccc4[nH]7)C=C6)C=C5)cc3)c2)cc1
REMARK SMILES IDX 26 1 25 2 23 3 24 4 22 6 13 7 14 8 87 9 15 10 16 11 12 12
REMARK SMILES IDX 9 14 10 15 11 16 8 17 5 18 6 19 89 20 7 21 88 22 4 23 2 24
REMARK SMILES IDX 1 25 3 26 17 27 18 28 21 29 19 30 20 31 27 32 28 33 29 34
REMARK SMILES IDX 30 35 31 36 32 38 33 39 34 40 86 41 35 42 85 43 36 44 37 45
REMARK SMILES IDX 38 46 79 47 39 48 84 49 78 50 80 51 40 52 83 53 77 54 76 55
REMARK SMILES IDX 41 57 67 58 50 59 66 60 51 61 54 62 65 63 81 64 52 65 53 66
REMARK SMILES IDX 64 68 82 69 55 70 42 71 43 72 48 73 44 74 45 75 47 76 49 77
REMARK SMILES IDX 46 78 68 79 69 80 74 81 70 82 71 83 73 84 75 85 72 86 56 87
REMARK SMILES IDX 57 88 62 89 58 90 59 91 61 92 63 93 60 94
REMARK H PARENT 25 5 12 13 30 37 80 56 54 67
REMARK Flexibility Score: inf
ROOT
ATOM      1  C   UNL     1      -4.729   1.603  -0.259  1.00  0.00     0.116 C 
ENDROOT
BRANCH   1   2
ATOM      2  N   UNL     1      -5.572   0.504  -0.675  1.00  0.00    -0.352 N 
ATOM      3  C   UNL     1      -6.279   0.191  -1.809  1.00  0.00     0.255 C 
ATOM      4  O   UNL     1      -6.984  -0.808  -1.664  1.00  0.00    -0.269 OA
ATOM      5  H   UNL     1      -5.660  -0.185   0.023  1.00  0.00     0.163 HD
BRANCH   3   6
ATOM      6  C   UNL     1      -6.168   0.927  -3.122  1.00  0.00     0.084 A 
ATOM      7  C   UNL     1      -5.155   2.730  -4.389  1.00  0.00     0.068 A 
ATOM      8  C   UNL     1      -5.473   2.032  -5.538  1.00  0.00     0.140 A 
ATOM      9  C   UNL     1      -5.641   2.228  -3.188  1.00  0.00     0.046 A 
ATOM     10  N   UNL     1      -6.099   0.841  -5.538  1.00  0.00    -0.236 NA
ATOM     11  C   UNL     1      -6.424   0.268  -4.347  1.00  0.00     0.141 A 
BRANCH   7  12
ATOM     12  N   UNL     1      -4.281   3.850  -4.494  1.00  0.00    -0.278 N 
ATOM     13  H   UNL     1      -4.337   4.401  -5.308  1.00  0.00     0.180 HD
BRANCH  12  14
ATOM     14  S   UNL     1      -3.162   4.296  -3.321  1.00  0.00     0.261 S 
ATOM     15  O   UNL     1      -3.904   4.725  -2.154  1.00  0.00    -0.201 OA
ATOM     16  O   UNL     1      -2.234   5.181  -3.992  1.00  0.00    -0.201 OA
BRANCH  14  17
ATOM     17  C   UNL     1      -2.225   2.860  -2.819  1.00  0.00     0.087 A 
ATOM     18  C   UNL     1      -1.154   0.567  -1.585  1.00  0.00    -0.048 A 
ATOM     19  C   UNL     1      -0.996   1.826  -0.997  1.00  0.00     0.005 A 
ATOM     20  C   UNL     1      -1.781   0.486  -2.840  1.00  0.00     0.005 A 
ATOM     21  C   UNL     1      -1.527   2.966  -1.607  1.00  0.00     0.022 A 
ATOM     22  C   UNL     1      -2.300   1.628  -3.466  1.00  0.00     0.022 A 
BRANCH  18  23
ATOM     23  C   UNL     1      -0.756  -0.697  -0.851  1.00  0.00     0.038 C 
BRANCH  23  24
ATOM     24  C   UNL     1       0.754  -1.007  -0.801  1.00  0.00    -0.013 C 
ATOM     25  C   UNL     1       1.478  -0.215   0.292  1.00  0.00     0.008 C 
ATOM     26  C   UNL     1       0.961  -2.505  -0.543  1.00  0.00     0.008 C 
ENDBRANCH  23  24
ENDBRANCH  18  23
ENDBRANCH  14  17
ENDBRANCH  12  14
ENDBRANCH   7  12
BRANCH  11  27
ATOM     27  N   UNL     1      -6.945  -0.988  -4.451  1.00  0.00    -0.356 N 
ATOM     28  C   UNL     1      -8.319  -1.309  -4.103  1.00  0.00     0.118 C 
ATOM     29  C   UNL     1      -6.409  -1.961  -5.390  1.00  0.00     0.118 C 
ATOM     30  C   UNL     1      -8.269  -2.832  -4.103  1.00  0.00     0.023 C 
ATOM     31  C   UNL     1      -7.396  -3.133  -5.318  1.00  0.00     0.023 C 
ENDBRANCH  11  27
ENDBRANCH   3   6
ENDBRANCH   1   2
BRANCH   1  32
ATOM     32  C   UNL     1      -5.558   2.651   0.480  1.00  0.00     0.023 C 
BRANCH  32  33
ATOM     33  C   UNL     1      -6.017   2.201   1.873  1.00  0.00     0.023 C 
BRANCH  33  34
ATOM     34  C   UNL     1      -4.894   1.788   2.820  1.00  0.00     0.116 C 
BRANCH  34  35
ATOM     35  N   UNL     1      -3.867   2.807   2.959  1.00  0.00    -0.352 N 
ATOM     36  C   UNL     1      -3.072   3.088   4.039  1.00  0.00     0.251 C 
ATOM     37  H   UNL     1      -3.722   3.374   2.167  1.00  0.00     0.163 HD
ATOM     38  O   UNL     1      -2.318   4.055   4.017  1.00  0.00    -0.269 OA
BRANCH  36  39
ATOM     39  C   UNL     1      -3.148   2.242   5.246  1.00  0.00     0.039 A 
ATOM     40  C   UNL     1      -3.265   2.868   6.489  1.00  0.00     0.014 A 
ATOM     41  C   UNL     1      -3.086   0.848   5.159  1.00  0.00     0.014 A 
ATOM     42  C   UNL     1      -3.364   2.095   7.646  1.00  0.00     0.010 A 
ATOM     43  C   UNL     1      -3.235   0.076   6.308  1.00  0.00     0.010 A 
ATOM     44  C   UNL     1      -3.369   0.694   7.561  1.00  0.00    -0.014 A 
BRANCH  44  45
ATOM     45  C   UNL     1      -3.500  -0.135   8.781  1.00  0.00     0.031 A 
ATOM     46  C   UNL     1      -2.338  -0.955   9.265  1.00  0.00     0.074 A 
ATOM     47  C   UNL     1      -4.680  -0.182   9.427  1.00  0.00     0.049 A 
ATOM     48  N   UNL     1      -2.268  -1.761  10.293  1.00  0.00    -0.248 NA
ATOM     49  C   UNL     1      -1.099  -0.876   8.475  1.00  0.00     0.031 C 
ATOM     50  C   UNL     1      -5.894   0.530   9.025  1.00  0.00     0.029 A 
ATOM     51  N   UNL     1      -5.051  -0.864  10.557  1.00  0.00    -0.354 N 
ATOM     52  C   UNL     1      -0.988  -2.296  10.266  1.00  0.00     0.074 A 
ATOM     53  C   UNL     1      -0.327  -1.755   9.097  1.00  0.00     0.031 C 
ATOM     54  C   UNL     1      -6.870   0.263   9.908  1.00  0.00     0.029 A 
ATOM     55  C   UNL     1      -6.357  -0.652  10.923  1.00  0.00     0.049 A 
ATOM     56  H   UNL     1      -4.439  -1.450  11.059  1.00  0.00     0.167 HD
ATOM     57  C   UNL     1      -0.408  -3.145  11.146  1.00  0.00     0.037 A 
ATOM     58  C   UNL     1      -7.058  -1.138  11.964  1.00  0.00     0.037 A 
ATOM     59  C   UNL     1      -1.053  -3.655  12.327  1.00  0.00     0.049 A 
ATOM     60  C   UNL     1      -6.382  -2.054  12.943  1.00  0.00     0.074 A 
ATOM     61  C   UNL     1      -0.527  -4.467  13.316  1.00  0.00     0.029 A 
ATOM     62  N   UNL     1      -2.369  -3.396  12.678  1.00  0.00    -0.354 N 
ATOM     63  N   UNL     1      -5.150  -2.502  12.941  1.00  0.00    -0.248 NA
ATOM     64  C   UNL     1      -7.193  -2.527  14.074  1.00  0.00     0.031 C 
ATOM     65  C   UNL     1      -1.534  -4.721  14.254  1.00  0.00     0.029 A 
ATOM     66  C   UNL     1      -2.677  -4.043  13.863  1.00  0.00     0.049 A 
ATOM     67  H   UNL     1      -2.991  -2.835  12.162  1.00  0.00     0.167 HD
ATOM     68  C   UNL     1      -5.031  -3.292  14.076  1.00  0.00     0.074 A 
ATOM     69  C   UNL     1      -6.312  -3.252  14.751  1.00  0.00     0.031 C 
ATOM     70  C   UNL     1      -3.957  -3.989  14.519  1.00  0.00     0.037 A 
BRANCH  57  71
ATOM     71  C   UNL     1       1.003  -3.567  10.865  1.00  0.00     0.057 A 
ATOM     72  C   UNL     1       2.082  -2.692  11.047  1.00  0.00     0.134 A 
ATOM     73  C   UNL     1       1.287  -4.866  10.427  1.00  0.00     0.134 A 
ATOM     74  F   UNL     1       1.872  -1.430  11.450  1.00  0.00    -0.206 F 
ATOM     75  C   UNL     1       3.393  -3.088  10.782  1.00  0.00     0.040 A 
ATOM     76  C   UNL     1       2.597  -5.280  10.179  1.00  0.00     0.040 A 
ATOM     77  F   UNL     1       0.299  -5.753  10.235  1.00  0.00    -0.206 F 
ATOM     78  C   UNL     1       3.654  -4.388  10.351  1.00  0.00     0.006 A 
ENDBRANCH  57  71
BRANCH  58  79
ATOM     79  C   UNL     1      -8.471  -0.736  12.153  1.00  0.00     0.057 A 
ATOM     80  C   UNL     1      -8.832   0.167  13.159  1.00  0.00     0.134 A 
ATOM     81  C   UNL     1      -9.490  -1.240  11.338  1.00  0.00     0.134 A 
ATOM     82  F   UNL     1      -7.899   0.669  13.981  1.00  0.00    -0.206 F 
ATOM     83  C   UNL     1     -10.160   0.546  13.358  1.00  0.00     0.040 A 
ATOM     84  C   UNL     1     -10.820  -0.857  11.514  1.00  0.00     0.040 A 
ATOM     85  F   UNL     1      -9.204  -2.105  10.354  1.00  0.00    -0.206 F 
ATOM     86  C   UNL     1     -11.159   0.035  12.530  1.00  0.00     0.006 A 
ENDBRANCH  58  79
BRANCH  70  87
ATOM     87  C   UNL     1      -4.121  -4.747  15.800  1.00  0.00     0.057 A 
ATOM     88  C   UNL     1      -4.831  -5.953  15.852  1.00  0.00     0.134 A 
ATOM     89  C   UNL     1      -3.538  -4.282  16.985  1.00  0.00     0.134 A 
ATOM     90  F   UNL     1      -5.423  -6.441  14.752  1.00  0.00    -0.206 F 
ATOM     91  C   UNL     1      -4.970  -6.663  17.046  1.00  0.00     0.040 A 
ATOM     92  C   UNL     1      -3.654  -4.993  18.180  1.00  0.00     0.040 A 
ATOM     93  F   UNL     1      -2.841  -3.136  16.997  1.00  0.00    -0.206 F 
ATOM     94  C   UNL     1      -4.375  -6.185  18.213  1.00  0.00     0.006 A 
ENDBRANCH  70  87
ENDBRANCH  44  45
ENDBRANCH  36  39
ENDBRANCH  34  35
ENDBRANCH  33  34
ENDBRANCH  32  33
ENDBRANCH   1  32
TORSDOF 17
