REMARK SMILES O=C(NCCCCNC(=O)c1cc(/C=C/c2cc(O)cc(O)c2)ccc1O)c1ccc(-c2c3nc(c(-c4c(F)cccc4F)c4ccc([nH]4)c(-c4c(F)cccc4F)c4nc(c(-c5c(F)cccc5F)c5ccc2[nH]5)C=C4)C=C3)cc1
REMARK SMILES IDX 6 1 5 2 4 3 3 4 1 5 2 6 28 8 29 9 81 10 30 11 80 12 31 13
REMARK SMILES IDX 32 14 33 15 74 16 34 17 79 18 73 19 75 20 35 21 78 22 72 23
REMARK SMILES IDX 71 24 36 26 62 27 45 28 61 29 46 30 49 31 60 32 76 33 47 34
REMARK SMILES IDX 48 35 59 37 77 38 50 39 37 40 38 41 43 42 39 43 40 44 42 45
REMARK SMILES IDX 44 46 41 47 63 48 64 49 69 50 65 51 66 52 68 53 70 54 67 55
REMARK SMILES IDX 51 56 52 57 57 58 53 59 54 60 56 61 58 62 55 63 7 64 8 65
REMARK SMILES IDX 9 66 10 68 11 69 12 70 26 71 13 72 25 73 24 74 27 75 14 77
REMARK SMILES IDX 15 78 16 79 17 80 23 81 18 82 21 83 20 84 19 85 22 87
REMARK H PARENT 3 7 75 25 49 36 8 67 27 76 19 86 22 88
REMARK Flexibility Score: inf
ROOT
ATOM      1  C   UNL     1       4.444   3.517   1.526  1.00  0.00     0.023 C 
ENDROOT
BRANCH   1   2
ATOM      2  C   UNL     1       4.929   2.510   0.487  1.00  0.00     0.023 C 
BRANCH   2   3
ATOM      3  C   UNL     1       4.570   1.060   0.779  1.00  0.00     0.116 C 
BRANCH   3   4
ATOM      4  N   UNL     1       3.134   0.827   0.778  1.00  0.00    -0.352 N 
ATOM      5  O   UNL     1       1.175  -0.008   0.028  1.00  0.00    -0.269 OA
ATOM      6  C   UNL     1       2.402  -0.046   0.013  1.00  0.00     0.251 C 
ATOM      7  H   UNL     1       2.616   1.371   1.415  1.00  0.00     0.163 HD
BRANCH   6   8
ATOM      8  C   UNL     1       3.100  -1.027  -0.844  1.00  0.00     0.039 A 
ATOM      9  C   UNL     1       4.168  -1.774  -0.339  1.00  0.00     0.014 A 
ATOM     10  C   UNL     1       2.672  -1.212  -2.162  1.00  0.00     0.014 A 
ATOM     11  C   UNL     1       4.881  -2.618  -1.182  1.00  0.00     0.010 A 
ATOM     12  C   UNL     1       3.337  -2.125  -2.984  1.00  0.00     0.010 A 
ATOM     13  C   UNL     1       4.452  -2.827  -2.502  1.00  0.00    -0.014 A 
BRANCH  13  14
ATOM     14  C   UNL     1       5.100  -3.886  -3.313  1.00  0.00     0.031 A 
ATOM     15  C   UNL     1       5.877  -3.563  -4.555  1.00  0.00     0.074 A 
ATOM     16  C   UNL     1       4.960  -5.164  -2.906  1.00  0.00     0.049 A 
ATOM     17  N   UNL     1       6.471  -4.383  -5.385  1.00  0.00    -0.248 NA
ATOM     18  C   UNL     1       6.002  -2.144  -4.921  1.00  0.00     0.031 C 
ATOM     19  C   UNL     1       4.205  -5.591  -1.723  1.00  0.00     0.029 A 
ATOM     20  N   UNL     1       5.438  -6.335  -3.432  1.00  0.00    -0.354 N 
ATOM     21  C   UNL     1       7.022  -3.587  -6.380  1.00  0.00     0.074 A 
ATOM     22  C   UNL     1       6.683  -2.216  -6.059  1.00  0.00     0.031 C 
ATOM     23  C   UNL     1       4.289  -6.923  -1.603  1.00  0.00     0.029 A 
ATOM     24  C   UNL     1       5.043  -7.449  -2.733  1.00  0.00     0.049 A 
ATOM     25  H   UNL     1       6.009  -6.373  -4.234  1.00  0.00     0.167 HD
ATOM     26  C   UNL     1       7.744  -3.973  -7.459  1.00  0.00     0.037 A 
ATOM     27  C   UNL     1       5.231  -8.756  -2.992  1.00  0.00     0.037 A 
ATOM     28  C   UNL     1       8.095  -5.340  -7.752  1.00  0.00     0.049 A 
ATOM     29  C   UNL     1       6.006  -9.148  -4.215  1.00  0.00     0.074 A 
ATOM     30  C   UNL     1       8.897  -5.821  -8.773  1.00  0.00     0.029 A 
ATOM     31  N   UNL     1       7.656  -6.443  -7.036  1.00  0.00    -0.354 N 
ATOM     32  N   UNL     1       6.584  -8.379  -5.105  1.00  0.00    -0.248 NA
ATOM     33  C   UNL     1       6.146 -10.586  -4.476  1.00  0.00     0.031 C 
ATOM     34  C   UNL     1       8.895  -7.218  -8.710  1.00  0.00     0.029 A 
ATOM     35  C   UNL     1       8.131  -7.605  -7.621  1.00  0.00     0.049 A 
ATOM     36  H   UNL     1       7.091  -6.405  -6.231  1.00  0.00     0.167 HD
ATOM     37  C   UNL     1       7.159  -9.238  -6.029  1.00  0.00     0.074 A 
ATOM     38  C   UNL     1       6.888 -10.586  -5.574  1.00  0.00     0.031 C 
ATOM     39  C   UNL     1       7.843  -8.938  -7.160  1.00  0.00     0.037 A 
BRANCH  26  40
ATOM     40  C   UNL     1       8.200  -2.921  -8.425  1.00  0.00     0.057 A 
ATOM     41  C   UNL     1       9.264  -2.058  -8.135  1.00  0.00     0.134 A 
ATOM     42  C   UNL     1       7.638  -2.845  -9.707  1.00  0.00     0.134 A 
ATOM     43  F   UNL     1       9.844  -2.076  -6.926  1.00  0.00    -0.206 F 
ATOM     44  C   UNL     1       9.750  -1.156  -9.084  1.00  0.00     0.040 A 
ATOM     45  C   UNL     1       8.127  -1.962 -10.670  1.00  0.00     0.040 A 
ATOM     46  F   UNL     1       6.622  -3.651 -10.052  1.00  0.00    -0.206 F 
ATOM     47  C   UNL     1       9.189  -1.115 -10.360  1.00  0.00     0.006 A 
ENDBRANCH  26  40
BRANCH  27  48
ATOM     48  C   UNL     1       4.631  -9.782  -2.104  1.00  0.00     0.057 A 
ATOM     49  C   UNL     1       5.427 -10.624  -1.322  1.00  0.00     0.134 A 
ATOM     50  C   UNL     1       3.242  -9.953  -2.029  1.00  0.00     0.134 A 
ATOM     51  F   UNL     1       6.763 -10.521  -1.364  1.00  0.00    -0.206 F 
ATOM     52  C   UNL     1       4.866 -11.614  -0.513  1.00  0.00     0.040 A 
ATOM     53  C   UNL     1       2.666 -10.917  -1.202  1.00  0.00     0.040 A 
ATOM     54  F   UNL     1       2.423  -9.171  -2.749  1.00  0.00    -0.206 F 
ATOM     55  C   UNL     1       3.481 -11.759  -0.449  1.00  0.00     0.006 A 
ENDBRANCH  27  48
BRANCH  39  56
ATOM     56  C   UNL     1       8.341 -10.091  -7.976  1.00  0.00     0.057 A 
ATOM     57  C   UNL     1       7.469 -10.879  -8.739  1.00  0.00     0.134 A 
ATOM     58  C   UNL     1       9.706 -10.400  -8.025  1.00  0.00     0.134 A 
ATOM     59  F   UNL     1       6.148 -10.644  -8.719  1.00  0.00    -0.206 F 
ATOM     60  C   UNL     1       7.935 -11.945  -9.507  1.00  0.00     0.040 A 
ATOM     61  C   UNL     1      10.187 -11.447  -8.811  1.00  0.00     0.040 A 
ATOM     62  F   UNL     1      10.593  -9.680  -7.322  1.00  0.00    -0.206 F 
ATOM     63  C   UNL     1       9.300 -12.227  -9.550  1.00  0.00     0.006 A 
ENDBRANCH  39  56
ENDBRANCH  13  14
ENDBRANCH   6   8
ENDBRANCH   3   4
ENDBRANCH   2   3
ENDBRANCH   1   2
BRANCH   1  64
ATOM     64  C   UNL     1       4.807   3.189   2.971  1.00  0.00     0.116 C 
BRANCH  64  65
ATOM     65  N   UNL     1       6.236   3.033   3.168  1.00  0.00    -0.352 N 
ATOM     66  C   UNL     1       7.032   3.589   4.138  1.00  0.00     0.255 C 
ATOM     67  H   UNL     1       6.696   2.451   2.521  1.00  0.00     0.163 HD
ATOM     68  O   UNL     1       8.244   3.391   4.125  1.00  0.00    -0.269 OA
BRANCH  66  69
ATOM     69  C   UNL     1       6.454   4.505   5.141  1.00  0.00     0.082 A 
ATOM     70  C   UNL     1       6.998   5.796   5.197  1.00  0.00     0.025 A 
ATOM     71  C   UNL     1       5.433   4.134   6.018  1.00  0.00     0.128 A 
ATOM     72  C   UNL     1       6.498   6.747   6.095  1.00  0.00    -0.025 A 
ATOM     73  C   UNL     1       4.913   5.072   6.906  1.00  0.00     0.047 A 
ATOM     74  C   UNL     1       5.438   6.369   6.935  1.00  0.00     0.012 A 
BRANCH  71  75
ATOM     75  O   UNL     1       4.934   2.862   6.009  1.00  0.00    -0.507 OA
ATOM     76  H   UNL     1       5.280   2.227   5.413  1.00  0.00     0.293 HD
ENDBRANCH  71  75
BRANCH  72  77
ATOM     77  C   UNL     1       7.033   8.116   6.207  1.00  0.00     0.009 C 
ATOM     78  C   UNL     1       8.065   8.617   5.506  1.00  0.00     0.009 C 
BRANCH  78  79
ATOM     79  C   UNL     1       8.573   9.983   5.685  1.00  0.00    -0.018 A 
ATOM     80  C   UNL     1       8.843  10.504   6.958  1.00  0.00     0.054 A 
ATOM     81  C   UNL     1       8.863  10.754   4.550  1.00  0.00     0.054 A 
ATOM     82  C   UNL     1       9.375  11.786   7.082  1.00  0.00     0.119 A 
ATOM     83  C   UNL     1       9.391  12.034   4.699  1.00  0.00     0.119 A 
ATOM     84  C   UNL     1       9.648  12.558   5.960  1.00  0.00     0.092 A 
BRANCH  82  85
ATOM     85  O   UNL     1       9.655  12.321   8.306  1.00  0.00    -0.508 OA
ATOM     86  H   UNL     1       9.484  11.827   9.083  1.00  0.00     0.293 HD
ENDBRANCH  82  85
BRANCH  83  87
ATOM     87  O   UNL     1       9.680  12.812   3.616  1.00  0.00    -0.508 OA
ATOM     88  H   UNL     1      10.035  13.671   3.737  1.00  0.00     0.293 HD
ENDBRANCH  83  87
ENDBRANCH  78  79
ENDBRANCH  72  77
ENDBRANCH  66  69
ENDBRANCH  64  65
ENDBRANCH   1  64
TORSDOF 16
