REMARK SMILES CCN(C(=O)c1ccccc1C(=O)NCCCCNC(=O)c1ccc(-c2c3nc(c(-c4c(F)cccc4F)c4ccc([nH]4)c(-c4c(F)cccc4F)c4nc(c(-c5c(F)cccc5F)c5ccc2[nH]5)C=C4)C=C3)cc1)[C@H](CCO)c1ccccc1
REMARK SMILES IDX 12 1 13 2 14 3 11 5 6 6 7 7 8 8 10 9 9 10 4 11 5 12 3 13
REMARK SMILES IDX 2 14 1 15 76 16 80 17 81 18 85 19 82 20 84 21 83 22 77 23
REMARK SMILES IDX 78 24 79 25 15 27 16 28 17 29 18 30 19 31 20 32 21 34 22 35
REMARK SMILES IDX 23 36 75 37 24 38 74 39 25 40 26 41 27 42 68 43 28 44 73 45
REMARK SMILES IDX 67 46 69 47 29 48 72 49 66 50 65 51 30 53 56 54 39 55 55 56
REMARK SMILES IDX 40 57 43 58 54 59 70 60 41 61 42 62 53 64 71 65 44 66 31 67
REMARK SMILES IDX 32 68 37 69 33 70 34 71 36 72 38 73 35 74 57 75 58 76 63 77
REMARK SMILES IDX 59 78 60 79 62 80 64 81 61 82 45 83 46 84 51 85 47 86 48 87
REMARK SMILES IDX 50 88 52 89 49 90
REMARK H PARENT 14 4 79 26 19 33 69 52 43 63
REMARK Flexibility Score: inf
ROOT
ATOM      1  C   UNL     1       3.956  -3.060  -2.278  1.00  0.00     0.252 C 
ATOM      2  O   UNL     1       3.478  -3.312  -3.398  1.00  0.00    -0.269 OA
ATOM      3  N   UNL     1       3.541  -1.817  -1.830  1.00  0.00    -0.352 N 
ATOM      4  H   UNL     1       3.083  -1.291  -2.525  1.00  0.00     0.163 HD
ENDROOT
BRANCH   1   5
ATOM      5  C   UNL     1       4.911  -4.123  -1.702  1.00  0.00     0.052 A 
ATOM      6  C   UNL     1       5.285  -4.557  -0.404  1.00  0.00     0.052 A 
ATOM      7  C   UNL     1       6.150  -5.680  -0.225  1.00  0.00     0.014 A 
ATOM      8  C   UNL     1       6.598  -6.451  -1.280  1.00  0.00     0.001 A 
ATOM      9  C   UNL     1       5.429  -4.945  -2.751  1.00  0.00     0.014 A 
ATOM     10  C   UNL     1       6.224  -6.088  -2.552  1.00  0.00     0.001 A 
BRANCH   6  11
ATOM     11  C   UNL     1       4.748  -4.182   0.931  1.00  0.00     0.255 C 
ATOM     12  O   UNL     1       5.444  -4.341   1.935  1.00  0.00    -0.269 OA
BRANCH  11  13
ATOM     13  N   UNL     1       3.438  -3.782   1.024  1.00  0.00    -0.332 N 
BRANCH  13  14
ATOM     14  C   UNL     1       2.495  -4.681   0.303  1.00  0.00     0.117 C 
ATOM     15  C   UNL     1       1.548  -5.576   1.097  1.00  0.00     0.027 C 
ENDBRANCH  13  14
BRANCH  13  16
ATOM     16  C   UNL     1       3.075  -2.888   2.188  1.00  0.00     0.118 C 
BRANCH  16  17
ATOM     17  C   UNL     1       4.087  -1.601   2.430  1.00  0.00    -0.025 A 
ATOM     18  C   UNL     1       5.432  -1.507   1.998  1.00  0.00     0.006 A 
ATOM     19  C   UNL     1       3.756  -0.480   3.201  1.00  0.00     0.006 A 
ATOM     20  C   UNL     1       6.225  -0.335   2.061  1.00  0.00     0.000 A 
ATOM     21  C   UNL     1       4.466   0.752   3.173  1.00  0.00     0.000 A 
ATOM     22  C   UNL     1       5.703   0.834   2.567  1.00  0.00     0.000 A 
ENDBRANCH  16  17
BRANCH  16  23
ATOM     23  C   UNL     1       1.494  -2.693   2.240  1.00  0.00     0.058 C 
BRANCH  23  24
ATOM     24  C   UNL     1       0.612  -2.177   1.055  1.00  0.00     0.158 C 
BRANCH  24  25
ATOM     25  O   UNL     1       0.184  -3.138   0.104  1.00  0.00    -0.396 OA
ATOM     26  H   UNL     1       0.957  -3.505  -0.354  1.00  0.00     0.210 HD
ENDBRANCH  24  25
ENDBRANCH  23  24
ENDBRANCH  16  23
ENDBRANCH  13  16
ENDBRANCH  11  13
ENDBRANCH   6  11
ENDBRANCH   1   5
BRANCH   3  27
ATOM     27  C   UNL     1       3.635  -1.125  -0.569  1.00  0.00     0.116 C 
BRANCH  27  28
ATOM     28  C   UNL     1       3.369   0.404  -0.504  1.00  0.00     0.023 C 
BRANCH  28  29
ATOM     29  C   UNL     1       1.962   1.059  -0.344  1.00  0.00     0.023 C 
BRANCH  29  30
ATOM     30  C   UNL     1       1.046   1.193   0.923  1.00  0.00     0.116 C 
BRANCH  30  31
ATOM     31  N   UNL     1       1.277   0.394   2.112  1.00  0.00    -0.352 N 
ATOM     32  C   UNL     1       0.660   0.424   3.359  1.00  0.00     0.251 C 
ATOM     33  H   UNL     1       1.988  -0.282   2.021  1.00  0.00     0.163 HD
ATOM     34  O   UNL     1       0.846  -0.353   4.293  1.00  0.00    -0.269 OA
BRANCH  32  35
ATOM     35  C   UNL     1      -0.255   1.490   3.627  1.00  0.00     0.039 A 
ATOM     36  C   UNL     1       0.152   2.502   4.502  1.00  0.00     0.014 A 
ATOM     37  C   UNL     1      -1.369   1.545   2.812  1.00  0.00     0.014 A 
ATOM     38  C   UNL     1      -0.507   3.707   4.431  1.00  0.00     0.010 A 
ATOM     39  C   UNL     1      -1.931   2.775   2.652  1.00  0.00     0.010 A 
ATOM     40  C   UNL     1      -1.489   3.854   3.447  1.00  0.00    -0.014 A 
BRANCH  40  41
ATOM     41  C   UNL     1      -2.150   5.129   3.188  1.00  0.00     0.031 A 
ATOM     42  C   UNL     1      -3.632   5.139   3.345  1.00  0.00     0.074 A 
ATOM     43  C   UNL     1      -1.447   6.108   2.597  1.00  0.00     0.049 A 
ATOM     44  N   UNL     1      -4.505   5.944   2.816  1.00  0.00    -0.248 NA
ATOM     45  C   UNL     1      -4.215   4.007   4.095  1.00  0.00     0.031 C 
ATOM     46  C   UNL     1      -0.001   6.102   2.345  1.00  0.00     0.029 A 
ATOM     47  N   UNL     1      -1.874   7.284   2.053  1.00  0.00    -0.354 N 
ATOM     48  C   UNL     1      -5.735   5.377   3.110  1.00  0.00     0.074 A 
ATOM     49  C   UNL     1      -5.495   4.125   3.787  1.00  0.00     0.031 C 
ATOM     50  C   UNL     1       0.338   7.233   1.704  1.00  0.00     0.029 A 
ATOM     51  C   UNL     1      -0.871   8.008   1.459  1.00  0.00     0.049 A 
ATOM     52  H   UNL     1      -2.811   7.584   2.083  1.00  0.00     0.167 HD
ATOM     53  C   UNL     1      -6.955   5.891   2.852  1.00  0.00     0.037 A 
ATOM     54  C   UNL     1      -0.952   9.163   0.778  1.00  0.00     0.037 A 
ATOM     55  C   UNL     1      -7.126   7.184   2.255  1.00  0.00     0.049 A 
ATOM     56  C   UNL     1      -2.317   9.769   0.606  1.00  0.00     0.074 A 
ATOM     57  C   UNL     1      -8.289   7.898   2.061  1.00  0.00     0.029 A 
ATOM     58  N   UNL     1      -6.079   7.965   1.780  1.00  0.00    -0.354 N 
ATOM     59  N   UNL     1      -3.485   9.284   0.960  1.00  0.00    -0.248 NA
ATOM     60  C   UNL     1      -2.381  11.078  -0.051  1.00  0.00     0.031 C 
ATOM     61  C   UNL     1      -7.948   9.105   1.442  1.00  0.00     0.029 A 
ATOM     62  C   UNL     1      -6.569   9.156   1.285  1.00  0.00     0.049 A 
ATOM     63  H   UNL     1      -5.129   7.707   1.794  1.00  0.00     0.167 HD
ATOM     64  C   UNL     1      -4.422  10.238   0.594  1.00  0.00     0.074 A 
ATOM     65  C   UNL     1      -3.680  11.336   0.003  1.00  0.00     0.031 C 
ATOM     66  C   UNL     1      -5.772  10.218   0.723  1.00  0.00     0.037 A 
BRANCH  53  67
ATOM     67  C   UNL     1      -8.148   5.075   3.245  1.00  0.00     0.057 A 
ATOM     68  C   UNL     1      -8.448   4.795   4.585  1.00  0.00     0.134 A 
ATOM     69  C   UNL     1      -9.003   4.550   2.270  1.00  0.00     0.134 A 
ATOM     70  F   UNL     1      -7.654   5.245   5.569  1.00  0.00    -0.206 F 
ATOM     71  C   UNL     1      -9.534   3.995   4.940  1.00  0.00     0.040 A 
ATOM     72  C   UNL     1     -10.113   3.777   2.614  1.00  0.00     0.040 A 
ATOM     73  F   UNL     1      -8.770   4.770   0.967  1.00  0.00    -0.206 F 
ATOM     74  C   UNL     1     -10.376   3.491   3.952  1.00  0.00     0.006 A 
ENDBRANCH  53  67
BRANCH  54  75
ATOM     75  C   UNL     1       0.273   9.826   0.269  1.00  0.00     0.057 A 
ATOM     76  C   UNL     1       0.742  11.005   0.861  1.00  0.00     0.134 A 
ATOM     77  C   UNL     1       1.015   9.303  -0.796  1.00  0.00     0.134 A 
ATOM     78  F   UNL     1       0.073  11.557   1.884  1.00  0.00    -0.206 F 
ATOM     79  C   UNL     1       1.885  11.657   0.395  1.00  0.00     0.040 A 
ATOM     80  C   UNL     1       2.174   9.932  -1.258  1.00  0.00     0.040 A 
ATOM     81  F   UNL     1       0.636   8.163  -1.392  1.00  0.00    -0.206 F 
ATOM     82  C   UNL     1       2.606  11.118  -0.668  1.00  0.00     0.006 A 
ENDBRANCH  54  75
BRANCH  66  83
ATOM     83  C   UNL     1      -6.510  11.429   0.246  1.00  0.00     0.057 A 
ATOM     84  C   UNL     1      -6.696  11.681  -1.117  1.00  0.00     0.134 A 
ATOM     85  C   UNL     1      -7.097  12.307   1.164  1.00  0.00     0.134 A 
ATOM     86  F   UNL     1      -6.145  10.877  -2.040  1.00  0.00    -0.206 F 
ATOM     87  C   UNL     1      -7.432  12.780  -1.554  1.00  0.00     0.040 A 
ATOM     88  C   UNL     1      -7.859  13.393   0.739  1.00  0.00     0.040 A 
ATOM     89  F   UNL     1      -6.962  12.106   2.483  1.00  0.00    -0.206 F 
ATOM     90  C   UNL     1      -8.024  13.634  -0.624  1.00  0.00     0.006 A 
ENDBRANCH  66  83
ENDBRANCH  40  41
ENDBRANCH  32  35
ENDBRANCH  30  31
ENDBRANCH  29  30
ENDBRANCH  28  29
ENDBRANCH  27  28
ENDBRANCH   3  27
TORSDOF 19
