REMARK SMILES C/C(=N\[NH+]=C1\NC(=O)[C@H](CC(=O)NCCCCNC(=O)c2ccc(-c3c4nc(c(-c5c(F)cccc5F)c5ccc([nH]5)c(-c5c(F)cccc5F)c5nc(c(-c6c(F)cccc6F)c6ccc3[nH]6)C=C5)C=C4)cc2)S1)c1ccc([N+](=O)[O-])cc1
REMARK SMILES IDX 14 1 13 2 11 3 12 4 10 6 9 7 4 8 5 9 6 11 75 12 7 13 8 15
REMARK SMILES IDX 3 16 1 17 2 18 76 19 77 20 84 21 78 22 83 23 79 24 80 25
REMARK SMILES IDX 81 26 82 27 15 28 16 29 17 30 18 31 19 32 20 34 21 35 22 36
REMARK SMILES IDX 74 37 23 38 73 39 24 40 25 41 26 42 67 43 27 44 72 45 66 46
REMARK SMILES IDX 68 47 28 48 71 49 65 50 64 51 29 53 55 54 38 55 54 56 39 57
REMARK SMILES IDX 42 58 53 59 69 60 40 61 41 62 52 64 70 65 43 66 30 67 31 68
REMARK SMILES IDX 36 69 32 70 33 71 35 72 37 73 34 74 56 75 57 76 62 77 58 78
REMARK SMILES IDX 59 79 61 80 63 81 60 82 44 83 45 84 50 85 46 86 47 87 49 88
REMARK SMILES IDX 51 89 48 90
REMARK H PARENT 13 5 4 10 6 14 18 33 68 52 42 63
REMARK Flexibility Score: inf
ROOT
ATOM      1  C   UNL     1      -3.262   3.518  -3.760  1.00  0.00     0.116 C 
ENDROOT
BRANCH   1   2
ATOM      2  N   UNL     1      -3.257   2.425  -4.719  1.00  0.00    -0.356 N 
ATOM      3  C   UNL     1      -3.267   1.076  -4.516  1.00  0.00     0.221 C 
ATOM      4  O   UNL     1      -3.230   0.323  -5.488  1.00  0.00    -0.275 OA
ATOM      5  H   UNL     1      -3.243   2.703  -5.663  1.00  0.00     0.163 HD
BRANCH   3   6
ATOM      6  C   UNL     1      -3.294   0.524  -3.109  1.00  0.00     0.127 C 
BRANCH   6   7
ATOM      7  C   UNL     1      -1.887   0.201  -2.629  1.00  0.00     0.183 C 
ATOM      8  N   UNL     1      -0.432   1.797   0.560  1.00  0.00    -0.142 N 
ATOM      9  C   UNL     1      -1.023   1.384  -0.507  1.00  0.00     0.337 C 
ATOM     10  H   UNL     1      -0.098   2.719   0.646  1.00  0.00     0.343 HD
ATOM     11  N   UNL     1      -0.828   2.086  -1.641  1.00  0.00    -0.202 N 
ATOM     12  S   UNL     1      -1.875  -0.100  -0.820  1.00  0.00    -0.020 SA
ATOM     13  C   UNL     1      -0.944   1.370  -2.790  1.00  0.00     0.322 C 
ATOM     14  H   UNL     1      -0.616   3.047  -1.637  1.00  0.00     0.316 HD
ATOM     15  O   UNL     1      -0.303   1.620  -3.801  1.00  0.00    -0.246 OA
BRANCH   8  16
ATOM     16  N   UNL     1      -0.294   0.867   1.582  1.00  0.00    -0.090 NA
ATOM     17  C   UNL     1       1.735   0.188   0.287  1.00  0.00     0.071 C 
ATOM     18  C   UNL     1       0.792   0.143   1.489  1.00  0.00     0.088 C 
BRANCH  18  19
ATOM     19  C   UNL     1       1.114  -0.828   2.584  1.00  0.00    -0.000 A 
ATOM     20  C   UNL     1       0.143  -1.116   3.556  1.00  0.00     0.017 A 
ATOM     21  C   UNL     1       2.377  -1.429   2.680  1.00  0.00     0.017 A 
ATOM     22  C   UNL     1       0.436  -1.977   4.620  1.00  0.00     0.086 A 
ATOM     23  C   UNL     1       2.681  -2.283   3.743  1.00  0.00     0.086 A 
ATOM     24  C   UNL     1       1.711  -2.549   4.714  1.00  0.00     0.269 A 
BRANCH  24  25
ATOM     25  N   UNL     1       2.043  -3.424   5.844  1.00  0.00     0.062 N 
ATOM     26  O   UNL     1       1.156  -3.650   6.678  1.00  0.00    -0.258 OA
ATOM     27  O   UNL     1       3.194  -3.880   5.898  1.00  0.00    -0.258 OA
ENDBRANCH  24  25
ENDBRANCH  18  19
ENDBRANCH   8  16
ENDBRANCH   6   7
ENDBRANCH   3   6
ENDBRANCH   1   2
BRANCH   1  28
ATOM     28  C   UNL     1      -2.040   4.427  -3.905  1.00  0.00     0.023 C 
BRANCH  28  29
ATOM     29  C   UNL     1      -2.029   5.288  -5.161  1.00  0.00     0.023 C 
BRANCH  29  30
ATOM     30  C   UNL     1      -3.170   6.288  -5.237  1.00  0.00     0.116 C 
BRANCH  30  31
ATOM     31  N   UNL     1      -3.165   7.231  -4.125  1.00  0.00    -0.352 N 
ATOM     32  C   UNL     1      -3.179   8.606  -4.159  1.00  0.00     0.251 C 
ATOM     33  H   UNL     1      -3.148   6.828  -3.227  1.00  0.00     0.163 HD
ATOM     34  O   UNL     1      -3.010   9.260  -3.142  1.00  0.00    -0.269 OA
BRANCH  32  35
ATOM     35  C   UNL     1      -3.373   9.277  -5.459  1.00  0.00     0.039 A 
ATOM     36  C   UNL     1      -2.482  10.279  -5.848  1.00  0.00     0.014 A 
ATOM     37  C   UNL     1      -4.391   8.853  -6.317  1.00  0.00     0.014 A 
ATOM     38  C   UNL     1      -2.561  10.799  -7.140  1.00  0.00     0.010 A 
ATOM     39  C   UNL     1      -4.409   9.304  -7.628  1.00  0.00     0.010 A 
ATOM     40  C   UNL     1      -3.494  10.279  -8.053  1.00  0.00    -0.014 A 
BRANCH  40  41
ATOM     41  C   UNL     1      -3.540  10.734  -9.464  1.00  0.00     0.031 A 
ATOM     42  C   UNL     1      -4.783  11.393  -9.991  1.00  0.00     0.074 A 
ATOM     43  C   UNL     1      -2.510  10.465 -10.289  1.00  0.00     0.049 A 
ATOM     44  N   UNL     1      -5.078  11.743 -11.216  1.00  0.00    -0.248 NA
ATOM     45  C   UNL     1      -5.853  11.660  -9.015  1.00  0.00     0.031 C 
ATOM     46  C   UNL     1      -1.272   9.781  -9.908  1.00  0.00     0.029 A 
ATOM     47  N   UNL     1      -2.349  10.720 -11.627  1.00  0.00    -0.354 N 
ATOM     48  C   UNL     1      -6.372  12.244 -11.161  1.00  0.00     0.074 A 
ATOM     49  C   UNL     1      -6.826  12.104  -9.795  1.00  0.00     0.031 C 
ATOM     50  C   UNL     1      -0.471   9.690 -10.982  1.00  0.00     0.029 A 
ATOM     51  C   UNL     1      -1.153  10.271 -12.133  1.00  0.00     0.049 A 
ATOM     52  H   UNL     1      -3.026  11.182 -12.173  1.00  0.00     0.167 HD
ATOM     53  C   UNL     1      -7.107  12.795 -12.155  1.00  0.00     0.037 A 
ATOM     54  C   UNL     1      -0.668  10.315 -13.389  1.00  0.00     0.037 A 
ATOM     55  C   UNL     1      -6.635  12.970 -13.502  1.00  0.00     0.049 A 
ATOM     56  C   UNL     1      -1.500  10.938 -14.474  1.00  0.00     0.074 A 
ATOM     57  C   UNL     1      -7.271  13.587 -14.565  1.00  0.00     0.029 A 
ATOM     58  N   UNL     1      -5.407  12.528 -13.970  1.00  0.00    -0.354 N 
ATOM     59  N   UNL     1      -2.696  11.470 -14.395  1.00  0.00    -0.248 NA
ATOM     60  C   UNL     1      -0.917  10.967 -15.823  1.00  0.00     0.031 C 
ATOM     61  C   UNL     1      -6.441  13.486 -15.686  1.00  0.00     0.029 A 
ATOM     62  C   UNL     1      -5.273  12.841 -15.312  1.00  0.00     0.049 A 
ATOM     63  H   UNL     1      -4.730  12.061 -13.428  1.00  0.00     0.167 HD
ATOM     64  C   UNL     1      -2.999  11.916 -15.674  1.00  0.00     0.074 A 
ATOM     65  C   UNL     1      -1.856  11.605 -16.508  1.00  0.00     0.031 C 
ATOM     66  C   UNL     1      -4.123  12.527 -16.120  1.00  0.00     0.037 A 
BRANCH  53  67
ATOM     67  C   UNL     1      -8.492  13.257 -11.814  1.00  0.00     0.057 A 
ATOM     68  C   UNL     1      -8.718  14.379 -11.006  1.00  0.00     0.134 A 
ATOM     69  C   UNL     1      -9.614  12.585 -12.315  1.00  0.00     0.134 A 
ATOM     70  F   UNL     1      -7.686  15.058 -10.482  1.00  0.00    -0.206 F 
ATOM     71  C   UNL     1     -10.009  14.801 -10.685  1.00  0.00     0.040 A 
ATOM     72  C   UNL     1     -10.910  13.013 -12.024  1.00  0.00     0.040 A 
ATOM     73  F   UNL     1      -9.469  11.505 -13.097  1.00  0.00    -0.206 F 
ATOM     74  C   UNL     1     -11.110  14.120 -11.201  1.00  0.00     0.006 A 
ENDBRANCH  53  67
BRANCH  54  75
ATOM     75  C   UNL     1       0.680   9.770 -13.685  1.00  0.00     0.057 A 
ATOM     76  C   UNL     1       1.749  10.623 -13.986  1.00  0.00     0.134 A 
ATOM     77  C   UNL     1       0.934   8.394 -13.678  1.00  0.00     0.134 A 
ATOM     78  F   UNL     1       1.562  11.950 -14.026  1.00  0.00    -0.206 F 
ATOM     79  C   UNL     1       3.018  10.126 -14.288  1.00  0.00     0.040 A 
ATOM     80  C   UNL     1       2.204   7.884 -13.956  1.00  0.00     0.040 A 
ATOM     81  F   UNL     1      -0.046   7.525 -13.389  1.00  0.00    -0.206 F 
ATOM     82  C   UNL     1       3.249   8.752 -14.269  1.00  0.00     0.006 A 
ENDBRANCH  54  75
BRANCH  66  83
ATOM     83  C   UNL     1      -4.162  12.922 -17.566  1.00  0.00     0.057 A 
ATOM     84  C   UNL     1      -4.340  11.976 -18.582  1.00  0.00     0.134 A 
ATOM     85  C   UNL     1      -4.072  14.269 -17.940  1.00  0.00     0.134 A 
ATOM     86  F   UNL     1      -4.419  10.669 -18.288  1.00  0.00    -0.206 F 
ATOM     87  C   UNL     1      -4.413  12.354 -19.923  1.00  0.00     0.040 A 
ATOM     88  C   UNL     1      -4.167  14.661 -19.275  1.00  0.00     0.040 A 
ATOM     89  F   UNL     1      -3.908  15.224 -17.012  1.00  0.00    -0.206 F 
ATOM     90  C   UNL     1      -4.335  13.702 -20.271  1.00  0.00     0.006 A 
ENDBRANCH  66  83
ENDBRANCH  40  41
ENDBRANCH  32  35
ENDBRANCH  30  31
ENDBRANCH  29  30
ENDBRANCH  28  29
ENDBRANCH   1  28
TORSDOF 15
