REMARK SMILES CC1=NN(c2ccc(Cl)c(C(=O)NCCCCNC(=O)c3ccc(-c4c5nc(c(-c6c(F)cccc6F)c6ccc([nH]6)c(-c6c(F)cccc6F)c6nc(c(-c7c(F)cccc7F)c7ccc4[nH]7)C=C6)C=C5)cc3)c2)C(=O)/C1=C\c1ccc(N(C)C)c(Br)c1
REMARK SMILES IDX 15 1 14 2 13 3 11 4 12 5 10 7 5 8 6 9 75 10 7 11 8 12 9 13
REMARK SMILES IDX 4 14 1 15 2 16 3 17 78 18 76 19 79 20 77 21 80 22 81 23
REMARK SMILES IDX 89 24 82 25 87 26 83 27 88 28 84 29 85 30 86 31 16 32 17 33
REMARK SMILES IDX 18 34 19 35 20 37 21 38 22 39 74 40 23 41 73 42 24 43 25 44
REMARK SMILES IDX 26 45 67 46 27 47 72 48 66 49 68 50 28 51 71 52 65 53 64 54
REMARK SMILES IDX 29 56 55 57 38 58 54 59 39 60 42 61 53 62 69 63 40 64 41 65
REMARK SMILES IDX 52 67 70 68 43 69 30 70 31 71 36 72 32 73 33 74 35 75 37 76
REMARK SMILES IDX 34 77 56 78 57 79 62 80 58 81 59 82 61 83 63 84 60 85 44 86
REMARK SMILES IDX 45 87 50 88 46 89 47 90 49 91 51 92 48 93
REMARK H PARENT 13 6 18 36 68 55 42 66
REMARK Flexibility Score: inf
ROOT
ATOM      1  C   UNL     1       2.237   8.979   0.366  1.00  0.00     0.023 C 
ENDROOT
BRANCH   1   2
ATOM      2  C   UNL     1       2.807   7.597   0.653  1.00  0.00     0.116 C 
BRANCH   2   3
ATOM      3  N   UNL     1       2.197   6.898   1.771  1.00  0.00    -0.352 N 
ATOM      4  C   UNL     1       1.903   5.559   1.925  1.00  0.00     0.252 C 
ATOM      5  O   UNL     1       1.418   5.183   2.991  1.00  0.00    -0.269 OA
ATOM      6  H   UNL     1       1.955   7.468   2.536  1.00  0.00     0.163 HD
BRANCH   4   7
ATOM      7  C   UNL     1       2.081   4.570   0.828  1.00  0.00     0.060 A 
ATOM      8  C   UNL     1       1.210   2.593  -0.295  1.00  0.00     0.070 A 
ATOM      9  C   UNL     1       2.270   2.671  -1.205  1.00  0.00     0.030 A 
ATOM     10  C   UNL     1       1.054   3.608   0.656  1.00  0.00     0.044 A 
ATOM     11  C   UNL     1       3.289   3.594  -1.030  1.00  0.00     0.023 A 
ATOM     12  C   UNL     1       3.249   4.461   0.058  1.00  0.00     0.053 A 
ATOM     13  Cl  UNL     1       4.764   5.182   0.478  1.00  0.00    -0.083 Cl
BRANCH   8  14
ATOM     14  N   UNL     1       0.485   1.385  -0.236  1.00  0.00    -0.196 N 
ATOM     15  C   UNL     1      -2.567  -0.479   0.178  1.00  0.00     0.069 C 
ATOM     16  C   UNL     1      -1.181   0.059   0.039  1.00  0.00     0.071 C 
ATOM     17  N   UNL     1      -0.872   1.336   0.044  1.00  0.00    -0.169 NA
ATOM     18  C   UNL     1       0.003  -0.810  -0.121  1.00  0.00     0.065 C 
ATOM     19  C   UNL     1       1.104   0.134  -0.388  1.00  0.00     0.280 C 
ATOM     20  C   UNL     1       0.105  -2.137   0.046  1.00  0.00     0.024 C 
ATOM     21  O   UNL     1       2.262  -0.143  -0.646  1.00  0.00    -0.267 OA
BRANCH  20  22
ATOM     22  C   UNL     1       1.409  -2.815   0.121  1.00  0.00    -0.024 A 
ATOM     23  C   UNL     1       1.901  -3.588  -0.915  1.00  0.00     0.010 A 
ATOM     24  C   UNL     1       2.225  -2.624   1.236  1.00  0.00     0.026 A 
ATOM     25  C   UNL     1       3.203  -4.125  -0.839  1.00  0.00     0.028 A 
ATOM     26  C   UNL     1       3.528  -3.169   1.315  1.00  0.00     0.041 A 
ATOM     27  C   UNL     1       4.082  -3.947   0.264  1.00  0.00     0.051 A 
ATOM     28  Br  UNL     1       4.368  -2.738   2.981  1.00  0.00    -0.049 Br
BRANCH  27  29
ATOM     29  N   UNL     1       5.352  -4.531   0.234  1.00  0.00    -0.377 N 
ATOM     30  C   UNL     1       5.796  -5.419  -0.843  1.00  0.00     0.143 C 
ATOM     31  C   UNL     1       6.431  -4.145   1.139  1.00  0.00     0.143 C 
ENDBRANCH  27  29
ENDBRANCH  20  22
ENDBRANCH   8  14
ENDBRANCH   4   7
ENDBRANCH   2   3
ENDBRANCH   1   2
BRANCH   1  32
ATOM     32  C   UNL     1       2.443  10.035   1.448  1.00  0.00     0.023 C 
BRANCH  32  33
ATOM     33  C   UNL     1       3.854  10.180   2.011  1.00  0.00     0.116 C 
BRANCH  33  34
ATOM     34  N   UNL     1       4.875  10.451   1.009  1.00  0.00    -0.352 N 
ATOM     35  C   UNL     1       5.831  11.440   0.967  1.00  0.00     0.251 C 
ATOM     36  H   UNL     1       4.881   9.833   0.243  1.00  0.00     0.163 HD
ATOM     37  O   UNL     1       6.568  11.540  -0.010  1.00  0.00    -0.269 OA
BRANCH  35  38
ATOM     38  C   UNL     1       5.948  12.415   2.074  1.00  0.00     0.039 A 
ATOM     39  C   UNL     1       6.076  13.772   1.766  1.00  0.00     0.014 A 
ATOM     40  C   UNL     1       5.912  12.003   3.408  1.00  0.00     0.014 A 
ATOM     41  C   UNL     1       6.077  14.720   2.792  1.00  0.00     0.010 A 
ATOM     42  C   UNL     1       5.820  12.952   4.423  1.00  0.00     0.010 A 
ATOM     43  C   UNL     1       5.902  14.321   4.128  1.00  0.00    -0.014 A 
BRANCH  43  44
ATOM     44  C   UNL     1       5.807  15.319   5.226  1.00  0.00     0.031 A 
ATOM     45  C   UNL     1       6.830  15.328   6.330  1.00  0.00     0.074 A 
ATOM     46  C   UNL     1       4.766  16.174   5.267  1.00  0.00     0.049 A 
ATOM     47  N   UNL     1       6.885  16.079   7.401  1.00  0.00    -0.248 NA
ATOM     48  C   UNL     1       7.917  14.341   6.234  1.00  0.00     0.031 C 
ATOM     49  C   UNL     1       3.676  16.232   4.291  1.00  0.00     0.029 A 
ATOM     50  N   UNL     1       4.451  17.157   6.172  1.00  0.00    -0.354 N 
ATOM     51  C   UNL     1       7.999  15.645   8.109  1.00  0.00     0.074 A 
ATOM     52  C   UNL     1       8.553  14.525   7.381  1.00  0.00     0.031 C 
ATOM     53  C   UNL     1       2.832  17.219   4.631  1.00  0.00     0.029 A 
ATOM     54  C   UNL     1       3.297  17.839   5.867  1.00  0.00     0.049 A 
ATOM     55  H   UNL     1       4.999  17.355   6.966  1.00  0.00     0.167 HD
ATOM     56  C   UNL     1       8.531  16.151   9.247  1.00  0.00     0.037 A 
ATOM     57  C   UNL     1       2.684  18.851   6.511  1.00  0.00     0.037 A 
ATOM     58  C   UNL     1       7.996  17.283   9.956  1.00  0.00     0.049 A 
ATOM     59  C   UNL     1       3.294  19.396   7.773  1.00  0.00     0.074 A 
ATOM     60  C   UNL     1       8.495  17.908  11.085  1.00  0.00     0.029 A 
ATOM     61  N   UNL     1       6.837  17.958   9.603  1.00  0.00    -0.354 N 
ATOM     62  N   UNL     1       4.388  19.022   8.392  1.00  0.00    -0.248 NA
ATOM     63  C   UNL     1       2.588  20.510   8.422  1.00  0.00     0.031 C 
ATOM     64  C   UNL     1       7.615  18.936  11.440  1.00  0.00     0.029 A 
ATOM     65  C   UNL     1       6.595  18.983  10.504  1.00  0.00     0.049 A 
ATOM     66  H   UNL     1       6.270  17.742   8.828  1.00  0.00     0.167 HD
ATOM     67  C   UNL     1       4.519  19.873   9.482  1.00  0.00     0.074 A 
ATOM     68  C   UNL     1       3.398  20.789   9.433  1.00  0.00     0.031 C 
ATOM     69  C   UNL     1       5.481  19.894  10.436  1.00  0.00     0.037 A 
BRANCH  56  70
ATOM     70  C   UNL     1       9.764  15.484   9.787  1.00  0.00     0.057 A 
ATOM     71  C   UNL     1      10.998  15.567   9.128  1.00  0.00     0.134 A 
ATOM     72  C   UNL     1       9.723  14.768  10.990  1.00  0.00     0.134 A 
ATOM     73  F   UNL     1      11.104  16.228   7.965  1.00  0.00    -0.206 F 
ATOM     74  C   UNL     1      12.138  14.935   9.626  1.00  0.00     0.040 A 
ATOM     75  C   UNL     1      10.863  14.156  11.514  1.00  0.00     0.040 A 
ATOM     76  F   UNL     1       8.577  14.653  11.677  1.00  0.00    -0.206 F 
ATOM     77  C   UNL     1      12.073  14.231  10.827  1.00  0.00     0.006 A 
ENDBRANCH  56  70
BRANCH  57  78
ATOM     78  C   UNL     1       1.440  19.442   5.955  1.00  0.00     0.057 A 
ATOM     79  C   UNL     1       1.438  20.732   5.410  1.00  0.00     0.134 A 
ATOM     80  C   UNL     1       0.228  18.743   5.960  1.00  0.00     0.134 A 
ATOM     81  F   UNL     1       2.565  21.459   5.394  1.00  0.00    -0.206 F 
ATOM     82  C   UNL     1       0.272  21.313   4.907  1.00  0.00     0.040 A 
ATOM     83  C   UNL     1      -0.940  19.302   5.438  1.00  0.00     0.040 A 
ATOM     84  F   UNL     1       0.164  17.501   6.461  1.00  0.00    -0.206 F 
ATOM     85  C   UNL     1      -0.921  20.594   4.916  1.00  0.00     0.006 A 
ENDBRANCH  57  78
BRANCH  69  86
ATOM     86  C   UNL     1       5.391  20.967  11.481  1.00  0.00     0.057 A 
ATOM     87  C   UNL     1       4.423  20.938  12.492  1.00  0.00     0.134 A 
ATOM     88  C   UNL     1       6.314  22.021  11.499  1.00  0.00     0.134 A 
ATOM     89  F   UNL     1       3.502  19.963  12.524  1.00  0.00    -0.206 F 
ATOM     90  C   UNL     1       4.362  21.931  13.472  1.00  0.00     0.040 A 
ATOM     91  C   UNL     1       6.280  23.004  12.488  1.00  0.00     0.040 A 
ATOM     92  F   UNL     1       7.272  22.103  10.564  1.00  0.00    -0.206 F 
ATOM     93  C   UNL     1       5.298  22.964  13.475  1.00  0.00     0.006 A 
ENDBRANCH  69  86
ENDBRANCH  43  44
ENDBRANCH  35  38
ENDBRANCH  33  34
ENDBRANCH  32  33
ENDBRANCH   1  32
TORSDOF 14
