REMARK SMILES CCN(C[C@H](C)C(=O)NCCCCNC(=O)c1ccc(-c2c3nc(c(-c4c(F)cccc4F)c4ccc([nH]4)c(-c4c(F)cccc4F)c4nc(c(-c5c(F)cccc5F)c5ccc2[nH]5)C=C4)C=C3)cc1)c1ccc(C(=O)NC)nn1
REMARK SMILES IDX 10 1 9 2 7 3 8 4 5 6 6 7 4 8 3 9 2 10 1 11 71 12 72 13 80 14
REMARK SMILES IDX 73 15 79 16 74 17 75 18 76 19 77 20 78 21 11 23 12 24 13 25
REMARK SMILES IDX 14 26 15 27 16 29 17 30 18 31 70 32 19 33 69 34 20 35 21 36
REMARK SMILES IDX 22 37 63 38 23 39 68 40 62 41 64 42 24 43 67 44 61 45 60 46
REMARK SMILES IDX 25 48 51 49 34 50 50 51 35 52 38 53 49 54 65 55 36 56 37 57
REMARK SMILES IDX 48 59 66 60 39 61 26 62 27 63 32 64 28 65 29 66 31 67 33 68
REMARK SMILES IDX 30 69 52 70 53 71 58 72 54 73 55 74 57 75 59 76 56 77 40 78
REMARK SMILES IDX 41 79 46 80 42 81 43 82 45 83 47 84 44 85
REMARK H PARENT 9 5 77 22 14 28 64 47 38 58
REMARK Flexibility Score: inf
ROOT
ATOM      1  C   UNL     1       0.329  -3.914  -4.612  1.00  0.00     0.116 C 
ENDROOT
BRANCH   1   2
ATOM      2  N   UNL     1      -0.511  -3.080  -5.446  1.00  0.00    -0.356 N 
ATOM      3  C   UNL     1      -0.645  -1.731  -5.530  1.00  0.00     0.224 C 
ATOM      4  O   UNL     1      -1.498  -1.310  -6.317  1.00  0.00    -0.275 OA
ATOM      5  H   UNL     1      -1.090  -3.582  -6.064  1.00  0.00     0.163 HD
BRANCH   3   6
ATOM      6  C   UNL     1       0.239  -0.766  -4.749  1.00  0.00     0.095 C 
ATOM      7  C   UNL     1       0.108  -0.928  -3.238  1.00  0.00     0.020 C 
BRANCH   6   8
ATOM      8  C   UNL     1       1.661  -0.824  -5.327  1.00  0.00     0.131 C 
BRANCH   8   9
ATOM      9  N   UNL     1       2.643   0.082  -4.726  1.00  0.00    -0.355 N 
BRANCH   9  10
ATOM     10  C   UNL     1       3.399  -0.326  -3.549  1.00  0.00     0.115 C 
ATOM     11  C   UNL     1       4.894  -0.370  -3.829  1.00  0.00     0.027 C 
ENDBRANCH   9  10
BRANCH   9  12
ATOM     12  C   UNL     1       2.550   1.426  -5.042  1.00  0.00     0.151 A 
ATOM     13  C   UNL     1       3.561   2.050  -5.760  1.00  0.00     0.051 A 
ATOM     14  N   UNL     1       1.439   2.123  -4.748  1.00  0.00    -0.132 NA
ATOM     15  C   UNL     1       3.404   3.366  -6.212  1.00  0.00     0.040 A 
ATOM     16  N   UNL     1       1.283   3.437  -5.163  1.00  0.00    -0.143 NA
ATOM     17  C   UNL     1       2.245   4.047  -5.889  1.00  0.00     0.150 A 
BRANCH  17  18
ATOM     18  C   UNL     1       1.880   5.409  -6.385  1.00  0.00     0.271 C 
ATOM     19  O   UNL     1       0.691   5.711  -6.510  1.00  0.00    -0.267 OA
ATOM     20  N   UNL     1       2.791   6.379  -6.732  1.00  0.00    -0.354 N 
ATOM     21  C   UNL     1       4.222   6.493  -6.591  1.00  0.00     0.143 C 
ATOM     22  H   UNL     1       2.379   7.160  -7.168  1.00  0.00     0.163 HD
ENDBRANCH  17  18
ENDBRANCH   9  12
ENDBRANCH   8   9
ENDBRANCH   6   8
ENDBRANCH   3   6
ENDBRANCH   1   2
BRANCH   1  23
ATOM     23  C   UNL     1      -0.490  -4.666  -3.566  1.00  0.00     0.023 C 
BRANCH  23  24
ATOM     24  C   UNL     1      -1.480  -5.681  -4.143  1.00  0.00     0.023 C 
BRANCH  24  25
ATOM     25  C   UNL     1      -0.881  -6.698  -5.109  1.00  0.00     0.116 C 
BRANCH  25  26
ATOM     26  N   UNL     1       0.206  -7.470  -4.527  1.00  0.00    -0.352 N 
ATOM     27  C   UNL     1       0.470  -8.815  -4.662  1.00  0.00     0.251 C 
ATOM     28  H   UNL     1       0.836  -6.965  -3.964  1.00  0.00     0.163 HD
ATOM     29  O   UNL     1       1.367  -9.344  -4.027  1.00  0.00    -0.269 OA
BRANCH  27  30
ATOM     30  C   UNL     1      -0.382  -9.616  -5.565  1.00  0.00     0.039 A 
ATOM     31  C   UNL     1      -0.997 -10.767  -5.067  1.00  0.00     0.014 A 
ATOM     32  C   UNL     1      -0.611  -9.195  -6.877  1.00  0.00     0.014 A 
ATOM     33  C   UNL     1      -1.907 -11.460  -5.867  1.00  0.00     0.010 A 
ATOM     34  C   UNL     1      -1.566  -9.848  -7.647  1.00  0.00     0.010 A 
ATOM     35  C   UNL     1      -2.227 -10.982  -7.148  1.00  0.00    -0.014 A 
BRANCH  35  36
ATOM     36  C   UNL     1      -3.248 -11.648  -7.994  1.00  0.00     0.031 A 
ATOM     37  C   UNL     1      -2.840 -12.275  -9.297  1.00  0.00     0.074 A 
ATOM     38  C   UNL     1      -4.546 -11.609  -7.637  1.00  0.00     0.049 A 
ATOM     39  N   UNL     1      -3.589 -12.780 -10.243  1.00  0.00    -0.248 NA
ATOM     40  C   UNL     1      -1.397 -12.310  -9.588  1.00  0.00     0.031 C 
ATOM     41  C   UNL     1      -5.073 -10.997  -6.416  1.00  0.00     0.029 A 
ATOM     42  N   UNL     1      -5.663 -12.079  -8.281  1.00  0.00    -0.354 N 
ATOM     43  C   UNL     1      -2.713 -13.169 -11.248  1.00  0.00     0.074 A 
ATOM     44  C   UNL     1      -1.382 -12.802 -10.817  1.00  0.00     0.031 C 
ATOM     45  C   UNL     1      -6.408 -11.139  -6.394  1.00  0.00     0.029 A 
ATOM     46  C   UNL     1      -6.835 -11.815  -7.615  1.00  0.00     0.049 A 
ATOM     47  H   UNL     1      -5.628 -12.559  -9.140  1.00  0.00     0.167 HD
ATOM     48  C   UNL     1      -2.992 -13.793 -12.417  1.00  0.00     0.037 A 
ATOM     49  C   UNL     1      -8.111 -12.076  -7.959  1.00  0.00     0.037 A 
ATOM     50  C   UNL     1      -4.313 -14.187 -12.827  1.00  0.00     0.049 A 
ATOM     51  C   UNL     1      -8.394 -12.770  -9.263  1.00  0.00     0.074 A 
ATOM     52  C   UNL     1      -4.692 -14.874 -13.967  1.00  0.00     0.029 A 
ATOM     53  N   UNL     1      -5.470 -13.933 -12.107  1.00  0.00    -0.354 N 
ATOM     54  N   UNL     1      -7.552 -13.178 -10.181  1.00  0.00    -0.248 NA
ATOM     55  C   UNL     1      -9.804 -13.042  -9.577  1.00  0.00     0.031 C 
ATOM     56  C   UNL     1      -6.085 -15.008 -13.952  1.00  0.00     0.029 A 
ATOM     57  C   UNL     1      -6.567 -14.440 -12.784  1.00  0.00     0.049 A 
ATOM     58  H   UNL     1      -5.507 -13.462 -11.243  1.00  0.00     0.167 HD
ATOM     59  C   UNL     1      -8.325 -13.783 -11.164  1.00  0.00     0.074 A 
ATOM     60  C   UNL     1      -9.703 -13.693 -10.728  1.00  0.00     0.031 C 
ATOM     61  C   UNL     1      -7.928 -14.361 -12.323  1.00  0.00     0.037 A 
BRANCH  48  62
ATOM     62  C   UNL     1      -1.842 -14.093 -13.331  1.00  0.00     0.057 A 
ATOM     63  C   UNL     1      -0.899 -15.084 -13.028  1.00  0.00     0.134 A 
ATOM     64  C   UNL     1      -1.691 -13.405 -14.542  1.00  0.00     0.134 A 
ATOM     65  F   UNL     1      -0.979 -15.768 -11.877  1.00  0.00    -0.206 F 
ATOM     66  C   UNL     1       0.167 -15.364 -13.884  1.00  0.00     0.040 A 
ATOM     67  C   UNL     1      -0.644 -13.694 -15.419  1.00  0.00     0.040 A 
ATOM     68  F   UNL     1      -2.562 -12.448 -14.895  1.00  0.00    -0.206 F 
ATOM     69  C   UNL     1       0.292 -14.672 -15.088  1.00  0.00     0.006 A 
ENDBRANCH  48  62
BRANCH  49  70
ATOM     70  C   UNL     1      -9.221 -11.697  -7.049  1.00  0.00     0.057 A 
ATOM     71  C   UNL     1      -9.947 -12.672  -6.357  1.00  0.00     0.134 A 
ATOM     72  C   UNL     1      -9.591 -10.360  -6.861  1.00  0.00     0.134 A 
ATOM     73  F   UNL     1      -9.651 -13.971  -6.512  1.00  0.00    -0.206 F 
ATOM     74  C   UNL     1     -11.015 -12.335  -5.524  1.00  0.00     0.040 A 
ATOM     75  C   UNL     1     -10.642 -10.007  -6.013  1.00  0.00     0.040 A 
ATOM     76  F   UNL     1      -8.929  -9.379  -7.491  1.00  0.00    -0.206 F 
ATOM     77  C   UNL     1     -11.363 -10.997  -5.348  1.00  0.00     0.006 A 
ENDBRANCH  49  70
BRANCH  61  78
ATOM     78  C   UNL     1      -8.988 -14.986 -13.179  1.00  0.00     0.057 A 
ATOM     79  C   UNL     1      -9.869 -14.216 -13.946  1.00  0.00     0.134 A 
ATOM     80  C   UNL     1      -9.087 -16.380 -13.280  1.00  0.00     0.134 A 
ATOM     81  F   UNL     1      -9.833 -12.876 -13.883  1.00  0.00    -0.206 F 
ATOM     82  C   UNL     1     -10.822 -14.810 -14.775  1.00  0.00     0.040 A 
ATOM     83  C   UNL     1     -10.020 -16.985 -14.122  1.00  0.00     0.040 A 
ATOM     84  F   UNL     1      -8.266 -17.174 -12.576  1.00  0.00    -0.206 F 
ATOM     85  C   UNL     1     -10.893 -16.199 -14.870  1.00  0.00     0.006 A 
ENDBRANCH  61  78
ENDBRANCH  35  36
ENDBRANCH  27  30
ENDBRANCH  25  26
ENDBRANCH  24  25
ENDBRANCH  23  24
ENDBRANCH   1  23
TORSDOF 16
