REMARK SMILES Cc1c(C(=O)NCCCCNC(=O)c2ccc(-c3c4nc(c(-c5c(F)cccc5F)c5ccc([nH]5)c(-c5c(F)cccc5F)c5nc(c(-c6c(F)cccc6F)c6ccc3[nH]6)C=C5)C=C4)cc2)cccc1-n1c(C)cc(/C=C2/C(=O)NC(=S)N=C2O)c1C
REMARK SMILES IDX 8 1 7 2 6 3 4 4 5 5 3 7 1 8 2 9 71 10 68 11 70 12 69 13
REMARK SMILES IDX 72 14 73 15 87 16 74 17 75 18 76 19 88 20 77 21 78 22 79 23
REMARK SMILES IDX 85 24 80 25 81 26 84 27 82 28 83 30 86 31 9 33 10 34 11 35
REMARK SMILES IDX 12 36 13 38 14 39 15 40 67 41 16 42 66 43 17 44 18 45 19 46
REMARK SMILES IDX 60 47 20 48 65 49 59 50 61 51 21 52 64 53 58 54 57 55 22 57
REMARK SMILES IDX 48 58 31 59 47 60 32 61 35 62 46 63 62 64 33 65 34 66 45 68
REMARK SMILES IDX 63 69 36 70 23 71 24 72 29 73 25 74 26 75 28 76 30 77 27 78
REMARK SMILES IDX 49 79 50 80 55 81 51 82 52 83 54 84 56 85 53 86 37 87 38 88
REMARK SMILES IDX 43 89 39 90 40 91 42 92 44 93 41 94
REMARK H PARENT 6 6 81 29 86 32 11 37 61 56 35 67
REMARK Flexibility Score: inf
ROOT
ATOM      1  C   UNL     1       4.117  -1.772   1.478  1.00  0.00     0.023 C 
ENDROOT
BRANCH   1   2
ATOM      2  C   UNL     1       3.494  -2.336   0.184  1.00  0.00     0.116 C 
BRANCH   2   3
ATOM      3  N   UNL     1       2.163  -2.856   0.415  1.00  0.00    -0.352 N 
ATOM      4  C   UNL     1       0.870  -2.425   0.316  1.00  0.00     0.251 C 
ATOM      5  O   UNL     1       0.053  -3.314   0.597  1.00  0.00    -0.269 OA
ATOM      6  H   UNL     1       2.200  -3.786   0.736  1.00  0.00     0.163 HD
BRANCH   4   7
ATOM      7  C   UNL     1       0.315  -1.075  -0.089  1.00  0.00     0.044 A 
ATOM      8  C   UNL     1       2.298   0.489   0.380  1.00  0.00     0.047 C 
ATOM      9  C   UNL     1       0.897   0.213  -0.058  1.00  0.00    -0.014 A 
ATOM     10  C   UNL     1       0.081   1.335  -0.384  1.00  0.00     0.049 A 
ATOM     11  C   UNL     1      -1.068  -1.148  -0.426  1.00  0.00     0.014 A 
ATOM     12  C   UNL     1      -1.276   1.228  -0.690  1.00  0.00     0.027 A 
ATOM     13  C   UNL     1      -1.853  -0.026  -0.710  1.00  0.00     0.003 A 
BRANCH  10  14
ATOM     14  N   UNL     1       0.589   2.650  -0.256  1.00  0.00    -0.318 N 
ATOM     15  C   UNL     1       1.343   3.311  -1.208  1.00  0.00     0.020 A 
ATOM     16  C   UNL     1       0.630   3.364   0.941  1.00  0.00     0.027 A 
ATOM     17  C   UNL     1       1.718   2.716  -2.522  1.00  0.00     0.065 C 
ATOM     18  C   UNL     1       1.676   4.540  -0.679  1.00  0.00     0.031 A 
ATOM     19  C   UNL     1       1.215   4.590   0.665  1.00  0.00    -0.003 A 
ATOM     20  C   UNL     1       0.161   2.741   2.218  1.00  0.00     0.065 C 
BRANCH  19  21
ATOM     21  C   UNL     1       1.537   5.665   1.551  1.00  0.00     0.029 C 
ATOM     22  C   UNL     1       0.898   6.192   2.612  1.00  0.00     0.102 C 
ATOM     23  C   UNL     1       1.652   7.222   3.374  1.00  0.00     0.262 C 
ATOM     24  C   UNL     1      -0.400   5.867   3.201  1.00  0.00     0.226 C 
ATOM     25  O   UNL     1       2.650   7.801   2.958  1.00  0.00    -0.269 OA
ATOM     26  N   UNL     1       1.162   7.451   4.631  1.00  0.00    -0.297 N 
ATOM     27  N   UNL     1      -0.808   6.171   4.379  1.00  0.00    -0.184 NA
ATOM     28  C   UNL     1       0.027   6.907   5.178  1.00  0.00     0.203 C 
ATOM     29  H   UNL     1       1.676   8.068   5.201  1.00  0.00     0.172 HD
ATOM     30  S   UNL     1      -0.293   7.234   6.790  1.00  0.00    -0.038 S 
BRANCH  24  31
ATOM     31  O   UNL     1      -1.277   5.248   2.409  1.00  0.00    -0.493 OA
ATOM     32  H   UNL     1      -1.031   5.004   1.538  1.00  0.00     0.295 HD
ENDBRANCH  24  31
ENDBRANCH  19  21
ENDBRANCH  10  14
ENDBRANCH   4   7
ENDBRANCH   2   3
ENDBRANCH   1   2
BRANCH   1  33
ATOM     33  C   UNL     1       5.051  -2.714   2.233  1.00  0.00     0.023 C 
BRANCH  33  34
ATOM     34  C   UNL     1       6.355  -2.955   1.496  1.00  0.00     0.116 C 
BRANCH  34  35
ATOM     35  N   UNL     1       7.438  -2.026   1.786  1.00  0.00    -0.352 N 
ATOM     36  C   UNL     1       8.630  -1.832   1.098  1.00  0.00     0.251 C 
ATOM     37  H   UNL     1       7.307  -1.456   2.577  1.00  0.00     0.163 HD
ATOM     38  O   UNL     1       9.473  -1.071   1.547  1.00  0.00    -0.269 OA
BRANCH  36  39
ATOM     39  C   UNL     1       8.815  -2.429  -0.257  1.00  0.00     0.039 A 
ATOM     40  C   UNL     1       9.418  -1.642  -1.244  1.00  0.00     0.014 A 
ATOM     41  C   UNL     1       8.200  -3.622  -0.618  1.00  0.00     0.014 A 
ATOM     42  C   UNL     1       9.145  -1.898  -2.588  1.00  0.00     0.010 A 
ATOM     43  C   UNL     1       7.804  -3.794  -1.927  1.00  0.00     0.010 A 
ATOM     44  C   UNL     1       8.224  -2.892  -2.906  1.00  0.00    -0.014 A 
BRANCH  44  45
ATOM     45  C   UNL     1       7.587  -3.030  -4.211  1.00  0.00     0.031 A 
ATOM     46  C   UNL     1       7.960  -4.151  -5.098  1.00  0.00     0.074 A 
ATOM     47  C   UNL     1       6.583  -2.192  -4.553  1.00  0.00     0.049 A 
ATOM     48  N   UNL     1       7.714  -4.199  -6.362  1.00  0.00    -0.248 NA
ATOM     49  C   UNL     1       8.683  -5.318  -4.609  1.00  0.00     0.031 C 
ATOM     50  C   UNL     1       5.666  -2.309  -5.684  1.00  0.00     0.029 A 
ATOM     51  N   UNL     1       6.342  -0.908  -4.046  1.00  0.00    -0.354 N 
ATOM     52  C   UNL     1       8.036  -5.459  -6.813  1.00  0.00     0.074 A 
ATOM     53  C   UNL     1       8.649  -6.113  -5.681  1.00  0.00     0.031 C 
ATOM     54  C   UNL     1       5.207  -1.085  -5.992  1.00  0.00     0.029 A 
ATOM     55  C   UNL     1       5.917  -0.135  -5.154  1.00  0.00     0.049 A 
ATOM     56  H   UNL     1       6.446  -0.606  -3.115  1.00  0.00     0.167 HD
ATOM     57  C   UNL     1       7.666  -5.832  -8.072  1.00  0.00     0.037 A 
ATOM     58  C   UNL     1       6.697   0.890  -5.607  1.00  0.00     0.037 A 
ATOM     59  C   UNL     1       7.080  -4.710  -8.803  1.00  0.00     0.049 A 
ATOM     60  C   UNL     1       7.258   0.680  -7.000  1.00  0.00     0.074 A 
ATOM     61  C   UNL     1       5.786  -4.263  -9.019  1.00  0.00     0.029 A 
ATOM     62  N   UNL     1       7.911  -3.669  -9.175  1.00  0.00    -0.354 N 
ATOM     63  N   UNL     1       7.075  -0.396  -7.717  1.00  0.00    -0.248 NA
ATOM     64  C   UNL     1       8.147   1.641  -7.658  1.00  0.00     0.031 C 
ATOM     65  C   UNL     1       5.855  -2.905  -9.450  1.00  0.00     0.029 A 
ATOM     66  C   UNL     1       7.188  -2.541  -9.512  1.00  0.00     0.049 A 
ATOM     67  H   UNL     1       8.893  -3.724  -9.197  1.00  0.00     0.167 HD
ATOM     68  C   UNL     1       7.823  -0.309  -8.859  1.00  0.00     0.074 A 
ATOM     69  C   UNL     1       8.471   0.987  -8.785  1.00  0.00     0.031 C 
ATOM     70  C   UNL     1       7.903  -1.307  -9.781  1.00  0.00     0.037 A 
BRANCH  57  71
ATOM     71  C   UNL     1       7.657  -7.256  -8.575  1.00  0.00     0.057 A 
ATOM     72  C   UNL     1       6.739  -7.658  -9.565  1.00  0.00     0.134 A 
ATOM     73  C   UNL     1       8.487  -8.288  -8.105  1.00  0.00     0.134 A 
ATOM     74  F   UNL     1       5.941  -6.777 -10.183  1.00  0.00    -0.206 F 
ATOM     75  C   UNL     1       6.589  -8.991  -9.971  1.00  0.00     0.040 A 
ATOM     76  C   UNL     1       8.307  -9.635  -8.454  1.00  0.00     0.040 A 
ATOM     77  F   UNL     1       9.555  -8.039  -7.337  1.00  0.00    -0.206 F 
ATOM     78  C   UNL     1       7.346  -9.993  -9.385  1.00  0.00     0.006 A 
ENDBRANCH  57  71
BRANCH  58  79
ATOM     79  C   UNL     1       7.385   1.606  -4.498  1.00  0.00     0.057 A 
ATOM     80  C   UNL     1       6.594   2.224  -3.511  1.00  0.00     0.134 A 
ATOM     81  C   UNL     1       8.724   1.365  -4.182  1.00  0.00     0.134 A 
ATOM     82  F   UNL     1       5.299   2.490  -3.752  1.00  0.00    -0.206 F 
ATOM     83  C   UNL     1       7.073   2.455  -2.220  1.00  0.00     0.040 A 
ATOM     84  C   UNL     1       9.221   1.616  -2.898  1.00  0.00     0.040 A 
ATOM     85  F   UNL     1       9.538   0.765  -5.062  1.00  0.00    -0.206 F 
ATOM     86  C   UNL     1       8.383   2.114  -1.901  1.00  0.00     0.006 A 
ENDBRANCH  58  79
BRANCH  70  87
ATOM     87  C   UNL     1       8.689  -1.156 -11.040  1.00  0.00     0.057 A 
ATOM     88  C   UNL     1       8.456  -0.092 -11.922  1.00  0.00     0.134 A 
ATOM     89  C   UNL     1       9.607  -2.131 -11.462  1.00  0.00     0.134 A 
ATOM     90  F   UNL     1       7.576   0.873 -11.614  1.00  0.00    -0.206 F 
ATOM     91  C   UNL     1       9.113   0.005 -13.152  1.00  0.00     0.040 A 
ATOM     92  C   UNL     1      10.240  -2.066 -12.704  1.00  0.00     0.040 A 
ATOM     93  F   UNL     1       9.928  -3.170 -10.675  1.00  0.00    -0.206 F 
ATOM     94  C   UNL     1       9.997  -0.992 -13.552  1.00  0.00     0.006 A 
ENDBRANCH  70  87
ENDBRANCH  44  45
ENDBRANCH  36  39
ENDBRANCH  34  35
ENDBRANCH  33  34
ENDBRANCH   1  33
TORSDOF 14
