REMARK SMILES CC1=C(CC(=O)NCCCCNC(=O)c2ccc(-c3c4nc(c(-c5c(F)cccc5F)c5ccc([nH]5)c(-c5c(F)cccc5F)c5nc(c(-c6c(F)cccc6F)c6ccc3[nH]6)C=C5)C=C4)cc2)c2cc(F)ccc2/C1=C\c1cccc(OCc2ccccc2)c1
REMARK SMILES IDX 8 1 7 2 5 3 6 4 4 6 3 7 1 8 2 9 76 10 69 11 75 12 77 13
REMARK SMILES IDX 70 14 74 15 71 16 73 17 72 18 78 19 79 20 91 21 80 22 82 23
REMARK SMILES IDX 81 24 83 25 84 26 85 27 86 28 90 29 87 30 89 31 88 32 9 33
REMARK SMILES IDX 10 34 11 35 12 36 13 37 14 39 15 40 16 41 68 42 17 43 67 44
REMARK SMILES IDX 18 45 19 46 20 47 61 48 21 49 66 50 60 51 62 52 22 53 65 54
REMARK SMILES IDX 59 55 58 56 23 58 49 59 32 60 48 61 33 62 36 63 47 64 63 65
REMARK SMILES IDX 34 66 35 67 46 69 64 70 37 71 24 72 25 73 30 74 26 75 27 76
REMARK SMILES IDX 29 77 31 78 28 79 50 80 51 81 56 82 52 83 53 84 55 85 57 86
REMARK SMILES IDX 54 87 38 88 39 89 44 90 40 91 41 92 43 93 45 94 42 95
REMARK H PARENT 7 5 12 38 62 57 36 68
REMARK Flexibility Score: inf
ROOT
ATOM      1  C   UNL     1       2.345  -1.580   2.718  1.00  0.00     0.116 C 
ENDROOT
BRANCH   1   2
ATOM      2  N   UNL     1       3.072  -2.789   2.390  1.00  0.00    -0.356 N 
ATOM      3  C   UNL     1       3.256  -3.375   1.170  1.00  0.00     0.224 C 
ATOM      4  O   UNL     1       3.894  -4.429   1.121  1.00  0.00    -0.275 OA
ATOM      5  H   UNL     1       3.491  -3.253   3.151  1.00  0.00     0.163 HD
BRANCH   3   6
ATOM      6  C   UNL     1       2.718  -2.717  -0.099  1.00  0.00     0.136 C 
BRANCH   6   7
ATOM      7  C   UNL     1       1.226  -2.713  -0.164  1.00  0.00    -0.027 C 
ATOM      8  C   UNL     1       0.702  -0.207  -0.293  1.00  0.00     0.045 C 
ATOM      9  C   UNL     1       0.374  -1.662  -0.212  1.00  0.00    -0.039 C 
ATOM     10  C   UNL     1      -1.010  -2.154  -0.154  1.00  0.00    -0.014 C 
ATOM     11  C   UNL     1       0.419  -3.948  -0.178  1.00  0.00    -0.011 A 
ATOM     12  C   UNL     1      -0.951  -3.623  -0.203  1.00  0.00    -0.010 A 
ATOM     13  C   UNL     1      -2.084  -1.357  -0.019  1.00  0.00     0.017 C 
ATOM     14  C   UNL     1       0.831  -5.273  -0.176  1.00  0.00     0.048 A 
ATOM     15  C   UNL     1      -1.917  -4.619  -0.256  1.00  0.00     0.012 A 
ATOM     16  C   UNL     1      -0.146  -6.265  -0.203  1.00  0.00     0.123 A 
ATOM     17  C   UNL     1      -1.506  -5.953  -0.248  1.00  0.00     0.040 A 
ATOM     18  F   UNL     1       0.225  -7.552  -0.190  1.00  0.00    -0.207 F 
BRANCH  13  19
ATOM     19  C   UNL     1      -3.479  -1.788  -0.006  1.00  0.00    -0.021 A 
ATOM     20  C   UNL     1      -4.099  -2.289   1.139  1.00  0.00     0.008 A 
ATOM     21  C   UNL     1      -4.190  -1.703  -1.207  1.00  0.00     0.054 A 
ATOM     22  C   UNL     1      -5.423  -2.723   1.068  1.00  0.00     0.004 A 
ATOM     23  C   UNL     1      -5.526  -2.083  -1.273  1.00  0.00     0.120 A 
ATOM     24  C   UNL     1      -6.131  -2.619  -0.134  1.00  0.00     0.046 A 
BRANCH  23  25
ATOM     25  O   UNL     1      -6.325  -1.982  -2.379  1.00  0.00    -0.489 OA
BRANCH  25  26
ATOM     26  C   UNL     1      -5.860  -1.183  -3.477  1.00  0.00     0.265 C 
BRANCH  26  27
ATOM     27  C   UNL     1      -5.902   0.301  -3.182  1.00  0.00    -0.011 A 
ATOM     28  C   UNL     1      -7.124   0.926  -2.897  1.00  0.00     0.007 A 
ATOM     29  C   UNL     1      -4.729   1.072  -3.164  1.00  0.00     0.007 A 
ATOM     30  C   UNL     1      -7.170   2.285  -2.584  1.00  0.00     0.000 A 
ATOM     31  C   UNL     1      -4.774   2.427  -2.833  1.00  0.00     0.000 A 
ATOM     32  C   UNL     1      -5.995   3.033  -2.543  1.00  0.00     0.000 A 
ENDBRANCH  26  27
ENDBRANCH  25  26
ENDBRANCH  23  25
ENDBRANCH  13  19
ENDBRANCH   6   7
ENDBRANCH   3   6
ENDBRANCH   1   2
BRANCH   1  33
ATOM     33  C   UNL     1       0.933  -1.871   3.228  1.00  0.00     0.023 C 
BRANCH  33  34
ATOM     34  C   UNL     1       0.866  -2.530   4.604  1.00  0.00     0.023 C 
BRANCH  34  35
ATOM     35  C   UNL     1       1.536  -1.753   5.728  1.00  0.00     0.116 C 
BRANCH  35  36
ATOM     36  N   UNL     1       0.988  -0.419   5.929  1.00  0.00    -0.352 N 
ATOM     37  C   UNL     1       0.837   0.279   7.106  1.00  0.00     0.251 C 
ATOM     38  H   UNL     1       0.687   0.046   5.115  1.00  0.00     0.163 HD
ATOM     39  O   UNL     1       0.269   1.367   7.111  1.00  0.00    -0.269 OA
BRANCH  37  40
ATOM     40  C   UNL     1       1.318  -0.314   8.373  1.00  0.00     0.039 A 
ATOM     41  C   UNL     1       2.563  -0.940   8.438  1.00  0.00     0.014 A 
ATOM     42  C   UNL     1       0.491  -0.283   9.500  1.00  0.00     0.014 A 
ATOM     43  C   UNL     1       2.897  -1.689   9.559  1.00  0.00     0.010 A 
ATOM     44  C   UNL     1       0.875  -0.957  10.664  1.00  0.00     0.010 A 
ATOM     45  C   UNL     1       2.056  -1.713  10.685  1.00  0.00    -0.014 A 
BRANCH  45  46
ATOM     46  C   UNL     1       2.452  -2.543  11.853  1.00  0.00     0.031 A 
ATOM     47  C   UNL     1       1.636  -3.736  12.275  1.00  0.00     0.074 A 
ATOM     48  C   UNL     1       3.612  -2.269  12.481  1.00  0.00     0.049 A 
ATOM     49  N   UNL     1       1.900  -4.631  13.195  1.00  0.00    -0.248 NA
ATOM     50  C   UNL     1       0.356  -3.950  11.584  1.00  0.00     0.031 C 
ATOM     51  C   UNL     1       4.489  -1.135  12.174  1.00  0.00     0.029 A 
ATOM     52  N   UNL     1       4.277  -2.943  13.473  1.00  0.00    -0.354 N 
ATOM     53  C   UNL     1       0.819  -5.505  13.200  1.00  0.00     0.074 A 
ATOM     54  C   UNL     1      -0.123  -5.011  12.219  1.00  0.00     0.031 C 
ATOM     55  C   UNL     1       5.607  -1.234  12.907  1.00  0.00     0.029 A 
ATOM     56  C   UNL     1       5.504  -2.404  13.771  1.00  0.00     0.049 A 
ATOM     57  H   UNL     1       3.909  -3.736  13.926  1.00  0.00     0.167 HD
ATOM     58  C   UNL     1       0.633  -6.625  13.941  1.00  0.00     0.037 A 
ATOM     59  C   UNL     1       6.447  -2.810  14.641  1.00  0.00     0.037 A 
ATOM     60  C   UNL     1       1.574  -7.126  14.911  1.00  0.00     0.049 A 
ATOM     61  C   UNL     1       6.207  -4.045  15.458  1.00  0.00     0.074 A 
ATOM     62  C   UNL     1       1.480  -8.259  15.703  1.00  0.00     0.029 A 
ATOM     63  N   UNL     1       2.784  -6.524  15.222  1.00  0.00    -0.354 N 
ATOM     64  N   UNL     1       5.190  -4.871  15.433  1.00  0.00    -0.248 NA
ATOM     65  C   UNL     1       7.252  -4.402  16.427  1.00  0.00     0.031 C 
ATOM     66  C   UNL     1       2.618  -8.322  16.517  1.00  0.00     0.029 A 
ATOM     67  C   UNL     1       3.440  -7.253  16.203  1.00  0.00     0.049 A 
ATOM     68  H   UNL     1       3.127  -5.699  14.807  1.00  0.00     0.167 HD
ATOM     69  C   UNL     1       5.478  -5.852  16.372  1.00  0.00     0.074 A 
ATOM     70  C   UNL     1       6.779  -5.534  16.924  1.00  0.00     0.031 C 
ATOM     71  C   UNL     1       4.729  -6.918  16.749  1.00  0.00     0.037 A 
BRANCH  58  72
ATOM     72  C   UNL     1      -0.649  -7.381  13.736  1.00  0.00     0.057 A 
ATOM     73  C   UNL     1      -1.643  -7.386  14.722  1.00  0.00     0.134 A 
ATOM     74  C   UNL     1      -0.892  -8.123  12.572  1.00  0.00     0.134 A 
ATOM     75  F   UNL     1      -1.474  -6.702  15.864  1.00  0.00    -0.206 F 
ATOM     76  C   UNL     1      -2.833  -8.098  14.557  1.00  0.00     0.040 A 
ATOM     77  C   UNL     1      -2.088  -8.819  12.385  1.00  0.00     0.040 A 
ATOM     78  F   UNL     1       0.013  -8.150  11.582  1.00  0.00    -0.206 F 
ATOM     79  C   UNL     1      -3.061  -8.812  13.383  1.00  0.00     0.006 A 
ENDBRANCH  58  72
BRANCH  59  80
ATOM     80  C   UNL     1       7.712  -2.047  14.776  1.00  0.00     0.057 A 
ATOM     81  C   UNL     1       7.736  -0.770  15.349  1.00  0.00     0.134 A 
ATOM     82  C   UNL     1       8.931  -2.588  14.351  1.00  0.00     0.134 A 
ATOM     83  F   UNL     1       6.599  -0.195  15.768  1.00  0.00    -0.206 F 
ATOM     84  C   UNL     1       8.925  -0.056  15.490  1.00  0.00     0.040 A 
ATOM     85  C   UNL     1      10.132  -1.897  14.512  1.00  0.00     0.040 A 
ATOM     86  F   UNL     1       8.974  -3.815  13.812  1.00  0.00    -0.206 F 
ATOM     87  C   UNL     1      10.130  -0.624  15.080  1.00  0.00     0.006 A 
ENDBRANCH  59  80
BRANCH  71  88
ATOM     88  C   UNL     1       5.324  -7.817  17.793  1.00  0.00     0.057 A 
ATOM     89  C   UNL     1       5.801  -9.089  17.452  1.00  0.00     0.134 A 
ATOM     90  C   UNL     1       5.451  -7.414  19.129  1.00  0.00     0.134 A 
ATOM     91  F   UNL     1       5.704  -9.539  16.192  1.00  0.00    -0.206 F 
ATOM     92  C   UNL     1       6.396  -9.922  18.401  1.00  0.00     0.040 A 
ATOM     93  C   UNL     1       6.069  -8.227  20.080  1.00  0.00     0.040 A 
ATOM     94  F   UNL     1       5.030  -6.200  19.516  1.00  0.00    -0.206 F 
ATOM     95  C   UNL     1       6.543  -9.486  19.716  1.00  0.00     0.006 A 
ENDBRANCH  71  88
ENDBRANCH  45  46
ENDBRANCH  37  40
ENDBRANCH  35  36
ENDBRANCH  34  35
ENDBRANCH  33  34
ENDBRANCH   1  33
TORSDOF 16
