REMARK SMILES Cc1cc2nc(NC(=O)[C@H]3[C@@H](C(=O)NCCCCNC(=O)c4ccc(-c5c6nc(c(-c7c(F)cccc7F)c7ccc([nH]7)c(-c7c(F)cccc7F)c7nc(c(-c8c(F)cccc8F)c8ccc5[nH]8)C=C7)C=C6)cc4)[C@@H]4C=C[C@H]3C4)sc2cc1C
REMARK SMILES IDX 16 1 15 2 14 3 12 4 13 5 11 7 10 8 79 9 76 10 78 11 80 12
REMARK SMILES IDX 77 13 8 14 7 15 9 17 6 18 1 19 2 20 3 21 84 22 4 23 83 24
REMARK SMILES IDX 85 25 5 26 82 27 81 28 17 29 18 30 19 31 20 32 21 34 22 35
REMARK SMILES IDX 23 36 75 37 24 38 74 39 25 40 26 41 27 42 68 43 28 44 73 45
REMARK SMILES IDX 67 46 69 47 29 48 72 49 66 50 65 51 30 53 56 54 39 55 55 56
REMARK SMILES IDX 40 57 43 58 54 59 70 60 41 61 42 62 53 64 71 65 44 66 31 67
REMARK SMILES IDX 32 68 37 69 33 70 34 71 36 72 38 73 35 74 57 75 58 76 63 77
REMARK SMILES IDX 59 78 60 79 62 80 64 81 61 82 45 83 46 84 51 85 47 86 48 87
REMARK SMILES IDX 50 88 52 89 49 90
REMARK H PARENT 14 6 7 16 19 33 69 52 43 63
REMARK Flexibility Score: inf
ROOT
ATOM      1  C   UNL     1      -5.048   1.093  -4.728  1.00  0.00     0.023 C 
ENDROOT
BRANCH   1   2
ATOM      2  C   UNL     1      -4.373   0.145  -5.695  1.00  0.00     0.116 C 
BRANCH   2   3
ATOM      3  N   UNL     1      -4.144   0.667  -7.026  1.00  0.00    -0.356 N 
ATOM      4  C   UNL     1      -3.263   0.297  -8.002  1.00  0.00     0.224 C 
ATOM      5  O   UNL     1      -3.481   0.772  -9.125  1.00  0.00    -0.275 OA
ATOM      6  H   UNL     1      -4.725   1.423  -7.271  1.00  0.00     0.163 HD
BRANCH   4   7
ATOM      7  C   UNL     1      -1.959  -0.500  -7.781  1.00  0.00     0.098 C 
ATOM      8  C   UNL     1      -1.850  -1.602  -6.679  1.00  0.00     0.099 C 
ATOM      9  C   UNL     1      -0.966  -0.850  -5.620  1.00  0.00     0.025 C 
ATOM     10  C   UNL     1      -0.818   0.491  -7.402  1.00  0.00     0.025 C 
ATOM     11  C   UNL     1       0.445  -0.999  -6.168  1.00  0.00    -0.027 C 
ATOM     12  C   UNL     1      -1.072   0.658  -5.912  1.00  0.00     0.017 C 
ATOM     13  C   UNL     1       0.510  -0.237  -7.274  1.00  0.00    -0.027 C 
BRANCH   8  14
ATOM     14  C   UNL     1      -3.163  -2.346  -6.423  1.00  0.00     0.230 C 
ATOM     15  N   UNL     1      -3.487  -2.936  -5.246  1.00  0.00    -0.302 N 
ATOM     16  H   UNL     1      -4.441  -3.123  -5.090  1.00  0.00     0.172 HD
ATOM     17  O   UNL     1      -4.007  -2.437  -7.325  1.00  0.00    -0.274 OA
BRANCH  15  18
ATOM     18  C   UNL     1      -2.624  -3.292  -4.265  1.00  0.00     0.190 A 
ATOM     19  C   UNL     1       2.393  -4.745  -1.391  1.00  0.00     0.044 C 
ATOM     20  C   UNL     1       0.931  -4.461  -1.593  1.00  0.00    -0.046 A 
ATOM     21  C   UNL     1       0.528  -3.993  -2.853  1.00  0.00     0.033 A 
ATOM     22  C   UNL     1      -0.035  -4.691  -0.596  1.00  0.00    -0.047 A 
ATOM     23  C   UNL     1      -0.829  -3.784  -3.135  1.00  0.00     0.084 A 
ATOM     24  C   UNL     1      -1.399  -4.445  -0.857  1.00  0.00     0.025 A 
ATOM     25  C   UNL     1       0.314  -5.238   0.763  1.00  0.00     0.044 C 
ATOM     26  N   UNL     1      -1.329  -3.366  -4.347  1.00  0.00    -0.220 NA
ATOM     27  C   UNL     1      -1.775  -4.018  -2.138  1.00  0.00     0.057 A 
ATOM     28  S   UNL     1      -3.345  -3.726  -2.789  1.00  0.00    -0.097 S 
ENDBRANCH  15  18
ENDBRANCH   8  14
ENDBRANCH   4   7
ENDBRANCH   2   3
ENDBRANCH   1   2
BRANCH   1  29
ATOM     29  C   UNL     1      -6.568   1.128  -4.856  1.00  0.00     0.023 C 
BRANCH  29  30
ATOM     30  C   UNL     1      -7.286  -0.235  -4.915  1.00  0.00     0.116 C 
BRANCH  30  31
ATOM     31  N   UNL     1      -6.934  -1.200  -3.882  1.00  0.00    -0.352 N 
ATOM     32  C   UNL     1      -7.449  -1.500  -2.647  1.00  0.00     0.251 C 
ATOM     33  H   UNL     1      -6.158  -1.756  -4.122  1.00  0.00     0.163 HD
ATOM     34  O   UNL     1      -7.127  -2.587  -2.158  1.00  0.00    -0.269 OA
BRANCH  32  35
ATOM     35  C   UNL     1      -8.258  -0.558  -1.833  1.00  0.00     0.039 A 
ATOM     36  C   UNL     1      -8.673   0.683  -2.292  1.00  0.00     0.014 A 
ATOM     37  C   UNL     1      -8.485  -0.885  -0.484  1.00  0.00     0.014 A 
ATOM     38  C   UNL     1      -9.080   1.655  -1.403  1.00  0.00     0.010 A 
ATOM     39  C   UNL     1      -8.981   0.066   0.407  1.00  0.00     0.010 A 
ATOM     40  C   UNL     1      -9.197   1.362  -0.044  1.00  0.00    -0.014 A 
BRANCH  40  41
ATOM     41  C   UNL     1      -9.609   2.481   0.796  1.00  0.00     0.031 A 
ATOM     42  C   UNL     1     -10.826   3.197   0.318  1.00  0.00     0.074 A 
ATOM     43  C   UNL     1      -8.956   2.887   1.899  1.00  0.00     0.049 A 
ATOM     44  N   UNL     1     -10.921   4.411  -0.120  1.00  0.00    -0.248 NA
ATOM     45  C   UNL     1     -12.057   2.405   0.177  1.00  0.00     0.031 C 
ATOM     46  C   UNL     1      -7.913   2.187   2.650  1.00  0.00     0.029 A 
ATOM     47  N   UNL     1      -9.164   4.019   2.631  1.00  0.00    -0.354 N 
ATOM     48  C   UNL     1     -12.263   4.594  -0.440  1.00  0.00     0.074 A 
ATOM     49  C   UNL     1     -12.889   3.300  -0.355  1.00  0.00     0.031 C 
ATOM     50  C   UNL     1      -7.744   2.797   3.844  1.00  0.00     0.029 A 
ATOM     51  C   UNL     1      -8.548   4.007   3.870  1.00  0.00     0.049 A 
ATOM     52  H   UNL     1      -9.703   4.776   2.306  1.00  0.00     0.167 HD
ATOM     53  C   UNL     1     -12.814   5.831  -0.556  1.00  0.00     0.037 A 
ATOM     54  C   UNL     1      -8.745   4.898   4.868  1.00  0.00     0.037 A 
ATOM     55  C   UNL     1     -11.820   6.846  -0.767  1.00  0.00     0.049 A 
ATOM     56  C   UNL     1      -9.267   6.148   4.270  1.00  0.00     0.074 A 
ATOM     57  C   UNL     1     -10.966   7.205  -1.787  1.00  0.00     0.029 A 
ATOM     58  N   UNL     1     -11.402   7.519   0.349  1.00  0.00    -0.354 N 
ATOM     59  N   UNL     1      -8.575   6.939   3.499  1.00  0.00    -0.248 NA
ATOM     60  C   UNL     1     -10.703   6.389   4.280  1.00  0.00     0.031 C 
ATOM     61  C   UNL     1      -9.840   7.806  -1.150  1.00  0.00     0.029 A 
ATOM     62  C   UNL     1     -10.066   7.793   0.227  1.00  0.00     0.049 A 
ATOM     63  H   UNL     1     -11.969   7.766   1.115  1.00  0.00     0.167 HD
ATOM     64  C   UNL     1      -9.505   7.485   2.632  1.00  0.00     0.074 A 
ATOM     65  C   UNL     1     -10.796   7.249   3.264  1.00  0.00     0.031 C 
ATOM     66  C   UNL     1      -9.161   7.819   1.355  1.00  0.00     0.037 A 
BRANCH  53  67
ATOM     67  C   UNL     1     -14.204   6.168  -0.073  1.00  0.00     0.057 A 
ATOM     68  C   UNL     1     -14.753   7.432  -0.354  1.00  0.00     0.134 A 
ATOM     69  C   UNL     1     -14.890   5.423   0.909  1.00  0.00     0.134 A 
ATOM     70  F   UNL     1     -14.175   8.251  -1.245  1.00  0.00    -0.206 F 
ATOM     71  C   UNL     1     -15.867   7.936   0.332  1.00  0.00     0.040 A 
ATOM     72  C   UNL     1     -16.031   5.894   1.562  1.00  0.00     0.040 A 
ATOM     73  F   UNL     1     -14.434   4.248   1.363  1.00  0.00    -0.206 F 
ATOM     74  C   UNL     1     -16.507   7.167   1.296  1.00  0.00     0.006 A 
ENDBRANCH  53  67
BRANCH  54  75
ATOM     75  C   UNL     1      -8.820   4.626   6.319  1.00  0.00     0.057 A 
ATOM     76  C   UNL     1      -8.761   5.673   7.250  1.00  0.00     0.134 A 
ATOM     77  C   UNL     1      -9.245   3.380   6.812  1.00  0.00     0.134 A 
ATOM     78  F   UNL     1      -8.400   6.905   6.866  1.00  0.00    -0.206 F 
ATOM     79  C   UNL     1      -9.144   5.500   8.586  1.00  0.00     0.040 A 
ATOM     80  C   UNL     1      -9.621   3.193   8.145  1.00  0.00     0.040 A 
ATOM     81  F   UNL     1      -9.402   2.327   5.998  1.00  0.00    -0.206 F 
ATOM     82  C   UNL     1      -9.590   4.260   9.033  1.00  0.00     0.006 A 
ENDBRANCH  54  75
BRANCH  66  83
ATOM     83  C   UNL     1      -7.699   7.981   1.054  1.00  0.00     0.057 A 
ATOM     84  C   UNL     1      -6.768   6.933   1.084  1.00  0.00     0.134 A 
ATOM     85  C   UNL     1      -7.243   9.225   0.603  1.00  0.00     0.134 A 
ATOM     86  F   UNL     1      -7.135   5.688   1.416  1.00  0.00    -0.206 F 
ATOM     87  C   UNL     1      -5.432   7.129   0.721  1.00  0.00     0.040 A 
ATOM     88  C   UNL     1      -5.921   9.425   0.204  1.00  0.00     0.040 A 
ATOM     89  F   UNL     1      -8.093  10.260   0.500  1.00  0.00    -0.206 F 
ATOM     90  C   UNL     1      -5.007   8.377   0.273  1.00  0.00     0.006 A 
ENDBRANCH  66  83
ENDBRANCH  40  41
ENDBRANCH  32  35
ENDBRANCH  30  31
ENDBRANCH  29  30
ENDBRANCH   1  29
TORSDOF 13
