REMARK SMILES Cc1ccccc1NC(=O)CSc1nc(C(=O)NCCCCNC(=O)c2ccc(-c3c4nc(c(-c5c(F)cccc5F)c5ccc([nH]5)c(-c5c(F)cccc5F)c5nc(c(-c6c(F)cccc6F)c6ccc3[nH]6)C=C5)C=C4)cc2)c2ccccc2n1
REMARK SMILES IDX 19 1 18 2 16 3 17 4 15 6 13 7 14 8 86 9 85 10 80 11 84 12
REMARK SMILES IDX 81 13 83 14 82 15 12 16 11 17 9 18 8 19 10 21 7 22 1 23 2 24
REMARK SMILES IDX 3 25 4 26 6 27 5 28 20 29 21 30 22 31 23 32 24 33 25 35
REMARK SMILES IDX 26 36 27 37 79 38 28 39 78 40 29 41 30 42 31 43 72 44 32 45
REMARK SMILES IDX 77 46 71 47 73 48 33 49 76 50 70 51 69 52 34 54 60 55 43 56
REMARK SMILES IDX 59 57 44 58 47 59 58 60 74 61 45 62 46 63 57 65 75 66 48 67
REMARK SMILES IDX 35 68 36 69 41 70 37 71 38 72 40 73 42 74 39 75 61 76 62 77
REMARK SMILES IDX 67 78 63 79 64 80 66 81 68 82 65 83 49 84 50 85 55 86 51 87
REMARK SMILES IDX 52 88 54 89 56 90 53 91
REMARK H PARENT 18 5 8 20 23 34 73 53 47 64
REMARK Flexibility Score: inf
ROOT
ATOM      1  C   UNL     1      -1.468   6.968  -6.983  1.00  0.00     0.116 C 
ENDROOT
BRANCH   1   2
ATOM      2  N   UNL     1      -1.384   7.650  -5.700  1.00  0.00    -0.351 N 
ATOM      3  C   UNL     1      -0.957   7.182  -4.464  1.00  0.00     0.270 C 
ATOM      4  O   UNL     1      -0.853   7.996  -3.546  1.00  0.00    -0.267 OA
ATOM      5  H   UNL     1      -1.676   8.590  -5.710  1.00  0.00     0.163 HD
BRANCH   3   6
ATOM      6  C   UNL     1      -0.718   5.722  -4.200  1.00  0.00     0.140 A 
ATOM      7  C   UNL     1      -1.440   3.936  -2.992  1.00  0.00     0.189 A 
ATOM      8  N   UNL     1      -1.431   5.256  -3.146  1.00  0.00    -0.217 NA
ATOM      9  N   UNL     1      -0.914   3.061  -3.858  1.00  0.00    -0.222 NA
ATOM     10  C   UNL     1      -0.197   3.546  -4.874  1.00  0.00     0.076 A 
ATOM     11  C   UNL     1       0.040   4.909  -5.051  1.00  0.00     0.032 A 
ATOM     12  C   UNL     1       0.300   2.661  -5.823  1.00  0.00     0.029 A 
ATOM     13  C   UNL     1       0.940   5.335  -6.065  1.00  0.00     0.013 A 
ATOM     14  C   UNL     1       1.078   3.092  -6.901  1.00  0.00     0.002 A 
ATOM     15  C   UNL     1       1.432   4.430  -7.001  1.00  0.00     0.001 A 
BRANCH   7  16
ATOM     16  S   UNL     1      -2.347   3.256  -1.638  1.00  0.00    -0.076 SA
BRANCH  16  17
ATOM     17  C   UNL     1      -1.398   3.938  -0.248  1.00  0.00     0.178 C 
BRANCH  17  18
ATOM     18  C   UNL     1       0.073   3.584  -0.270  1.00  0.00     0.234 C 
ATOM     19  N   UNL     1       0.592   2.343  -0.064  1.00  0.00    -0.325 N 
ATOM     20  H   UNL     1       1.577   2.353  -0.059  1.00  0.00     0.169 HD
ATOM     21  O   UNL     1       0.905   4.483  -0.464  1.00  0.00    -0.274 OA
BRANCH  19  22
ATOM     22  C   UNL     1       0.079   1.046   0.143  1.00  0.00     0.044 A 
ATOM     23  C   UNL     1       2.450   0.025  -0.150  1.00  0.00     0.046 C 
ATOM     24  C   UNL     1       0.955  -0.061   0.034  1.00  0.00    -0.027 A 
ATOM     25  C   UNL     1       0.426  -1.370   0.071  1.00  0.00     0.005 A 
ATOM     26  C   UNL     1      -0.931  -1.594   0.265  1.00  0.00     0.000 A 
ATOM     27  C   UNL     1      -1.266   0.791   0.426  1.00  0.00     0.026 A 
ATOM     28  C   UNL     1      -1.772  -0.512   0.470  1.00  0.00     0.002 A 
ENDBRANCH  19  22
ENDBRANCH  17  18
ENDBRANCH  16  17
ENDBRANCH   7  16
ENDBRANCH   3   6
ENDBRANCH   1   2
BRANCH   1  29
ATOM     29  C   UNL     1      -2.679   7.294  -7.849  1.00  0.00     0.023 C 
BRANCH  29  30
ATOM     30  C   UNL     1      -2.882   8.748  -8.243  1.00  0.00     0.023 C 
BRANCH  30  31
ATOM     31  C   UNL     1      -1.717   9.453  -8.921  1.00  0.00     0.116 C 
BRANCH  31  32
ATOM     32  N   UNL     1      -1.450   9.077 -10.303  1.00  0.00    -0.352 N 
ATOM     33  C   UNL     1      -0.538   9.607 -11.217  1.00  0.00     0.251 C 
ATOM     34  H   UNL     1      -1.997   8.335 -10.645  1.00  0.00     0.163 HD
ATOM     35  O   UNL     1      -0.470   9.144 -12.335  1.00  0.00    -0.269 OA
BRANCH  33  36
ATOM     36  C   UNL     1       0.459  10.632 -10.779  1.00  0.00     0.039 A 
ATOM     37  C   UNL     1       1.765  10.543 -11.285  1.00  0.00     0.014 A 
ATOM     38  C   UNL     1       0.195  11.509  -9.739  1.00  0.00     0.014 A 
ATOM     39  C   UNL     1       2.822  11.085 -10.556  1.00  0.00     0.010 A 
ATOM     40  C   UNL     1       1.235  11.911  -8.935  1.00  0.00     0.010 A 
ATOM     41  C   UNL     1       2.551  11.635  -9.309  1.00  0.00    -0.014 A 
BRANCH  41  42
ATOM     42  C   UNL     1       3.542  11.843  -8.262  1.00  0.00     0.031 A 
ATOM     43  C   UNL     1       3.849  13.208  -7.791  1.00  0.00     0.074 A 
ATOM     44  C   UNL     1       3.971  10.762  -7.574  1.00  0.00     0.049 A 
ATOM     45  N   UNL     1       4.816  13.508  -6.997  1.00  0.00    -0.248 NA
ATOM     46  C   UNL     1       3.091  14.373  -8.228  1.00  0.00     0.031 C 
ATOM     47  C   UNL     1       4.595  10.730  -6.254  1.00  0.00     0.029 A 
ATOM     48  N   UNL     1       4.102   9.448  -8.049  1.00  0.00    -0.354 N 
ATOM     49  C   UNL     1       4.635  14.809  -6.579  1.00  0.00     0.074 A 
ATOM     50  C   UNL     1       3.602  15.324  -7.443  1.00  0.00     0.031 C 
ATOM     51  C   UNL     1       5.292   9.589  -6.131  1.00  0.00     0.029 A 
ATOM     52  C   UNL     1       5.268   8.941  -7.430  1.00  0.00     0.049 A 
ATOM     53  H   UNL     1       3.508   8.978  -8.678  1.00  0.00     0.167 HD
ATOM     54  C   UNL     1       5.298  15.231  -5.462  1.00  0.00     0.037 A 
ATOM     55  C   UNL     1       6.380   8.646  -8.165  1.00  0.00     0.037 A 
ATOM     56  C   UNL     1       6.280  14.225  -5.043  1.00  0.00     0.049 A 
ATOM     57  C   UNL     1       7.605   9.439  -7.766  1.00  0.00     0.074 A 
ATOM     58  C   UNL     1       6.287  13.259  -4.049  1.00  0.00     0.029 A 
ATOM     59  N   UNL     1       7.336  13.915  -5.895  1.00  0.00    -0.354 N 
ATOM     60  N   UNL     1       7.563  10.566  -7.109  1.00  0.00    -0.248 NA
ATOM     61  C   UNL     1       8.970   9.026  -8.075  1.00  0.00     0.031 C 
ATOM     62  C   UNL     1       7.315  12.327  -4.348  1.00  0.00     0.029 A 
ATOM     63  C   UNL     1       7.948  12.739  -5.508  1.00  0.00     0.049 A 
ATOM     64  H   UNL     1       7.609  14.460  -6.669  1.00  0.00     0.167 HD
ATOM     65  C   UNL     1       8.838  11.031  -6.906  1.00  0.00     0.074 A 
ATOM     66  C   UNL     1       9.683  10.021  -7.516  1.00  0.00     0.031 C 
ATOM     67  C   UNL     1       9.081  12.210  -6.257  1.00  0.00     0.037 A 
BRANCH  54  68
ATOM     68  C   UNL     1       4.886  16.409  -4.591  1.00  0.00     0.057 A 
ATOM     69  C   UNL     1       5.300  16.480  -3.242  1.00  0.00     0.134 A 
ATOM     70  C   UNL     1       4.030  17.459  -4.968  1.00  0.00     0.134 A 
ATOM     71  F   UNL     1       6.193  15.623  -2.731  1.00  0.00    -0.206 F 
ATOM     72  C   UNL     1       4.821  17.439  -2.336  1.00  0.00     0.040 A 
ATOM     73  C   UNL     1       3.515  18.405  -4.067  1.00  0.00     0.040 A 
ATOM     74  F   UNL     1       3.684  17.678  -6.237  1.00  0.00    -0.206 F 
ATOM     75  C   UNL     1       3.898  18.390  -2.738  1.00  0.00     0.006 A 
ENDBRANCH  54  68
BRANCH  55  76
ATOM     76  C   UNL     1       6.058   8.179  -9.540  1.00  0.00     0.057 A 
ATOM     77  C   UNL     1       5.345   6.974  -9.685  1.00  0.00     0.134 A 
ATOM     78  C   UNL     1       6.061   9.049 -10.634  1.00  0.00     0.134 A 
ATOM     79  F   UNL     1       5.297   6.094  -8.671  1.00  0.00    -0.206 F 
ATOM     80  C   UNL     1       4.567   6.704 -10.814  1.00  0.00     0.040 A 
ATOM     81  C   UNL     1       5.297   8.780 -11.779  1.00  0.00     0.040 A 
ATOM     82  F   UNL     1       6.693  10.229 -10.567  1.00  0.00    -0.206 F 
ATOM     83  C   UNL     1       4.514   7.628 -11.852  1.00  0.00     0.006 A 
ENDBRANCH  55  76
BRANCH  67  84
ATOM     84  C   UNL     1      10.401  12.953  -6.183  1.00  0.00     0.057 A 
ATOM     85  C   UNL     1      11.442  12.827  -7.113  1.00  0.00     0.134 A 
ATOM     86  C   UNL     1      10.597  13.967  -5.213  1.00  0.00     0.134 A 
ATOM     87  F   UNL     1      11.359  11.994  -8.158  1.00  0.00    -0.206 F 
ATOM     88  C   UNL     1      12.608  13.606  -7.053  1.00  0.00     0.040 A 
ATOM     89  C   UNL     1      11.728  14.789  -5.181  1.00  0.00     0.040 A 
ATOM     90  F   UNL     1       9.685  14.229  -4.266  1.00  0.00    -0.206 F 
ATOM     91  C   UNL     1      12.749  14.601  -6.095  1.00  0.00     0.006 A 
ENDBRANCH  67  84
ENDBRANCH  41  42
ENDBRANCH  33  36
ENDBRANCH  31  32
ENDBRANCH  30  31
ENDBRANCH  29  30
ENDBRANCH   1  29
TORSDOF 15
