REMARK SMILES CSCc1ccc(C(=O)N[C@H]2C=C[C@@H](C(=O)NCCCCNC(=O)c3ccc(-c4c5nc(c(-c6c(F)cccc6F)c6ccc([nH]6)c(-c6c(F)cccc6F)c6nc(c(-c7c(F)cccc7F)c7ccc4[nH]7)C=C6)C=C5)cc3)C2)o1
REMARK SMILES IDX 18 1 17 2 15 3 16 4 14 6 11 7 12 8 79 9 13 10 10 11 8 12
REMARK SMILES IDX 9 13 7 15 4 16 5 17 80 18 6 19 3 20 2 21 1 22 19 23 20 24
REMARK SMILES IDX 21 25 22 26 23 27 24 29 25 30 26 31 78 32 27 33 77 34 28 35
REMARK SMILES IDX 29 36 30 37 71 38 31 39 76 40 70 41 72 42 32 43 75 44 69 45
REMARK SMILES IDX 68 46 33 48 59 49 42 50 58 51 43 52 46 53 57 54 73 55 44 56
REMARK SMILES IDX 45 57 56 59 74 60 47 61 34 62 35 63 40 64 36 65 37 66 39 67
REMARK SMILES IDX 41 68 38 69 60 70 61 71 66 72 62 73 63 74 65 75 67 76 64 77
REMARK SMILES IDX 48 78 49 79 54 80 50 81 51 82 53 83 55 84 52 85
REMARK H PARENT 17 5 10 14 22 28 72 47 46 58
REMARK Flexibility Score: inf
ROOT
ATOM      1  C   UNL     1      -2.119   0.438  -3.762  1.00  0.00     0.116 C 
ENDROOT
BRANCH   1   2
ATOM      2  N   UNL     1      -3.176  -0.235  -4.474  1.00  0.00    -0.356 N 
ATOM      3  C   UNL     1      -3.284  -0.499  -5.805  1.00  0.00     0.227 C 
ATOM      4  O   UNL     1      -4.004  -1.458  -6.112  1.00  0.00    -0.274 OA
ATOM      5  H   UNL     1      -3.927  -0.548  -3.920  1.00  0.00     0.163 HD
BRANCH   3   6
ATOM      6  C   UNL     1      -2.584   0.302  -6.926  1.00  0.00     0.103 C 
ATOM      7  C   UNL     1      -0.493   1.618  -6.978  1.00  0.00     0.106 C 
ATOM      8  C   UNL     1      -0.311   0.290  -7.598  1.00  0.00    -0.006 C 
ATOM      9  C   UNL     1      -2.005   1.700  -6.678  1.00  0.00     0.047 C 
ATOM     10  C   UNL     1      -1.442  -0.429  -7.574  1.00  0.00    -0.016 C 
BRANCH   7  11
ATOM     11  N   UNL     1       0.421   1.921  -5.883  1.00  0.00    -0.343 N 
ATOM     12  C   UNL     1       1.044   1.345  -4.799  1.00  0.00     0.287 C 
ATOM     13  O   UNL     1       1.613   2.178  -4.081  1.00  0.00    -0.266 OA
ATOM     14  H   UNL     1       0.686   2.868  -5.939  1.00  0.00     0.164 HD
BRANCH  12  15
ATOM     15  C   UNL     1       1.040  -0.071  -4.447  1.00  0.00     0.191 A 
ATOM     16  C   UNL     1       1.471  -1.743  -3.026  1.00  0.00     0.114 A 
ATOM     17  C   UNL     1       0.794  -2.298  -4.081  1.00  0.00     0.047 A 
ATOM     18  O   UNL     1       1.619  -0.401  -3.228  1.00  0.00    -0.455 OA
ATOM     19  C   UNL     1       0.569  -1.248  -4.997  1.00  0.00     0.056 A 
BRANCH  16  20
ATOM     20  C   UNL     1       2.086  -2.359  -1.826  1.00  0.00     0.144 C 
BRANCH  20  21
ATOM     21  S   UNL     1       1.225  -1.954  -0.287  1.00  0.00    -0.157 SA
ATOM     22  C   UNL     1       2.158  -0.466   0.152  1.00  0.00     0.085 C 
ENDBRANCH  20  21
ENDBRANCH  16  20
ENDBRANCH  12  15
ENDBRANCH   7  11
ENDBRANCH   3   6
ENDBRANCH   1   2
BRANCH   1  23
ATOM     23  C   UNL     1      -2.545   1.677  -2.988  1.00  0.00     0.023 C 
BRANCH  23  24
ATOM     24  C   UNL     1      -3.148   1.388  -1.617  1.00  0.00     0.023 C 
BRANCH  24  25
ATOM     25  C   UNL     1      -2.234   0.656  -0.638  1.00  0.00     0.116 C 
BRANCH  25  26
ATOM     26  N   UNL     1      -1.029   1.390  -0.290  1.00  0.00    -0.352 N 
ATOM     27  C   UNL     1      -0.414   1.527   0.934  1.00  0.00     0.251 C 
ATOM     28  H   UNL     1      -0.590   1.858  -1.037  1.00  0.00     0.163 HD
ATOM     29  O   UNL     1       0.553   2.273   1.050  1.00  0.00    -0.269 OA
BRANCH  27  30
ATOM     30  C   UNL     1      -0.921   0.804   2.127  1.00  0.00     0.039 A 
ATOM     31  C   UNL     1      -0.894   1.462   3.360  1.00  0.00     0.014 A 
ATOM     32  C   UNL     1      -1.419  -0.499   2.051  1.00  0.00     0.014 A 
ATOM     33  C   UNL     1      -1.462   0.858   4.482  1.00  0.00     0.010 A 
ATOM     34  C   UNL     1      -2.062  -1.067   3.146  1.00  0.00     0.010 A 
ATOM     35  C   UNL     1      -2.105  -0.385   4.368  1.00  0.00    -0.014 A 
BRANCH  35  36
ATOM     36  C   UNL     1      -2.890  -0.940   5.496  1.00  0.00     0.031 A 
ATOM     37  C   UNL     1      -2.502  -2.236   6.146  1.00  0.00     0.074 A 
ATOM     38  C   UNL     1      -4.006  -0.291   5.885  1.00  0.00     0.049 A 
ATOM     39  N   UNL     1      -3.071  -2.857   7.149  1.00  0.00    -0.248 NA
ATOM     40  C   UNL     1      -1.341  -2.942   5.583  1.00  0.00     0.031 C 
ATOM     41  C   UNL     1      -4.528   0.932   5.269  1.00  0.00     0.029 A 
ATOM     42  N   UNL     1      -4.904  -0.566   6.884  1.00  0.00    -0.354 N 
ATOM     43  C   UNL     1      -2.338  -4.022   7.337  1.00  0.00     0.074 A 
ATOM     44  C   UNL     1      -1.324  -4.053   6.305  1.00  0.00     0.031 C 
ATOM     45  C   UNL     1      -5.629   1.322   5.928  1.00  0.00     0.029 A 
ATOM     46  C   UNL     1      -5.912   0.361   6.987  1.00  0.00     0.049 A 
ATOM     47  H   UNL     1      -4.832  -1.353   7.471  1.00  0.00     0.167 HD
ATOM     48  C   UNL     1      -2.484  -4.965   8.298  1.00  0.00     0.037 A 
ATOM     49  C   UNL     1      -6.947   0.431   7.844  1.00  0.00     0.037 A 
ATOM     50  C   UNL     1      -3.500  -4.923   9.319  1.00  0.00     0.049 A 
ATOM     51  C   UNL     1      -7.082  -0.624   8.905  1.00  0.00     0.074 A 
ATOM     52  C   UNL     1      -3.703  -5.798  10.371  1.00  0.00     0.029 A 
ATOM     53  N   UNL     1      -4.492  -3.956   9.407  1.00  0.00    -0.354 N 
ATOM     54  N   UNL     1      -6.325  -1.670   9.132  1.00  0.00    -0.248 NA
ATOM     55  C   UNL     1      -8.205  -0.479   9.840  1.00  0.00     0.031 C 
ATOM     56  C   UNL     1      -4.848  -5.391  11.065  1.00  0.00     0.029 A 
ATOM     57  C   UNL     1      -5.322  -4.226  10.483  1.00  0.00     0.049 A 
ATOM     58  H   UNL     1      -4.591  -3.191   8.795  1.00  0.00     0.167 HD
ATOM     59  C   UNL     1      -6.859  -2.290  10.254  1.00  0.00     0.074 A 
ATOM     60  C   UNL     1      -7.993  -1.490  10.670  1.00  0.00     0.031 C 
ATOM     61  C   UNL     1      -6.446  -3.417  10.885  1.00  0.00     0.037 A 
BRANCH  48  62
ATOM     62  C   UNL     1      -1.521  -6.118   8.291  1.00  0.00     0.057 A 
ATOM     63  C   UNL     1      -0.163  -5.948   8.597  1.00  0.00     0.134 A 
ATOM     64  C   UNL     1      -1.957  -7.418   8.008  1.00  0.00     0.134 A 
ATOM     65  F   UNL     1       0.326  -4.729   8.868  1.00  0.00    -0.206 F 
ATOM     66  C   UNL     1       0.729  -7.023   8.593  1.00  0.00     0.040 A 
ATOM     67  C   UNL     1      -1.081  -8.506   8.031  1.00  0.00     0.040 A 
ATOM     68  F   UNL     1      -3.244  -7.657   7.714  1.00  0.00    -0.206 F 
ATOM     69  C   UNL     1       0.268  -8.308   8.316  1.00  0.00     0.006 A 
ENDBRANCH  48  62
BRANCH  49  70
ATOM     70  C   UNL     1      -7.910   1.559   7.758  1.00  0.00     0.057 A 
ATOM     71  C   UNL     1      -7.965   2.540   8.756  1.00  0.00     0.134 A 
ATOM     72  C   UNL     1      -8.798   1.684   6.683  1.00  0.00     0.134 A 
ATOM     73  F   UNL     1      -7.150   2.469   9.818  1.00  0.00    -0.206 F 
ATOM     74  C   UNL     1      -8.884   3.589   8.701  1.00  0.00     0.040 A 
ATOM     75  C   UNL     1      -9.702   2.743   6.601  1.00  0.00     0.040 A 
ATOM     76  F   UNL     1      -8.787   0.785   5.688  1.00  0.00    -0.206 F 
ATOM     77  C   UNL     1      -9.754   3.695   7.617  1.00  0.00     0.006 A 
ENDBRANCH  49  70
BRANCH  61  78
ATOM     78  C   UNL     1      -7.202  -3.823  12.117  1.00  0.00     0.057 A 
ATOM     79  C   UNL     1      -8.514  -4.310  12.060  1.00  0.00     0.134 A 
ATOM     80  C   UNL     1      -6.598  -3.740  13.379  1.00  0.00     0.134 A 
ATOM     81  F   UNL     1      -9.156  -4.403  10.885  1.00  0.00    -0.206 F 
ATOM     82  C   UNL     1      -9.211  -4.666  13.216  1.00  0.00     0.040 A 
ATOM     83  C   UNL     1      -7.273  -4.124  14.538  1.00  0.00     0.040 A 
ATOM     84  F   UNL     1      -5.340  -3.293  13.505  1.00  0.00    -0.206 F 
ATOM     85  C   UNL     1      -8.587  -4.579  14.460  1.00  0.00     0.006 A 
ENDBRANCH  61  78
ENDBRANCH  35  36
ENDBRANCH  27  30
ENDBRANCH  25  26
ENDBRANCH  24  25
ENDBRANCH  23  24
ENDBRANCH   1  23
TORSDOF 15
