REMARK SMILES Cc1ccc(Nc2c(F)cccc2I)c(CC(=O)NCCCCNC(=O)c2ccc(-c3c4nc(c(-c5c(F)cccc5F)c5ccc([nH]5)c(-c5c(F)cccc5F)c5nc(c(-c6c(F)cccc6F)c6ccc3[nH]6)C=C5)C=C4)cc2)c1
REMARK SMILES IDX 21 1 20 2 19 3 17 4 18 5 16 7 15 8 1 9 2 10 3 11 81 12 4 13
REMARK SMILES IDX 5 14 6 15 7 17 8 18 13 19 9 20 10 21 12 22 14 23 11 24 22 25
REMARK SMILES IDX 23 26 24 27 25 28 26 30 27 31 28 32 80 33 29 34 79 35 30 36
REMARK SMILES IDX 31 37 32 38 73 39 33 40 78 41 72 42 74 43 34 44 77 45 71 46
REMARK SMILES IDX 70 47 35 49 61 50 44 51 60 52 45 53 48 54 59 55 75 56 46 57
REMARK SMILES IDX 47 58 58 60 76 61 49 62 36 63 37 64 42 65 38 66 39 67 41 68
REMARK SMILES IDX 43 69 40 70 62 71 63 72 68 73 64 74 65 75 67 76 69 77 66 78
REMARK SMILES IDX 50 79 51 80 56 81 52 82 53 83 55 84 57 85 54 86
REMARK H PARENT 19 6 6 16 24 29 74 48 48 59
REMARK Flexibility Score: inf
ROOT
ATOM      1  C   UNL     1      -0.152   1.141  -3.168  1.00  0.00     0.023 C 
ENDROOT
BRANCH   1   2
ATOM      2  C   UNL     1      -0.541   2.569  -2.748  1.00  0.00     0.116 C 
BRANCH   2   3
ATOM      3  N   UNL     1      -1.942   2.714  -2.392  1.00  0.00    -0.356 N 
ATOM      4  C   UNL     1      -2.548   2.645  -1.173  1.00  0.00     0.224 C 
ATOM      5  O   UNL     1      -3.777   2.745  -1.126  1.00  0.00    -0.275 OA
ATOM      6  H   UNL     1      -2.548   2.889  -3.148  1.00  0.00     0.163 HD
BRANCH   4   7
ATOM      7  C   UNL     1      -1.752   2.437   0.101  1.00  0.00     0.137 C 
BRANCH   7   8
ATOM      8  C   UNL     1      -1.072   1.089   0.188  1.00  0.00    -0.015 A 
ATOM      9  C   UNL     1       2.570  -0.071   0.312  1.00  0.00     0.044 C 
ATOM     10  C   UNL     1       1.071  -0.093   0.293  1.00  0.00    -0.051 A 
ATOM     11  C   UNL     1       0.386  -1.301   0.186  1.00  0.00     0.005 A 
ATOM     12  C   UNL     1       0.334   1.091   0.334  1.00  0.00     0.009 A 
ATOM     13  C   UNL     1      -1.010  -1.318   0.097  1.00  0.00     0.026 A 
ATOM     14  C   UNL     1      -1.769  -0.136   0.073  1.00  0.00     0.042 A 
BRANCH  14  15
ATOM     15  N   UNL     1      -3.174  -0.176  -0.063  1.00  0.00    -0.352 N 
ATOM     16  H   UNL     1      -3.598   0.698  -0.222  1.00  0.00     0.167 HD
BRANCH  15  17
ATOM     17  C   UNL     1      -4.071  -1.269  -0.008  1.00  0.00     0.088 A 
ATOM     18  C   UNL     1      -4.024  -2.218   1.028  1.00  0.00     0.147 A 
ATOM     19  C   UNL     1      -5.014  -1.490  -1.032  1.00  0.00     0.040 A 
ATOM     20  F   UNL     1      -3.168  -2.065   2.050  1.00  0.00    -0.205 F 
ATOM     21  C   UNL     1      -4.870  -3.327   1.056  1.00  0.00     0.041 A 
ATOM     22  C   UNL     1      -5.866  -2.605  -1.010  1.00  0.00     0.017 A 
ATOM     23  I   UNL     1      -5.181  -0.215  -2.694  1.00  0.00    -0.042 I 
ATOM     24  C   UNL     1      -5.792  -3.524   0.034  1.00  0.00     0.004 A 
ENDBRANCH  15  17
ENDBRANCH  14  15
ENDBRANCH   7   8
ENDBRANCH   4   7
ENDBRANCH   2   3
ENDBRANCH   1   2
BRANCH   1  25
ATOM     25  C   UNL     1      -0.957   0.541  -4.321  1.00  0.00     0.023 C 
BRANCH  25  26
ATOM     26  C   UNL     1      -0.669   1.173  -5.672  1.00  0.00     0.116 C 
BRANCH  26  27
ATOM     27  N   UNL     1       0.449   0.579  -6.396  1.00  0.00    -0.352 N 
ATOM     28  C   UNL     1       1.081   1.023  -7.547  1.00  0.00     0.251 C 
ATOM     29  H   UNL     1       0.805  -0.255  -6.013  1.00  0.00     0.163 HD
ATOM     30  O   UNL     1       1.982   0.367  -8.048  1.00  0.00    -0.269 OA
BRANCH  28  31
ATOM     31  C   UNL     1       0.762   2.373  -8.079  1.00  0.00     0.039 A 
ATOM     32  C   UNL     1       1.838   3.217  -8.377  1.00  0.00     0.014 A 
ATOM     33  C   UNL     1      -0.534   2.881  -8.042  1.00  0.00     0.014 A 
ATOM     34  C   UNL     1       1.651   4.595  -8.338  1.00  0.00     0.010 A 
ATOM     35  C   UNL     1      -0.706   4.245  -7.903  1.00  0.00     0.010 A 
ATOM     36  C   UNL     1       0.406   5.090  -7.956  1.00  0.00    -0.014 A 
BRANCH  36  37
ATOM     37  C   UNL     1       0.224   6.431  -7.413  1.00  0.00     0.031 A 
ATOM     38  C   UNL     1      -0.496   7.470  -8.173  1.00  0.00     0.074 A 
ATOM     39  C   UNL     1       0.650   6.691  -6.154  1.00  0.00     0.049 A 
ATOM     40  N   UNL     1      -0.491   8.718  -7.849  1.00  0.00    -0.248 NA
ATOM     41  C   UNL     1      -1.224   7.201  -9.411  1.00  0.00     0.031 C 
ATOM     42  C   UNL     1       0.314   7.836  -5.310  1.00  0.00     0.029 A 
ATOM     43  N   UNL     1       1.710   6.066  -5.477  1.00  0.00    -0.354 N 
ATOM     44  C   UNL     1      -1.430   9.348  -8.622  1.00  0.00     0.074 A 
ATOM     45  C   UNL     1      -1.751   8.405  -9.663  1.00  0.00     0.031 C 
ATOM     46  C   UNL     1       1.307   8.027  -4.428  1.00  0.00     0.029 A 
ATOM     47  C   UNL     1       2.371   7.104  -4.776  1.00  0.00     0.049 A 
ATOM     48  H   UNL     1       1.945   5.110  -5.488  1.00  0.00     0.167 HD
ATOM     49  C   UNL     1      -1.918  10.548  -8.207  1.00  0.00     0.037 A 
ATOM     50  C   UNL     1       3.646   7.464  -5.106  1.00  0.00     0.037 A 
ATOM     51  C   UNL     1      -1.046  11.162  -7.205  1.00  0.00     0.049 A 
ATOM     52  C   UNL     1       3.802   8.893  -5.591  1.00  0.00     0.074 A 
ATOM     53  C   UNL     1      -1.119  11.442  -5.853  1.00  0.00     0.029 A 
ATOM     54  N   UNL     1       0.270  11.405  -7.569  1.00  0.00    -0.354 N 
ATOM     55  N   UNL     1       2.824   9.746  -5.722  1.00  0.00    -0.248 NA
ATOM     56  C   UNL     1       5.078   9.436  -6.062  1.00  0.00     0.031 C 
ATOM     57  C   UNL     1       0.197  11.783  -5.402  1.00  0.00     0.029 A 
ATOM     58  C   UNL     1       1.053  11.745  -6.488  1.00  0.00     0.049 A 
ATOM     59  H   UNL     1       0.605  11.341  -8.493  1.00  0.00     0.167 HD
ATOM     60  C   UNL     1       3.290  10.879  -6.336  1.00  0.00     0.074 A 
ATOM     61  C   UNL     1       4.709  10.643  -6.520  1.00  0.00     0.031 C 
ATOM     62  C   UNL     1       2.482  11.915  -6.703  1.00  0.00     0.037 A 
BRANCH  49  63
ATOM     63  C   UNL     1      -3.245  11.124  -8.640  1.00  0.00     0.057 A 
ATOM     64  C   UNL     1      -3.600  12.440  -8.288  1.00  0.00     0.134 A 
ATOM     65  C   UNL     1      -4.269  10.400  -9.288  1.00  0.00     0.134 A 
ATOM     66  F   UNL     1      -2.746  13.240  -7.633  1.00  0.00    -0.206 F 
ATOM     67  C   UNL     1      -4.860  12.989  -8.569  1.00  0.00     0.040 A 
ATOM     68  C   UNL     1      -5.510  10.956  -9.625  1.00  0.00     0.040 A 
ATOM     69  F   UNL     1      -4.158   9.098  -9.572  1.00  0.00    -0.206 F 
ATOM     70  C   UNL     1      -5.816  12.253  -9.255  1.00  0.00     0.006 A 
ENDBRANCH  49  63
BRANCH  50  71
ATOM     71  C   UNL     1       4.474   6.313  -5.555  1.00  0.00     0.057 A 
ATOM     72  C   UNL     1       4.707   5.256  -4.656  1.00  0.00     0.134 A 
ATOM     73  C   UNL     1       4.737   6.069  -6.905  1.00  0.00     0.134 A 
ATOM     74  F   UNL     1       4.474   5.422  -3.344  1.00  0.00    -0.206 F 
ATOM     75  C   UNL     1       5.072   3.981  -5.094  1.00  0.00     0.040 A 
ATOM     76  C   UNL     1       5.121   4.800  -7.353  1.00  0.00     0.040 A 
ATOM     77  F   UNL     1       4.513   7.016  -7.827  1.00  0.00    -0.206 F 
ATOM     78  C   UNL     1       5.250   3.744  -6.452  1.00  0.00     0.006 A 
ENDBRANCH  50  71
BRANCH  62  79
ATOM     79  C   UNL     1       3.009  13.162  -7.353  1.00  0.00     0.057 A 
ATOM     80  C   UNL     1       4.120  13.855  -6.850  1.00  0.00     0.134 A 
ATOM     81  C   UNL     1       2.353  13.767  -8.442  1.00  0.00     0.134 A 
ATOM     82  F   UNL     1       4.792  13.398  -5.782  1.00  0.00    -0.206 F 
ATOM     83  C   UNL     1       4.572  15.053  -7.417  1.00  0.00     0.040 A 
ATOM     84  C   UNL     1       2.767  14.986  -8.987  1.00  0.00     0.040 A 
ATOM     85  F   UNL     1       1.300  13.187  -9.036  1.00  0.00    -0.206 F 
ATOM     86  C   UNL     1       3.887  15.629  -8.481  1.00  0.00     0.006 A 
ENDBRANCH  62  79
ENDBRANCH  36  37
ENDBRANCH  28  31
ENDBRANCH  26  27
ENDBRANCH  25  26
ENDBRANCH   1  25
TORSDOF 14
