REMARK SMILES CC[C@H]1CC[C@@](C(=O)NCCCCNC(=O)c2ccc(-c3c4nc(c(-c5c(F)cccc5F)c5ccc([nH]5)c(-c5c(F)cccc5F)c5nc(c(-c6c(F)cccc6F)c6ccc3[nH]6)C=C5)C=C4)cc2)(C2CCCC2)C1
REMARK SMILES IDX 12 1 11 2 10 3 9 4 7 5 8 6 6 8 3 9 4 10 76 11 5 12 2 13 1 14
REMARK SMILES IDX 71 15 72 16 75 17 73 18 74 19 13 20 14 21 15 22 16 24 17 25
REMARK SMILES IDX 18 26 70 27 19 28 69 29 20 30 21 31 22 32 63 33 23 34 68 35
REMARK SMILES IDX 62 36 64 37 24 38 67 39 61 40 60 41 25 43 51 44 34 45 50 46
REMARK SMILES IDX 35 47 38 48 49 49 65 50 36 51 37 52 48 54 66 55 39 56 26 57
REMARK SMILES IDX 27 58 32 59 28 60 29 61 31 62 33 63 30 64 52 65 53 66 58 67
REMARK SMILES IDX 54 68 55 69 57 70 59 71 56 72 40 73 41 74 46 75 42 76 43 77
REMARK SMILES IDX 45 78 47 79 44 80
REMARK H PARENT 9 7 14 23 64 42 38 53
REMARK Flexibility Score: inf
ROOT
ATOM      1  C   UNL     1       3.666   5.106  -0.873  1.00  0.00     0.023 C 
ENDROOT
BRANCH   1   2
ATOM      2  C   UNL     1       2.618   4.178  -0.253  1.00  0.00     0.023 C 
BRANCH   2   3
ATOM      3  C   UNL     1       3.175   2.855   0.263  1.00  0.00     0.116 C 
BRANCH   3   4
ATOM      4  N   UNL     1       4.001   3.038   1.434  1.00  0.00    -0.356 N 
ATOM      5  C   UNL     1       3.836   2.722   2.744  1.00  0.00     0.226 C 
ATOM      6  O   UNL     1       4.820   2.975   3.449  1.00  0.00    -0.274 OA
ATOM      7  H   UNL     1       4.859   3.482   1.243  1.00  0.00     0.163 HD
BRANCH   5   8
ATOM      8  C   UNL     1       2.556   2.050   3.335  1.00  0.00     0.052 C 
ATOM      9  C   UNL     1       0.898   0.503   2.268  1.00  0.00    -0.010 C 
ATOM     10  C   UNL     1       0.377   1.933   2.133  1.00  0.00     0.005 C 
ATOM     11  C   UNL     1       2.373   0.646   2.698  1.00  0.00     0.020 C 
ATOM     12  C   UNL     1       1.257   2.818   3.007  1.00  0.00     0.017 C 
BRANCH   9  13
ATOM     13  C   UNL     1       0.110  -0.481   3.160  1.00  0.00     0.000 C 
ATOM     14  C   UNL     1      -1.271  -0.049   3.623  1.00  0.00     0.004 C 
ENDBRANCH   9  13
BRANCH   8  15
ATOM     15  C   UNL     1       2.774   1.947   4.895  1.00  0.00     0.004 C 
ATOM     16  C   UNL     1       2.787   3.289   5.650  1.00  0.00     0.005 C 
ATOM     17  C   UNL     1       1.733   1.145   5.685  1.00  0.00     0.005 C 
ATOM     18  C   UNL     1       2.674   2.888   7.113  1.00  0.00     0.000 C 
ATOM     19  C   UNL     1       1.806   1.638   7.128  1.00  0.00     0.000 C 
ENDBRANCH   8  15
ENDBRANCH   5   8
ENDBRANCH   3   4
ENDBRANCH   2   3
ENDBRANCH   1   2
BRANCH   1  20
ATOM     20  C   UNL     1       4.476   4.502  -2.014  1.00  0.00     0.116 C 
BRANCH  20  21
ATOM     21  N   UNL     1       3.650   4.011  -3.106  1.00  0.00    -0.352 N 
ATOM     22  C   UNL     1       3.856   4.126  -4.462  1.00  0.00     0.251 C 
ATOM     23  H   UNL     1       2.834   3.530  -2.839  1.00  0.00     0.163 HD
ATOM     24  O   UNL     1       3.001   3.754  -5.253  1.00  0.00    -0.269 OA
BRANCH  22  25
ATOM     25  C   UNL     1       5.107   4.739  -4.951  1.00  0.00     0.039 A 
ATOM     26  C   UNL     1       5.031   5.751  -5.911  1.00  0.00     0.014 A 
ATOM     27  C   UNL     1       6.345   4.341  -4.439  1.00  0.00     0.014 A 
ATOM     28  C   UNL     1       6.194   6.415  -6.306  1.00  0.00     0.010 A 
ATOM     29  C   UNL     1       7.491   5.051  -4.780  1.00  0.00     0.010 A 
ATOM     30  C   UNL     1       7.427   6.096  -5.714  1.00  0.00    -0.014 A 
BRANCH  30  31
ATOM     31  C   UNL     1       8.664   6.839  -6.061  1.00  0.00     0.031 A 
ATOM     32  C   UNL     1       9.805   6.125  -6.731  1.00  0.00     0.074 A 
ATOM     33  C   UNL     1       8.786   8.136  -5.718  1.00  0.00     0.049 A 
ATOM     34  N   UNL     1      10.998   6.570  -7.031  1.00  0.00    -0.248 NA
ATOM     35  C   UNL     1       9.582   4.715  -7.090  1.00  0.00     0.031 C 
ATOM     36  C   UNL     1       7.765   8.933  -5.033  1.00  0.00     0.029 A 
ATOM     37  N   UNL     1       9.828   9.012  -5.891  1.00  0.00    -0.354 N 
ATOM     38  C   UNL     1      11.667   5.497  -7.606  1.00  0.00     0.074 A 
ATOM     39  C   UNL     1      10.770   4.363  -7.559  1.00  0.00     0.031 C 
ATOM     40  C   UNL     1       8.224  10.184  -4.864  1.00  0.00     0.029 A 
ATOM     41  C   UNL     1       9.582  10.268  -5.391  1.00  0.00     0.049 A 
ATOM     42  H   UNL     1      10.673   8.764  -6.331  1.00  0.00     0.167 HD
ATOM     43  C   UNL     1      12.906   5.466  -8.152  1.00  0.00     0.037 A 
ATOM     44  C   UNL     1      10.368  11.361  -5.354  1.00  0.00     0.037 A 
ATOM     45  C   UNL     1      13.792   6.597  -8.214  1.00  0.00     0.049 A 
ATOM     46  C   UNL     1      11.752  11.289  -5.939  1.00  0.00     0.074 A 
ATOM     47  C   UNL     1      15.059   6.673  -8.766  1.00  0.00     0.029 A 
ATOM     48  N   UNL     1      13.500   7.856  -7.710  1.00  0.00    -0.354 N 
ATOM     49  N   UNL     1      12.354  10.280  -6.520  1.00  0.00    -0.248 NA
ATOM     50  C   UNL     1      12.566  12.511  -5.867  1.00  0.00     0.031 C 
ATOM     51  C   UNL     1      15.546   7.968  -8.568  1.00  0.00     0.029 A 
ATOM     52  C   UNL     1      14.565   8.711  -7.931  1.00  0.00     0.049 A 
ATOM     53  H   UNL     1      12.659   8.104  -7.261  1.00  0.00     0.167 HD
ATOM     54  C   UNL     1      13.598  10.755  -6.915  1.00  0.00     0.074 A 
ATOM     55  C   UNL     1      13.661  12.145  -6.516  1.00  0.00     0.031 C 
ATOM     56  C   UNL     1      14.600  10.099  -7.549  1.00  0.00     0.037 A 
BRANCH  43  57
ATOM     57  C   UNL     1      13.367   4.165  -8.742  1.00  0.00     0.057 A 
ATOM     58  C   UNL     1      12.817   3.665  -9.930  1.00  0.00     0.134 A 
ATOM     59  C   UNL     1      14.391   3.424  -8.141  1.00  0.00     0.134 A 
ATOM     60  F   UNL     1      11.822   4.321 -10.547  1.00  0.00    -0.206 F 
ATOM     61  C   UNL     1      13.253   2.462 -10.487  1.00  0.00     0.040 A 
ATOM     62  C   UNL     1      14.854   2.233  -8.703  1.00  0.00     0.040 A 
ATOM     63  F   UNL     1      14.965   3.848  -7.005  1.00  0.00    -0.206 F 
ATOM     64  C   UNL     1      14.281   1.746  -9.877  1.00  0.00     0.006 A 
ENDBRANCH  43  57
BRANCH  44  65
ATOM     65  C   UNL     1       9.869  12.628  -4.761  1.00  0.00     0.057 A 
ATOM     66  C   UNL     1       9.622  13.749  -5.562  1.00  0.00     0.134 A 
ATOM     67  C   UNL     1       9.665  12.763  -3.383  1.00  0.00     0.134 A 
ATOM     68  F   UNL     1       9.818  13.688  -6.888  1.00  0.00    -0.206 F 
ATOM     69  C   UNL     1       9.219  14.967  -5.013  1.00  0.00     0.040 A 
ATOM     70  C   UNL     1       9.238  13.968  -2.823  1.00  0.00     0.040 A 
ATOM     71  F   UNL     1       9.878  11.725  -2.561  1.00  0.00    -0.206 F 
ATOM     72  C   UNL     1       9.024  15.078  -3.638  1.00  0.00     0.006 A 
ENDBRANCH  44  65
BRANCH  56  73
ATOM     73  C   UNL     1      15.825  10.891  -7.901  1.00  0.00     0.057 A 
ATOM     74  C   UNL     1      16.750  11.295  -6.931  1.00  0.00     0.134 A 
ATOM     75  C   UNL     1      16.099  11.219  -9.235  1.00  0.00     0.134 A 
ATOM     76  F   UNL     1      16.538  11.024  -5.634  1.00  0.00    -0.206 F 
ATOM     77  C   UNL     1      17.894  12.018  -7.273  1.00  0.00     0.040 A 
ATOM     78  C   UNL     1      17.252  11.918  -9.592  1.00  0.00     0.040 A 
ATOM     79  F   UNL     1      15.256  10.854 -10.213  1.00  0.00    -0.206 F 
ATOM     80  C   UNL     1      18.151  12.325  -8.608  1.00  0.00     0.006 A 
ENDBRANCH  56  73
ENDBRANCH  30  31
ENDBRANCH  22  25
ENDBRANCH  20  21
ENDBRANCH   1  20
TORSDOF 13
