REMARK SMILES CCc1cc(/C=C/C(=O)NCCCCNC(=O)c2ccc(-c3c4nc(c(-c5c(F)cccc5F)c5ccc([nH]5)c(-c5c(F)cccc5F)c5nc(c(-c6c(F)cccc6F)c6ccc3[nH]6)C=C5)C=C4)cc2)cc(C(=O)c2ccccc2)c1
REMARK SMILES IDX 12 1 11 2 10 3 8 4 9 5 7 7 6 8 5 9 3 10 4 11 82 12 73 13
REMARK SMILES IDX 72 14 2 15 1 16 74 17 75 18 76 19 77 20 81 21 78 22 80 23
REMARK SMILES IDX 79 24 13 25 14 26 15 27 16 28 17 30 18 31 19 32 71 33 20 34
REMARK SMILES IDX 70 35 21 36 22 37 23 38 64 39 24 40 69 41 63 42 65 43 25 44
REMARK SMILES IDX 68 45 62 46 61 47 26 49 52 50 35 51 51 52 36 53 39 54 50 55
REMARK SMILES IDX 66 56 37 57 38 58 49 60 67 61 40 62 27 63 28 64 33 65 29 66
REMARK SMILES IDX 30 67 32 68 34 69 31 70 53 71 54 72 59 73 55 74 56 75 58 76
REMARK SMILES IDX 60 77 57 78 41 79 42 80 47 81 43 82 44 83 46 84 48 85 45 86
REMARK H PARENT 10 6 15 29 65 48 39 59
REMARK Flexibility Score: inf
ROOT
ATOM      1  C   UNL     1       0.565  -1.813   9.168  1.00  0.00     0.023 C 
ENDROOT
BRANCH   1   2
ATOM      2  C   UNL     1       1.855  -2.411   8.603  1.00  0.00     0.116 C 
BRANCH   2   3
ATOM      3  N   UNL     1       1.611  -3.705   7.994  1.00  0.00    -0.353 N 
ATOM      4  C   UNL     1       1.522  -4.064   6.686  1.00  0.00     0.243 C 
ATOM      5  O   UNL     1       1.410  -5.253   6.394  1.00  0.00    -0.270 OA
ATOM      6  H   UNL     1       1.492  -4.444   8.633  1.00  0.00     0.163 HD
BRANCH   4   7
ATOM      7  C   UNL     1       1.628  -3.065   5.595  1.00  0.00     0.072 C 
ATOM      8  C   UNL     1       1.029  -1.866   5.591  1.00  0.00     0.014 C 
BRANCH   8   9
ATOM      9  C   UNL     1       1.081  -0.907   4.482  1.00  0.00    -0.024 A 
ATOM     10  C   UNL     1       0.882  -0.374   2.104  1.00  0.00    -0.047 A 
ATOM     11  C   UNL     1       0.920  -1.310   3.151  1.00  0.00     0.011 A 
ATOM     12  C   UNL     1       0.992   0.987   2.419  1.00  0.00     0.016 A 
ATOM     13  C   UNL     1       1.123   1.410   3.750  1.00  0.00     0.023 A 
ATOM     14  C   UNL     1       1.180   0.458   4.774  1.00  0.00     0.020 A 
BRANCH  10  15
ATOM     15  C   UNL     1       0.617  -0.867   0.699  1.00  0.00     0.032 C 
ATOM     16  C   UNL     1       1.143   0.008  -0.431  1.00  0.00     0.009 C 
ENDBRANCH  10  15
BRANCH  13  17
ATOM     17  C   UNL     1       1.214   2.853   4.116  1.00  0.00     0.193 C 
ATOM     18  O   UNL     1       1.645   3.188   5.216  1.00  0.00    -0.289 OA
BRANCH  17  19
ATOM     19  C   UNL     1       0.815   3.907   3.157  1.00  0.00     0.022 A 
ATOM     20  C   UNL     1       1.731   4.919   2.858  1.00  0.00     0.012 A 
ATOM     21  C   UNL     1      -0.445   3.888   2.547  1.00  0.00     0.012 A 
ATOM     22  C   UNL     1       1.406   5.883   1.904  1.00  0.00     0.001 A 
ATOM     23  C   UNL     1      -0.763   4.855   1.594  1.00  0.00     0.001 A 
ATOM     24  C   UNL     1       0.165   5.844   1.266  1.00  0.00     0.000 A 
ENDBRANCH  17  19
ENDBRANCH  13  17
ENDBRANCH   8   9
ENDBRANCH   4   7
ENDBRANCH   2   3
ENDBRANCH   1   2
BRANCH   1  25
ATOM     25  C   UNL     1       0.108  -2.416  10.498  1.00  0.00     0.023 C 
BRANCH  25  26
ATOM     26  C   UNL     1       1.094  -2.261  11.650  1.00  0.00     0.116 C 
BRANCH  26  27
ATOM     27  N   UNL     1       1.468  -0.881  11.917  1.00  0.00    -0.352 N 
ATOM     28  C   UNL     1       1.849  -0.318  13.113  1.00  0.00     0.251 C 
ATOM     29  H   UNL     1       1.445  -0.273  11.143  1.00  0.00     0.163 HD
ATOM     30  O   UNL     1       2.047   0.884  13.203  1.00  0.00    -0.269 OA
BRANCH  28  31
ATOM     31  C   UNL     1       1.967  -1.184  14.303  1.00  0.00     0.039 A 
ATOM     32  C   UNL     1       1.294  -0.814  15.470  1.00  0.00     0.014 A 
ATOM     33  C   UNL     1       2.697  -2.374  14.251  1.00  0.00     0.014 A 
ATOM     34  C   UNL     1       1.294  -1.677  16.566  1.00  0.00     0.010 A 
ATOM     35  C   UNL     1       2.640  -3.262  15.319  1.00  0.00     0.010 A 
ATOM     36  C   UNL     1       1.935  -2.924  16.484  1.00  0.00    -0.014 A 
BRANCH  36  37
ATOM     37  C   UNL     1       1.870  -3.894  17.604  1.00  0.00     0.031 A 
ATOM     38  C   UNL     1       3.120  -4.279  18.341  1.00  0.00     0.074 A 
ATOM     39  C   UNL     1       0.695  -4.480  17.907  1.00  0.00     0.049 A 
ATOM     40  N   UNL     1       3.277  -5.157  19.299  1.00  0.00    -0.248 NA
ATOM     41  C   UNL     1       4.363  -3.609  17.929  1.00  0.00     0.031 C 
ATOM     42  C   UNL     1      -0.577  -4.230  17.226  1.00  0.00     0.029 A 
ATOM     43  N   UNL     1       0.384  -5.417  18.859  1.00  0.00    -0.354 N 
ATOM     44  C   UNL     1       4.634  -5.156  19.591  1.00  0.00     0.074 A 
ATOM     45  C   UNL     1       5.264  -4.229  18.676  1.00  0.00     0.031 C 
ATOM     46  C   UNL     1      -1.535  -4.978  17.797  1.00  0.00     0.029 A 
ATOM     47  C   UNL     1      -0.940  -5.783  18.860  1.00  0.00     0.049 A 
ATOM     48  H   UNL     1       1.047  -5.792  19.483  1.00  0.00     0.167 HD
ATOM     49  C   UNL     1       5.293  -5.848  20.551  1.00  0.00     0.037 A 
ATOM     50  C   UNL     1      -1.598  -6.670  19.629  1.00  0.00     0.037 A 
ATOM     51  C   UNL     1       4.659  -6.748  21.477  1.00  0.00     0.049 A 
ATOM     52  C   UNL     1      -0.846  -7.419  20.693  1.00  0.00     0.074 A 
ATOM     53  C   UNL     1       5.228  -7.446  22.528  1.00  0.00     0.029 A 
ATOM     54  N   UNL     1       3.311  -7.073  21.463  1.00  0.00    -0.354 N 
ATOM     55  N   UNL     1       0.425  -7.356  21.006  1.00  0.00    -0.248 NA
ATOM     56  C   UNL     1      -1.622  -8.358  21.515  1.00  0.00     0.031 C 
ATOM     57  C   UNL     1       4.230  -8.223  23.127  1.00  0.00     0.029 A 
ATOM     58  C   UNL     1       3.032  -7.976  22.476  1.00  0.00     0.049 A 
ATOM     59  H   UNL     1       2.650  -6.715  20.828  1.00  0.00     0.167 HD
ATOM     60  C   UNL     1       0.597  -8.225  22.075  1.00  0.00     0.074 A 
ATOM     61  C   UNL     1      -0.703  -8.792  22.366  1.00  0.00     0.031 C 
ATOM     62  C   UNL     1       1.730  -8.525  22.755  1.00  0.00     0.037 A 
BRANCH  49  63
ATOM     63  C   UNL     1       6.777  -5.650  20.648  1.00  0.00     0.057 A 
ATOM     64  C   UNL     1       7.330  -4.452  21.120  1.00  0.00     0.134 A 
ATOM     65  C   UNL     1       7.662  -6.675  20.292  1.00  0.00     0.134 A 
ATOM     66  F   UNL     1       6.537  -3.426  21.465  1.00  0.00    -0.206 F 
ATOM     67  C   UNL     1       8.711  -4.271  21.208  1.00  0.00     0.040 A 
ATOM     68  C   UNL     1       9.044  -6.515  20.400  1.00  0.00     0.040 A 
ATOM     69  F   UNL     1       7.198  -7.849  19.837  1.00  0.00    -0.206 F 
ATOM     70  C   UNL     1       9.572  -5.307  20.853  1.00  0.00     0.006 A 
ENDBRANCH  49  63
BRANCH  50  71
ATOM     71  C   UNL     1      -3.055  -6.879  19.441  1.00  0.00     0.057 A 
ATOM     72  C   UNL     1      -3.976  -6.422  20.391  1.00  0.00     0.134 A 
ATOM     73  C   UNL     1      -3.562  -7.542  18.317  1.00  0.00     0.134 A 
ATOM     74  F   UNL     1      -3.549  -5.797  21.497  1.00  0.00    -0.206 F 
ATOM     75  C   UNL     1      -5.347  -6.633  20.241  1.00  0.00     0.040 A 
ATOM     76  C   UNL     1      -4.933  -7.739  18.142  1.00  0.00     0.040 A 
ATOM     77  F   UNL     1      -2.732  -7.996  17.367  1.00  0.00    -0.206 F 
ATOM     78  C   UNL     1      -5.829  -7.290  19.110  1.00  0.00     0.006 A 
ENDBRANCH  50  71
BRANCH  62  79
ATOM     79  C   UNL     1       1.607  -9.489  23.898  1.00  0.00     0.057 A 
ATOM     80  C   UNL     1       1.416 -10.860  23.690  1.00  0.00     0.134 A 
ATOM     81  C   UNL     1       1.720  -9.042  25.221  1.00  0.00     0.134 A 
ATOM     82  F   UNL     1       1.286 -11.347  22.446  1.00  0.00    -0.206 F 
ATOM     83  C   UNL     1       1.321 -11.752  24.759  1.00  0.00     0.040 A 
ATOM     84  C   UNL     1       1.652  -9.928  26.297  1.00  0.00     0.040 A 
ATOM     85  F   UNL     1       1.913  -7.742  25.487  1.00  0.00    -0.206 F 
ATOM     86  C   UNL     1       1.446 -11.287  26.067  1.00  0.00     0.006 A 
ENDBRANCH  62  79
ENDBRANCH  36  37
ENDBRANCH  28  31
ENDBRANCH  26  27
ENDBRANCH  25  26
ENDBRANCH   1  25
TORSDOF 15
