REMARK SMILES CCC[NH2+][C@@]1(C(=O)NCCCCNC(=O)c2ccc(-c3c4nc(c(-c5c(F)cccc5F)c5ccc([nH]5)c(-c5c(F)cccc5F)c5nc(c(-c6c(F)cccc6F)c6ccc3[nH]6)C=C5)C=C4)cc2)CCC[C@@H]1CC[NH+]1CC[NH+](C)CC1
REMARK SMILES IDX 10 1 9 2 8 3 6 4 7 5 5 7 70 8 73 9 71 10 72 11 4 12 3 15
REMARK SMILES IDX 2 16 1 17 74 18 75 19 76 20 77 21 82 22 78 24 81 25 79 26
REMARK SMILES IDX 80 27 11 29 12 30 13 31 14 32 15 34 16 35 17 36 69 37 18 38
REMARK SMILES IDX 68 39 19 40 20 41 21 42 62 43 22 44 67 45 61 46 63 47 23 48
REMARK SMILES IDX 66 49 60 50 59 51 24 53 50 54 33 55 49 56 34 57 37 58 48 59
REMARK SMILES IDX 64 60 35 61 36 62 47 64 65 65 38 66 25 67 26 68 31 69 27 70
REMARK SMILES IDX 28 71 30 72 32 73 29 74 51 75 52 76 57 77 53 78 54 79 56 80
REMARK SMILES IDX 58 81 55 82 39 83 40 84 45 85 41 86 42 87 44 88 46 89 43 90
REMARK H PARENT 8 6 4 13 4 14 76 23 79 28 13 33 63 52 37 63
REMARK Flexibility Score: inf
ROOT
ATOM      1  C   UNL     1       3.042  -2.888  -7.375  1.00  0.00     0.023 C 
ENDROOT
BRANCH   1   2
ATOM      2  C   UNL     1       2.787  -3.355  -5.947  1.00  0.00     0.116 C 
BRANCH   2   3
ATOM      3  N   UNL     1       3.132  -2.354  -4.962  1.00  0.00    -0.351 N 
ATOM      4  C   UNL     1       2.445  -1.706  -3.989  1.00  0.00     0.281 C 
ATOM      5  O   UNL     1       3.178  -1.035  -3.245  1.00  0.00    -0.268 OA
ATOM      6  H   UNL     1       4.078  -2.083  -5.008  1.00  0.00     0.163 HD
BRANCH   4   7
ATOM      7  C   UNL     1       0.884  -1.792  -3.726  1.00  0.00     0.178 C 
ATOM      8  C   UNL     1       0.456  -3.279  -3.554  1.00  0.00     0.079 C 
ATOM      9  C   UNL     1      -0.123  -1.236  -4.780  1.00  0.00     0.066 C 
ATOM     10  C   UNL     1      -0.479  -3.646  -4.706  1.00  0.00     0.008 C 
ATOM     11  C   UNL     1      -0.552  -2.438  -5.630  1.00  0.00     0.011 C 
BRANCH   7  12
ATOM     12  N   UNL     1       0.620  -1.203  -2.365  1.00  0.00    -0.333 N 
ATOM     13  H   UNL     1      -0.315  -1.494  -2.078  1.00  0.00     0.347 HD
ATOM     14  H   UNL     1       1.376  -1.548  -1.774  1.00  0.00     0.347 HD
BRANCH  12  15
ATOM     15  C   UNL     1       0.683   0.254  -2.252  1.00  0.00     0.261 C 
BRANCH  15  16
ATOM     16  C   UNL     1       0.303   0.739  -0.847  1.00  0.00     0.058 C 
ATOM     17  C   UNL     1       1.100   0.109   0.285  1.00  0.00     0.010 C 
ENDBRANCH  15  16
ENDBRANCH  12  15
ENDBRANCH   7  12
BRANCH   9  18
ATOM     18  C   UNL     1       0.182   0.058  -5.589  1.00  0.00     0.072 C 
BRANCH  18  19
ATOM     19  C   UNL     1       1.258  -0.060  -6.665  1.00  0.00     0.263 C 
BRANCH  19  20
ATOM     20  N   UNL     1       1.422   1.050  -7.615  1.00  0.00    -0.326 N 
ATOM     21  C   UNL     1       2.464   0.693  -8.611  1.00  0.00     0.324 C 
ATOM     22  C   UNL     1       1.789   2.323  -6.974  1.00  0.00     0.324 C 
ATOM     23  H   UNL     1       0.514   1.191  -8.058  1.00  0.00     0.348 HD
ATOM     24  C   UNL     1       2.741   1.808  -9.642  1.00  0.00     0.324 C 
ATOM     25  C   UNL     1       2.036   3.439  -8.023  1.00  0.00     0.324 C 
ATOM     26  N   UNL     1       3.042   3.129  -9.060  1.00  0.00    -0.328 N 
ATOM     27  C   UNL     1       4.402   3.195  -8.535  1.00  0.00     0.333 C 
ATOM     28  H   UNL     1       2.989   3.835  -9.795  1.00  0.00     0.348 HD
ENDBRANCH  19  20
ENDBRANCH  18  19
ENDBRANCH   9  18
ENDBRANCH   4   7
ENDBRANCH   2   3
ENDBRANCH   1   2
BRANCH   1  29
ATOM     29  C   UNL     1       4.505  -2.701  -7.739  1.00  0.00     0.023 C 
BRANCH  29  30
ATOM     30  C   UNL     1       5.270  -4.007  -7.749  1.00  0.00     0.116 C 
BRANCH  30  31
ATOM     31  N   UNL     1       4.688  -4.970  -8.680  1.00  0.00    -0.352 N 
ATOM     32  C   UNL     1       5.224  -5.502  -9.830  1.00  0.00     0.251 C 
ATOM     33  H   UNL     1       3.783  -5.282  -8.453  1.00  0.00     0.163 HD
ATOM     34  O   UNL     1       4.529  -6.107 -10.626  1.00  0.00    -0.269 OA
BRANCH  32  35
ATOM     35  C   UNL     1       6.665  -5.308 -10.076  1.00  0.00     0.039 A 
ATOM     36  C   UNL     1       7.108  -4.916 -11.339  1.00  0.00     0.014 A 
ATOM     37  C   UNL     1       7.560  -5.450  -9.015  1.00  0.00     0.014 A 
ATOM     38  C   UNL     1       8.453  -4.592 -11.514  1.00  0.00     0.010 A 
ATOM     39  C   UNL     1       8.856  -4.993  -9.155  1.00  0.00     0.010 A 
ATOM     40  C   UNL     1       9.325  -4.590 -10.412  1.00  0.00    -0.014 A 
BRANCH  40  41
ATOM     41  C   UNL     1      10.754  -4.226 -10.539  1.00  0.00     0.031 A 
ATOM     42  C   UNL     1      11.801  -5.235 -10.149  1.00  0.00     0.074 A 
ATOM     43  C   UNL     1      11.103  -2.979 -10.903  1.00  0.00     0.049 A 
ATOM     44  N   UNL     1      13.097  -5.091 -10.054  1.00  0.00    -0.248 NA
ATOM     45  C   UNL     1      11.318  -6.571  -9.757  1.00  0.00     0.031 C 
ATOM     46  C   UNL     1      10.175  -1.898 -11.241  1.00  0.00     0.029 A 
ATOM     47  N   UNL     1      12.341  -2.409 -11.044  1.00  0.00    -0.354 N 
ATOM     48  C   UNL     1      13.570  -6.298  -9.555  1.00  0.00     0.074 A 
ATOM     49  C   UNL     1      12.422  -7.133  -9.293  1.00  0.00     0.031 C 
ATOM     50  C   UNL     1      10.878  -0.810 -11.598  1.00  0.00     0.029 A 
ATOM     51  C   UNL     1      12.301  -1.105 -11.473  1.00  0.00     0.049 A 
ATOM     52  H   UNL     1      13.180  -2.889 -10.855  1.00  0.00     0.167 HD
ATOM     53  C   UNL     1      14.851  -6.692  -9.370  1.00  0.00     0.037 A 
ATOM     54  C   UNL     1      13.306  -0.252 -11.741  1.00  0.00     0.037 A 
ATOM     55  C   UNL     1      15.988  -5.877  -9.697  1.00  0.00     0.049 A 
ATOM     56  C   UNL     1      14.723  -0.720 -11.557  1.00  0.00     0.074 A 
ATOM     57  C   UNL     1      17.330  -6.200  -9.635  1.00  0.00     0.029 A 
ATOM     58  N   UNL     1      15.907  -4.572 -10.161  1.00  0.00    -0.354 N 
ATOM     59  N   UNL     1      15.163  -1.887 -11.152  1.00  0.00    -0.248 NA
ATOM     60  C   UNL     1      15.783   0.248 -11.871  1.00  0.00     0.031 C 
ATOM     61  C   UNL     1      18.065  -5.077 -10.030  1.00  0.00     0.029 A 
ATOM     62  C   UNL     1      17.178  -4.069 -10.376  1.00  0.00     0.049 A 
ATOM     63  H   UNL     1      15.070  -4.077 -10.315  1.00  0.00     0.167 HD
ATOM     64  C   UNL     1      16.549  -1.806 -11.192  1.00  0.00     0.074 A 
ATOM     65  C   UNL     1      16.874  -0.477 -11.670  1.00  0.00     0.031 C 
ATOM     66  C   UNL     1      17.470  -2.745 -10.864  1.00  0.00     0.037 A 
BRANCH  53  67
ATOM     67  C   UNL     1      15.072  -8.066  -8.805  1.00  0.00     0.057 A 
ATOM     68  C   UNL     1      14.754  -9.225  -9.528  1.00  0.00     0.134 A 
ATOM     69  C   UNL     1      15.590  -8.233  -7.516  1.00  0.00     0.134 A 
ATOM     70  F   UNL     1      14.235  -9.135 -10.763  1.00  0.00    -0.206 F 
ATOM     71  C   UNL     1      14.902 -10.497  -8.974  1.00  0.00     0.040 A 
ATOM     72  C   UNL     1      15.774  -9.502  -6.963  1.00  0.00     0.040 A 
ATOM     73  F   UNL     1      15.918  -7.169  -6.769  1.00  0.00    -0.206 F 
ATOM     74  C   UNL     1      15.418 -10.638  -7.688  1.00  0.00     0.006 A 
ENDBRANCH  53  67
BRANCH  54  75
ATOM     75  C   UNL     1      13.012   1.103 -12.268  1.00  0.00     0.057 A 
ATOM     76  C   UNL     1      13.288   1.423 -13.604  1.00  0.00     0.134 A 
ATOM     77  C   UNL     1      12.447   2.103 -11.469  1.00  0.00     0.134 A 
ATOM     78  F   UNL     1      13.842   0.509 -14.414  1.00  0.00    -0.206 F 
ATOM     79  C   UNL     1      13.029   2.692 -14.121  1.00  0.00     0.040 A 
ATOM     80  C   UNL     1      12.163   3.372 -11.980  1.00  0.00     0.040 A 
ATOM     81  F   UNL     1      12.149   1.857 -10.185  1.00  0.00    -0.206 F 
ATOM     82  C   UNL     1      12.460   3.671 -13.309  1.00  0.00     0.006 A 
ENDBRANCH  54  75
BRANCH  66  83
ATOM     83  C   UNL     1      18.912  -2.378 -11.049  1.00  0.00     0.057 A 
ATOM     84  C   UNL     1      19.565  -1.494 -10.182  1.00  0.00     0.134 A 
ATOM     85  C   UNL     1      19.663  -2.953 -12.082  1.00  0.00     0.134 A 
ATOM     86  F   UNL     1      18.894  -0.902  -9.183  1.00  0.00    -0.206 F 
ATOM     87  C   UNL     1      20.913  -1.178 -10.349  1.00  0.00     0.040 A 
ATOM     88  C   UNL     1      21.018  -2.664 -12.242  1.00  0.00     0.040 A 
ATOM     89  F   UNL     1      19.097  -3.815 -12.939  1.00  0.00    -0.206 F 
ATOM     90  C   UNL     1      21.645  -1.770 -11.377  1.00  0.00     0.006 A 
ENDBRANCH  66  83
ENDBRANCH  40  41
ENDBRANCH  32  35
ENDBRANCH  30  31
ENDBRANCH  29  30
ENDBRANCH   1  29
TORSDOF 17
