REMARK SMILES Cc1ccc(-c2nc(C)cc(N3CCCC[C@H]3C(=O)NCCCCNC(=O)c3ccc(-c4c5nc(c(-c6c(F)cccc6F)c6ccc([nH]6)c(-c6c(F)cccc6F)c6nc(c(-c7c(F)cccc7F)c7ccc4[nH]7)C=C6)C=C5)cc3)n2)cc1
REMARK SMILES IDX 22 1 21 2 20 3 18 4 19 5 17 7 12 8 13 9 14 10 16 11 15 12
REMARK SMILES IDX 11 13 6 14 7 15 82 16 8 17 9 18 10 19 5 20 1 21 2 22 3 23
REMARK SMILES IDX 84 24 4 25 83 26 23 27 24 28 25 29 26 30 27 32 28 33 29 34
REMARK SMILES IDX 81 35 30 36 80 37 31 38 32 39 33 40 74 41 34 42 79 43 73 44
REMARK SMILES IDX 75 45 35 46 78 47 72 48 71 49 36 51 62 52 45 53 61 54 46 55
REMARK SMILES IDX 49 56 60 57 76 58 47 59 48 60 59 62 77 63 50 64 37 65 38 66
REMARK SMILES IDX 43 67 39 68 40 69 42 70 44 71 41 72 63 73 64 74 69 75 65 76
REMARK SMILES IDX 66 77 68 78 70 79 67 80 51 81 52 82 57 83 53 84 54 85 56 86
REMARK SMILES IDX 58 87 55 88
REMARK H PARENT 20 6 25 31 75 50 49 61
REMARK Flexibility Score: inf
ROOT
ATOM      1  C   UNL     1      -7.987   3.681  -5.840  1.00  0.00     0.023 C 
ENDROOT
BRANCH   1   2
ATOM      2  C   UNL     1      -8.327   4.063  -4.392  1.00  0.00     0.116 C 
BRANCH   2   3
ATOM      3  N   UNL     1      -8.708   2.923  -3.583  1.00  0.00    -0.354 N 
ATOM      4  C   UNL     1      -8.116   2.207  -2.596  1.00  0.00     0.242 C 
ATOM      5  O   UNL     1      -8.865   1.361  -2.076  1.00  0.00    -0.273 OA
ATOM      6  H   UNL     1      -9.609   2.591  -3.801  1.00  0.00     0.163 HD
BRANCH   4   7
ATOM      7  C   UNL     1      -6.647   2.326  -2.079  1.00  0.00     0.173 C 
ATOM      8  N   UNL     1      -5.984   1.011  -2.230  1.00  0.00    -0.344 N 
ATOM      9  C   UNL     1      -5.464   0.681  -3.550  1.00  0.00     0.119 C 
ATOM     10  C   UNL     1      -4.460   1.726  -4.023  1.00  0.00     0.022 C 
ATOM     11  C   UNL     1      -5.671   3.412  -2.543  1.00  0.00     0.035 C 
ATOM     12  C   UNL     1      -5.010   3.143  -3.896  1.00  0.00     0.004 C 
BRANCH   8  13
ATOM     13  C   UNL     1      -5.300   0.518  -1.127  1.00  0.00     0.133 A 
ATOM     14  C   UNL     1      -3.338  -0.030  -0.075  1.00  0.00     0.161 A 
ATOM     15  N   UNL     1      -3.951  -0.557   0.999  1.00  0.00    -0.233 NA
ATOM     16  N   UNL     1      -3.959   0.499  -1.143  1.00  0.00    -0.211 NA
ATOM     17  C   UNL     1      -5.296  -0.512   1.000  1.00  0.00     0.043 A 
ATOM     18  C   UNL     1      -5.985  -1.114   2.186  1.00  0.00     0.067 C 
ATOM     19  C   UNL     1      -6.014   0.034  -0.045  1.00  0.00     0.070 A 
BRANCH  14  20
ATOM     20  C   UNL     1      -1.874  -0.019  -0.073  1.00  0.00     0.019 A 
ATOM     21  C   UNL     1       2.457   0.003  -0.015  1.00  0.00     0.044 C 
ATOM     22  C   UNL     1       0.957   0.006  -0.033  1.00  0.00    -0.051 A 
ATOM     23  C   UNL     1       0.256  -1.201   0.054  1.00  0.00     0.004 A 
ATOM     24  C   UNL     1       0.240   1.200  -0.150  1.00  0.00     0.004 A 
ATOM     25  C   UNL     1      -1.143  -1.211   0.045  1.00  0.00     0.012 A 
ATOM     26  C   UNL     1      -1.159   1.186  -0.177  1.00  0.00     0.012 A 
ENDBRANCH  14  20
ENDBRANCH   8  13
ENDBRANCH   4   7
ENDBRANCH   2   3
ENDBRANCH   1   2
BRANCH   1  27
ATOM     27  C   UNL     1      -9.166   3.315  -6.738  1.00  0.00     0.023 C 
BRANCH  27  28
ATOM     28  C   UNL     1     -10.131   4.459  -6.998  1.00  0.00     0.116 C 
BRANCH  28  29
ATOM     29  N   UNL     1      -9.686   5.468  -7.936  1.00  0.00    -0.352 N 
ATOM     30  C   UNL     1     -10.278   6.688  -8.293  1.00  0.00     0.251 C 
ATOM     31  H   UNL     1      -8.838   5.267  -8.392  1.00  0.00     0.163 HD
ATOM     32  O   UNL     1      -9.800   7.330  -9.208  1.00  0.00    -0.269 OA
BRANCH  30  33
ATOM     33  C   UNL     1     -11.376   7.271  -7.471  1.00  0.00     0.039 A 
ATOM     34  C   UNL     1     -11.479   8.670  -7.389  1.00  0.00     0.014 A 
ATOM     35  C   UNL     1     -12.139   6.494  -6.617  1.00  0.00     0.014 A 
ATOM     36  C   UNL     1     -12.116   9.258  -6.293  1.00  0.00     0.010 A 
ATOM     37  C   UNL     1     -12.595   7.049  -5.448  1.00  0.00     0.010 A 
ATOM     38  C   UNL     1     -12.553   8.432  -5.268  1.00  0.00    -0.014 A 
BRANCH  38  39
ATOM     39  C   UNL     1     -12.997   8.857  -3.950  1.00  0.00     0.031 A 
ATOM     40  C   UNL     1     -14.416   8.663  -3.580  1.00  0.00     0.074 A 
ATOM     41  C   UNL     1     -12.061   9.120  -3.012  1.00  0.00     0.049 A 
ATOM     42  N   UNL     1     -14.946   9.088  -2.489  1.00  0.00    -0.248 NA
ATOM     43  C   UNL     1     -15.370   7.965  -4.438  1.00  0.00     0.031 C 
ATOM     44  C   UNL     1     -12.218   9.072  -1.561  1.00  0.00     0.029 A 
ATOM     45  N   UNL     1     -10.793   9.686  -3.202  1.00  0.00    -0.354 N 
ATOM     46  C   UNL     1     -16.191   8.514  -2.364  1.00  0.00     0.074 A 
ATOM     47  C   UNL     1     -16.423   7.853  -3.624  1.00  0.00     0.031 C 
ATOM     48  C   UNL     1     -11.264   9.826  -0.994  1.00  0.00     0.029 A 
ATOM     49  C   UNL     1     -10.579  10.512  -2.073  1.00  0.00     0.049 A 
ATOM     50  H   UNL     1     -10.181   9.540  -3.959  1.00  0.00     0.167 HD
ATOM     51  C   UNL     1     -16.820   8.584  -1.157  1.00  0.00     0.037 A 
ATOM     52  C   UNL     1     -10.506  11.871  -2.196  1.00  0.00     0.037 A 
ATOM     53  C   UNL     1     -16.042   9.401  -0.228  1.00  0.00     0.049 A 
ATOM     54  C   UNL     1     -11.548  12.617  -1.395  1.00  0.00     0.074 A 
ATOM     55  C   UNL     1     -15.137   9.092   0.775  1.00  0.00     0.029 A 
ATOM     56  N   UNL     1     -15.897  10.756  -0.487  1.00  0.00    -0.354 N 
ATOM     57  N   UNL     1     -12.671  12.091  -0.990  1.00  0.00    -0.248 NA
ATOM     58  C   UNL     1     -11.404  14.007  -0.976  1.00  0.00     0.031 C 
ATOM     59  C   UNL     1     -14.424  10.274   1.100  1.00  0.00     0.029 A 
ATOM     60  C   UNL     1     -14.911  11.300   0.308  1.00  0.00     0.049 A 
ATOM     61  H   UNL     1     -16.426  11.260  -1.147  1.00  0.00     0.167 HD
ATOM     62  C   UNL     1     -13.390  13.021  -0.279  1.00  0.00     0.074 A 
ATOM     63  C   UNL     1     -12.544  14.199  -0.288  1.00  0.00     0.031 C 
ATOM     64  C   UNL     1     -14.620  12.725   0.245  1.00  0.00     0.037 A 
BRANCH  51  65
ATOM     65  C   UNL     1     -18.008   7.753  -0.727  1.00  0.00     0.057 A 
ATOM     66  C   UNL     1     -18.251   7.508   0.641  1.00  0.00     0.134 A 
ATOM     67  C   UNL     1     -18.931   7.137  -1.589  1.00  0.00     0.134 A 
ATOM     68  F   UNL     1     -17.520   8.086   1.604  1.00  0.00    -0.206 F 
ATOM     69  C   UNL     1     -19.261   6.653   1.102  1.00  0.00     0.040 A 
ATOM     70  C   UNL     1     -19.918   6.242  -1.146  1.00  0.00     0.040 A 
ATOM     71  F   UNL     1     -18.975   7.415  -2.896  1.00  0.00    -0.206 F 
ATOM     72  C   UNL     1     -20.081   5.989   0.206  1.00  0.00     0.006 A 
ENDBRANCH  51  65
BRANCH  52  73
ATOM     73  C   UNL     1      -9.948  12.292  -3.510  1.00  0.00     0.057 A 
ATOM     74  C   UNL     1      -8.607  11.973  -3.788  1.00  0.00     0.134 A 
ATOM     75  C   UNL     1     -10.781  12.553  -4.602  1.00  0.00     0.134 A 
ATOM     76  F   UNL     1      -7.755  11.712  -2.783  1.00  0.00    -0.206 F 
ATOM     77  C   UNL     1      -8.150  11.779  -5.094  1.00  0.00     0.040 A 
ATOM     78  C   UNL     1     -10.327  12.380  -5.916  1.00  0.00     0.040 A 
ATOM     79  F   UNL     1     -12.077  12.842  -4.419  1.00  0.00    -0.206 F 
ATOM     80  C   UNL     1      -9.025  11.944  -6.162  1.00  0.00     0.006 A 
ENDBRANCH  52  73
BRANCH  64  81
ATOM     81  C   UNL     1     -15.660  13.682   0.805  1.00  0.00     0.057 A 
ATOM     82  C   UNL     1     -15.688  15.065   0.582  1.00  0.00     0.134 A 
ATOM     83  C   UNL     1     -16.799  13.181   1.490  1.00  0.00     0.134 A 
ATOM     84  F   UNL     1     -14.743  15.688  -0.130  1.00  0.00    -0.206 F 
ATOM     85  C   UNL     1     -16.738  15.885   1.030  1.00  0.00     0.040 A 
ATOM     86  C   UNL     1     -17.878  13.978   1.885  1.00  0.00     0.040 A 
ATOM     87  F   UNL     1     -16.939  11.881   1.788  1.00  0.00    -0.206 F 
ATOM     88  C   UNL     1     -17.845  15.341   1.666  1.00  0.00     0.006 A 
ENDBRANCH  64  81
ENDBRANCH  38  39
ENDBRANCH  30  33
ENDBRANCH  28  29
ENDBRANCH  27  28
ENDBRANCH   1  27
TORSDOF 13
