REMARK SMILES CC(C)(C)OC(=O)N1CCC2(CC1)C[C@@H](C(=O)NCCCCNC(=O)c1ccc(-c3c4nc(c(-c5c(F)cccc5F)c5ccc([nH]5)c(-c5c(F)cccc5F)c5nc(c(-c6c(F)cccc6F)c6ccc3[nH]6)C=C5)C=C4)cc1)CO2
REMARK SMILES IDX 20 1 19 2 18 3 16 4 17 5 15 7 6 8 7 9 8 10 9 11 13 12 10 13
REMARK SMILES IDX 12 14 11 15 14 16 81 17 80 18 5 19 2 20 1 21 3 22 4 23 21 24
REMARK SMILES IDX 22 25 23 26 24 27 25 29 26 30 27 31 79 32 28 33 78 34 29 35
REMARK SMILES IDX 30 36 31 37 72 38 32 39 77 40 71 41 73 42 33 43 76 44 70 45
REMARK SMILES IDX 69 46 34 48 60 49 43 50 59 51 44 52 47 53 58 54 74 55 45 56
REMARK SMILES IDX 46 57 57 59 75 60 48 61 35 62 36 63 41 64 37 65 38 66 40 67
REMARK SMILES IDX 42 68 39 69 61 70 62 71 67 72 63 73 64 74 66 75 68 76 65 77
REMARK SMILES IDX 49 78 50 79 55 80 51 81 52 82 54 83 56 84 53 85
REMARK H PARENT 18 6 23 28 73 47 47 58
REMARK Flexibility Score: inf
ROOT
ATOM      1  C   UNL     1       5.482   0.377  -7.989  1.00  0.00     0.023 C 
ENDROOT
BRANCH   1   2
ATOM      2  C   UNL     1       4.837   1.604  -7.358  1.00  0.00     0.116 C 
BRANCH   2   3
ATOM      3  N   UNL     1       4.689   2.738  -8.241  1.00  0.00    -0.356 N 
ATOM      4  C   UNL     1       3.590   3.338  -8.772  1.00  0.00     0.225 C 
ATOM      5  O   UNL     1       3.787   4.425  -9.329  1.00  0.00    -0.275 OA
ATOM      6  H   UNL     1       5.540   3.153  -8.508  1.00  0.00     0.163 HD
BRANCH   4   7
ATOM      7  C   UNL     1       2.162   2.787  -8.716  1.00  0.00     0.107 C 
ATOM      8  C   UNL     1       0.192  -0.951  -3.593  1.00  0.00     0.410 C 
ATOM      9  O   UNL     1      -0.774  -1.702  -3.597  1.00  0.00    -0.224 OA
ATOM     10  N   UNL     1       0.682  -0.331  -4.724  1.00  0.00    -0.308 N 
ATOM     11  C   UNL     1      -0.092  -0.330  -5.961  1.00  0.00     0.126 C 
ATOM     12  C   UNL     1       2.019   0.240  -4.792  1.00  0.00     0.126 C 
ATOM     13  C   UNL     1      -0.138   1.078  -6.587  1.00  0.00     0.057 C 
ATOM     14  C   UNL     1       1.956   1.638  -5.376  1.00  0.00     0.057 C 
ATOM     15  C   UNL     1       1.291   1.620  -6.768  1.00  0.00     0.072 C 
ATOM     16  C   UNL     1       1.397   3.006  -7.420  1.00  0.00     0.051 C 
ATOM     17  O   UNL     1       1.942   0.701  -7.675  1.00  0.00    -0.374 OA
ATOM     18  C   UNL     1       2.037   1.310  -8.968  1.00  0.00     0.174 C 
BRANCH   8  19
ATOM     19  O   UNL     1       0.870  -0.565  -2.483  1.00  0.00    -0.444 OA
BRANCH  19  20
ATOM     20  C   UNL     1       0.476  -0.994  -1.156  1.00  0.00     0.106 C 
ATOM     21  C   UNL     1       1.222  -0.044  -0.205  1.00  0.00     0.056 C 
ATOM     22  C   UNL     1       0.956  -2.426  -0.921  1.00  0.00     0.056 C 
ATOM     23  C   UNL     1      -1.028  -0.839  -0.897  1.00  0.00     0.056 C 
ENDBRANCH  19  20
ENDBRANCH   8  19
ENDBRANCH   4   7
ENDBRANCH   2   3
ENDBRANCH   1   2
BRANCH   1  24
ATOM     24  C   UNL     1       6.987   0.267  -7.763  1.00  0.00     0.023 C 
BRANCH  24  25
ATOM     25  C   UNL     1       7.448   0.338  -6.310  1.00  0.00     0.116 C 
BRANCH  25  26
ATOM     26  N   UNL     1       6.837  -0.644  -5.425  1.00  0.00    -0.352 N 
ATOM     27  C   UNL     1       7.406  -1.247  -4.323  1.00  0.00     0.251 C 
ATOM     28  H   UNL     1       5.912  -0.907  -5.638  1.00  0.00     0.163 HD
ATOM     29  O   UNL     1       6.804  -2.100  -3.682  1.00  0.00    -0.269 OA
BRANCH  27  30
ATOM     30  C   UNL     1       8.790  -0.878  -3.961  1.00  0.00     0.039 A 
ATOM     31  C   UNL     1       9.763  -1.878  -3.907  1.00  0.00     0.014 A 
ATOM     32  C   UNL     1       9.136   0.465  -3.796  1.00  0.00     0.014 A 
ATOM     33  C   UNL     1      11.106  -1.519  -3.780  1.00  0.00     0.010 A 
ATOM     34  C   UNL     1      10.479   0.823  -3.749  1.00  0.00     0.010 A 
ATOM     35  C   UNL     1      11.477  -0.164  -3.751  1.00  0.00    -0.014 A 
BRANCH  35  36
ATOM     36  C   UNL     1      12.904   0.245  -3.741  1.00  0.00     0.031 A 
ATOM     37  C   UNL     1      13.461   1.004  -2.571  1.00  0.00     0.074 A 
ATOM     38  C   UNL     1      13.676   0.006  -4.819  1.00  0.00     0.049 A 
ATOM     39  N   UNL     1      14.659   1.506  -2.405  1.00  0.00    -0.248 NA
ATOM     40  C   UNL     1      12.540   1.263  -1.454  1.00  0.00     0.031 C 
ATOM     41  C   UNL     1      13.240  -0.670  -6.043  1.00  0.00     0.029 A 
ATOM     42  N   UNL     1      14.991   0.315  -5.063  1.00  0.00    -0.354 N 
ATOM     43  C   UNL     1      14.627   2.155  -1.178  1.00  0.00     0.074 A 
ATOM     44  C   UNL     1      13.278   2.032  -0.669  1.00  0.00     0.031 C 
ATOM     45  C   UNL     1      14.277  -0.755  -6.892  1.00  0.00     0.029 A 
ATOM     46  C   UNL     1      15.439  -0.109  -6.291  1.00  0.00     0.049 A 
ATOM     47  H   UNL     1      15.560   0.794  -4.418  1.00  0.00     0.167 HD
ATOM     48  C   UNL     1      15.636   2.776  -0.522  1.00  0.00     0.037 A 
ATOM     49  C   UNL     1      16.651   0.009  -6.865  1.00  0.00     0.037 A 
ATOM     50  C   UNL     1      16.984   2.870  -1.016  1.00  0.00     0.049 A 
ATOM     51  C   UNL     1      17.757   0.699  -6.117  1.00  0.00     0.074 A 
ATOM     52  C   UNL     1      18.096   3.407  -0.391  1.00  0.00     0.029 A 
ATOM     53  N   UNL     1      17.402   2.417  -2.258  1.00  0.00    -0.354 N 
ATOM     54  N   UNL     1      17.735   1.239  -4.923  1.00  0.00    -0.248 NA
ATOM     55  C   UNL     1      19.056   0.794  -6.797  1.00  0.00     0.031 C 
ATOM     56  C   UNL     1      19.177   3.319  -1.274  1.00  0.00     0.029 A 
ATOM     57  C   UNL     1      18.750   2.686  -2.431  1.00  0.00     0.049 A 
ATOM     58  H   UNL     1      16.826   1.971  -2.920  1.00  0.00     0.167 HD
ATOM     59  C   UNL     1      19.021   1.712  -4.695  1.00  0.00     0.074 A 
ATOM     60  C   UNL     1      19.800   1.387  -5.873  1.00  0.00     0.031 C 
ATOM     61  C   UNL     1      19.512   2.354  -3.607  1.00  0.00     0.037 A 
BRANCH  48  62
ATOM     62  C   UNL     1      15.308   3.401   0.803  1.00  0.00     0.057 A 
ATOM     63  C   UNL     1      15.003   2.628   1.931  1.00  0.00     0.134 A 
ATOM     64  C   UNL     1      15.301   4.793   0.953  1.00  0.00     0.134 A 
ATOM     65  F   UNL     1      14.979   1.289   1.852  1.00  0.00    -0.206 F 
ATOM     66  C   UNL     1      14.665   3.217   3.151  1.00  0.00     0.040 A 
ATOM     67  C   UNL     1      14.993   5.393   2.175  1.00  0.00     0.040 A 
ATOM     68  F   UNL     1      15.589   5.593  -0.085  1.00  0.00    -0.206 F 
ATOM     69  C   UNL     1      14.664   4.604   3.276  1.00  0.00     0.006 A 
ENDBRANCH  48  62
BRANCH  49  70
ATOM     70  C   UNL     1      16.895  -0.580  -8.206  1.00  0.00     0.057 A 
ATOM     71  C   UNL     1      17.685  -1.727  -8.350  1.00  0.00     0.134 A 
ATOM     72  C   UNL     1      16.346  -0.025  -9.366  1.00  0.00     0.134 A 
ATOM     73  F   UNL     1      18.253  -2.294  -7.275  1.00  0.00    -0.206 F 
ATOM     74  C   UNL     1      17.930  -2.294  -9.601  1.00  0.00     0.040 A 
ATOM     75  C   UNL     1      16.565  -0.593 -10.622  1.00  0.00     0.040 A 
ATOM     76  F   UNL     1      15.575   1.071  -9.294  1.00  0.00    -0.206 F 
ATOM     77  C   UNL     1      17.363  -1.730 -10.742  1.00  0.00     0.006 A 
ENDBRANCH  49  70
BRANCH  61  78
ATOM     78  C   UNL     1      20.967   2.721  -3.626  1.00  0.00     0.057 A 
ATOM     79  C   UNL     1      21.456   3.766  -4.420  1.00  0.00     0.134 A 
ATOM     80  C   UNL     1      21.882   2.046  -2.808  1.00  0.00     0.134 A 
ATOM     81  F   UNL     1      20.633   4.442  -5.237  1.00  0.00    -0.206 F 
ATOM     82  C   UNL     1      22.807   4.114  -4.415  1.00  0.00     0.040 A 
ATOM     83  C   UNL     1      23.230   2.402  -2.774  1.00  0.00     0.040 A 
ATOM     84  F   UNL     1      21.476   1.041  -2.017  1.00  0.00    -0.206 F 
ATOM     85  C   UNL     1      23.698   3.435  -3.584  1.00  0.00     0.006 A 
ENDBRANCH  61  78
ENDBRANCH  35  36
ENDBRANCH  27  30
ENDBRANCH  25  26
ENDBRANCH  24  25
ENDBRANCH   1  24
TORSDOF 13
