REMARK SMILES Cc1ccc([C@H](C)Nc2ccc(C(=O)NCCCCNC(=O)c3ccc(-c4c5nc(c(-c6c(F)cccc6F)c6ccc([nH]6)c(-c6c(F)cccc6F)c6nc(c(-c7c(F)cccc7F)c7ccc4[nH]7)C=C6)C=C5)cc3)cc2Cl)cc1F
REMARK SMILES IDX 17 1 16 2 15 3 13 4 14 5 12 7 9 8 10 9 78 10 11 11 77 12
REMARK SMILES IDX 79 13 8 14 6 16 7 17 5 18 1 19 2 20 3 21 81 22 4 23 80 24
REMARK SMILES IDX 82 25 18 26 19 27 20 28 21 29 22 31 23 32 24 33 76 34 25 35
REMARK SMILES IDX 75 36 26 37 27 38 28 39 69 40 29 41 74 42 68 43 70 44 30 45
REMARK SMILES IDX 73 46 67 47 66 48 31 50 57 51 40 52 56 53 41 54 44 55 55 56
REMARK SMILES IDX 71 57 42 58 43 59 54 61 72 62 45 63 32 64 33 65 38 66 34 67
REMARK SMILES IDX 35 68 37 69 39 70 36 71 58 72 59 73 64 74 60 75 61 76 63 77
REMARK SMILES IDX 65 78 62 79 46 80 47 81 52 82 48 83 49 84 51 85 53 86 50 87
REMARK H PARENT 15 6 8 15 20 30 70 49 44 60
REMARK Flexibility Score: inf
ROOT
ATOM      1  C   UNL     1      -9.449  -3.620   3.310  1.00  0.00     0.023 C 
ENDROOT
BRANCH   1   2
ATOM      2  C   UNL     1      -9.118  -2.203   3.801  1.00  0.00     0.116 C 
BRANCH   2   3
ATOM      3  N   UNL     1      -8.294  -2.254   4.994  1.00  0.00    -0.352 N 
ATOM      4  C   UNL     1      -6.948  -2.446   5.196  1.00  0.00     0.251 C 
ATOM      5  O   UNL     1      -6.565  -2.513   6.365  1.00  0.00    -0.269 OA
ATOM      6  H   UNL     1      -8.801  -2.125   5.827  1.00  0.00     0.163 HD
BRANCH   4   7
ATOM      7  C   UNL     1      -5.934  -2.532   4.100  1.00  0.00     0.041 A 
ATOM      8  C   UNL     1      -3.896  -2.524   2.079  1.00  0.00     0.053 A 
ATOM      9  C   UNL     1      -3.588  -2.520   3.454  1.00  0.00     0.028 A 
ATOM     10  C   UNL     1      -5.259  -2.493   1.754  1.00  0.00     0.065 A 
ATOM     11  C   UNL     1      -4.582  -2.491   4.446  1.00  0.00     0.016 A 
ATOM     12  C   UNL     1      -6.236  -2.603   2.748  1.00  0.00     0.036 A 
ATOM     13  Cl  UNL     1      -5.925  -2.333   0.162  1.00  0.00    -0.082 Cl
BRANCH   8  14
ATOM     14  N   UNL     1      -2.826  -2.532   1.206  1.00  0.00    -0.377 N 
ATOM     15  H   UNL     1      -2.045  -3.060   1.489  1.00  0.00     0.161 HD
BRANCH  14  16
ATOM     16  C   UNL     1      -2.708  -1.858  -0.082  1.00  0.00     0.106 C 
ATOM     17  C   UNL     1      -1.584  -0.817   0.080  1.00  0.00     0.036 C 
BRANCH  16  18
ATOM     18  C   UNL     1      -2.564  -2.885  -1.206  1.00  0.00    -0.023 A 
ATOM     19  C   UNL     1      -2.842  -5.475  -4.687  1.00  0.00     0.047 C 
ATOM     20  C   UNL     1      -2.693  -4.611  -3.474  1.00  0.00    -0.015 A 
ATOM     21  C   UNL     1      -1.739  -3.593  -3.401  1.00  0.00     0.007 A 
ATOM     22  C   UNL     1      -3.548  -4.785  -2.394  1.00  0.00     0.126 A 
ATOM     23  C   UNL     1      -1.681  -2.738  -2.287  1.00  0.00     0.006 A 
ATOM     24  C   UNL     1      -3.463  -3.967  -1.273  1.00  0.00     0.045 A 
ATOM     25  F   UNL     1      -4.495  -5.734  -2.433  1.00  0.00    -0.207 F 
ENDBRANCH  16  18
ENDBRANCH  14  16
ENDBRANCH   8  14
ENDBRANCH   4   7
ENDBRANCH   2   3
ENDBRANCH   1   2
BRANCH   1  26
ATOM     26  C   UNL     1     -10.671  -4.240   3.996  1.00  0.00     0.023 C 
BRANCH  26  27
ATOM     27  C   UNL     1     -11.973  -3.591   3.561  1.00  0.00     0.116 C 
BRANCH  27  28
ATOM     28  N   UNL     1     -12.236  -3.777   2.133  1.00  0.00    -0.352 N 
ATOM     29  C   UNL     1     -13.313  -3.302   1.417  1.00  0.00     0.251 C 
ATOM     30  H   UNL     1     -11.570  -4.299   1.630  1.00  0.00     0.163 HD
ATOM     31  O   UNL     1     -13.606  -3.718   0.309  1.00  0.00    -0.269 OA
BRANCH  29  32
ATOM     32  C   UNL     1     -14.076  -2.209   2.021  1.00  0.00     0.039 A 
ATOM     33  C   UNL     1     -15.473  -2.248   2.125  1.00  0.00     0.014 A 
ATOM     34  C   UNL     1     -13.326  -1.138   2.494  1.00  0.00     0.014 A 
ATOM     35  C   UNL     1     -16.128  -1.181   2.731  1.00  0.00     0.010 A 
ATOM     36  C   UNL     1     -13.949  -0.177   3.223  1.00  0.00     0.010 A 
ATOM     37  C   UNL     1     -15.349  -0.152   3.258  1.00  0.00    -0.014 A 
BRANCH  37  38
ATOM     38  C   UNL     1     -15.850   1.094   3.797  1.00  0.00     0.031 A 
ATOM     39  C   UNL     1     -16.418   1.151   5.140  1.00  0.00     0.074 A 
ATOM     40  C   UNL     1     -15.444   2.174   3.095  1.00  0.00     0.049 A 
ATOM     41  N   UNL     1     -17.007   2.186   5.618  1.00  0.00    -0.248 NA
ATOM     42  C   UNL     1     -16.392   0.024   6.064  1.00  0.00     0.031 C 
ATOM     43  C   UNL     1     -15.284   3.559   3.492  1.00  0.00     0.029 A 
ATOM     44  N   UNL     1     -15.147   2.180   1.727  1.00  0.00    -0.354 N 
ATOM     45  C   UNL     1     -17.127   1.999   6.977  1.00  0.00     0.074 A 
ATOM     46  C   UNL     1     -16.883   0.590   7.173  1.00  0.00     0.031 C 
ATOM     47  C   UNL     1     -15.220   4.314   2.376  1.00  0.00     0.029 A 
ATOM     48  C   UNL     1     -15.526   3.442   1.249  1.00  0.00     0.049 A 
ATOM     49  H   UNL     1     -14.752   1.445   1.205  1.00  0.00     0.167 HD
ATOM     50  C   UNL     1     -17.258   3.111   7.760  1.00  0.00     0.037 A 
ATOM     51  C   UNL     1     -16.659   3.497   0.478  1.00  0.00     0.037 A 
ATOM     52  C   UNL     1     -17.348   4.306   6.908  1.00  0.00     0.049 A 
ATOM     53  C   UNL     1     -17.812   4.184   1.186  1.00  0.00     0.074 A 
ATOM     54  C   UNL     1     -16.447   5.271   6.490  1.00  0.00     0.029 A 
ATOM     55  N   UNL     1     -18.435   4.418   6.064  1.00  0.00    -0.354 N 
ATOM     56  N   UNL     1     -17.808   4.510   2.451  1.00  0.00    -0.248 NA
ATOM     57  C   UNL     1     -19.076   4.521   0.537  1.00  0.00     0.031 C 
ATOM     58  C   UNL     1     -16.999   5.919   5.338  1.00  0.00     0.029 A 
ATOM     59  C   UNL     1     -18.240   5.361   5.077  1.00  0.00     0.049 A 
ATOM     60  H   UNL     1     -19.257   3.884   6.156  1.00  0.00     0.167 HD
ATOM     61  C   UNL     1     -19.001   5.075   2.795  1.00  0.00     0.074 A 
ATOM     62  C   UNL     1     -19.773   5.041   1.563  1.00  0.00     0.031 C 
ATOM     63  C   UNL     1     -19.274   5.513   4.061  1.00  0.00     0.037 A 
BRANCH  50  64
ATOM     64  C   UNL     1     -17.098   3.193   9.265  1.00  0.00     0.057 A 
ATOM     65  C   UNL     1     -16.958   4.453   9.887  1.00  0.00     0.134 A 
ATOM     66  C   UNL     1     -17.035   2.111  10.162  1.00  0.00     0.134 A 
ATOM     67  F   UNL     1     -17.060   5.596   9.195  1.00  0.00    -0.206 F 
ATOM     68  C   UNL     1     -16.710   4.614  11.258  1.00  0.00     0.040 A 
ATOM     69  C   UNL     1     -16.772   2.256  11.533  1.00  0.00     0.040 A 
ATOM     70  F   UNL     1     -17.261   0.851   9.786  1.00  0.00    -0.206 F 
ATOM     71  C   UNL     1     -16.599   3.512  12.087  1.00  0.00     0.006 A 
ENDBRANCH  50  64
BRANCH  51  72
ATOM     72  C   UNL     1     -16.766   2.280  -0.404  1.00  0.00     0.057 A 
ATOM     73  C   UNL     1     -15.706   2.028  -1.303  1.00  0.00     0.134 A 
ATOM     74  C   UNL     1     -17.548   1.179  -0.034  1.00  0.00     0.134 A 
ATOM     75  F   UNL     1     -14.918   3.035  -1.712  1.00  0.00    -0.206 F 
ATOM     76  C   UNL     1     -15.329   0.728  -1.659  1.00  0.00     0.040 A 
ATOM     77  C   UNL     1     -17.194  -0.125  -0.411  1.00  0.00     0.040 A 
ATOM     78  F   UNL     1     -18.582   1.327   0.807  1.00  0.00    -0.206 F 
ATOM     79  C   UNL     1     -16.050  -0.357  -1.174  1.00  0.00     0.006 A 
ENDBRANCH  51  72
BRANCH  63  80
ATOM     80  C   UNL     1     -20.600   6.103   4.445  1.00  0.00     0.057 A 
ATOM     81  C   UNL     1     -21.243   7.069   3.663  1.00  0.00     0.134 A 
ATOM     82  C   UNL     1     -21.235   5.785   5.664  1.00  0.00     0.134 A 
ATOM     83  F   UNL     1     -20.687   7.521   2.529  1.00  0.00    -0.206 F 
ATOM     84  C   UNL     1     -22.477   7.618   4.027  1.00  0.00     0.040 A 
ATOM     85  C   UNL     1     -22.431   6.375   6.070  1.00  0.00     0.040 A 
ATOM     86  F   UNL     1     -20.747   4.863   6.505  1.00  0.00    -0.206 F 
ATOM     87  C   UNL     1     -23.072   7.277   5.237  1.00  0.00     0.006 A 
ENDBRANCH  63  80
ENDBRANCH  37  38
ENDBRANCH  29  32
ENDBRANCH  27  28
ENDBRANCH  26  27
ENDBRANCH   1  26
TORSDOF 14
