REMARK SMILES Cc1c(C)c2c(c(C)c1O)CC[C@@](C)(C(=O)NCCCCNC(=O)c1ccc(-c3c4nc(c(-c5c(F)cccc5F)c5ccc([nH]5)c(-c5c(F)cccc5F)c5nc(c(-c6c(F)cccc6F)c6ccc3[nH]6)C=C5)C=C4)cc1)O2
REMARK SMILES IDX 20 1 19 2 18 3 17 4 15 5 16 6 13 8 1 9 2 10 3 11 9 12 4 13
REMARK SMILES IDX 5 14 7 15 6 16 79 17 8 18 11 19 12 20 14 21 10 22 21 24
REMARK SMILES IDX 22 25 23 26 24 28 25 29 26 30 78 31 27 32 77 33 28 34 29 35
REMARK SMILES IDX 30 36 71 37 31 38 76 39 70 40 72 41 32 42 75 43 69 44 68 45
REMARK SMILES IDX 33 47 59 48 42 49 58 50 43 51 46 52 57 53 73 54 44 55 45 56
REMARK SMILES IDX 56 58 74 59 47 60 34 61 35 62 40 63 36 64 37 65 39 66 41 67
REMARK SMILES IDX 38 68 60 69 61 70 66 71 62 72 63 73 65 74 67 75 64 76 48 77
REMARK SMILES IDX 49 78 54 79 50 80 51 81 53 82 55 83 52 84
REMARK H PARENT 17 7 10 23 22 27 72 46 46 57
REMARK Flexibility Score: inf
ROOT
ATOM      1  C   UNL     1      -3.035   1.288  10.502  1.00  0.00     0.023 C 
ENDROOT
BRANCH   1   2
ATOM      2  C   UNL     1      -2.160   1.801   9.364  1.00  0.00     0.023 C 
BRANCH   2   3
ATOM      3  C   UNL     1      -1.121   0.801   8.860  1.00  0.00     0.116 C 
BRANCH   3   4
ATOM      4  N   UNL     1      -1.719  -0.270   8.081  1.00  0.00    -0.353 N 
ATOM      5  C   UNL     1      -1.641  -0.570   6.745  1.00  0.00     0.263 C 
ATOM      6  O   UNL     1      -2.268  -1.568   6.376  1.00  0.00    -0.270 OA
ATOM      7  H   UNL     1      -2.277  -0.889   8.604  1.00  0.00     0.163 HD
BRANCH   5   8
ATOM      8  C   UNL     1      -0.795   0.297   5.767  1.00  0.00     0.184 C 
ATOM      9  C   UNL     1       0.844  -0.066  -0.153  1.00  0.00     0.049 C 
ATOM     10  C   UNL     1       0.465   0.603   1.144  1.00  0.00    -0.002 A 
ATOM     11  C   UNL     1      -0.123  -0.129   2.205  1.00  0.00    -0.002 A 
ATOM     12  C   UNL     1       0.726   1.977   1.326  1.00  0.00     0.122 A 
ATOM     13  C   UNL     1      -0.397  -1.607   2.067  1.00  0.00     0.049 C 
ATOM     14  C   UNL     1      -0.434   0.535   3.408  1.00  0.00     0.127 A 
ATOM     15  C   UNL     1       0.398   2.646   2.513  1.00  0.00    -0.002 A 
ATOM     16  C   UNL     1      -0.210   1.917   3.554  1.00  0.00     0.001 A 
ATOM     17  O   UNL     1      -0.950  -0.234   4.430  1.00  0.00    -0.477 OA
ATOM     18  C   UNL     1       0.690   4.115   2.688  1.00  0.00     0.049 C 
ATOM     19  C   UNL     1      -0.566   2.610   4.839  1.00  0.00     0.044 C 
ATOM     20  C   UNL     1      -1.376   1.713   5.745  1.00  0.00     0.063 C 
ATOM     21  C   UNL     1       0.691   0.122   6.143  1.00  0.00     0.067 C 
BRANCH  12  22
ATOM     22  O   UNL     1       1.323   2.728   0.345  1.00  0.00    -0.507 OA
ATOM     23  H   UNL     1       1.563   2.331  -0.468  1.00  0.00     0.293 HD
ENDBRANCH  12  22
ENDBRANCH   5   8
ENDBRANCH   3   4
ENDBRANCH   2   3
ENDBRANCH   1   2
BRANCH   1  24
ATOM     24  C   UNL     1      -2.275   0.760  11.711  1.00  0.00     0.116 C 
BRANCH  24  25
ATOM     25  N   UNL     1      -1.333   1.725  12.266  1.00  0.00    -0.352 N 
ATOM     26  C   UNL     1      -1.170   2.114  13.572  1.00  0.00     0.251 C 
ATOM     27  H   UNL     1      -0.733   2.156  11.615  1.00  0.00     0.163 HD
ATOM     28  O   UNL     1      -0.401   3.024  13.863  1.00  0.00    -0.269 OA
BRANCH  26  29
ATOM     29  C   UNL     1      -1.962   1.445  14.620  1.00  0.00     0.039 A 
ATOM     30  C   UNL     1      -2.707   2.228  15.505  1.00  0.00     0.014 A 
ATOM     31  C   UNL     1      -2.013   0.050  14.684  1.00  0.00     0.014 A 
ATOM     32  C   UNL     1      -3.566   1.607  16.410  1.00  0.00     0.010 A 
ATOM     33  C   UNL     1      -2.923  -0.564  15.536  1.00  0.00     0.010 A 
ATOM     34  C   UNL     1      -3.707   0.209  16.406  1.00  0.00    -0.014 A 
BRANCH  34  35
ATOM     35  C   UNL     1      -4.665  -0.462  17.315  1.00  0.00     0.031 A 
ATOM     36  C   UNL     1      -4.155  -1.355  18.409  1.00  0.00     0.074 A 
ATOM     37  C   UNL     1      -5.989  -0.306  17.124  1.00  0.00     0.049 A 
ATOM     38  N   UNL     1      -4.831  -2.057  19.281  1.00  0.00    -0.248 NA
ATOM     39  C   UNL     1      -2.694  -1.500  18.521  1.00  0.00     0.031 C 
ATOM     40  C   UNL     1      -6.604   0.495  16.064  1.00  0.00     0.029 A 
ATOM     41  N   UNL     1      -7.056  -0.817  17.817  1.00  0.00    -0.354 N 
ATOM     42  C   UNL     1      -3.881  -2.731  20.037  1.00  0.00     0.074 A 
ATOM     43  C   UNL     1      -2.585  -2.399  19.488  1.00  0.00     0.031 C 
ATOM     44  C   UNL     1      -7.940   0.448  16.198  1.00  0.00     0.029 A 
ATOM     45  C   UNL     1      -8.275  -0.405  17.334  1.00  0.00     0.049 A 
ATOM     46  H   UNL     1      -6.959  -1.421  18.589  1.00  0.00     0.167 HD
ATOM     47  C   UNL     1      -4.071  -3.529  21.111  1.00  0.00     0.037 A 
ATOM     48  C   UNL     1      -9.520  -0.682  17.765  1.00  0.00     0.037 A 
ATOM     49  C   UNL     1      -5.356  -3.824  21.682  1.00  0.00     0.049 A 
ATOM     50  C   UNL     1      -9.704  -1.572  18.961  1.00  0.00     0.074 A 
ATOM     51  C   UNL     1      -5.646  -4.560  22.817  1.00  0.00     0.029 A 
ATOM     52  N   UNL     1      -6.566  -3.392  21.162  1.00  0.00    -0.354 N 
ATOM     53  N   UNL     1      -8.793  -2.149  19.707  1.00  0.00    -0.248 NA
ATOM     54  C   UNL     1     -11.086  -1.852  19.375  1.00  0.00     0.031 C 
ATOM     55  C   UNL     1      -7.035  -4.598  22.968  1.00  0.00     0.029 A 
ATOM     56  C   UNL     1      -7.607  -3.862  21.942  1.00  0.00     0.049 A 
ATOM     57  H   UNL     1      -6.669  -2.834  20.358  1.00  0.00     0.167 HD
ATOM     58  C   UNL     1      -9.489  -2.847  20.684  1.00  0.00     0.074 A 
ATOM     59  C   UNL     1     -10.898  -2.611  20.446  1.00  0.00     0.031 C 
ATOM     60  C   UNL     1      -9.002  -3.616  21.688  1.00  0.00     0.037 A 
BRANCH  47  61
ATOM     61  C   UNL     1      -2.854  -4.119  21.756  1.00  0.00     0.057 A 
ATOM     62  C   UNL     1      -1.989  -3.338  22.533  1.00  0.00     0.134 A 
ATOM     63  C   UNL     1      -2.566  -5.482  21.633  1.00  0.00     0.134 A 
ATOM     64  F   UNL     1      -2.205  -2.022  22.676  1.00  0.00    -0.206 F 
ATOM     65  C   UNL     1      -0.868  -3.891  23.153  1.00  0.00     0.040 A 
ATOM     66  C   UNL     1      -1.459  -6.051  22.265  1.00  0.00     0.040 A 
ATOM     67  F   UNL     1      -3.357  -6.284  20.903  1.00  0.00    -0.206 F 
ATOM     68  C   UNL     1      -0.605  -5.254  23.025  1.00  0.00     0.006 A 
ENDBRANCH  47  61
BRANCH  48  69
ATOM     69  C   UNL     1     -10.690  -0.078  17.082  1.00  0.00     0.057 A 
ATOM     70  C   UNL     1     -11.411   0.960  17.682  1.00  0.00     0.134 A 
ATOM     71  C   UNL     1     -11.109  -0.513  15.821  1.00  0.00     0.134 A 
ATOM     72  F   UNL     1     -11.065   1.407  18.899  1.00  0.00    -0.206 F 
ATOM     73  C   UNL     1     -12.516   1.539  17.056  1.00  0.00     0.040 A 
ATOM     74  C   UNL     1     -12.202   0.068  15.175  1.00  0.00     0.040 A 
ATOM     75  F   UNL     1     -10.454  -1.501  15.193  1.00  0.00    -0.206 F 
ATOM     76  C   UNL     1     -12.911   1.095  15.796  1.00  0.00     0.006 A 
ENDBRANCH  48  69
BRANCH  60  77
ATOM     77  C   UNL     1      -9.994  -4.259  22.607  1.00  0.00     0.057 A 
ATOM     78  C   UNL     1     -10.709  -5.399  22.224  1.00  0.00     0.134 A 
ATOM     79  C   UNL     1     -10.172  -3.785  23.913  1.00  0.00     0.134 A 
ATOM     80  F   UNL     1     -10.586  -5.893  20.983  1.00  0.00    -0.206 F 
ATOM     81  C   UNL     1     -11.571  -6.047  23.109  1.00  0.00     0.040 A 
ATOM     82  C   UNL     1     -11.017  -4.434  24.812  1.00  0.00     0.040 A 
ATOM     83  F   UNL     1      -9.508  -2.700  24.340  1.00  0.00    -0.206 F 
ATOM     84  C   UNL     1     -11.719  -5.570  24.411  1.00  0.00     0.006 A 
ENDBRANCH  60  77
ENDBRANCH  34  35
ENDBRANCH  26  29
ENDBRANCH  24  25
ENDBRANCH   1  24
TORSDOF 12
