REMARK SMILES CC(C)[C@H](C(=O)NCCCCNC(=O)c1ccc(-c2c3nc(c(-c4c(F)cccc4F)c4ccc([nH]4)c(-c4c(F)cccc4F)c4nc(c(-c5c(F)cccc5F)c5ccc2[nH]5)C=C4)C=C3)cc1)[C@H](C)[C@@H](C)O
REMARK SMILES IDX 9 1 8 2 7 3 5 4 6 5 4 7 2 8 1 9 3 10 69 11 70 12 71 13 72 14
REMARK SMILES IDX 73 15 10 17 11 18 12 19 13 20 14 22 15 23 16 24 68 25 17 26
REMARK SMILES IDX 67 27 18 28 19 29 20 30 61 31 21 32 66 33 60 34 62 35 22 36
REMARK SMILES IDX 65 37 59 38 58 39 23 41 49 42 32 43 48 44 33 45 36 46 47 47
REMARK SMILES IDX 63 48 34 49 35 50 46 52 64 53 37 54 24 55 25 56 30 57 26 58
REMARK SMILES IDX 27 59 29 60 31 61 28 62 50 63 51 64 56 65 52 66 53 67 55 68
REMARK SMILES IDX 57 69 54 70 38 71 39 72 44 73 40 74 41 75 43 76 45 77 42 78
REMARK H PARENT 7 6 73 16 12 21 62 40 36 51
REMARK Flexibility Score: inf
ROOT
ATOM      1  C   UNL     1       1.839   3.930   2.808  1.00  0.00     0.023 C 
ENDROOT
BRANCH   1   2
ATOM      2  C   UNL     1       0.803   3.313   3.742  1.00  0.00     0.116 C 
BRANCH   2   3
ATOM      3  N   UNL     1      -0.544   3.296   3.192  1.00  0.00    -0.356 N 
ATOM      4  C   UNL     1      -1.543   2.365   3.317  1.00  0.00     0.223 C 
ATOM      5  O   UNL     1      -2.659   2.689   2.915  1.00  0.00    -0.275 OA
ATOM      6  H   UNL     1      -0.775   4.079   2.642  1.00  0.00     0.163 HD
BRANCH   4   7
ATOM      7  C   UNL     1      -1.243   0.987   3.926  1.00  0.00     0.086 C 
BRANCH   7   8
ATOM      8  C   UNL     1      -1.433   0.897   5.480  1.00  0.00    -0.005 C 
ATOM      9  C   UNL     1      -1.078   2.190   6.231  1.00  0.00     0.008 C 
ATOM     10  C   UNL     1      -2.777   0.415   6.002  1.00  0.00     0.008 C 
ENDBRANCH   7   8
BRANCH   7  11
ATOM     11  C   UNL     1      -1.763  -0.198   3.016  1.00  0.00     0.027 C 
ATOM     12  C   UNL     1      -0.914  -0.205   1.720  1.00  0.00     0.011 C 
BRANCH  11  13
ATOM     13  C   UNL     1      -3.273  -0.261   2.622  1.00  0.00     0.115 C 
ATOM     14  C   UNL     1      -3.607  -1.408   1.659  1.00  0.00     0.038 C 
BRANCH  13  15
ATOM     15  O   UNL     1      -4.111  -0.460   3.751  1.00  0.00    -0.393 OA
ATOM     16  H   UNL     1      -3.922  -1.325   4.146  1.00  0.00     0.210 HD
ENDBRANCH  13  15
ENDBRANCH  11  13
ENDBRANCH   7  11
ENDBRANCH   4   7
ENDBRANCH   2   3
ENDBRANCH   1   2
BRANCH   1  17
ATOM     17  C   UNL     1       1.632   5.410   2.486  1.00  0.00     0.023 C 
BRANCH  17  18
ATOM     18  C   UNL     1       1.476   6.336   3.688  1.00  0.00     0.116 C 
BRANCH  18  19
ATOM     19  N   UNL     1       2.646   6.367   4.553  1.00  0.00    -0.352 N 
ATOM     20  C   UNL     1       3.330   7.461   5.040  1.00  0.00     0.251 C 
ATOM     21  H   UNL     1       2.997   5.489   4.826  1.00  0.00     0.163 HD
ATOM     22  O   UNL     1       4.362   7.322   5.677  1.00  0.00    -0.269 OA
BRANCH  20  23
ATOM     23  C   UNL     1       2.814   8.816   4.747  1.00  0.00     0.039 A 
ATOM     24  C   UNL     1       3.670   9.758   4.169  1.00  0.00     0.014 A 
ATOM     25  C   UNL     1       1.476   9.131   4.994  1.00  0.00     0.014 A 
ATOM     26  C   UNL     1       3.159  10.991   3.755  1.00  0.00     0.010 A 
ATOM     27  C   UNL     1       0.956  10.331   4.520  1.00  0.00     0.010 A 
ATOM     28  C   UNL     1       1.789  11.268   3.887  1.00  0.00    -0.014 A 
BRANCH  28  29
ATOM     29  C   UNL     1       1.189  12.530   3.384  1.00  0.00     0.031 A 
ATOM     30  C   UNL     1       0.554  13.486   4.355  1.00  0.00     0.074 A 
ATOM     31  C   UNL     1       1.127  12.772   2.060  1.00  0.00     0.049 A 
ATOM     32  N   UNL     1      -0.181  14.542   4.119  1.00  0.00    -0.248 NA
ATOM     33  C   UNL     1       0.749  13.195   5.785  1.00  0.00     0.031 C 
ATOM     34  C   UNL     1       1.686  11.917   1.011  1.00  0.00     0.029 A 
ATOM     35  N   UNL     1       0.542  13.804   1.369  1.00  0.00    -0.354 N 
ATOM     36  C   UNL     1      -0.557  15.024   5.365  1.00  0.00     0.074 A 
ATOM     37  C   UNL     1      -0.005  14.123   6.354  1.00  0.00     0.031 C 
ATOM     38  C   UNL     1       1.426  12.464  -0.188  1.00  0.00     0.029 A 
ATOM     39  C   UNL     1       0.644  13.682   0.003  1.00  0.00     0.049 A 
ATOM     40  H   UNL     1       0.092  14.560   1.809  1.00  0.00     0.167 HD
ATOM     41  C   UNL     1      -1.282  16.128   5.662  1.00  0.00     0.037 A 
ATOM     42  C   UNL     1       0.147  14.455  -0.981  1.00  0.00     0.037 A 
ATOM     43  C   UNL     1      -1.805  17.041   4.681  1.00  0.00     0.049 A 
ATOM     44  C   UNL     1      -0.668  15.669  -0.625  1.00  0.00     0.074 A 
ATOM     45  C   UNL     1      -2.532  18.201   4.882  1.00  0.00     0.029 A 
ATOM     46  N   UNL     1      -1.646  16.900   3.311  1.00  0.00    -0.354 N 
ATOM     47  N   UNL     1      -0.998  16.126   0.558  1.00  0.00    -0.248 NA
ATOM     48  C   UNL     1      -1.181  16.476  -1.743  1.00  0.00     0.031 C 
ATOM     49  C   UNL     1      -2.832  18.752   3.632  1.00  0.00     0.029 A 
ATOM     50  C   UNL     1      -2.260  17.953   2.655  1.00  0.00     0.049 A 
ATOM     51  H   UNL     1      -1.167  16.161   2.870  1.00  0.00     0.167 HD
ATOM     52  C   UNL     1      -1.717  17.291   0.329  1.00  0.00     0.074 A 
ATOM     53  C   UNL     1      -1.777  17.473  -1.106  1.00  0.00     0.031 C 
ATOM     54  C   UNL     1      -2.276  18.137   1.228  1.00  0.00     0.037 A 
BRANCH  41  55
ATOM     55  C   UNL     1      -1.543  16.413   7.111  1.00  0.00     0.057 A 
ATOM     56  C   UNL     1      -0.526  16.857   7.966  1.00  0.00     0.134 A 
ATOM     57  C   UNL     1      -2.827  16.273   7.650  1.00  0.00     0.134 A 
ATOM     58  F   UNL     1       0.730  16.997   7.513  1.00  0.00    -0.206 F 
ATOM     59  C   UNL     1      -0.771  17.127   9.313  1.00  0.00     0.040 A 
ATOM     60  C   UNL     1      -3.091  16.565   8.989  1.00  0.00     0.040 A 
ATOM     61  F   UNL     1      -3.847  15.857   6.884  1.00  0.00    -0.206 F 
ATOM     62  C   UNL     1      -2.059  16.988   9.826  1.00  0.00     0.006 A 
ENDBRANCH  41  55
BRANCH  42  63
ATOM     63  C   UNL     1       0.412  14.122  -2.404  1.00  0.00     0.057 A 
ATOM     64  C   UNL     1       1.257  14.923  -3.181  1.00  0.00     0.134 A 
ATOM     65  C   UNL     1      -0.191  13.025  -3.028  1.00  0.00     0.134 A 
ATOM     66  F   UNL     1       1.847  16.001  -2.644  1.00  0.00    -0.206 F 
ATOM     67  C   UNL     1       1.475  14.660  -4.534  1.00  0.00     0.040 A 
ATOM     68  C   UNL     1       0.036  12.736  -4.375  1.00  0.00     0.040 A 
ATOM     69  F   UNL     1      -1.007  12.216  -2.337  1.00  0.00    -0.206 F 
ATOM     70  C   UNL     1       0.865  13.560  -5.134  1.00  0.00     0.006 A 
ENDBRANCH  42  63
BRANCH  54  71
ATOM     71  C   UNL     1      -2.938  19.372   0.695  1.00  0.00     0.057 A 
ATOM     72  C   UNL     1      -4.191  19.333   0.073  1.00  0.00     0.134 A 
ATOM     73  C   UNL     1      -2.334  20.625   0.864  1.00  0.00     0.134 A 
ATOM     74  F   UNL     1      -4.814  18.163  -0.129  1.00  0.00    -0.206 F 
ATOM     75  C   UNL     1      -4.816  20.498  -0.376  1.00  0.00     0.040 A 
ATOM     76  C   UNL     1      -2.958  21.798   0.439  1.00  0.00     0.040 A 
ATOM     77  F   UNL     1      -1.137  20.729   1.459  1.00  0.00    -0.206 F 
ATOM     78  C   UNL     1      -4.202  21.735  -0.186  1.00  0.00     0.006 A 
ENDBRANCH  54  71
ENDBRANCH  28  29
ENDBRANCH  20  23
ENDBRANCH  18  19
ENDBRANCH  17  18
ENDBRANCH   1  17
TORSDOF 15
