REMARK SMILES O=C(NCCCCNC(=O)c1ccc(-c2c3nc(c(-c4c(F)cccc4F)c4ccc([nH]4)c(-c4c(F)cccc4F)c4nc(c(-c5c(F)cccc5F)c5ccc2[nH]5)C=C4)C=C3)cc1)c1ccc(C[C@H]2CCN(C(=O)Cc3cccc(O)c3)C2)cc1
REMARK SMILES IDX 1 1 2 2 3 3 65 5 66 6 86 7 67 8 85 9 68 10 69 11 70 12 71 13
REMARK SMILES IDX 84 14 72 15 73 16 74 17 75 18 76 19 77 20 78 21 83 22 79 23
REMARK SMILES IDX 81 24 80 25 82 26 4 28 5 29 6 30 7 31 8 32 9 33 10 35 11 36
REMARK SMILES IDX 12 37 64 38 13 39 63 40 14 41 15 42 16 43 57 44 17 45 62 46
REMARK SMILES IDX 56 47 58 48 18 49 61 50 55 51 54 52 19 54 45 55 28 56 44 57
REMARK SMILES IDX 29 58 32 59 43 60 59 61 30 62 31 63 42 65 60 66 33 67 20 68
REMARK SMILES IDX 21 69 26 70 22 71 23 72 25 73 27 74 24 75 46 76 47 77 52 78
REMARK SMILES IDX 48 79 49 80 51 81 53 82 50 83 34 84 35 85 40 86 36 87 37 88
REMARK SMILES IDX 39 89 41 90 38 91
REMARK H PARENT 3 4 82 27 8 34 58 53 32 64
REMARK Flexibility Score: inf
ROOT
ATOM      1  O   UNL     1       8.270  -0.862  10.373  1.00  0.00    -0.269 OA
ATOM      2  C   UNL     1       8.072  -0.470   9.229  1.00  0.00     0.251 C 
ATOM      3  N   UNL     1       7.806   0.852   8.965  1.00  0.00    -0.352 N 
ATOM      4  H   UNL     1       7.884   1.466   9.730  1.00  0.00     0.163 HD
ENDROOT
BRANCH   2   5
ATOM      5  C   UNL     1       8.096  -1.420   8.103  1.00  0.00     0.039 A 
ATOM      6  C   UNL     1       9.052  -1.276   7.097  1.00  0.00     0.014 A 
ATOM      7  C   UNL     1       7.119  -2.413   8.028  1.00  0.00     0.014 A 
ATOM      8  C   UNL     1       8.978  -2.085   5.967  1.00  0.00     0.004 A 
ATOM      9  C   UNL     1       7.040  -3.211   6.885  1.00  0.00     0.004 A 
ATOM     10  C   UNL     1       7.949  -3.031   5.832  1.00  0.00    -0.048 A 
BRANCH  10  11
ATOM     11  C   UNL     1       7.812  -3.818   4.550  1.00  0.00     0.041 C 
BRANCH  11  12
ATOM     12  C   UNL     1       7.034  -3.076   3.451  1.00  0.00     0.015 C 
ATOM     13  C   UNL     1       7.652  -1.732   3.034  1.00  0.00     0.027 C 
ATOM     14  C   UNL     1       7.011  -3.882   2.143  1.00  0.00     0.123 C 
ATOM     15  C   UNL     1       7.226  -1.563   1.591  1.00  0.00     0.120 C 
ATOM     16  N   UNL     1       7.247  -2.919   1.081  1.00  0.00    -0.342 N 
BRANCH  16  17
ATOM     17  C   UNL     1       7.434  -3.327  -0.222  1.00  0.00     0.227 C 
ATOM     18  O   UNL     1       7.395  -4.519  -0.536  1.00  0.00    -0.275 OA
BRANCH  17  19
ATOM     19  C   UNL     1       7.728  -2.263  -1.271  1.00  0.00     0.135 C 
BRANCH  19  20
ATOM     20  C   UNL     1       6.586  -1.304  -1.511  1.00  0.00    -0.035 A 
ATOM     21  C   UNL     1       6.828   0.077  -1.591  1.00  0.00     0.004 A 
ATOM     22  C   UNL     1       5.273  -1.776  -1.659  1.00  0.00     0.050 A 
ATOM     23  C   UNL     1       5.771   0.971  -1.762  1.00  0.00     0.004 A 
ATOM     24  C   UNL     1       4.227  -0.873  -1.824  1.00  0.00     0.115 A 
ATOM     25  C   UNL     1       4.466   0.495  -1.869  1.00  0.00     0.046 A 
BRANCH  24  26
ATOM     26  O   UNL     1       2.937  -1.300  -1.935  1.00  0.00    -0.508 OA
ATOM     27  H   UNL     1       2.246  -0.677  -2.045  1.00  0.00     0.293 HD
ENDBRANCH  24  26
ENDBRANCH  19  20
ENDBRANCH  17  19
ENDBRANCH  16  17
ENDBRANCH  11  12
ENDBRANCH  10  11
ENDBRANCH   2   5
BRANCH   3  28
ATOM     28  C   UNL     1       7.423   1.461   7.700  1.00  0.00     0.116 C 
BRANCH  28  29
ATOM     29  C   UNL     1       6.064   2.152   7.772  1.00  0.00     0.023 C 
BRANCH  29  30
ATOM     30  C   UNL     1       5.985   3.331   8.742  1.00  0.00     0.023 C 
BRANCH  30  31
ATOM     31  C   UNL     1       7.048   4.409   8.555  1.00  0.00     0.116 C 
BRANCH  31  32
ATOM     32  N   UNL     1       7.016   5.026   7.237  1.00  0.00    -0.352 N 
ATOM     33  C   UNL     1       6.950   6.356   6.895  1.00  0.00     0.251 C 
ATOM     34  H   UNL     1       7.046   4.399   6.479  1.00  0.00     0.163 HD
ATOM     35  O   UNL     1       6.822   6.687   5.721  1.00  0.00    -0.269 OA
BRANCH  33  36
ATOM     36  C   UNL     1       6.990   7.390   7.952  1.00  0.00     0.039 A 
ATOM     37  C   UNL     1       6.019   8.395   7.947  1.00  0.00     0.014 A 
ATOM     38  C   UNL     1       7.955   7.347   8.961  1.00  0.00     0.014 A 
ATOM     39  C   UNL     1       5.955   9.299   9.010  1.00  0.00     0.010 A 
ATOM     40  C   UNL     1       7.848   8.204  10.053  1.00  0.00     0.010 A 
ATOM     41  C   UNL     1       6.836   9.176  10.097  1.00  0.00    -0.014 A 
BRANCH  41  42
ATOM     42  C   UNL     1       6.689  10.017  11.311  1.00  0.00     0.031 A 
ATOM     43  C   UNL     1       7.776  10.973  11.710  1.00  0.00     0.074 A 
ATOM     44  C   UNL     1       5.619   9.842  12.112  1.00  0.00     0.049 A 
ATOM     45  N   UNL     1       7.879  11.700  12.793  1.00  0.00    -0.248 NA
ATOM     46  C   UNL     1       8.909  11.107  10.783  1.00  0.00     0.031 C 
ATOM     47  C   UNL     1       4.523   8.903  11.867  1.00  0.00     0.029 A 
ATOM     48  N   UNL     1       5.292  10.429  13.309  1.00  0.00    -0.354 N 
ATOM     49  C   UNL     1       9.095  12.362  12.688  1.00  0.00     0.074 A 
ATOM     50  C   UNL     1       9.712  11.919  11.455  1.00  0.00     0.031 C 
ATOM     51  C   UNL     1       3.642   8.982  12.878  1.00  0.00     0.029 A 
ATOM     52  C   UNL     1       4.129   9.948  13.858  1.00  0.00     0.049 A 
ATOM     53  H   UNL     1       5.839  11.130  13.733  1.00  0.00     0.167 HD
ATOM     54  C   UNL     1       9.641  13.268  13.534  1.00  0.00     0.037 A 
ATOM     55  C   UNL     1       3.528  10.237  15.028  1.00  0.00     0.037 A 
ATOM     56  C   UNL     1       9.015  13.729  14.745  1.00  0.00     0.049 A 
ATOM     57  C   UNL     1       4.149  11.250  15.946  1.00  0.00     0.074 A 
ATOM     58  C   UNL     1       9.450  14.707  15.623  1.00  0.00     0.029 A 
ATOM     59  N   UNL     1       7.821  13.240  15.252  1.00  0.00    -0.354 N 
ATOM     60  N   UNL     1       5.262  11.925  15.797  1.00  0.00    -0.248 NA
ATOM     61  C   UNL     1       3.429  11.543  17.194  1.00  0.00     0.031 C 
ATOM     62  C   UNL     1       8.539  14.783  16.681  1.00  0.00     0.029 A 
ATOM     63  C   UNL     1       7.517  13.878  16.444  1.00  0.00     0.049 A 
ATOM     64  H   UNL     1       7.270  12.542  14.828  1.00  0.00     0.167 HD
ATOM     65  C   UNL     1       5.370  12.732  16.921  1.00  0.00     0.074 A 
ATOM     66  C   UNL     1       4.202  12.475  17.736  1.00  0.00     0.031 C 
ATOM     67  C   UNL     1       6.352  13.608  17.247  1.00  0.00     0.037 A 
BRANCH  54  68
ATOM     68  C   UNL     1      10.986  13.823  13.173  1.00  0.00     0.057 A 
ATOM     69  C   UNL     1      11.152  14.723  12.112  1.00  0.00     0.134 A 
ATOM     70  C   UNL     1      12.125  13.474  13.909  1.00  0.00     0.134 A 
ATOM     71  F   UNL     1      10.103  15.089  11.361  1.00  0.00    -0.206 F 
ATOM     72  C   UNL     1      12.407  15.236  11.780  1.00  0.00     0.040 A 
ATOM     73  C   UNL     1      13.382  13.998  13.601  1.00  0.00     0.040 A 
ATOM     74  F   UNL     1      12.035  12.621  14.940  1.00  0.00    -0.206 F 
ATOM     75  C   UNL     1      13.526  14.876  12.529  1.00  0.00     0.006 A 
ENDBRANCH  54  68
BRANCH  55  76
ATOM     76  C   UNL     1       2.261   9.558  15.392  1.00  0.00     0.057 A 
ATOM     77  C   UNL     1       1.041  10.243  15.360  1.00  0.00     0.134 A 
ATOM     78  C   UNL     1       2.236   8.210  15.768  1.00  0.00     0.134 A 
ATOM     79  F   UNL     1       1.006  11.541  15.025  1.00  0.00    -0.206 F 
ATOM     80  C   UNL     1      -0.158   9.616  15.701  1.00  0.00     0.040 A 
ATOM     81  C   UNL     1       1.042   7.564  16.092  1.00  0.00     0.040 A 
ATOM     82  F   UNL     1       3.372   7.498  15.811  1.00  0.00    -0.206 F 
ATOM     83  C   UNL     1      -0.159   8.270  16.063  1.00  0.00     0.006 A 
ENDBRANCH  55  76
BRANCH  67  84
ATOM     84  C   UNL     1       6.196  14.363  18.533  1.00  0.00     0.057 A 
ATOM     85  C   UNL     1       6.415  13.752  19.773  1.00  0.00     0.134 A 
ATOM     86  C   UNL     1       5.866  15.724  18.528  1.00  0.00     0.134 A 
ATOM     87  F   UNL     1       6.720  12.448  19.845  1.00  0.00    -0.206 F 
ATOM     88  C   UNL     1       6.297  14.466  20.967  1.00  0.00     0.040 A 
ATOM     89  C   UNL     1       5.766  16.453  19.713  1.00  0.00     0.040 A 
ATOM     90  F   UNL     1       5.649  16.368  17.371  1.00  0.00    -0.206 F 
ATOM     91  C   UNL     1       5.978  15.823  20.938  1.00  0.00     0.006 A 
ENDBRANCH  67  84
ENDBRANCH  41  42
ENDBRANCH  33  36
ENDBRANCH  31  32
ENDBRANCH  30  31
ENDBRANCH  29  30
ENDBRANCH  28  29
ENDBRANCH   3  28
TORSDOF 17
