REMARK SMILES O=C(NCCCCNC(=O)c1ccc([C@H]2CCCN(C(=O)c3ccc4[nH]ccc4c3)C2)cc1)c1ccc(-c2c3nc(c(-c4c(F)cccc4F)c4ccc([nH]4)c(-c4c(F)cccc4F)c4nc(c(-c5c(F)cccc5F)c5ccc2[nH]5)C=C4)C=C3)cc1
REMARK SMILES IDX 6 1 5 2 4 3 3 4 1 5 2 6 34 8 35 9 87 10 36 11 86 12 37 13
REMARK SMILES IDX 38 14 39 15 80 16 40 17 85 18 79 19 81 20 41 21 84 22 78 23
REMARK SMILES IDX 77 24 42 26 68 27 51 28 67 29 52 30 55 31 66 32 82 33 53 34
REMARK SMILES IDX 54 35 65 37 83 38 56 39 43 40 44 41 49 42 45 43 46 44 48 45
REMARK SMILES IDX 50 46 47 47 69 48 70 49 75 50 71 51 72 52 74 53 76 54 73 55
REMARK SMILES IDX 57 56 58 57 63 58 59 59 60 60 62 61 64 62 61 63 7 64 8 65
REMARK SMILES IDX 9 66 10 68 11 69 12 70 33 71 13 72 32 73 14 74 15 75 16 76
REMARK SMILES IDX 31 77 17 78 19 79 18 80 20 81 21 82 22 83 23 84 30 85 24 86
REMARK SMILES IDX 29 87 25 88 28 89 26 90 27 91
REMARK H PARENT 3 7 81 25 55 36 8 67 26 92
REMARK Flexibility Score: inf
ROOT
ATOM      1  C   UNL     1       5.541  13.684  11.087  1.00  0.00     0.023 C 
ENDROOT
BRANCH   1   2
ATOM      2  C   UNL     1       5.916  15.117  11.447  1.00  0.00     0.023 C 
BRANCH   2   3
ATOM      3  C   UNL     1       5.031  16.180  10.816  1.00  0.00     0.116 C 
BRANCH   3   4
ATOM      4  N   UNL     1       3.668  16.148  11.323  1.00  0.00    -0.352 N 
ATOM      5  O   UNL     1       1.879  16.917  12.469  1.00  0.00    -0.269 OA
ATOM      6  C   UNL     1       2.962  17.148  11.950  1.00  0.00     0.251 C 
ATOM      7  H   UNL     1       3.188  15.297  11.201  1.00  0.00     0.163 HD
BRANCH   6   8
ATOM      8  C   UNL     1       3.538  18.509  12.003  1.00  0.00     0.039 A 
ATOM      9  C   UNL     1       4.092  19.083  10.856  1.00  0.00     0.014 A 
ATOM     10  C   UNL     1       3.524  19.215  13.209  1.00  0.00     0.014 A 
ATOM     11  C   UNL     1       4.744  20.305  10.941  1.00  0.00     0.010 A 
ATOM     12  C   UNL     1       4.096  20.489  13.270  1.00  0.00     0.010 A 
ATOM     13  C   UNL     1       4.718  21.038  12.138  1.00  0.00    -0.014 A 
BRANCH  13  14
ATOM     14  C   UNL     1       5.217  22.435  12.133  1.00  0.00     0.031 A 
ATOM     15  C   UNL     1       6.400  22.855  12.956  1.00  0.00     0.074 A 
ATOM     16  C   UNL     1       4.566  23.329  11.363  1.00  0.00     0.049 A 
ATOM     17  N   UNL     1       6.932  24.045  13.075  1.00  0.00    -0.248 NA
ATOM     18  C   UNL     1       7.071  21.816  13.753  1.00  0.00     0.031 C 
ATOM     19  C   UNL     1       3.391  23.030  10.538  1.00  0.00     0.029 A 
ATOM     20  N   UNL     1       4.791  24.663  11.143  1.00  0.00    -0.354 N 
ATOM     21  C   UNL     1       7.984  23.907  13.970  1.00  0.00     0.074 A 
ATOM     22  C   UNL     1       8.011  22.517  14.376  1.00  0.00     0.031 C 
ATOM     23  C   UNL     1       3.017  24.137   9.883  1.00  0.00     0.029 A 
ATOM     24  C   UNL     1       3.873  25.239  10.299  1.00  0.00     0.049 A 
ATOM     25  H   UNL     1       5.537  25.159  11.550  1.00  0.00     0.167 HD
ATOM     26  C   UNL     1       8.842  24.859  14.407  1.00  0.00     0.037 A 
ATOM     27  C   UNL     1       3.708  26.522   9.930  1.00  0.00     0.037 A 
ATOM     28  C   UNL     1       8.815  26.235  13.977  1.00  0.00     0.049 A 
ATOM     29  C   UNL     1       4.654  27.554  10.468  1.00  0.00     0.074 A 
ATOM     30  C   UNL     1       9.691  27.255  14.306  1.00  0.00     0.029 A 
ATOM     31  N   UNL     1       7.855  26.787  13.143  1.00  0.00    -0.354 N 
ATOM     32  N   UNL     1       5.689  27.394  11.255  1.00  0.00    -0.248 NA
ATOM     33  C   UNL     1       4.404  28.947  10.075  1.00  0.00     0.031 C 
ATOM     34  C   UNL     1       9.225  28.437  13.723  1.00  0.00     0.029 A 
ATOM     35  C   UNL     1       8.091  28.143  12.985  1.00  0.00     0.049 A 
ATOM     36  H   UNL     1       7.116  26.289  12.724  1.00  0.00     0.167 HD
ATOM     37  C   UNL     1       6.220  28.661  11.444  1.00  0.00     0.074 A 
ATOM     38  C   UNL     1       5.412  29.575  10.662  1.00  0.00     0.031 C 
ATOM     39  C   UNL     1       7.274  29.038  12.207  1.00  0.00     0.037 A 
BRANCH  26  40
ATOM     40  C   UNL     1       9.883  24.473  15.418  1.00  0.00     0.057 A 
ATOM     41  C   UNL     1      11.013  23.722  15.072  1.00  0.00     0.134 A 
ATOM     42  C   UNL     1       9.809  24.961  16.730  1.00  0.00     0.134 A 
ATOM     43  F   UNL     1      11.145  23.222  13.834  1.00  0.00    -0.206 F 
ATOM     44  C   UNL     1      12.030  23.469  15.995  1.00  0.00     0.040 A 
ATOM     45  C   UNL     1      10.829  24.733  17.655  1.00  0.00     0.040 A 
ATOM     46  F   UNL     1       8.757  25.695  17.124  1.00  0.00    -0.206 F 
ATOM     47  C   UNL     1      11.945  23.985  17.287  1.00  0.00     0.006 A 
ENDBRANCH  26  40
BRANCH  27  48
ATOM     48  C   UNL     1       2.572  26.907   9.055  1.00  0.00     0.057 A 
ATOM     49  C   UNL     1       2.782  27.412   7.768  1.00  0.00     0.134 A 
ATOM     50  C   UNL     1       1.247  26.801   9.498  1.00  0.00     0.134 A 
ATOM     51  F   UNL     1       4.028  27.552   7.292  1.00  0.00    -0.206 F 
ATOM     52  C   UNL     1       1.719  27.827   6.965  1.00  0.00     0.040 A 
ATOM     53  C   UNL     1       0.173  27.180   8.693  1.00  0.00     0.040 A 
ATOM     54  F   UNL     1       0.976  26.315  10.719  1.00  0.00    -0.206 F 
ATOM     55  C   UNL     1       0.409  27.708   7.426  1.00  0.00     0.006 A 
ENDBRANCH  27  48
BRANCH  39  56
ATOM     56  C   UNL     1       7.614  30.498  12.221  1.00  0.00     0.057 A 
ATOM     57  C   UNL     1       6.805  31.434  12.878  1.00  0.00     0.134 A 
ATOM     58  C   UNL     1       8.776  30.970  11.598  1.00  0.00     0.134 A 
ATOM     59  F   UNL     1       5.669  31.048  13.479  1.00  0.00    -0.206 F 
ATOM     60  C   UNL     1       7.128  32.791  12.896  1.00  0.00     0.040 A 
ATOM     61  C   UNL     1       9.125  32.320  11.634  1.00  0.00     0.040 A 
ATOM     62  F   UNL     1       9.597  30.125  10.957  1.00  0.00    -0.206 F 
ATOM     63  C   UNL     1       8.296  33.236  12.279  1.00  0.00     0.006 A 
ENDBRANCH  39  56
ENDBRANCH  13  14
ENDBRANCH   6   8
ENDBRANCH   3   4
ENDBRANCH   2   3
ENDBRANCH   1   2
BRANCH   1  64
ATOM     64  C   UNL     1       5.482  13.393   9.591  1.00  0.00     0.116 C 
BRANCH  64  65
ATOM     65  N   UNL     1       6.750  13.643   8.917  1.00  0.00    -0.352 N 
ATOM     66  C   UNL     1       7.453  12.805   8.081  1.00  0.00     0.251 C 
ATOM     67  H   UNL     1       7.157  14.524   9.081  1.00  0.00     0.163 HD
ATOM     68  O   UNL     1       8.583  13.088   7.705  1.00  0.00    -0.269 OA
BRANCH  66  69
ATOM     69  C   UNL     1       6.819  11.540   7.668  1.00  0.00     0.039 A 
ATOM     70  C   UNL     1       7.444  10.328   7.951  1.00  0.00     0.014 A 
ATOM     71  C   UNL     1       5.558  11.566   7.078  1.00  0.00     0.014 A 
ATOM     72  C   UNL     1       6.738   9.136   7.768  1.00  0.00     0.005 A 
ATOM     73  C   UNL     1       4.853  10.379   6.919  1.00  0.00     0.005 A 
ATOM     74  C   UNL     1       5.403   9.149   7.323  1.00  0.00    -0.043 A 
BRANCH  74  75
ATOM     75  C   UNL     1       4.582   7.856   7.317  1.00  0.00     0.039 C 
ATOM     76  C   UNL     1       4.621   7.165   8.704  1.00  0.00     0.012 C 
ATOM     77  C   UNL     1       3.112   8.084   6.904  1.00  0.00     0.128 C 
ATOM     78  C   UNL     1       3.701   5.944   8.784  1.00  0.00     0.022 C 
ATOM     79  N   UNL     1       2.297   6.888   7.024  1.00  0.00    -0.338 N 
ATOM     80  C   UNL     1       2.279   6.277   8.349  1.00  0.00     0.120 C 
BRANCH  79  81
ATOM     81  C   UNL     1       1.583   6.464   5.912  1.00  0.00     0.253 C 
ATOM     82  O   UNL     1       1.651   6.986   4.803  1.00  0.00    -0.269 OA
BRANCH  81  83
ATOM     83  C   UNL     1       0.681   5.317   6.060  1.00  0.00     0.040 A 
ATOM     84  C   UNL     1       1.117   4.063   5.635  1.00  0.00     0.016 A 
ATOM     85  C   UNL     1      -0.608   5.528   6.568  1.00  0.00     0.024 A 
ATOM     86  C   UNL     1       0.278   2.954   5.748  1.00  0.00     0.027 A 
ATOM     87  C   UNL     1      -1.474   4.424   6.654  1.00  0.00     0.000 A 
ATOM     88  C   UNL     1      -1.008   3.167   6.262  1.00  0.00     0.045 A 
ATOM     89  C   UNL     1      -2.829   4.264   7.052  1.00  0.00     0.028 A 
ATOM     90  N   UNL     1      -2.037   2.275   6.469  1.00  0.00    -0.361 N 
ATOM     91  C   UNL     1      -3.152   2.934   6.913  1.00  0.00     0.083 A 
ATOM     92  H   UNL     1      -1.978   1.304   6.320  1.00  0.00     0.166 HD
ENDBRANCH  81  83
ENDBRANCH  79  81
ENDBRANCH  74  75
ENDBRANCH  66  69
ENDBRANCH  64  65
ENDBRANCH   1  64
TORSDOF 14
