REMARK SMILES O=C(CNC(=O)N1CC(NCCCCNC(=O)c2ccc(-c3c4nc(c(-c5c(F)cccc5F)c5ccc([nH]5)c(-c5c(F)cccc5F)c5nc(c(-c6c(F)cccc6F)c6ccc3[nH]6)C=C5)C=C4)cc2)=[NH+]c2ccccc21)N[C@H](C(=O)[O-])c1ccccc1
REMARK SMILES IDX 11 1 10 2 7 3 8 4 78 5 9 6 73 7 77 8 72 9 74 10 76 11 75 14
REMARK SMILES IDX 5 15 4 16 6 18 3 19 2 20 1 21 79 22 80 24 84 25 85 26 89 27
REMARK SMILES IDX 86 28 88 29 87 30 81 31 82 32 83 33 12 34 13 35 14 36 15 37
REMARK SMILES IDX 16 38 17 40 18 41 19 42 71 43 20 44 70 45 21 46 22 47 23 48
REMARK SMILES IDX 64 49 24 50 69 51 63 52 65 53 25 54 68 55 62 56 61 57 26 59
REMARK SMILES IDX 52 60 35 61 51 62 36 63 39 64 50 65 66 66 37 67 38 68 49 70
REMARK SMILES IDX 67 71 40 72 27 73 28 74 33 75 29 76 30 77 32 78 34 79 31 80
REMARK SMILES IDX 53 81 54 82 59 83 55 84 56 85 58 86 60 87 57 88 41 89 42 90
REMARK SMILES IDX 47 91 43 92 44 93 46 94 48 95 45 96
REMARK H PARENT 10 12 72 13 4 17 79 23 15 39 65 58 39 69
REMARK Flexibility Score: inf
ROOT
ATOM      1  C   UNL     1      -1.585  -7.027  -0.066  1.00  0.00     0.233 C 
ENDROOT
BRANCH   1   2
ATOM      2  N   UNL     1      -0.945  -6.535  -1.261  1.00  0.00    -0.277 N 
ATOM      3  N   UNL     1       2.671  -7.117  -1.040  1.00  0.00    -0.278 N 
ATOM      4  C   UNL     1       1.314  -7.620  -0.876  1.00  0.00     0.255 C 
ATOM      5  C   UNL     1       3.035  -6.872  -2.390  1.00  0.00     0.093 A 
ATOM      6  C   UNL     1       0.342  -6.754  -1.687  1.00  0.00     0.268 C 
ATOM      7  C   UNL     1       2.018  -6.438  -3.265  1.00  0.00     0.148 A 
ATOM      8  C   UNL     1       4.344  -7.043  -2.858  1.00  0.00     0.031 A 
ATOM      9  N   UNL     1       0.692  -6.225  -2.830  1.00  0.00    -0.241 N 
ATOM     10  C   UNL     1       2.351  -6.120  -4.583  1.00  0.00     0.054 A 
ATOM     11  C   UNL     1       4.655  -6.736  -4.183  1.00  0.00     0.002 A 
ATOM     12  H   UNL     1      -1.500  -5.970  -1.845  1.00  0.00     0.304 HD
ATOM     13  H   UNL     1       0.056  -5.698  -3.366  1.00  0.00     0.312 HD
ATOM     14  C   UNL     1       3.663  -6.263  -5.040  1.00  0.00     0.005 A 
BRANCH   3  15
ATOM     15  C   UNL     1       3.484  -7.063   0.061  1.00  0.00     0.323 C 
ATOM     16  N   UNL     1       4.462  -6.123   0.130  1.00  0.00    -0.329 N 
ATOM     17  H   UNL     1       5.202  -6.325   0.746  1.00  0.00     0.165 HD
ATOM     18  O   UNL     1       3.305  -7.771   1.054  1.00  0.00    -0.248 OA
BRANCH  16  19
ATOM     19  C   UNL     1       4.567  -4.857  -0.583  1.00  0.00     0.218 C 
BRANCH  19  20
ATOM     20  C   UNL     1       4.308  -3.698   0.373  1.00  0.00     0.240 C 
ATOM     21  O   UNL     1       5.213  -3.143   0.988  1.00  0.00    -0.273 OA
ATOM     22  N   UNL     1       2.974  -3.376   0.513  1.00  0.00    -0.342 N 
ATOM     23  H   UNL     1       2.297  -3.954   0.092  1.00  0.00     0.164 HD
BRANCH  22  24
ATOM     24  C   UNL     1       2.535  -2.199   1.270  1.00  0.00     0.158 C 
BRANCH  24  25
ATOM     25  C   UNL     1       2.778  -2.301   2.776  1.00  0.00    -0.020 A 
ATOM     26  C   UNL     1       2.830  -3.562   3.405  1.00  0.00     0.006 A 
ATOM     27  C   UNL     1       2.849  -1.170   3.607  1.00  0.00     0.006 A 
ATOM     28  C   UNL     1       2.995  -3.684   4.787  1.00  0.00     0.000 A 
ATOM     29  C   UNL     1       3.013  -1.290   4.991  1.00  0.00     0.000 A 
ATOM     30  C   UNL     1       3.090  -2.547   5.581  1.00  0.00     0.000 A 
ENDBRANCH  24  25
BRANCH  24  31
ATOM     31  C   UNL     1       2.986  -0.901   0.546  1.00  0.00     0.068 C 
ATOM     32  O   UNL     1       2.901   0.251   0.946  1.00  0.00    -0.548 OA
ATOM     33  O   UNL     1       3.367  -1.097  -0.744  1.00  0.00    -0.548 OA
ENDBRANCH  24  31
ENDBRANCH  22  24
ENDBRANCH  19  20
ENDBRANCH  16  19
ENDBRANCH   3  15
ENDBRANCH   1   2
BRANCH   1  34
ATOM     34  C   UNL     1      -1.653  -5.937   1.004  1.00  0.00     0.048 C 
BRANCH  34  35
ATOM     35  C   UNL     1      -2.542  -4.741   0.649  1.00  0.00     0.025 C 
BRANCH  35  36
ATOM     36  C   UNL     1      -3.983  -5.080   0.279  1.00  0.00     0.116 C 
BRANCH  36  37
ATOM     37  N   UNL     1      -4.716  -5.739   1.349  1.00  0.00    -0.352 N 
ATOM     38  C   UNL     1      -6.024  -5.549   1.731  1.00  0.00     0.251 C 
ATOM     39  H   UNL     1      -4.211  -6.407   1.867  1.00  0.00     0.163 HD
ATOM     40  O   UNL     1      -6.473  -6.112   2.724  1.00  0.00    -0.269 OA
BRANCH  38  41
ATOM     41  C   UNL     1      -6.878  -4.627   0.954  1.00  0.00     0.039 A 
ATOM     42  C   UNL     1      -7.577  -3.619   1.625  1.00  0.00     0.014 A 
ATOM     43  C   UNL     1      -6.952  -4.733  -0.437  1.00  0.00     0.014 A 
ATOM     44  C   UNL     1      -8.285  -2.663   0.892  1.00  0.00     0.010 A 
ATOM     45  C   UNL     1      -7.607  -3.746  -1.166  1.00  0.00     0.010 A 
ATOM     46  C   UNL     1      -8.270  -2.696  -0.510  1.00  0.00    -0.014 A 
BRANCH  46  47
ATOM     47  C   UNL     1      -8.932  -1.653  -1.333  1.00  0.00     0.031 A 
ATOM     48  C   UNL     1     -10.069  -2.034  -2.238  1.00  0.00     0.074 A 
ATOM     49  C   UNL     1      -8.441  -0.399  -1.357  1.00  0.00     0.049 A 
ATOM     50  N   UNL     1     -10.644  -1.338  -3.185  1.00  0.00    -0.248 NA
ATOM     51  C   UNL     1     -10.608  -3.393  -2.074  1.00  0.00     0.031 C 
ATOM     52  C   UNL     1      -7.329   0.094  -0.542  1.00  0.00     0.029 A 
ATOM     53  N   UNL     1      -8.797   0.685  -2.121  1.00  0.00    -0.354 N 
ATOM     54  C   UNL     1     -11.587  -2.185  -3.752  1.00  0.00     0.074 A 
ATOM     55  C   UNL     1     -11.486  -3.454  -3.065  1.00  0.00     0.031 C 
ATOM     56  C   UNL     1      -7.095   1.380  -0.850  1.00  0.00     0.029 A 
ATOM     57  C   UNL     1      -8.005   1.789  -1.915  1.00  0.00     0.049 A 
ATOM     58  H   UNL     1      -9.549   0.672  -2.757  1.00  0.00     0.167 HD
ATOM     59  C   UNL     1     -12.465  -1.923  -4.748  1.00  0.00     0.037 A 
ATOM     60  C   UNL     1      -7.997   2.986  -2.533  1.00  0.00     0.037 A 
ATOM     61  C   UNL     1     -12.588  -0.648  -5.404  1.00  0.00     0.049 A 
ATOM     62  C   UNL     1      -8.978   3.251  -3.642  1.00  0.00     0.074 A 
ATOM     63  C   UNL     1     -13.483  -0.269  -6.389  1.00  0.00     0.029 A 
ATOM     64  N   UNL     1     -11.794   0.456  -5.135  1.00  0.00    -0.354 N 
ATOM     65  N   UNL     1      -9.887   2.454  -4.147  1.00  0.00    -0.248 NA
ATOM     66  C   UNL     1      -8.930   4.580  -4.268  1.00  0.00     0.031 C 
ATOM     67  C   UNL     1     -13.209   1.057  -6.739  1.00  0.00     0.029 A 
ATOM     68  C   UNL     1     -12.171   1.514  -5.944  1.00  0.00     0.049 A 
ATOM     69  H   UNL     1     -11.070   0.483  -4.469  1.00  0.00     0.167 HD
ATOM     70  C   UNL     1     -10.542   3.194  -5.123  1.00  0.00     0.074 A 
ATOM     71  C   UNL     1      -9.926   4.504  -5.141  1.00  0.00     0.031 C 
ATOM     72  C   UNL     1     -11.566   2.821  -5.928  1.00  0.00     0.037 A 
BRANCH  59  73
ATOM     73  C   UNL     1     -13.362  -3.040  -5.192  1.00  0.00     0.057 A 
ATOM     74  C   UNL     1     -14.416  -3.502  -4.394  1.00  0.00     0.134 A 
ATOM     75  C   UNL     1     -13.188  -3.640  -6.446  1.00  0.00     0.134 A 
ATOM     76  F   UNL     1     -14.628  -2.978  -3.177  1.00  0.00    -0.206 F 
ATOM     77  C   UNL     1     -15.251  -4.538  -4.816  1.00  0.00     0.040 A 
ATOM     78  C   UNL     1     -14.032  -4.659  -6.890  1.00  0.00     0.040 A 
ATOM     79  F   UNL     1     -12.201  -3.241  -7.261  1.00  0.00    -0.206 F 
ATOM     80  C   UNL     1     -15.063  -5.115  -6.071  1.00  0.00     0.006 A 
ENDBRANCH  59  73
BRANCH  60  81
ATOM     81  C   UNL     1      -7.030   4.031  -2.113  1.00  0.00     0.057 A 
ATOM     82  C   UNL     1      -7.460   5.171  -1.425  1.00  0.00     0.134 A 
ATOM     83  C   UNL     1      -5.663   3.923  -2.393  1.00  0.00     0.134 A 
ATOM     84  F   UNL     1      -8.761   5.340  -1.146  1.00  0.00    -0.206 F 
ATOM     85  C   UNL     1      -6.568   6.175  -1.042  1.00  0.00     0.040 A 
ATOM     86  C   UNL     1      -4.756   4.907  -1.996  1.00  0.00     0.040 A 
ATOM     87  F   UNL     1      -5.188   2.851  -3.045  1.00  0.00    -0.206 F 
ATOM     88  C   UNL     1      -5.210   6.041  -1.325  1.00  0.00     0.006 A 
ENDBRANCH  60  81
BRANCH  72  89
ATOM     89  C   UNL     1     -12.131   3.853  -6.856  1.00  0.00     0.057 A 
ATOM     90  C   UNL     1     -11.473   4.229  -8.033  1.00  0.00     0.134 A 
ATOM     91  C   UNL     1     -13.388   4.418  -6.604  1.00  0.00     0.134 A 
ATOM     92  F   UNL     1     -10.262   3.732  -8.324  1.00  0.00    -0.206 F 
ATOM     93  C   UNL     1     -12.045   5.137  -8.926  1.00  0.00     0.040 A 
ATOM     94  C   UNL     1     -13.978   5.311  -7.498  1.00  0.00     0.040 A 
ATOM     95  F   UNL     1     -14.071   4.092  -5.496  1.00  0.00    -0.206 F 
ATOM     96  C   UNL     1     -13.306   5.673  -8.664  1.00  0.00     0.006 A 
ENDBRANCH  72  89
ENDBRANCH  46  47
ENDBRANCH  38  41
ENDBRANCH  36  37
ENDBRANCH  35  36
ENDBRANCH  34  35
ENDBRANCH   1  34
TORSDOF 16
