REMARK SMILES O=C(NCCCCNC(=O)[C@H]1C[C@H]2CCCC[C@@H]2[N@@H+]1CCn1ccnc1)c1ccc(-c2c3nc(c(-c4c(F)cccc4F)c4ccc([nH]4)c(-c4c(F)cccc4F)c4nc(c(-c5c(F)cccc5F)c5ccc2[nH]5)C=C4)C=C3)cc1
REMARK SMILES IDX 6 1 5 2 4 3 3 4 1 5 2 6 27 8 28 9 80 10 29 11 79 12 30 13
REMARK SMILES IDX 31 14 32 15 73 16 33 17 78 18 72 19 74 20 34 21 77 22 71 23
REMARK SMILES IDX 70 24 35 26 61 27 44 28 60 29 45 30 48 31 59 32 75 33 46 34
REMARK SMILES IDX 47 35 58 37 76 38 49 39 36 40 37 41 42 42 38 43 39 44 41 45
REMARK SMILES IDX 43 46 40 47 62 48 63 49 68 50 64 51 65 52 67 53 69 54 66 55
REMARK SMILES IDX 50 56 51 57 56 58 52 59 53 60 55 61 57 62 54 63 7 64 8 65
REMARK SMILES IDX 9 66 10 68 11 69 12 70 19 71 13 72 18 73 14 75 17 76 15 77
REMARK SMILES IDX 16 78 20 79 21 80 22 81 23 82 26 83 24 84 25 85
REMARK H PARENT 3 7 74 25 48 36 8 67 19 74
REMARK Flexibility Score: inf
ROOT
ATOM      1  C   UNL     1       3.012   6.496   4.436  1.00  0.00     0.023 C 
ENDROOT
BRANCH   1   2
ATOM      2  C   UNL     1       1.498   6.275   4.469  1.00  0.00     0.023 C 
BRANCH   2   3
ATOM      3  C   UNL     1       0.837   6.759   5.760  1.00  0.00     0.116 C 
BRANCH   3   4
ATOM      4  N   UNL     1       1.017   8.177   6.008  1.00  0.00    -0.352 N 
ATOM      5  O   UNL     1       0.764  10.375   6.077  1.00  0.00    -0.269 OA
ATOM      6  C   UNL     1       0.369   9.307   5.596  1.00  0.00     0.251 C 
ATOM      7  H   UNL     1       1.774   8.367   6.607  1.00  0.00     0.163 HD
BRANCH   6   8
ATOM      8  C   UNL     1      -0.717   9.339   4.583  1.00  0.00     0.039 A 
ATOM      9  C   UNL     1      -1.437   8.231   4.140  1.00  0.00     0.014 A 
ATOM     10  C   UNL     1      -1.026  10.602   4.043  1.00  0.00     0.014 A 
ATOM     11  C   UNL     1      -2.380   8.357   3.132  1.00  0.00     0.010 A 
ATOM     12  C   UNL     1      -1.992  10.742   3.054  1.00  0.00     0.010 A 
ATOM     13  C   UNL     1      -2.649   9.610   2.583  1.00  0.00    -0.014 A 
BRANCH  13  14
ATOM     14  C   UNL     1      -3.770   9.695   1.656  1.00  0.00     0.031 A 
ATOM     15  C   UNL     1      -5.088   9.314   2.252  1.00  0.00     0.074 A 
ATOM     16  C   UNL     1      -3.668  10.200   0.412  1.00  0.00     0.049 A 
ATOM     17  N   UNL     1      -5.915   8.397   1.865  1.00  0.00    -0.248 NA
ATOM     18  C   UNL     1      -5.475   9.974   3.511  1.00  0.00     0.031 C 
ATOM     19  C   UNL     1      -2.520  10.872  -0.198  1.00  0.00     0.029 A 
ATOM     20  N   UNL     1      -4.631  10.307  -0.543  1.00  0.00    -0.354 N 
ATOM     21  C   UNL     1      -7.010   8.482   2.725  1.00  0.00     0.074 A 
ATOM     22  C   UNL     1      -6.630   9.372   3.790  1.00  0.00     0.031 C 
ATOM     23  C   UNL     1      -2.926  11.513  -1.318  1.00  0.00     0.029 A 
ATOM     24  C   UNL     1      -4.321  11.188  -1.568  1.00  0.00     0.049 A 
ATOM     25  H   UNL     1      -5.476   9.803  -0.509  1.00  0.00     0.167 HD
ATOM     26  C   UNL     1      -8.229   7.976   2.398  1.00  0.00     0.037 A 
ATOM     27  C   UNL     1      -5.175  11.670  -2.505  1.00  0.00     0.037 A 
ATOM     28  C   UNL     1      -8.135   6.972   1.375  1.00  0.00     0.049 A 
ATOM     29  C   UNL     1      -6.358  10.778  -2.543  1.00  0.00     0.074 A 
ATOM     30  C   UNL     1      -7.511   5.744   1.274  1.00  0.00     0.029 A 
ATOM     31  N   UNL     1      -8.469   7.320   0.091  1.00  0.00    -0.354 N 
ATOM     32  N   UNL     1      -6.337   9.553  -2.987  1.00  0.00    -0.248 NA
ATOM     33  C   UNL     1      -7.481  11.110  -1.679  1.00  0.00     0.031 C 
ATOM     34  C   UNL     1      -7.056   5.673  -0.074  1.00  0.00     0.029 A 
ATOM     35  C   UNL     1      -7.477   6.834  -0.722  1.00  0.00     0.049 A 
ATOM     36  H   UNL     1      -9.267   7.822  -0.193  1.00  0.00     0.167 HD
ATOM     37  C   UNL     1      -7.176   8.854  -2.132  1.00  0.00     0.074 A 
ATOM     38  C   UNL     1      -7.921   9.879  -1.406  1.00  0.00     0.031 C 
ATOM     39  C   UNL     1      -6.991   7.523  -1.893  1.00  0.00     0.037 A 
BRANCH  26  40
ATOM     40  C   UNL     1      -9.531   8.643   2.764  1.00  0.00     0.057 A 
ATOM     41  C   UNL     1     -10.747   7.971   2.551  1.00  0.00     0.134 A 
ATOM     42  C   UNL     1      -9.647  10.021   3.042  1.00  0.00     0.134 A 
ATOM     43  F   UNL     1     -10.768   6.664   2.250  1.00  0.00    -0.206 F 
ATOM     44  C   UNL     1     -11.981   8.635   2.558  1.00  0.00     0.040 A 
ATOM     45  C   UNL     1     -10.876  10.683   3.101  1.00  0.00     0.040 A 
ATOM     46  F   UNL     1      -8.578  10.817   3.168  1.00  0.00    -0.206 F 
ATOM     47  C   UNL     1     -12.047   9.996   2.829  1.00  0.00     0.006 A 
ENDBRANCH  26  40
BRANCH  27  48
ATOM     48  C   UNL     1      -5.188  13.011  -3.132  1.00  0.00     0.057 A 
ATOM     49  C   UNL     1      -5.922  13.260  -4.300  1.00  0.00     0.134 A 
ATOM     50  C   UNL     1      -4.710  14.144  -2.451  1.00  0.00     0.134 A 
ATOM     51  F   UNL     1      -6.459  12.247  -4.995  1.00  0.00    -0.206 F 
ATOM     52  C   UNL     1      -6.185  14.560  -4.752  1.00  0.00     0.040 A 
ATOM     53  C   UNL     1      -4.957  15.447  -2.895  1.00  0.00     0.040 A 
ATOM     54  F   UNL     1      -4.065  14.029  -1.280  1.00  0.00    -0.206 F 
ATOM     55  C   UNL     1      -5.710  15.659  -4.043  1.00  0.00     0.006 A 
ENDBRANCH  27  48
BRANCH  39  56
ATOM     56  C   UNL     1      -6.009   6.783  -2.759  1.00  0.00     0.057 A 
ATOM     57  C   UNL     1      -4.636   7.069  -2.811  1.00  0.00     0.134 A 
ATOM     58  C   UNL     1      -6.443   5.648  -3.452  1.00  0.00     0.134 A 
ATOM     59  F   UNL     1      -4.107   8.071  -2.098  1.00  0.00    -0.206 F 
ATOM     60  C   UNL     1      -3.747   6.291  -3.558  1.00  0.00     0.040 A 
ATOM     61  C   UNL     1      -5.559   4.841  -4.173  1.00  0.00     0.040 A 
ATOM     62  F   UNL     1      -7.732   5.276  -3.401  1.00  0.00    -0.206 F 
ATOM     63  C   UNL     1      -4.207   5.168  -4.237  1.00  0.00     0.006 A 
ENDBRANCH  39  56
ENDBRANCH  13  14
ENDBRANCH   6   8
ENDBRANCH   3   4
ENDBRANCH   2   3
ENDBRANCH   1   2
BRANCH   1  64
ATOM     64  C   UNL     1       3.753   5.888   5.625  1.00  0.00     0.116 C 
BRANCH  64  65
ATOM     65  N   UNL     1       4.075   4.494   5.441  1.00  0.00    -0.351 N 
ATOM     66  C   UNL     1       5.247   3.862   5.156  1.00  0.00     0.278 C 
ATOM     67  H   UNL     1       3.306   3.888   5.541  1.00  0.00     0.163 HD
ATOM     68  O   UNL     1       5.189   2.624   5.125  1.00  0.00    -0.268 OA
BRANCH  66  69
ATOM     69  C   UNL     1       6.612   4.572   4.911  1.00  0.00     0.274 C 
ATOM     70  C   UNL     1       6.614   5.994   4.338  1.00  0.00     0.085 C 
ATOM     71  N   UNL     1       7.386   4.644   6.187  1.00  0.00    -0.321 N 
ATOM     72  C   UNL     1       7.182   6.861   5.460  1.00  0.00     0.054 C 
ATOM     73  C   UNL     1       7.141   5.991   6.706  1.00  0.00     0.188 C 
ATOM     74  H   UNL     1       7.068   3.967   6.880  1.00  0.00     0.349 HD
ATOM     75  C   UNL     1       6.639   8.255   5.718  1.00  0.00     0.010 C 
ATOM     76  C   UNL     1       7.980   6.579   7.835  1.00  0.00     0.065 C 
ATOM     77  C   UNL     1       7.481   8.908   6.823  1.00  0.00     0.001 C 
ATOM     78  C   UNL     1       7.611   8.048   8.090  1.00  0.00     0.006 C 
BRANCH  71  79
ATOM     79  C   UNL     1       8.783   4.176   6.086  1.00  0.00     0.285 C 
BRANCH  79  80
ATOM     80  C   UNL     1       9.757   4.591   4.944  1.00  0.00     0.184 C 
BRANCH  80  81
ATOM     81  N   UNL     1      10.350   5.910   4.999  1.00  0.00    -0.332 N 
ATOM     82  C   UNL     1      10.306   6.859   4.008  1.00  0.00     0.107 A 
ATOM     83  C   UNL     1      11.057   6.447   6.036  1.00  0.00     0.199 A 
ATOM     84  C   UNL     1      10.832   7.994   4.581  1.00  0.00     0.130 A 
ATOM     85  N   UNL     1      11.311   7.722   5.835  1.00  0.00    -0.245 NA
ENDBRANCH  80  81
ENDBRANCH  79  80
ENDBRANCH  71  79
ENDBRANCH  66  69
ENDBRANCH  64  65
ENDBRANCH   1  64
TORSDOF 14
