REMARK SMILES O=C(NCCCCNC(=O)[C@H]1[C@@H](C(=O)n2cc(Cl)cn2)[C@H]2CC[C@@H]1O2)c1ccc(-c2c3nc(c(-c4c(F)cccc4F)c4ccc([nH]4)c(-c4c(F)cccc4F)c4nc(c(-c5c(F)cccc5F)c5ccc2[nH]5)C=C4)C=C3)cc1
REMARK SMILES IDX 5 1 4 2 3 3 1 4 2 5 26 7 27 8 79 9 28 10 78 11 29 12 30 13
REMARK SMILES IDX 31 14 72 15 32 16 77 17 71 18 73 19 33 20 76 21 70 22 69 23
REMARK SMILES IDX 34 25 60 26 43 27 59 28 44 29 47 30 58 31 74 32 45 33 46 34
REMARK SMILES IDX 57 36 75 37 48 38 35 39 36 40 41 41 37 42 38 43 40 44 42 45
REMARK SMILES IDX 39 46 61 47 62 48 67 49 63 50 64 51 66 52 68 53 65 54 49 55
REMARK SMILES IDX 50 56 55 57 51 58 52 59 54 60 56 61 53 62 6 63 7 64 8 65
REMARK SMILES IDX 9 66 10 68 11 69 12 70 24 71 21 72 23 73 25 74 22 75 13 76
REMARK SMILES IDX 14 77 15 78 16 79 20 80 17 81 19 82 18 83
REMARK H PARENT 3 6 73 24 47 35 8 67
REMARK Flexibility Score: inf
ROOT
ATOM      1  C   UNL     1      10.601   1.876   6.000  1.00  0.00     0.023 C 
ENDROOT
BRANCH   1   2
ATOM      2  C   UNL     1      10.225   0.789   7.005  1.00  0.00     0.116 C 
BRANCH   2   3
ATOM      3  N   UNL     1      10.097  -0.528   6.415  1.00  0.00    -0.352 N 
ATOM      4  O   UNL     1      10.477  -2.558   5.633  1.00  0.00    -0.269 OA
ATOM      5  C   UNL     1      10.975  -1.515   6.066  1.00  0.00     0.251 C 
ATOM      6  H   UNL     1       9.161  -0.767   6.222  1.00  0.00     0.163 HD
BRANCH   5   7
ATOM      7  C   UNL     1      12.459  -1.406   6.121  1.00  0.00     0.039 A 
ATOM      8  C   UNL     1      13.182  -0.450   6.835  1.00  0.00     0.014 A 
ATOM      9  C   UNL     1      13.174  -2.380   5.396  1.00  0.00     0.014 A 
ATOM     10  C   UNL     1      14.574  -0.425   6.777  1.00  0.00     0.010 A 
ATOM     11  C   UNL     1      14.564  -2.372   5.348  1.00  0.00     0.010 A 
ATOM     12  C   UNL     1      15.265  -1.376   6.022  1.00  0.00    -0.014 A 
BRANCH  12  13
ATOM     13  C   UNL     1      16.725  -1.385   6.102  1.00  0.00     0.031 A 
ATOM     14  C   UNL     1      17.289  -1.688   7.454  1.00  0.00     0.074 A 
ATOM     15  C   UNL     1      17.535  -1.301   5.028  1.00  0.00     0.049 A 
ATOM     16  N   UNL     1      18.119  -0.990   8.162  1.00  0.00    -0.248 NA
ATOM     17  C   UNL     1      16.808  -2.906   8.128  1.00  0.00     0.031 C 
ATOM     18  C   UNL     1      17.164  -1.319   3.611  1.00  0.00     0.029 A 
ATOM     19  N   UNL     1      18.899  -1.281   4.989  1.00  0.00    -0.354 N 
ATOM     20  C   UNL     1      18.390  -1.749   9.301  1.00  0.00     0.074 A 
ATOM     21  C   UNL     1      17.480  -2.864   9.279  1.00  0.00     0.031 C 
ATOM     22  C   UNL     1      18.272  -1.522   2.863  1.00  0.00     0.029 A 
ATOM     23  C   UNL     1      19.438  -1.516   3.732  1.00  0.00     0.049 A 
ATOM     24  H   UNL     1      19.453  -1.114   5.785  1.00  0.00     0.167 HD
ATOM     25  C   UNL     1      19.465  -1.510  10.102  1.00  0.00     0.037 A 
ATOM     26  C   UNL     1      20.740  -1.749   3.437  1.00  0.00     0.037 A 
ATOM     27  C   UNL     1      19.975  -0.178   9.935  1.00  0.00     0.049 A 
ATOM     28  C   UNL     1      21.561  -1.272   4.575  1.00  0.00     0.074 A 
ATOM     29  C   UNL     1      19.461   1.091  10.121  1.00  0.00     0.029 A 
ATOM     30  N   UNL     1      21.118  -0.004   9.197  1.00  0.00    -0.354 N 
ATOM     31  N   UNL     1      21.726  -0.019   4.888  1.00  0.00    -0.248 NA
ATOM     32  C   UNL     1      21.886  -2.227   5.622  1.00  0.00     0.031 C 
ATOM     33  C   UNL     1      20.025   1.873   9.071  1.00  0.00     0.029 A 
ATOM     34  C   UNL     1      20.877   1.042   8.343  1.00  0.00     0.049 A 
ATOM     35  H   UNL     1      21.949  -0.527   9.266  1.00  0.00     0.167 HD
ATOM     36  C   UNL     1      21.755  -0.004   6.274  1.00  0.00     0.074 A 
ATOM     37  C   UNL     1      21.953  -1.397   6.665  1.00  0.00     0.031 C 
ATOM     38  C   UNL     1      21.343   1.090   6.979  1.00  0.00     0.037 A 
BRANCH  25  39
ATOM     39  C   UNL     1      20.237  -2.587  10.820  1.00  0.00     0.057 A 
ATOM     40  C   UNL     1      21.191  -2.242  11.794  1.00  0.00     0.134 A 
ATOM     41  C   UNL     1      20.278  -3.929  10.390  1.00  0.00     0.134 A 
ATOM     42  F   UNL     1      21.275  -0.988  12.262  1.00  0.00    -0.206 F 
ATOM     43  C   UNL     1      22.146  -3.153  12.266  1.00  0.00     0.040 A 
ATOM     44  C   UNL     1      21.194  -4.859  10.890  1.00  0.00     0.040 A 
ATOM     45  F   UNL     1      19.503  -4.381   9.396  1.00  0.00    -0.206 F 
ATOM     46  C   UNL     1      22.151  -4.466  11.812  1.00  0.00     0.006 A 
ENDBRANCH  25  39
BRANCH  26  47
ATOM     47  C   UNL     1      21.311  -2.608   2.375  1.00  0.00     0.057 A 
ATOM     48  C   UNL     1      22.651  -2.486   1.980  1.00  0.00     0.134 A 
ATOM     49  C   UNL     1      20.635  -3.754   1.923  1.00  0.00     0.134 A 
ATOM     50  F   UNL     1      23.393  -1.450   2.397  1.00  0.00    -0.206 F 
ATOM     51  C   UNL     1      23.289  -3.460   1.200  1.00  0.00     0.040 A 
ATOM     52  C   UNL     1      21.257  -4.729   1.136  1.00  0.00     0.040 A 
ATOM     53  F   UNL     1      19.376  -4.011   2.304  1.00  0.00    -0.206 F 
ATOM     54  C   UNL     1      22.594  -4.591   0.784  1.00  0.00     0.006 A 
ENDBRANCH  26  47
BRANCH  38  55
ATOM     55  C   UNL     1      21.098   2.364   6.218  1.00  0.00     0.057 A 
ATOM     56  C   UNL     1      20.124   2.503   5.217  1.00  0.00     0.134 A 
ATOM     57  C   UNL     1      21.769   3.526   6.610  1.00  0.00     0.134 A 
ATOM     58  F   UNL     1      19.355   1.472   4.847  1.00  0.00    -0.206 F 
ATOM     59  C   UNL     1      19.868   3.732   4.602  1.00  0.00     0.040 A 
ATOM     60  C   UNL     1      21.498   4.768   6.029  1.00  0.00     0.040 A 
ATOM     61  F   UNL     1      22.672   3.484   7.603  1.00  0.00    -0.206 F 
ATOM     62  C   UNL     1      20.552   4.872   5.012  1.00  0.00     0.006 A 
ENDBRANCH  38  55
ENDBRANCH  12  13
ENDBRANCH   5   7
ENDBRANCH   2   3
ENDBRANCH   1   2
BRANCH   1  63
ATOM     63  C   UNL     1       9.571   2.090   4.880  1.00  0.00     0.023 C 
BRANCH  63  64
ATOM     64  C   UNL     1       8.144   2.370   5.361  1.00  0.00     0.116 C 
BRANCH  64  65
ATOM     65  N   UNL     1       8.085   3.607   6.116  1.00  0.00    -0.356 N 
ATOM     66  C   UNL     1       7.399   4.761   5.881  1.00  0.00     0.226 C 
ATOM     67  H   UNL     1       8.632   3.615   6.935  1.00  0.00     0.163 HD
ATOM     68  O   UNL     1       7.691   5.749   6.550  1.00  0.00    -0.275 OA
BRANCH  66  69
ATOM     69  C   UNL     1       6.302   4.768   4.838  1.00  0.00     0.122 C 
ATOM     70  C   UNL     1       4.873   4.337   5.270  1.00  0.00     0.125 C 
ATOM     71  C   UNL     1       6.053   6.135   4.189  1.00  0.00     0.132 C 
ATOM     72  C   UNL     1       4.036   5.491   4.676  1.00  0.00     0.132 C 
ATOM     73  C   UNL     1       5.569   7.248   5.116  1.00  0.00     0.035 C 
ATOM     74  O   UNL     1       4.808   5.827   3.495  1.00  0.00    -0.373 OA
ATOM     75  C   UNL     1       4.156   6.798   5.460  1.00  0.00     0.035 C 
BRANCH  70  76
ATOM     76  C   UNL     1       4.619   4.110   6.749  1.00  0.00     0.253 C 
ATOM     77  O   UNL     1       5.459   3.967   7.623  1.00  0.00    -0.272 OA
BRANCH  76  78
ATOM     78  N   UNL     1       3.259   3.991   7.096  1.00  0.00    -0.206 N 
ATOM     79  C   UNL     1       2.260   3.277   6.470  1.00  0.00     0.138 A 
ATOM     80  N   UNL     1       2.787   4.681   8.169  1.00  0.00    -0.172 NA
ATOM     81  C   UNL     1       1.111   3.507   7.187  1.00  0.00     0.079 A 
ATOM     82  C   UNL     1       1.482   4.409   8.193  1.00  0.00     0.156 A 
ATOM     83  Cl  UNL     1      -0.425   2.848   6.945  1.00  0.00    -0.081 Cl
ENDBRANCH  76  78
ENDBRANCH  70  76
ENDBRANCH  66  69
ENDBRANCH  64  65
ENDBRANCH  63  64
ENDBRANCH   1  63
TORSDOF 13
