REMARK SMILES O=C(CCCN1C(=O)C(=O)/C(=C(/[O-])c2ccc(Cl)cc2)[C@@H]1c1ccccc1[N+](=O)[O-])NCCCCNC(=O)c1ccc(-c2c3nc(c(-c4c(F)cccc4F)c4ccc([nH]4)c(-c4c(F)cccc4F)c4nc(c(-c5c(F)cccc5F)c5ccc2[nH]5)C=C4)C=C3)cc1
REMARK SMILES IDX 32 1 31 2 1 3 2 4 3 6 4 7 5 8 6 9 7 10 21 11 8 12 9 13 11 14
REMARK SMILES IDX 10 15 12 16 13 17 22 18 23 19 27 20 24 21 26 22 25 23 28 24
REMARK SMILES IDX 29 25 30 26 14 27 15 28 20 29 16 30 19 31 17 32 18 33 33 34
REMARK SMILES IDX 34 35 35 36 36 37 37 38 38 40 39 41 40 42 92 43 41 44 91 45
REMARK SMILES IDX 42 46 43 47 44 48 85 49 45 50 90 51 84 52 86 53 46 54 89 55
REMARK SMILES IDX 83 56 82 57 47 59 73 60 56 61 72 62 57 63 60 64 71 65 87 66
REMARK SMILES IDX 58 67 59 68 70 70 88 71 61 72 48 73 49 74 54 75 50 76 51 77
REMARK SMILES IDX 53 78 55 79 52 80 74 81 75 82 80 83 76 84 77 85 79 86 81 87
REMARK SMILES IDX 78 88 62 89 63 90 68 91 64 92 65 93 67 94 69 95 66 96
REMARK H PARENT 31 5 36 39 86 58 60 69
REMARK Flexibility Score: inf
ROOT
ATOM      1  C   UNL     1       1.590   0.648   2.609  1.00  0.00     0.116 C 
ENDROOT
BRANCH   1   2
ATOM      2  N   UNL     1       2.280   0.926   1.368  1.00  0.00    -0.356 N 
ATOM      3  O   UNL     1       0.587   2.071   0.394  1.00  0.00    -0.275 OA
ATOM      4  C   UNL     1       1.766   1.719   0.385  1.00  0.00     0.220 C 
ATOM      5  H   UNL     1       3.167   0.523   1.226  1.00  0.00     0.163 HD
BRANCH   4   6
ATOM      6  C   UNL     1       2.712   2.192  -0.715  1.00  0.00     0.102 C 
BRANCH   6   7
ATOM      7  C   UNL     1       4.243   1.935  -0.801  1.00  0.00     0.031 C 
BRANCH   7   8
ATOM      8  C   UNL     1       5.093   0.950   0.060  1.00  0.00     0.121 C 
BRANCH   8   9
ATOM      9  N   UNL     1       5.570  -0.319  -0.549  1.00  0.00    -0.324 N 
ATOM     10  C   UNL     1       6.726  -0.213  -1.337  1.00  0.00     0.295 C 
ATOM     11  C   UNL     1       5.405  -1.708  -0.014  1.00  0.00     0.157 C 
ATOM     12  O   UNL     1       7.294   0.796  -1.692  1.00  0.00    -0.265 OA
ATOM     13  C   UNL     1       7.314  -1.603  -1.509  1.00  0.00     0.248 C 
ATOM     14  C   UNL     1       6.624  -2.485  -0.531  1.00  0.00     0.025 C 
ATOM     15  O   UNL     1       8.232  -1.858  -2.248  1.00  0.00    -0.283 OA
ATOM     16  C   UNL     1       7.083  -3.716  -0.219  1.00  0.00    -0.092 C 
ATOM     17  O   UNL     1       6.550  -4.505   0.777  1.00  0.00    -0.872 OA
BRANCH  11  18
ATOM     18  C   UNL     1       4.105  -2.474  -0.336  1.00  0.00     0.057 A 
ATOM     19  C   UNL     1       3.720  -3.572   0.472  1.00  0.00     0.013 A 
ATOM     20  C   UNL     1       3.255  -2.258  -1.429  1.00  0.00     0.275 A 
ATOM     21  C   UNL     1       2.576  -4.355   0.208  1.00  0.00     0.001 A 
ATOM     22  C   UNL     1       2.086  -3.005  -1.687  1.00  0.00     0.086 A 
ATOM     23  C   UNL     1       1.745  -4.058  -0.861  1.00  0.00     0.007 A 
BRANCH  20  24
ATOM     24  N   UNL     1       3.365  -1.085  -2.234  1.00  0.00     0.063 N 
ATOM     25  O   UNL     1       2.547  -0.211  -1.956  1.00  0.00    -0.258 OA
ATOM     26  O   UNL     1       4.207  -1.058  -3.134  1.00  0.00    -0.258 OA
ENDBRANCH  20  24
ENDBRANCH  11  18
BRANCH  16  27
ATOM     27  C   UNL     1       8.094  -4.446  -1.003  1.00  0.00    -0.033 A 
ATOM     28  C   UNL     1       9.468  -4.251  -0.819  1.00  0.00     0.009 A 
ATOM     29  C   UNL     1       7.653  -5.342  -1.990  1.00  0.00     0.009 A 
ATOM     30  C   UNL     1      10.386  -4.906  -1.648  1.00  0.00     0.021 A 
ATOM     31  C   UNL     1       8.570  -5.999  -2.813  1.00  0.00     0.021 A 
ATOM     32  C   UNL     1       9.933  -5.768  -2.646  1.00  0.00     0.041 A 
ATOM     33  Cl  UNL     1      11.062  -6.550  -3.683  1.00  0.00    -0.084 Cl
ENDBRANCH  16  27
ENDBRANCH   8   9
ENDBRANCH   7   8
ENDBRANCH   6   7
ENDBRANCH   4   6
ENDBRANCH   1   2
BRANCH   1  34
ATOM     34  C   UNL     1       2.110  -0.619   3.289  1.00  0.00     0.023 C 
BRANCH  34  35
ATOM     35  C   UNL     1       3.614  -0.678   3.584  1.00  0.00     0.023 C 
BRANCH  35  36
ATOM     36  C   UNL     1       4.232   0.507   4.320  1.00  0.00     0.116 C 
BRANCH  36  37
ATOM     37  N   UNL     1       3.725   0.670   5.667  1.00  0.00    -0.352 N 
ATOM     38  C   UNL     1       4.387   0.839   6.861  1.00  0.00     0.251 C 
ATOM     39  H   UNL     1       2.744   0.659   5.741  1.00  0.00     0.163 HD
ATOM     40  O   UNL     1       3.734   0.859   7.902  1.00  0.00    -0.269 OA
BRANCH  38  41
ATOM     41  C   UNL     1       5.868   0.952   6.932  1.00  0.00     0.039 A 
ATOM     42  C   UNL     1       6.526   0.344   8.008  1.00  0.00     0.014 A 
ATOM     43  C   UNL     1       6.616   1.670   5.995  1.00  0.00     0.014 A 
ATOM     44  C   UNL     1       7.921   0.392   8.104  1.00  0.00     0.010 A 
ATOM     45  C   UNL     1       8.013   1.653   6.049  1.00  0.00     0.010 A 
ATOM     46  C   UNL     1       8.684   1.010   7.101  1.00  0.00    -0.014 A 
BRANCH  46  47
ATOM     47  C   UNL     1      10.174   0.971   7.130  1.00  0.00     0.031 A 
ATOM     48  C   UNL     1      10.979   2.240   7.235  1.00  0.00     0.074 A 
ATOM     49  C   UNL     1      10.814  -0.210   7.006  1.00  0.00     0.049 A 
ATOM     50  N   UNL     1      12.279   2.400   7.210  1.00  0.00    -0.248 NA
ATOM     51  C   UNL     1      10.223   3.495   7.363  1.00  0.00     0.031 C 
ATOM     52  C   UNL     1      10.162  -1.514   6.867  1.00  0.00     0.029 A 
ATOM     53  N   UNL     1      12.155  -0.507   6.966  1.00  0.00    -0.354 N 
ATOM     54  C   UNL     1      12.496   3.769   7.309  1.00  0.00     0.074 A 
ATOM     55  C   UNL     1      11.192   4.398   7.340  1.00  0.00     0.031 C 
ATOM     56  C   UNL     1      11.101  -2.469   6.779  1.00  0.00     0.029 A 
ATOM     57  C   UNL     1      12.421  -1.846   6.808  1.00  0.00     0.049 A 
ATOM     58  H   UNL     1      12.860   0.176   7.044  1.00  0.00     0.167 HD
ATOM     59  C   UNL     1      13.670   4.442   7.386  1.00  0.00     0.037 A 
ATOM     60  C   UNL     1      13.592  -2.502   6.685  1.00  0.00     0.037 A 
ATOM     61  C   UNL     1      14.969   3.818   7.365  1.00  0.00     0.049 A 
ATOM     62  C   UNL     1      14.882  -1.728   6.735  1.00  0.00     0.074 A 
ATOM     63  C   UNL     1      16.213   4.413   7.489  1.00  0.00     0.029 A 
ATOM     64  N   UNL     1      15.194   2.460   7.198  1.00  0.00    -0.354 N 
ATOM     65  N   UNL     1      15.069  -0.441   6.896  1.00  0.00    -0.248 NA
ATOM     66  C   UNL     1      16.124  -2.501   6.591  1.00  0.00     0.031 C 
ATOM     67  C   UNL     1      17.191   3.425   7.335  1.00  0.00     0.029 A 
ATOM     68  C   UNL     1      16.556   2.203   7.184  1.00  0.00     0.049 A 
ATOM     69  H   UNL     1      14.490   1.778   7.104  1.00  0.00     0.167 HD
ATOM     70  C   UNL     1      16.446  -0.255   6.907  1.00  0.00     0.074 A 
ATOM     71  C   UNL     1      17.046  -1.562   6.751  1.00  0.00     0.031 C 
ATOM     72  C   UNL     1      17.149   0.898   7.036  1.00  0.00     0.037 A 
BRANCH  59  73
ATOM     73  C   UNL     1      13.609   5.941   7.495  1.00  0.00     0.057 A 
ATOM     74  C   UNL     1      13.128   6.582   8.645  1.00  0.00     0.134 A 
ATOM     75  C   UNL     1      14.079   6.753   6.455  1.00  0.00     0.134 A 
ATOM     76  F   UNL     1      12.655   5.865   9.676  1.00  0.00    -0.206 F 
ATOM     77  C   UNL     1      13.088   7.974   8.743  1.00  0.00     0.040 A 
ATOM     78  C   UNL     1      14.075   8.146   6.555  1.00  0.00     0.040 A 
ATOM     79  F   UNL     1      14.565   6.208   5.330  1.00  0.00    -0.206 F 
ATOM     80  C   UNL     1      13.570   8.760   7.699  1.00  0.00     0.006 A 
ENDBRANCH  59  73
BRANCH  60  81
ATOM     81  C   UNL     1      13.606  -3.978   6.510  1.00  0.00     0.057 A 
ATOM     82  C   UNL     1      14.115  -4.820   7.506  1.00  0.00     0.134 A 
ATOM     83  C   UNL     1      13.132  -4.582   5.338  1.00  0.00     0.134 A 
ATOM     84  F   UNL     1      14.601  -4.303   8.644  1.00  0.00    -0.206 F 
ATOM     85  C   UNL     1      14.176  -6.204   7.334  1.00  0.00     0.040 A 
ATOM     86  C   UNL     1      13.159  -5.966   5.165  1.00  0.00     0.040 A 
ATOM     87  F   UNL     1      12.620  -3.833   4.349  1.00  0.00    -0.206 F 
ATOM     88  C   UNL     1      13.692  -6.781   6.162  1.00  0.00     0.006 A 
ENDBRANCH  60  81
BRANCH  72  89
ATOM     89  C   UNL     1      18.648   0.795   7.061  1.00  0.00     0.057 A 
ATOM     90  C   UNL     1      19.392   0.458   5.923  1.00  0.00     0.134 A 
ATOM     91  C   UNL     1      19.360   1.076   8.235  1.00  0.00     0.134 A 
ATOM     92  F   UNL     1      18.774   0.165   4.769  1.00  0.00    -0.206 F 
ATOM     93  C   UNL     1      20.786   0.376   5.959  1.00  0.00     0.040 A 
ATOM     94  C   UNL     1      20.755   1.029   8.275  1.00  0.00     0.040 A 
ATOM     95  F   UNL     1      18.713   1.415   9.361  1.00  0.00    -0.206 F 
ATOM     96  C   UNL     1      21.471   0.670   7.136  1.00  0.00     0.006 A 
ENDBRANCH  72  89
ENDBRANCH  46  47
ENDBRANCH  38  41
ENDBRANCH  36  37
ENDBRANCH  35  36
ENDBRANCH  34  35
ENDBRANCH   1  34
TORSDOF 17
