REMARK SMILES O=C(NCCCCNC(=O)c1ccc(-c2c3nc(c(-c4c(F)cccc4F)c4ccc([nH]4)c(-c4c(F)cccc4F)c4nc(c(-c5c(F)cccc5F)c5ccc2[nH]5)C=C4)C=C3)cc1)C1=C[C@H]2C=C[C@@H]1[C@@H]1C=C[C@H]21
REMARK SMILES IDX 6 1 5 2 4 3 3 4 1 5 2 6 65 8 66 9 70 10 67 11 69 12 71 13
REMARK SMILES IDX 68 14 74 15 72 16 73 17 7 18 8 19 9 20 10 22 11 23 12 24
REMARK SMILES IDX 64 25 13 26 63 27 14 28 15 29 16 30 57 31 17 32 62 33 56 34
REMARK SMILES IDX 58 35 18 36 61 37 55 38 54 39 19 41 45 42 28 43 44 44 29 45
REMARK SMILES IDX 32 46 43 47 59 48 30 49 31 50 42 52 60 53 33 54 20 55 21 56
REMARK SMILES IDX 26 57 22 58 23 59 25 60 27 61 24 62 46 63 47 64 52 65 48 66
REMARK SMILES IDX 49 67 51 68 53 69 50 70 34 71 35 72 40 73 36 74 37 75 39 76
REMARK SMILES IDX 41 77 38 78
REMARK H PARENT 3 7 8 21 58 40 32 51
REMARK Flexibility Score: inf
ROOT
ATOM      1  C   UNL     1       4.897  -2.409   2.755  1.00  0.00     0.023 C 
ENDROOT
BRANCH   1   2
ATOM      2  C   UNL     1       5.282  -1.126   2.005  1.00  0.00     0.023 C 
BRANCH   2   3
ATOM      3  C   UNL     1       4.500  -0.862   0.718  1.00  0.00     0.116 C 
BRANCH   3   4
ATOM      4  N   UNL     1       3.068  -0.825   0.954  1.00  0.00    -0.352 N 
ATOM      5  O   UNL     1       0.953  -0.104   0.763  1.00  0.00    -0.270 OA
ATOM      6  C   UNL     1       2.150   0.112   0.604  1.00  0.00     0.247 C 
ATOM      7  H   UNL     1       2.707  -1.600   1.443  1.00  0.00     0.163 HD
BRANCH   6   8
ATOM      8  C   UNL     1       2.595   1.365  -0.017  1.00  0.00     0.021 C 
ATOM      9  C   UNL     1       3.313   2.337   0.595  1.00  0.00    -0.009 C 
ATOM     10  C   UNL     1       2.061   1.728  -1.402  1.00  0.00     0.054 C 
ATOM     11  C   UNL     1       3.453   3.611  -0.250  1.00  0.00     0.042 C 
ATOM     12  C   UNL     1       3.257   2.222  -2.222  1.00  0.00    -0.022 C 
ATOM     13  C   UNL     1       1.134   2.951  -1.116  1.00  0.00     0.031 C 
ATOM     14  C   UNL     1       3.979   3.192  -1.622  1.00  0.00    -0.022 C 
ATOM     15  C   UNL     1       1.974   4.094  -0.435  1.00  0.00     0.030 C 
ATOM     16  C   UNL     1       0.839   3.968  -2.207  1.00  0.00    -0.026 C 
ATOM     17  C   UNL     1       1.574   4.944  -1.635  1.00  0.00    -0.026 C 
ENDBRANCH   6   8
ENDBRANCH   3   4
ENDBRANCH   2   3
ENDBRANCH   1   2
BRANCH   1  18
ATOM     18  C   UNL     1       5.051  -3.708   1.966  1.00  0.00     0.116 C 
BRANCH  18  19
ATOM     19  N   UNL     1       6.439  -4.015   1.670  1.00  0.00    -0.352 N 
ATOM     20  C   UNL     1       7.131  -5.190   1.841  1.00  0.00     0.251 C 
ATOM     21  H   UNL     1       6.961  -3.272   1.291  1.00  0.00     0.163 HD
ATOM     22  O   UNL     1       8.348  -5.205   1.683  1.00  0.00    -0.269 OA
BRANCH  20  23
ATOM     23  C   UNL     1       6.431  -6.437   2.229  1.00  0.00     0.039 A 
ATOM     24  C   UNL     1       7.019  -7.259   3.197  1.00  0.00     0.014 A 
ATOM     25  C   UNL     1       5.241  -6.833   1.611  1.00  0.00     0.014 A 
ATOM     26  C   UNL     1       6.395  -8.450   3.579  1.00  0.00     0.010 A 
ATOM     27  C   UNL     1       4.596  -8.002   2.023  1.00  0.00     0.010 A 
ATOM     28  C   UNL     1       5.169  -8.823   3.007  1.00  0.00    -0.014 A 
BRANCH  28  29
ATOM     29  C   UNL     1       4.482 -10.075   3.414  1.00  0.00     0.031 A 
ATOM     30  C   UNL     1       4.373 -11.225   2.452  1.00  0.00     0.074 A 
ATOM     31  C   UNL     1       3.910 -10.163   4.630  1.00  0.00     0.049 A 
ATOM     32  N   UNL     1       3.729 -12.357   2.585  1.00  0.00    -0.248 NA
ATOM     33  C   UNL     1       5.064 -11.074   1.162  1.00  0.00     0.031 C 
ATOM     34  C   UNL     1       3.921  -9.114   5.650  1.00  0.00     0.029 A 
ATOM     35  N   UNL     1       3.197 -11.184   5.209  1.00  0.00    -0.354 N 
ATOM     36  C   UNL     1       3.919 -13.043   1.393  1.00  0.00     0.074 A 
ATOM     37  C   UNL     1       4.718 -12.191   0.538  1.00  0.00     0.031 C 
ATOM     38  C   UNL     1       3.251  -9.547   6.731  1.00  0.00     0.029 A 
ATOM     39  C   UNL     1       2.743 -10.890   6.471  1.00  0.00     0.049 A 
ATOM     40  H   UNL     1       3.028 -12.044   4.762  1.00  0.00     0.167 HD
ATOM     41  C   UNL     1       3.478 -14.276   1.045  1.00  0.00     0.037 A 
ATOM     42  C   UNL     1       1.994 -11.619   7.320  1.00  0.00     0.037 A 
ATOM     43  C   UNL     1       2.710 -15.142   1.900  1.00  0.00     0.049 A 
ATOM     44  C   UNL     1       1.542 -12.995   6.920  1.00  0.00     0.074 A 
ATOM     45  C   UNL     1       2.236 -16.416   1.638  1.00  0.00     0.029 A 
ATOM     46  N   UNL     1       2.314 -14.825   3.189  1.00  0.00    -0.354 N 
ATOM     47  N   UNL     1       1.745 -13.636   5.796  1.00  0.00    -0.248 NA
ATOM     48  C   UNL     1       0.760 -13.751   7.911  1.00  0.00     0.031 C 
ATOM     49  C   UNL     1       1.542 -16.867   2.766  1.00  0.00     0.029 A 
ATOM     50  C   UNL     1       1.606 -15.882   3.738  1.00  0.00     0.049 A 
ATOM     51  H   UNL     1       2.508 -13.976   3.648  1.00  0.00     0.167 HD
ATOM     52  C   UNL     1       1.140 -14.876   5.952  1.00  0.00     0.074 A 
ATOM     53  C   UNL     1       0.569 -14.902   7.282  1.00  0.00     0.031 C 
ATOM     54  C   UNL     1       1.063 -15.900   5.069  1.00  0.00     0.037 A 
BRANCH  41  55
ATOM     55  C   UNL     1       3.824 -14.768  -0.327  1.00  0.00     0.057 A 
ATOM     56  C   UNL     1       5.110 -15.225  -0.638  1.00  0.00     0.134 A 
ATOM     57  C   UNL     1       2.853 -14.823  -1.334  1.00  0.00     0.134 A 
ATOM     58  F   UNL     1       6.086 -15.185   0.282  1.00  0.00    -0.206 F 
ATOM     59  C   UNL     1       5.424 -15.707  -1.909  1.00  0.00     0.040 A 
ATOM     60  C   UNL     1       3.150 -15.320  -2.604  1.00  0.00     0.040 A 
ATOM     61  F   UNL     1       1.601 -14.403  -1.098  1.00  0.00    -0.206 F 
ATOM     62  C   UNL     1       4.440 -15.761  -2.895  1.00  0.00     0.006 A 
ENDBRANCH  41  55
BRANCH  42  63
ATOM     63  C   UNL     1       1.634 -11.070   8.649  1.00  0.00     0.057 A 
ATOM     64  C   UNL     1       2.248 -11.543   9.813  1.00  0.00     0.134 A 
ATOM     65  C   UNL     1       0.657 -10.077   8.787  1.00  0.00     0.134 A 
ATOM     66  F   UNL     1       3.176 -12.509   9.742  1.00  0.00    -0.206 F 
ATOM     67  C   UNL     1       1.893 -11.060  11.073  1.00  0.00     0.040 A 
ATOM     68  C   UNL     1       0.305  -9.572  10.039  1.00  0.00     0.040 A 
ATOM     69  F   UNL     1       0.036  -9.584   7.706  1.00  0.00    -0.206 F 
ATOM     70  C   UNL     1       0.920 -10.069  11.187  1.00  0.00     0.006 A 
ENDBRANCH  42  63
BRANCH  54  71
ATOM     71  C   UNL     1       0.374 -17.148   5.529  1.00  0.00     0.057 A 
ATOM     72  C   UNL     1      -1.022 -17.238   5.589  1.00  0.00     0.134 A 
ATOM     73  C   UNL     1       1.116 -18.281   5.883  1.00  0.00     0.134 A 
ATOM     74  F   UNL     1      -1.785 -16.180   5.274  1.00  0.00    -0.206 F 
ATOM     75  C   UNL     1      -1.657 -18.410   6.000  1.00  0.00     0.040 A 
ATOM     76  C   UNL     1       0.491 -19.464   6.280  1.00  0.00     0.040 A 
ATOM     77  F   UNL     1       2.456 -18.257   5.842  1.00  0.00    -0.206 F 
ATOM     78  C   UNL     1      -0.899 -19.529   6.342  1.00  0.00     0.006 A 
ENDBRANCH  54  71
ENDBRANCH  28  29
ENDBRANCH  20  23
ENDBRANCH  18  19
ENDBRANCH   1  18
TORSDOF 11
