REMARK SMILES C[C@@H](C(=O)NCCCCNC(=O)c1ccc(-c2c3nc(c(-c4c(F)cccc4F)c4ccc([nH]4)c(-c4c(F)cccc4F)c4nc(c(-c5c(F)cccc5F)c5ccc2[nH]5)C=C4)C=C3)cc1)c1ccc(C[C@H]2CCCC2=O)c(-c2ccc(OC(F)(F)F)cc2)c1
REMARK SMILES IDX 6 1 5 2 3 3 4 4 2 6 1 7 67 8 68 9 90 10 69 11 78 12 70 13
REMARK SMILES IDX 79 14 80 15 89 16 81 17 88 18 82 19 83 20 84 21 85 22 86 23
REMARK SMILES IDX 87 24 71 25 72 26 73 27 76 28 74 29 75 30 77 31 7 32 8 33
REMARK SMILES IDX 9 34 10 35 11 36 12 38 13 39 14 40 66 41 15 42 65 43 16 44
REMARK SMILES IDX 17 45 18 46 59 47 19 48 64 49 58 50 60 51 20 52 63 53 57 54
REMARK SMILES IDX 56 55 21 57 47 58 30 59 46 60 31 61 34 62 45 63 61 64 32 65
REMARK SMILES IDX 33 66 44 68 62 69 35 70 22 71 23 72 28 73 24 74 25 75 27 76
REMARK SMILES IDX 29 77 26 78 48 79 49 80 54 81 50 82 51 83 53 84 55 85 52 86
REMARK SMILES IDX 36 87 37 88 42 89 38 90 39 91 41 92 43 93 40 94
REMARK H PARENT 5 5 10 37 60 56 34 67
REMARK Flexibility Score: inf
ROOT
ATOM      1  C   UNL     1       3.490  -1.823   0.316  1.00  0.00     0.116 C 
ENDROOT
BRANCH   1   2
ATOM      2  N   UNL     1       2.397  -2.242   1.168  1.00  0.00    -0.356 N 
ATOM      3  C   UNL     1       1.075  -1.895   1.141  1.00  0.00     0.227 C 
ATOM      4  O   UNL     1       0.397  -2.260   2.106  1.00  0.00    -0.274 OA
ATOM      5  H   UNL     1       2.644  -2.877   1.879  1.00  0.00     0.163 HD
BRANCH   3   6
ATOM      6  C   UNL     1       0.490  -1.129  -0.069  1.00  0.00     0.105 C 
ATOM      7  C   UNL     1       1.018   0.313  -0.079  1.00  0.00     0.023 C 
BRANCH   6   8
ATOM      8  C   UNL     1      -1.044  -1.195  -0.123  1.00  0.00    -0.035 A 
ATOM      9  C   UNL     1      -1.835  -0.055  -0.291  1.00  0.00     0.005 A 
ATOM     10  C   UNL     1      -1.711  -2.432  -0.018  1.00  0.00     0.013 A 
ATOM     11  C   UNL     1      -3.224  -0.135  -0.270  1.00  0.00     0.004 A 
ATOM     12  C   UNL     1      -3.122  -2.538   0.044  1.00  0.00    -0.015 A 
ATOM     13  C   UNL     1      -3.886  -1.351  -0.037  1.00  0.00    -0.039 A 
BRANCH  12  14
ATOM     14  C   UNL     1      -3.727  -3.875   0.219  1.00  0.00    -0.018 A 
ATOM     15  C   UNL     1      -4.634  -4.393  -0.717  1.00  0.00     0.012 A 
ATOM     16  C   UNL     1      -3.418  -4.668   1.334  1.00  0.00     0.012 A 
ATOM     17  C   UNL     1      -5.261  -5.625  -0.506  1.00  0.00     0.047 A 
ATOM     18  C   UNL     1      -4.031  -5.914   1.537  1.00  0.00     0.047 A 
ATOM     19  C   UNL     1      -4.971  -6.390   0.625  1.00  0.00     0.129 A 
BRANCH  19  20
ATOM     20  O   UNL     1      -5.676  -7.555   0.713  1.00  0.00    -0.406 OA
BRANCH  20  21
ATOM     21  C   UNL     1      -5.382  -8.428   1.789  1.00  0.00     0.573 C 
ATOM     22  F   UNL     1      -4.098  -8.843   1.741  1.00  0.00    -0.132 F 
ATOM     23  F   UNL     1      -5.622  -7.838   2.980  1.00  0.00    -0.132 F 
ATOM     24  F   UNL     1      -6.179  -9.516   1.694  1.00  0.00    -0.132 F 
ENDBRANCH  20  21
ENDBRANCH  19  20
ENDBRANCH  12  14
BRANCH  13  25
ATOM     25  C   UNL     1      -5.388  -1.284   0.170  1.00  0.00     0.047 C 
BRANCH  25  26
ATOM     26  C   UNL     1      -5.873  -0.728   1.518  1.00  0.00     0.060 C 
ATOM     27  C   UNL     1      -5.351  -1.426   2.777  1.00  0.00     0.012 C 
ATOM     28  C   UNL     1      -5.455   0.705   1.759  1.00  0.00     0.136 C 
ATOM     29  C   UNL     1      -4.184  -0.585   3.280  1.00  0.00     0.009 C 
ATOM     30  C   UNL     1      -4.553   0.855   2.955  1.00  0.00     0.076 C 
ATOM     31  O   UNL     1      -5.824   1.648   1.067  1.00  0.00    -0.299 OA
ENDBRANCH  25  26
ENDBRANCH  13  25
ENDBRANCH   6   8
ENDBRANCH   3   6
ENDBRANCH   1   2
BRANCH   1  32
ATOM     32  C   UNL     1       4.298  -0.702   0.980  1.00  0.00     0.023 C 
BRANCH  32  33
ATOM     33  C   UNL     1       5.094  -1.127   2.215  1.00  0.00     0.023 C 
BRANCH  33  34
ATOM     34  C   UNL     1       6.104  -2.244   1.983  1.00  0.00     0.116 C 
BRANCH  34  35
ATOM     35  N   UNL     1       7.061  -1.931   0.935  1.00  0.00    -0.352 N 
ATOM     36  C   UNL     1       8.405  -2.187   0.880  1.00  0.00     0.251 C 
ATOM     37  H   UNL     1       6.688  -1.467   0.150  1.00  0.00     0.163 HD
ATOM     38  O   UNL     1       9.075  -1.726  -0.044  1.00  0.00    -0.269 OA
BRANCH  36  39
ATOM     39  C   UNL     1       9.061  -2.984   1.938  1.00  0.00     0.039 A 
ATOM     40  C   UNL     1      10.305  -2.561   2.413  1.00  0.00     0.014 A 
ATOM     41  C   UNL     1       8.471  -4.140   2.457  1.00  0.00     0.014 A 
ATOM     42  C   UNL     1      10.930  -3.267   3.441  1.00  0.00     0.010 A 
ATOM     43  C   UNL     1       9.058  -4.798   3.535  1.00  0.00     0.010 A 
ATOM     44  C   UNL     1      10.297  -4.373   4.033  1.00  0.00    -0.014 A 
BRANCH  44  45
ATOM     45  C   UNL     1      10.932  -5.076   5.176  1.00  0.00     0.031 A 
ATOM     46  C   UNL     1      11.382  -6.504   5.045  1.00  0.00     0.074 A 
ATOM     47  C   UNL     1      11.085  -4.425   6.345  1.00  0.00     0.049 A 
ATOM     48  N   UNL     1      11.986  -7.263   5.925  1.00  0.00    -0.248 NA
ATOM     49  C   UNL     1      11.097  -7.178   3.768  1.00  0.00     0.031 C 
ATOM     50  C   UNL     1      10.626  -3.061   6.620  1.00  0.00     0.029 A 
ATOM     51  N   UNL     1      11.673  -4.820   7.520  1.00  0.00    -0.354 N 
ATOM     52  C   UNL     1      12.159  -8.495   5.308  1.00  0.00     0.074 A 
ATOM     53  C   UNL     1      11.534  -8.407   4.006  1.00  0.00     0.031 C 
ATOM     54  C   UNL     1      10.979  -2.723   7.870  1.00  0.00     0.029 A 
ATOM     55  C   UNL     1      11.665  -3.850   8.492  1.00  0.00     0.049 A 
ATOM     56  H   UNL     1      12.064  -5.714   7.653  1.00  0.00     0.167 HD
ATOM     57  C   UNL     1      12.807  -9.591   5.770  1.00  0.00     0.037 A 
ATOM     58  C   UNL     1      12.162  -3.865   9.743  1.00  0.00     0.037 A 
ATOM     59  C   UNL     1      13.434  -9.676   7.064  1.00  0.00     0.049 A 
ATOM     60  C   UNL     1      12.889  -5.089  10.227  1.00  0.00     0.074 A 
ATOM     61  C   UNL     1      14.145 -10.730   7.612  1.00  0.00     0.029 A 
ATOM     62  N   UNL     1      13.424  -8.665   8.013  1.00  0.00    -0.354 N 
ATOM     63  N   UNL     1      13.109  -6.221   9.604  1.00  0.00    -0.248 NA
ATOM     64  C   UNL     1      13.452  -5.029  11.583  1.00  0.00     0.031 C 
ATOM     65  C   UNL     1      14.533 -10.370   8.907  1.00  0.00     0.029 A 
ATOM     66  C   UNL     1      14.106  -9.075   9.148  1.00  0.00     0.049 A 
ATOM     67  H   UNL     1      12.996  -7.786   7.898  1.00  0.00     0.167 HD
ATOM     68  C   UNL     1      13.851  -7.000  10.482  1.00  0.00     0.074 A 
ATOM     69  C   UNL     1      14.068  -6.199  11.669  1.00  0.00     0.031 C 
ATOM     70  C   UNL     1      14.308  -8.267  10.323  1.00  0.00     0.037 A 
BRANCH  57  71
ATOM     71  C   UNL     1      12.886 -10.782   4.858  1.00  0.00     0.057 A 
ATOM     72  C   UNL     1      13.677 -10.768   3.701  1.00  0.00     0.134 A 
ATOM     73  C   UNL     1      12.197 -11.964   5.154  1.00  0.00     0.134 A 
ATOM     74  F   UNL     1      14.353  -9.663   3.353  1.00  0.00    -0.206 F 
ATOM     75  C   UNL     1      13.762 -11.879   2.860  1.00  0.00     0.040 A 
ATOM     76  C   UNL     1      12.295 -13.091   4.334  1.00  0.00     0.040 A 
ATOM     77  F   UNL     1      11.425 -12.049   6.248  1.00  0.00    -0.206 F 
ATOM     78  C   UNL     1      13.075 -13.047   3.180  1.00  0.00     0.006 A 
ENDBRANCH  57  71
BRANCH  58  79
ATOM     79  C   UNL     1      12.014  -2.674  10.617  1.00  0.00     0.057 A 
ATOM     80  C   UNL     1      13.119  -1.891  10.970  1.00  0.00     0.134 A 
ATOM     81  C   UNL     1      10.767  -2.298  11.130  1.00  0.00     0.134 A 
ATOM     82  F   UNL     1      14.343  -2.209  10.523  1.00  0.00    -0.206 F 
ATOM     83  C   UNL     1      12.995  -0.793  11.823  1.00  0.00     0.040 A 
ATOM     84  C   UNL     1      10.624  -1.187  11.961  1.00  0.00     0.040 A 
ATOM     85  F   UNL     1       9.668  -3.001  10.820  1.00  0.00    -0.206 F 
ATOM     86  C   UNL     1      11.742  -0.436  12.318  1.00  0.00     0.006 A 
ENDBRANCH  58  79
BRANCH  70  87
ATOM     87  C   UNL     1      15.105  -8.848  11.455  1.00  0.00     0.057 A 
ATOM     88  C   UNL     1      14.509  -9.199  12.674  1.00  0.00     0.134 A 
ATOM     89  C   UNL     1      16.482  -9.065  11.322  1.00  0.00     0.134 A 
ATOM     90  F   UNL     1      13.196  -9.004  12.870  1.00  0.00    -0.206 F 
ATOM     91  C   UNL     1      15.262  -9.711  13.732  1.00  0.00     0.040 A 
ATOM     92  C   UNL     1      17.239  -9.604  12.363  1.00  0.00     0.040 A 
ATOM     93  F   UNL     1      17.113  -8.761  10.178  1.00  0.00    -0.206 F 
ATOM     94  C   UNL     1      16.631  -9.919  13.576  1.00  0.00     0.006 A 
ENDBRANCH  70  87
ENDBRANCH  44  45
ENDBRANCH  36  39
ENDBRANCH  34  35
ENDBRANCH  33  34
ENDBRANCH  32  33
ENDBRANCH   1  32
TORSDOF 17
