REMARK SMILES C/C(=C/C[N@H+]1C[C@H]2CCC[N@@H+]2C[C@@H]1C)C(=O)NCCCCNC(=O)c1ccc(-c2c3nc(c(-c4c(F)cccc4F)c4ccc([nH]4)c(-c4c(F)cccc4F)c4nc(c(-c5c(F)cccc5F)c5ccc2[nH]5)C=C4)C=C3)cc1
REMARK SMILES IDX 19 1 18 2 17 3 15 4 16 5 2 7 1 8 3 9 4 10 5 11 6 12 13 13
REMARK SMILES IDX 7 15 12 16 14 17 8 18 11 19 9 20 10 21 20 23 21 24 22 25
REMARK SMILES IDX 23 26 24 28 25 29 26 30 78 31 27 32 77 33 28 34 29 35 30 36
REMARK SMILES IDX 71 37 31 38 76 39 70 40 72 41 32 42 75 43 69 44 68 45 33 47
REMARK SMILES IDX 59 48 42 49 58 50 43 51 46 52 57 53 73 54 44 55 45 56 56 58
REMARK SMILES IDX 74 59 47 60 34 61 35 62 40 63 36 64 37 65 39 66 41 67 38 68
REMARK SMILES IDX 60 69 61 70 66 71 62 72 63 73 65 74 67 75 64 76 48 77 49 78
REMARK SMILES IDX 54 79 50 80 51 81 53 82 55 83 52 84
REMARK H PARENT 17 6 5 14 11 22 22 27 72 46 46 57
REMARK Flexibility Score: inf
ROOT
ATOM      1  C   UNL     1      -1.616   4.591   1.196  1.00  0.00     0.023 C 
ENDROOT
BRANCH   1   2
ATOM      2  C   UNL     1      -0.111   4.349   1.005  1.00  0.00     0.116 C 
BRANCH   2   3
ATOM      3  N   UNL     1       0.313   3.125   1.637  1.00  0.00    -0.352 N 
ATOM      4  C   UNL     1       0.497   1.845   1.266  1.00  0.00     0.246 C 
ATOM      5  O   UNL     1       0.964   1.137   2.171  1.00  0.00    -0.270 OA
ATOM      6  H   UNL     1       0.522   3.261   2.589  1.00  0.00     0.163 HD
BRANCH   4   7
ATOM      7  C   UNL     1       0.227   1.196  -0.077  1.00  0.00     0.015 C 
ATOM      8  C   UNL     1       0.765  -0.236  -0.040  1.00  0.00     0.050 C 
ATOM      9  C   UNL     1      -0.345   1.554  -1.248  1.00  0.00     0.042 C 
BRANCH   9  10
ATOM     10  C   UNL     1      -0.997   2.778  -1.791  1.00  0.00     0.292 C 
BRANCH  10  11
ATOM     11  N   UNL     1      -0.276   3.580  -2.800  1.00  0.00    -0.320 N 
ATOM     12  C   UNL     1      -0.750   4.992  -2.721  1.00  0.00     0.328 C 
ATOM     13  C   UNL     1       1.212   3.464  -2.828  1.00  0.00     0.237 C 
ATOM     14  H   UNL     1      -0.516   3.169  -3.702  1.00  0.00     0.348 HD
ATOM     15  C   UNL     1       0.027   5.959  -3.618  1.00  0.00     0.240 C 
ATOM     16  C   UNL     1       1.971   4.608  -3.593  1.00  0.00     0.328 C 
ATOM     17  C   UNL     1       1.639   2.158  -3.530  1.00  0.00     0.081 C 
ATOM     18  C   UNL     1      -0.262   7.436  -3.419  1.00  0.00     0.077 C 
ATOM     19  N   UNL     1       1.452   5.929  -3.267  1.00  0.00    -0.323 N 
ATOM     20  C   UNL     1       0.974   8.104  -4.024  1.00  0.00     0.068 C 
ATOM     21  C   UNL     1       2.064   7.030  -4.005  1.00  0.00     0.263 C 
ATOM     22  H   UNL     1       1.651   6.066  -2.276  1.00  0.00     0.348 HD
ENDBRANCH  10  11
ENDBRANCH   9  10
ENDBRANCH   4   7
ENDBRANCH   2   3
ENDBRANCH   1   2
BRANCH   1  23
ATOM     23  C   UNL     1      -1.959   5.786   2.083  1.00  0.00     0.023 C 
BRANCH  23  24
ATOM     24  C   UNL     1      -1.495   7.129   1.531  1.00  0.00     0.116 C 
BRANCH  24  25
ATOM     25  N   UNL     1      -2.117   7.504   0.270  1.00  0.00    -0.352 N 
ATOM     26  C   UNL     1      -2.318   8.772  -0.227  1.00  0.00     0.251 C 
ATOM     27  H   UNL     1      -2.431   6.762  -0.296  1.00  0.00     0.163 HD
ATOM     28  O   UNL     1      -2.906   8.939  -1.291  1.00  0.00    -0.269 OA
BRANCH  26  29
ATOM     29  C   UNL     1      -1.867   9.936   0.566  1.00  0.00     0.039 A 
ATOM     30  C   UNL     1      -2.769  10.974   0.811  1.00  0.00     0.014 A 
ATOM     31  C   UNL     1      -0.582   9.977   1.114  1.00  0.00     0.014 A 
ATOM     32  C   UNL     1      -2.404  12.019   1.662  1.00  0.00     0.010 A 
ATOM     33  C   UNL     1      -0.251  10.973   2.027  1.00  0.00     0.010 A 
ATOM     34  C   UNL     1      -1.154  12.010   2.304  1.00  0.00    -0.014 A 
BRANCH  34  35
ATOM     35  C   UNL     1      -0.771  13.095   3.243  1.00  0.00     0.031 A 
ATOM     36  C   UNL     1       0.379  14.007   2.911  1.00  0.00     0.074 A 
ATOM     37  C   UNL     1      -1.426  13.235   4.412  1.00  0.00     0.049 A 
ATOM     38  N   UNL     1       0.864  15.009   3.599  1.00  0.00    -0.248 NA
ATOM     39  C   UNL     1       1.098  13.739   1.656  1.00  0.00     0.031 C 
ATOM     40  C   UNL     1      -2.509  12.372   4.888  1.00  0.00     0.029 A 
ATOM     41  N   UNL     1      -1.275  14.160   5.415  1.00  0.00    -0.354 N 
ATOM     42  C   UNL     1       1.950  15.477   2.870  1.00  0.00     0.074 A 
ATOM     43  C   UNL     1       2.091  14.613   1.719  1.00  0.00     0.031 C 
ATOM     44  C   UNL     1      -2.946  12.828   6.073  1.00  0.00     0.029 A 
ATOM     45  C   UNL     1      -2.165  14.002   6.449  1.00  0.00     0.049 A 
ATOM     46  H   UNL     1      -0.592  14.869   5.395  1.00  0.00     0.167 HD
ATOM     47  C   UNL     1       2.740  16.548   3.116  1.00  0.00     0.037 A 
ATOM     48  C   UNL     1      -2.341  14.734   7.566  1.00  0.00     0.037 A 
ATOM     49  C   UNL     1       2.578  17.432   4.239  1.00  0.00     0.049 A 
ATOM     50  C   UNL     1      -1.486  15.951   7.790  1.00  0.00     0.074 A 
ATOM     51  C   UNL     1       3.289  18.579   4.545  1.00  0.00     0.029 A 
ATOM     52  N   UNL     1       1.630  17.269   5.237  1.00  0.00    -0.354 N 
ATOM     53  N   UNL     1      -0.516  16.429   7.049  1.00  0.00    -0.248 NA
ATOM     54  C   UNL     1      -1.765  16.742   8.996  1.00  0.00     0.031 C 
ATOM     55  C   UNL     1       2.786  19.097   5.745  1.00  0.00     0.029 A 
ATOM     56  C   UNL     1       1.740  18.292   6.163  1.00  0.00     0.049 A 
ATOM     57  H   UNL     1       0.976  16.535   5.281  1.00  0.00     0.167 HD
ATOM     58  C   UNL     1      -0.091  17.590   7.681  1.00  0.00     0.074 A 
ATOM     59  C   UNL     1      -0.919  17.753   8.858  1.00  0.00     0.031 C 
ATOM     60  C   UNL     1       0.896  18.446   7.320  1.00  0.00     0.037 A 
BRANCH  47  61
ATOM     61  C   UNL     1       3.840  16.829   2.135  1.00  0.00     0.057 A 
ATOM     62  C   UNL     1       3.570  17.306   0.845  1.00  0.00     0.134 A 
ATOM     63  C   UNL     1       5.181  16.635   2.485  1.00  0.00     0.134 A 
ATOM     64  F   UNL     1       2.305  17.498   0.442  1.00  0.00    -0.206 F 
ATOM     65  C   UNL     1       4.594  17.553  -0.071  1.00  0.00     0.040 A 
ATOM     66  C   UNL     1       6.215  16.903   1.586  1.00  0.00     0.040 A 
ATOM     67  F   UNL     1       5.509  16.184   3.705  1.00  0.00    -0.206 F 
ATOM     68  C   UNL     1       5.922  17.356   0.301  1.00  0.00     0.006 A 
ENDBRANCH  47  61
BRANCH  48  69
ATOM     69  C   UNL     1      -3.406  14.374   8.534  1.00  0.00     0.057 A 
ATOM     70  C   UNL     1      -4.559  15.159   8.660  1.00  0.00     0.134 A 
ATOM     71  C   UNL     1      -3.292  13.257   9.368  1.00  0.00     0.134 A 
ATOM     72  F   UNL     1      -4.717  16.253   7.900  1.00  0.00    -0.206 F 
ATOM     73  C   UNL     1      -5.548  14.861   9.598  1.00  0.00     0.040 A 
ATOM     74  C   UNL     1      -4.284  12.934  10.296  1.00  0.00     0.040 A 
ATOM     75  F   UNL     1      -2.215  12.461   9.290  1.00  0.00    -0.206 F 
ATOM     76  C   UNL     1      -5.412  13.743  10.418  1.00  0.00     0.006 A 
ENDBRANCH  48  69
BRANCH  60  77
ATOM     77  C   UNL     1       1.103  19.653   8.186  1.00  0.00     0.057 A 
ATOM     78  C   UNL     1       1.685  19.561   9.456  1.00  0.00     0.134 A 
ATOM     79  C   UNL     1       0.736  20.925   7.730  1.00  0.00     0.134 A 
ATOM     80  F   UNL     1       2.047  18.369   9.954  1.00  0.00    -0.206 F 
ATOM     81  C   UNL     1       1.868  20.691  10.256  1.00  0.00     0.040 A 
ATOM     82  C   UNL     1       0.936  22.064   8.510  1.00  0.00     0.040 A 
ATOM     83  F   UNL     1       0.182  21.082   6.518  1.00  0.00    -0.206 F 
ATOM     84  C   UNL     1       1.497  21.948   9.780  1.00  0.00     0.006 A 
ENDBRANCH  60  77
ENDBRANCH  34  35
ENDBRANCH  26  29
ENDBRANCH  24  25
ENDBRANCH  23  24
ENDBRANCH   1  23
TORSDOF 13
