REMARK SMILES CC(=C/C(=O)NCCCCNC(=O)c1ccc(-c2c3nc(c(-c4c(F)cccc4F)c4ccc([nH]4)c(-c4c(F)cccc4F)c4nc(c(-c5c(F)cccc5F)c5ccc2[nH]5)C=C4)C=C3)cc1)/C=C/c1ccc2ccccc2c1
REMARK SMILES IDX 8 1 7 2 6 3 4 4 5 5 3 7 1 8 2 9 68 10 69 11 70 12 71 13
REMARK SMILES IDX 79 14 72 15 78 16 73 17 77 18 74 19 76 20 75 21 9 22 10 23
REMARK SMILES IDX 11 24 12 25 13 27 14 28 15 29 67 30 16 31 66 32 17 33 18 34
REMARK SMILES IDX 19 35 60 36 20 37 65 38 59 39 61 40 21 41 64 42 58 43 57 44
REMARK SMILES IDX 22 46 48 47 31 48 47 49 32 50 35 51 46 52 62 53 33 54 34 55
REMARK SMILES IDX 45 57 63 58 36 59 23 60 24 61 29 62 25 63 26 64 28 65 30 66
REMARK SMILES IDX 27 67 49 68 50 69 55 70 51 71 52 72 54 73 56 74 53 75 37 76
REMARK SMILES IDX 38 77 43 78 39 79 40 80 42 81 44 82 41 83
REMARK H PARENT 6 6 11 26 61 45 35 56
REMARK Flexibility Score: inf
ROOT
ATOM      1  C   UNL     1       1.819  -5.268  -1.746  1.00  0.00     0.023 C 
ENDROOT
BRANCH   1   2
ATOM      2  C   UNL     1       1.061  -3.952  -1.634  1.00  0.00     0.116 C 
BRANCH   2   3
ATOM      3  N   UNL     1      -0.228  -4.054  -0.982  1.00  0.00    -0.353 N 
ATOM      4  C   UNL     1      -0.948  -3.112  -0.315  1.00  0.00     0.244 C 
ATOM      5  O   UNL     1      -2.033  -3.431   0.173  1.00  0.00    -0.270 OA
ATOM      6  H   UNL     1      -0.648  -4.943  -1.028  1.00  0.00     0.163 HD
BRANCH   4   7
ATOM      7  C   UNL     1      -0.421  -1.750  -0.037  1.00  0.00     0.074 C 
ATOM      8  C   UNL     1       0.638   0.471  -0.186  1.00  0.00     0.044 C 
ATOM      9  C   UNL     1       0.188  -0.829  -0.811  1.00  0.00    -0.046 C 
BRANCH   9  10
ATOM     10  C   UNL     1       0.475  -1.026  -2.227  1.00  0.00     0.004 C 
ATOM     11  C   UNL     1       1.627  -0.625  -2.790  1.00  0.00     0.008 C 
BRANCH  11  12
ATOM     12  C   UNL     1       2.181  -1.153  -4.045  1.00  0.00    -0.025 A 
ATOM     13  C   UNL     1       3.549  -1.459  -4.034  1.00  0.00     0.009 A 
ATOM     14  C   UNL     1       1.446  -1.387  -5.212  1.00  0.00     0.016 A 
ATOM     15  C   UNL     1       4.178  -1.983  -5.160  1.00  0.00     0.009 A 
ATOM     16  C   UNL     1       2.069  -1.919  -6.364  1.00  0.00    -0.018 A 
ATOM     17  C   UNL     1       3.454  -2.208  -6.333  1.00  0.00    -0.018 A 
ATOM     18  C   UNL     1       1.355  -2.187  -7.546  1.00  0.00     0.009 A 
ATOM     19  C   UNL     1       4.085  -2.736  -7.469  1.00  0.00     0.009 A 
ATOM     20  C   UNL     1       1.995  -2.727  -8.667  1.00  0.00     0.001 A 
ATOM     21  C   UNL     1       3.359  -2.999  -8.629  1.00  0.00     0.001 A 
ENDBRANCH  11  12
ENDBRANCH   9  10
ENDBRANCH   4   7
ENDBRANCH   2   3
ENDBRANCH   1   2
BRANCH   1  22
ATOM     22  C   UNL     1       1.132  -6.361  -2.566  1.00  0.00     0.023 C 
BRANCH  22  23
ATOM     23  C   UNL     1       0.603  -5.949  -3.941  1.00  0.00     0.116 C 
BRANCH  23  24
ATOM     24  N   UNL     1       1.632  -5.390  -4.803  1.00  0.00    -0.352 N 
ATOM     25  C   UNL     1       2.107  -5.815  -6.020  1.00  0.00     0.251 C 
ATOM     26  H   UNL     1       2.058  -4.572  -4.458  1.00  0.00     0.163 HD
ATOM     27  O   UNL     1       3.218  -5.444  -6.387  1.00  0.00    -0.269 OA
BRANCH  25  28
ATOM     28  C   UNL     1       1.355  -6.777  -6.861  1.00  0.00     0.039 A 
ATOM     29  C   UNL     1       2.093  -7.619  -7.702  1.00  0.00     0.014 A 
ATOM     30  C   UNL     1      -0.033  -6.907  -6.808  1.00  0.00     0.014 A 
ATOM     31  C   UNL     1       1.470  -8.692  -8.337  1.00  0.00     0.010 A 
ATOM     32  C   UNL     1      -0.640  -8.035  -7.355  1.00  0.00     0.010 A 
ATOM     33  C   UNL     1       0.121  -8.967  -8.074  1.00  0.00    -0.014 A 
BRANCH  33  34
ATOM     34  C   UNL     1      -0.462 -10.288  -8.415  1.00  0.00     0.031 A 
ATOM     35  C   UNL     1      -1.637 -10.399  -9.338  1.00  0.00     0.074 A 
ATOM     36  C   UNL     1       0.024 -11.382  -7.792  1.00  0.00     0.049 A 
ATOM     37  N   UNL     1      -2.333 -11.459  -9.660  1.00  0.00    -0.248 NA
ATOM     38  C   UNL     1      -2.116  -9.152  -9.954  1.00  0.00     0.031 C 
ATOM     39  C   UNL     1       1.119 -11.385  -6.815  1.00  0.00     0.029 A 
ATOM     40  N   UNL     1      -0.341 -12.701  -7.875  1.00  0.00    -0.354 N 
ATOM     41  C   UNL     1      -3.341 -11.007 -10.500  1.00  0.00     0.074 A 
ATOM     42  C   UNL     1      -3.193  -9.571 -10.604  1.00  0.00     0.031 C 
ATOM     43  C   UNL     1       1.359 -12.644  -6.421  1.00  0.00     0.029 A 
ATOM     44  C   UNL     1       0.409 -13.532  -7.077  1.00  0.00     0.049 A 
ATOM     45  H   UNL     1      -1.072 -13.022  -8.450  1.00  0.00     0.167 HD
ATOM     46  C   UNL     1      -4.291 -11.730 -11.140  1.00  0.00     0.037 A 
ATOM     47  C   UNL     1       0.337 -14.862  -6.891  1.00  0.00     0.037 A 
ATOM     48  C   UNL     1      -4.416 -13.161 -11.046  1.00  0.00     0.049 A 
ATOM     49  C   UNL     1      -0.705 -15.641  -7.638  1.00  0.00     0.074 A 
ATOM     50  C   UNL     1      -5.322 -13.993 -11.681  1.00  0.00     0.029 A 
ATOM     51  N   UNL     1      -3.602 -13.973 -10.271  1.00  0.00    -0.354 N 
ATOM     52  N   UNL     1      -1.618 -15.206  -8.471  1.00  0.00    -0.248 NA
ATOM     53  C   UNL     1      -0.725 -17.095  -7.425  1.00  0.00     0.031 C 
ATOM     54  C   UNL     1      -5.068 -15.307 -11.274  1.00  0.00     0.029 A 
ATOM     55  C   UNL     1      -3.984 -15.297 -10.411  1.00  0.00     0.049 A 
ATOM     56  H   UNL     1      -2.861 -13.656  -9.705  1.00  0.00     0.167 HD
ATOM     57  C   UNL     1      -2.303 -16.331  -8.904  1.00  0.00     0.074 A 
ATOM     58  C   UNL     1      -1.693 -17.471  -8.249  1.00  0.00     0.031 C 
ATOM     59  C   UNL     1      -3.345 -16.415  -9.765  1.00  0.00     0.037 A 
BRANCH  46  60
ATOM     60  C   UNL     1      -5.259 -10.979 -12.005  1.00  0.00     0.057 A 
ATOM     61  C   UNL     1      -4.866 -10.415 -13.226  1.00  0.00     0.134 A 
ATOM     62  C   UNL     1      -6.600 -10.834 -11.627  1.00  0.00     0.134 A 
ATOM     63  F   UNL     1      -3.593 -10.506 -13.637  1.00  0.00    -0.206 F 
ATOM     64  C   UNL     1      -5.765  -9.710 -14.028  1.00  0.00     0.040 A 
ATOM     65  C   UNL     1      -7.514 -10.152 -12.433  1.00  0.00     0.040 A 
ATOM     66  F   UNL     1      -7.043 -11.354 -10.473  1.00  0.00    -0.206 F 
ATOM     67  C   UNL     1      -7.096  -9.583 -13.634  1.00  0.00     0.006 A 
ENDBRANCH  46  60
BRANCH  47  68
ATOM     68  C   UNL     1       1.300 -15.544  -5.990  1.00  0.00     0.057 A 
ATOM     69  C   UNL     1       2.310 -16.363  -6.509  1.00  0.00     0.134 A 
ATOM     70  C   UNL     1       1.239 -15.396  -4.600  1.00  0.00     0.134 A 
ATOM     71  F   UNL     1       2.411 -16.553  -7.832  1.00  0.00    -0.206 F 
ATOM     72  C   UNL     1       3.212 -17.028  -5.677  1.00  0.00     0.040 A 
ATOM     73  C   UNL     1       2.148 -16.038  -3.757  1.00  0.00     0.040 A 
ATOM     74  F   UNL     1       0.302 -14.615  -4.042  1.00  0.00    -0.206 F 
ATOM     75  C   UNL     1       3.134 -16.863  -4.296  1.00  0.00     0.006 A 
ENDBRANCH  47  68
BRANCH  59  76
ATOM     76  C   UNL     1      -3.854 -17.786 -10.082  1.00  0.00     0.057 A 
ATOM     77  C   UNL     1      -4.639 -18.509  -9.177  1.00  0.00     0.134 A 
ATOM     78  C   UNL     1      -3.584 -18.373 -11.325  1.00  0.00     0.134 A 
ATOM     79  F   UNL     1      -4.918 -18.006  -7.965  1.00  0.00    -0.206 F 
ATOM     80  C   UNL     1      -5.126 -19.778  -9.491  1.00  0.00     0.040 A 
ATOM     81  C   UNL     1      -4.082 -19.632 -11.658  1.00  0.00     0.040 A 
ATOM     82  F   UNL     1      -2.840 -17.727 -12.236  1.00  0.00    -0.206 F 
ATOM     83  C   UNL     1      -4.853 -20.340 -10.737  1.00  0.00     0.006 A 
ENDBRANCH  59  76
ENDBRANCH  33  34
ENDBRANCH  25  28
ENDBRANCH  23  24
ENDBRANCH  22  23
ENDBRANCH   1  22
TORSDOF 13
