REMARK SMILES Cn1c(=O)[nH]c(=O)c2c1nc(N1CCOCC1)n2CC(=O)NCCCCNC(=O)c1ccc(-c2c3nc(c(-c4c(F)cccc4F)c4ccc([nH]4)c(-c4c(F)cccc4F)c4nc(c(-c5c(F)cccc5F)c5ccc2[nH]5)C=C4)C=C3)cc1
REMARK SMILES IDX 24 1 23 2 22 3 20 4 21 5 19 7 18 8 1 9 2 10 3 11 9 12 4 13
REMARK SMILES IDX 5 14 8 15 10 16 6 17 11 19 7 20 12 21 13 22 17 23 14 24
REMARK SMILES IDX 16 25 15 26 25 27 26 28 27 29 28 30 29 32 30 33 31 34 83 35
REMARK SMILES IDX 32 36 82 37 33 38 34 39 35 40 76 41 36 42 81 43 75 44 77 45
REMARK SMILES IDX 37 46 80 47 74 48 73 49 38 51 64 52 47 53 63 54 48 55 51 56
REMARK SMILES IDX 62 57 78 58 49 59 50 60 61 62 79 63 52 64 39 65 40 66 45 67
REMARK SMILES IDX 41 68 42 69 44 70 46 71 43 72 65 73 66 74 71 75 67 76 68 77
REMARK SMILES IDX 70 78 72 79 69 80 53 81 54 82 59 83 55 84 56 85 58 86 60 87
REMARK SMILES IDX 57 88
REMARK H PARENT 22 6 5 18 27 31 77 50 51 61
REMARK Flexibility Score: inf
ROOT
ATOM      1  C   UNL     1       2.697   1.267   4.714  1.00  0.00     0.023 C 
ENDROOT
BRANCH   1   2
ATOM      2  C   UNL     1       1.819   0.784   5.873  1.00  0.00     0.116 C 
BRANCH   2   3
ATOM      3  N   UNL     1       1.104   1.849   6.545  1.00  0.00    -0.355 N 
ATOM      4  C   UNL     1      -0.197   2.247   6.448  1.00  0.00     0.240 C 
ATOM      5  O   UNL     1      -0.564   3.110   7.254  1.00  0.00    -0.273 OA
ATOM      6  H   UNL     1       1.647   2.372   7.178  1.00  0.00     0.163 HD
BRANCH   4   7
ATOM      7  C   UNL     1      -1.184   1.658   5.459  1.00  0.00     0.226 C 
BRANCH   7   8
ATOM      8  N   UNL     1      -0.714   1.545   4.091  1.00  0.00    -0.295 N 
ATOM      9  C   UNL     1       0.882   0.246  -0.055  1.00  0.00     0.157 C 
ATOM     10  N   UNL     1       0.357  -0.154   1.233  1.00  0.00    -0.279 N 
ATOM     11  C   UNL     1       0.370  -1.503   1.576  1.00  0.00     0.329 A 
ATOM     12  C   UNL     1      -0.073   0.768   2.167  1.00  0.00     0.170 A 
ATOM     13  O   UNL     1       0.810  -2.393   0.848  1.00  0.00    -0.248 OA
ATOM     14  N   UNL     1      -0.130  -1.845   2.814  1.00  0.00    -0.272 N 
ATOM     15  C   UNL     1      -0.503   0.379   3.401  1.00  0.00     0.154 A 
ATOM     16  N   UNL     1      -0.114   2.123   2.025  1.00  0.00    -0.194 NA
ATOM     17  C   UNL     1      -0.593  -0.992   3.791  1.00  0.00     0.279 A 
ATOM     18  H   UNL     1      -0.159  -2.806   3.024  1.00  0.00     0.175 HD
ATOM     19  C   UNL     1      -0.503   2.586   3.197  1.00  0.00     0.208 A 
ATOM     20  O   UNL     1      -0.982  -1.397   4.868  1.00  0.00    -0.267 OA
BRANCH  19  21
ATOM     21  N   UNL     1      -0.784   3.862   3.536  1.00  0.00    -0.338 N 
ATOM     22  C   UNL     1       0.125   4.660   4.368  1.00  0.00     0.148 C 
ATOM     23  C   UNL     1      -1.556   4.710   2.618  1.00  0.00     0.148 C 
ATOM     24  C   UNL     1      -0.733   5.627   5.199  1.00  0.00     0.181 C 
ATOM     25  C   UNL     1      -2.344   5.733   3.462  1.00  0.00     0.181 C 
ATOM     26  O   UNL     1      -1.486   6.499   4.332  1.00  0.00    -0.378 OA
ENDBRANCH  19  21
ENDBRANCH   7   8
ENDBRANCH   4   7
ENDBRANCH   2   3
ENDBRANCH   1   2
BRANCH   1  27
ATOM     27  C   UNL     1       3.902   2.137   5.094  1.00  0.00     0.023 C 
BRANCH  27  28
ATOM     28  C   UNL     1       4.868   1.492   6.076  1.00  0.00     0.116 C 
BRANCH  28  29
ATOM     29  N   UNL     1       5.452   0.254   5.569  1.00  0.00    -0.352 N 
ATOM     30  C   UNL     1       6.314  -0.600   6.226  1.00  0.00     0.251 C 
ATOM     31  H   UNL     1       5.201  -0.002   4.652  1.00  0.00     0.163 HD
ATOM     32  O   UNL     1       7.015  -1.393   5.609  1.00  0.00    -0.269 OA
BRANCH  30  33
ATOM     33  C   UNL     1       6.377  -0.545   7.695  1.00  0.00     0.039 A 
ATOM     34  C   UNL     1       7.605  -0.550   8.363  1.00  0.00     0.014 A 
ATOM     35  C   UNL     1       5.177  -0.461   8.399  1.00  0.00     0.014 A 
ATOM     36  C   UNL     1       7.620  -0.389   9.746  1.00  0.00     0.010 A 
ATOM     37  C   UNL     1       5.197  -0.183   9.743  1.00  0.00     0.010 A 
ATOM     38  C   UNL     1       6.411  -0.188  10.428  1.00  0.00    -0.014 A 
BRANCH  38  39
ATOM     39  C   UNL     1       6.407   0.157  11.848  1.00  0.00     0.031 A 
ATOM     40  C   UNL     1       7.138   1.417  12.188  1.00  0.00     0.074 A 
ATOM     41  C   UNL     1       5.578  -0.454  12.723  1.00  0.00     0.049 A 
ATOM     42  N   UNL     1       8.111   1.585  13.024  1.00  0.00    -0.248 NA
ATOM     43  C   UNL     1       6.801   2.632  11.422  1.00  0.00     0.031 C 
ATOM     44  C   UNL     1       4.560  -1.475  12.440  1.00  0.00     0.029 A 
ATOM     45  N   UNL     1       5.372  -0.195  14.042  1.00  0.00    -0.354 N 
ATOM     46  C   UNL     1       8.380   2.953  13.031  1.00  0.00     0.074 A 
ATOM     47  C   UNL     1       7.664   3.519  11.919  1.00  0.00     0.031 C 
ATOM     48  C   UNL     1       3.700  -1.558  13.477  1.00  0.00     0.029 A 
ATOM     49  C   UNL     1       4.195  -0.728  14.558  1.00  0.00     0.049 A 
ATOM     50  H   UNL     1       6.005   0.326  14.588  1.00  0.00     0.167 HD
ATOM     51  C   UNL     1       8.987   3.563  14.087  1.00  0.00     0.037 A 
ATOM     52  C   UNL     1       3.648  -0.461  15.770  1.00  0.00     0.037 A 
ATOM     53  C   UNL     1       9.665   2.614  14.928  1.00  0.00     0.049 A 
ATOM     54  C   UNL     1       4.713   0.143  16.607  1.00  0.00     0.074 A 
ATOM     55  C   UNL     1      10.687   1.706  14.731  1.00  0.00     0.029 A 
ATOM     56  N   UNL     1       9.047   2.233  16.092  1.00  0.00    -0.354 N 
ATOM     57  N   UNL     1       5.769  -0.498  17.023  1.00  0.00    -0.248 NA
ATOM     58  C   UNL     1       4.819   1.594  16.607  1.00  0.00     0.031 C 
ATOM     59  C   UNL     1      10.307   0.561  15.489  1.00  0.00     0.029 A 
ATOM     60  C   UNL     1       9.120   0.866  16.158  1.00  0.00     0.049 A 
ATOM     61  H   UNL     1       8.629   2.829  16.755  1.00  0.00     0.167 HD
ATOM     62  C   UNL     1       6.800   0.425  16.931  1.00  0.00     0.074 A 
ATOM     63  C   UNL     1       6.140   1.717  16.750  1.00  0.00     0.031 C 
ATOM     64  C   UNL     1       8.087   0.026  16.720  1.00  0.00     0.037 A 
BRANCH  51  65
ATOM     65  C   UNL     1       8.676   4.967  14.538  1.00  0.00     0.057 A 
ATOM     66  C   UNL     1       9.504   5.603  15.480  1.00  0.00     0.134 A 
ATOM     67  C   UNL     1       7.447   5.612  14.288  1.00  0.00     0.134 A 
ATOM     68  F   UNL     1      10.678   5.065  15.839  1.00  0.00    -0.206 F 
ATOM     69  C   UNL     1       9.120   6.777  16.143  1.00  0.00     0.040 A 
ATOM     70  C   UNL     1       7.078   6.810  14.903  1.00  0.00     0.040 A 
ATOM     71  F   UNL     1       6.500   5.065  13.515  1.00  0.00    -0.206 F 
ATOM     72  C   UNL     1       7.905   7.386  15.853  1.00  0.00     0.006 A 
ENDBRANCH  51  65
BRANCH  52  73
ATOM     73  C   UNL     1       2.219  -0.387  16.156  1.00  0.00     0.057 A 
ATOM     74  C   UNL     1       1.840  -0.370  17.507  1.00  0.00     0.134 A 
ATOM     75  C   UNL     1       1.219  -0.035  15.233  1.00  0.00     0.134 A 
ATOM     76  F   UNL     1       2.732  -0.660  18.466  1.00  0.00    -0.206 F 
ATOM     77  C   UNL     1       0.557   0.015  17.919  1.00  0.00     0.040 A 
ATOM     78  C   UNL     1      -0.068   0.344  15.630  1.00  0.00     0.040 A 
ATOM     79  F   UNL     1       1.483   0.045  13.921  1.00  0.00    -0.206 F 
ATOM     80  C   UNL     1      -0.398   0.388  16.979  1.00  0.00     0.006 A 
ENDBRANCH  52  73
BRANCH  64  81
ATOM     81  C   UNL     1       8.408  -1.441  16.831  1.00  0.00     0.057 A 
ATOM     82  C   UNL     1       7.901  -2.427  15.971  1.00  0.00     0.134 A 
ATOM     83  C   UNL     1       9.417  -1.837  17.716  1.00  0.00     0.134 A 
ATOM     84  F   UNL     1       6.998  -2.130  15.028  1.00  0.00    -0.206 F 
ATOM     85  C   UNL     1       8.361  -3.747  16.006  1.00  0.00     0.040 A 
ATOM     86  C   UNL     1       9.909  -3.143  17.738  1.00  0.00     0.040 A 
ATOM     87  F   UNL     1       9.987  -0.938  18.534  1.00  0.00    -0.206 F 
ATOM     88  C   UNL     1       9.379  -4.106  16.884  1.00  0.00     0.006 A 
ENDBRANCH  64  81
ENDBRANCH  38  39
ENDBRANCH  30  33
ENDBRANCH  28  29
ENDBRANCH  27  28
ENDBRANCH   1  27
TORSDOF 13
