REMARK SMILES Cc1ccc(-c2ncccc2C(=O)NCCCCNC(=O)c2ccc(-c3c4nc(c(-c5c(F)cccc5F)c5ccc([nH]5)c(-c5c(F)cccc5F)c5nc(c(-c6c(F)cccc6F)c6ccc3[nH]6)C=C5)C=C4)cc2)c(C)c1
REMARK SMILES IDX 17 1 16 2 15 3 14 4 12 5 13 6 11 8 6 9 7 10 8 11 10 12 9 13
REMARK SMILES IDX 5 14 1 15 2 16 3 17 78 18 4 19 76 20 77 21 18 22 19 23 20 24
REMARK SMILES IDX 21 26 22 27 23 28 75 29 24 30 74 31 25 32 26 33 27 34 68 35
REMARK SMILES IDX 28 36 73 37 67 38 69 39 29 40 72 41 66 42 65 43 30 45 56 46
REMARK SMILES IDX 39 47 55 48 40 49 43 50 54 51 70 52 41 53 42 54 53 56 71 57
REMARK SMILES IDX 44 58 31 59 32 60 37 61 33 62 34 63 36 64 38 65 35 66 57 67
REMARK SMILES IDX 58 68 63 69 59 70 60 71 62 72 64 73 61 74 45 75 46 76 51 77
REMARK SMILES IDX 47 78 48 79 50 80 52 81 49 82
REMARK H PARENT 14 7 19 25 69 44 43 55
REMARK Flexibility Score: inf
ROOT
ATOM      1  C   UNL     1      -2.268  -6.519   4.224  1.00  0.00     0.023 C 
ENDROOT
BRANCH   1   2
ATOM      2  C   UNL     1      -3.242  -5.877   3.224  1.00  0.00     0.023 C 
BRANCH   2   3
ATOM      3  C   UNL     1      -3.582  -4.418   3.529  1.00  0.00     0.116 C 
BRANCH   3   4
ATOM      4  N   UNL     1      -2.470  -3.553   3.201  1.00  0.00    -0.352 N 
ATOM      5  C   UNL     1      -2.075  -2.825   2.107  1.00  0.00     0.253 C 
ATOM      6  O   UNL     1      -1.016  -2.225   2.292  1.00  0.00    -0.269 OA
ATOM      7  H   UNL     1      -1.838  -3.465   3.950  1.00  0.00     0.163 HD
BRANCH   5   8
ATOM      8  C   UNL     1      -2.827  -2.701   0.810  1.00  0.00     0.066 A 
ATOM      9  C   UNL     1      -2.439  -1.758  -0.168  1.00  0.00     0.083 A 
ATOM     10  N   UNL     1      -3.167  -1.526  -1.307  1.00  0.00    -0.255 NA
ATOM     11  C   UNL     1      -4.281  -2.247  -1.515  1.00  0.00     0.112 A 
ATOM     12  C   UNL     1      -3.950  -3.477   0.495  1.00  0.00     0.018 A 
ATOM     13  C   UNL     1      -4.698  -3.240  -0.660  1.00  0.00     0.021 A 
BRANCH   9  14
ATOM     14  C   UNL     1      -1.191  -0.967  -0.152  1.00  0.00     0.004 A 
ATOM     15  C   UNL     1       2.571   1.184  -0.062  1.00  0.00     0.044 C 
ATOM     16  C   UNL     1       1.274   0.433  -0.116  1.00  0.00    -0.051 A 
ATOM     17  C   UNL     1       1.255  -0.949  -0.293  1.00  0.00     0.004 A 
ATOM     18  C   UNL     1       0.059   1.119   0.001  1.00  0.00     0.007 A 
ATOM     19  C   UNL     1       0.040  -1.634  -0.325  1.00  0.00     0.011 A 
ATOM     20  C   UNL     1      -1.174   0.438  -0.006  1.00  0.00    -0.041 A 
ATOM     21  C   UNL     1      -2.432   1.258   0.089  1.00  0.00     0.045 C 
ENDBRANCH   9  14
ENDBRANCH   5   8
ENDBRANCH   3   4
ENDBRANCH   2   3
ENDBRANCH   1   2
BRANCH   1  22
ATOM     22  C   UNL     1      -2.711  -6.483   5.685  1.00  0.00     0.116 C 
BRANCH  22  23
ATOM     23  N   UNL     1      -4.044  -7.025   5.898  1.00  0.00    -0.352 N 
ATOM     24  C   UNL     1      -4.549  -7.658   7.008  1.00  0.00     0.251 C 
ATOM     25  H   UNL     1      -4.670  -6.925   5.144  1.00  0.00     0.163 HD
ATOM     26  O   UNL     1      -5.673  -8.140   6.990  1.00  0.00    -0.269 OA
BRANCH  24  27
ATOM     27  C   UNL     1      -3.703  -7.790   8.211  1.00  0.00     0.039 A 
ATOM     28  C   UNL     1      -3.566  -9.050   8.798  1.00  0.00     0.014 A 
ATOM     29  C   UNL     1      -3.030  -6.685   8.739  1.00  0.00     0.014 A 
ATOM     30  C   UNL     1      -2.699  -9.216   9.878  1.00  0.00     0.010 A 
ATOM     31  C   UNL     1      -2.119  -6.864   9.774  1.00  0.00     0.010 A 
ATOM     32  C   UNL     1      -1.943  -8.131  10.350  1.00  0.00    -0.014 A 
BRANCH  32  33
ATOM     33  C   UNL     1      -0.955  -8.304  11.442  1.00  0.00     0.031 A 
ATOM     34  C   UNL     1      -1.166  -7.628  12.766  1.00  0.00     0.074 A 
ATOM     35  C   UNL     1       0.163  -9.020  11.218  1.00  0.00     0.049 A 
ATOM     36  N   UNL     1      -0.392  -7.614  13.820  1.00  0.00    -0.248 NA
ATOM     37  C   UNL     1      -2.400  -6.841  12.914  1.00  0.00     0.031 C 
ATOM     38  C   UNL     1       0.503  -9.688   9.960  1.00  0.00     0.029 A 
ATOM     39  N   UNL     1       1.225  -9.299  12.040  1.00  0.00    -0.354 N 
ATOM     40  C   UNL     1      -1.037  -6.811  14.751  1.00  0.00     0.074 A 
ATOM     41  C   UNL     1      -2.238  -6.310  14.116  1.00  0.00     0.031 C 
ATOM     42  C   UNL     1       1.675 -10.326  10.105  1.00  0.00     0.029 A 
ATOM     43  C   UNL     1       2.186 -10.083  11.451  1.00  0.00     0.049 A 
ATOM     44  H   UNL     1       1.292  -8.968  12.965  1.00  0.00     0.167 HD
ATOM     45  C   UNL     1      -0.676  -6.534  16.026  1.00  0.00     0.037 A 
ATOM     46  C   UNL     1       3.346 -10.554  11.943  1.00  0.00     0.037 A 
ATOM     47  C   UNL     1       0.510  -7.047  16.660  1.00  0.00     0.049 A 
ATOM     48  C   UNL     1       3.735 -10.221  13.355  1.00  0.00     0.074 A 
ATOM     49  C   UNL     1       0.941  -6.868  17.963  1.00  0.00     0.029 A 
ATOM     50  N   UNL     1       1.459  -7.839  16.030  1.00  0.00    -0.354 N 
ATOM     51  N   UNL     1       3.086  -9.510  14.245  1.00  0.00    -0.248 NA
ATOM     52  C   UNL     1       5.016 -10.759  13.832  1.00  0.00     0.031 C 
ATOM     53  C   UNL     1       2.169  -7.522  18.111  1.00  0.00     0.029 A 
ATOM     54  C   UNL     1       2.483  -8.143  16.913  1.00  0.00     0.049 A 
ATOM     55  H   UNL     1       1.412  -8.141  15.095  1.00  0.00     0.167 HD
ATOM     56  C   UNL     1       3.864  -9.538  15.395  1.00  0.00     0.074 A 
ATOM     57  C   UNL     1       5.029 -10.344  15.091  1.00  0.00     0.031 C 
ATOM     58  C   UNL     1       3.633  -8.951  16.594  1.00  0.00     0.037 A 
BRANCH  45  59
ATOM     59  C   UNL     1      -1.585  -5.636  16.814  1.00  0.00     0.057 A 
ATOM     60  C   UNL     1      -2.856  -6.055  17.230  1.00  0.00     0.134 A 
ATOM     61  C   UNL     1      -1.188  -4.338  17.159  1.00  0.00     0.134 A 
ATOM     62  F   UNL     1      -3.302  -7.282  16.920  1.00  0.00    -0.206 F 
ATOM     63  C   UNL     1      -3.714  -5.204  17.929  1.00  0.00     0.040 A 
ATOM     64  C   UNL     1      -2.027  -3.487  17.881  1.00  0.00     0.040 A 
ATOM     65  F   UNL     1       0.017  -3.874  16.797  1.00  0.00    -0.206 F 
ATOM     66  C   UNL     1      -3.298  -3.916  18.259  1.00  0.00     0.006 A 
ENDBRANCH  45  59
BRANCH  46  67
ATOM     67  C   UNL     1       4.202 -11.430  11.106  1.00  0.00     0.057 A 
ATOM     68  C   UNL     1       4.306 -12.799  11.378  1.00  0.00     0.134 A 
ATOM     69  C   UNL     1       4.926 -10.931  10.017  1.00  0.00     0.134 A 
ATOM     70  F   UNL     1       3.649 -13.331  12.419  1.00  0.00    -0.206 F 
ATOM     71  C   UNL     1       5.109 -13.639  10.606  1.00  0.00     0.040 A 
ATOM     72  C   UNL     1       5.716 -11.763   9.223  1.00  0.00     0.040 A 
ATOM     73  F   UNL     1       4.862  -9.629   9.701  1.00  0.00    -0.206 F 
ATOM     74  C   UNL     1       5.812 -13.122   9.520  1.00  0.00     0.006 A 
ENDBRANCH  46  67
BRANCH  58  75
ATOM     75  C   UNL     1       4.644  -9.188  17.676  1.00  0.00     0.057 A 
ATOM     76  C   UNL     1       5.901  -8.571  17.661  1.00  0.00     0.134 A 
ATOM     77  C   UNL     1       4.343 -10.018  18.763  1.00  0.00     0.134 A 
ATOM     78  F   UNL     1       6.256  -7.776  16.641  1.00  0.00    -0.206 F 
ATOM     79  C   UNL     1       6.831  -8.787  18.680  1.00  0.00     0.040 A 
ATOM     80  C   UNL     1       5.254 -10.223  19.799  1.00  0.00     0.040 A 
ATOM     81  F   UNL     1       3.153 -10.634  18.840  1.00  0.00    -0.206 F 
ATOM     82  C   UNL     1       6.505  -9.611  19.756  1.00  0.00     0.006 A 
ENDBRANCH  58  75
ENDBRANCH  32  33
ENDBRANCH  24  27
ENDBRANCH  22  23
ENDBRANCH   1  22
TORSDOF 12
