REMARK SMILES O=C(NCCCCNC(=O)[C@H](c1c[nH]c2ccc(Cl)cc12)[NH+]1CCN(c2cccc(Cl)c2)CC1)c1ccc(-c2c3nc(c(-c4c(F)cccc4F)c4ccc([nH]4)c(-c4c(F)cccc4F)c4nc(c(-c5c(F)cccc5F)c5ccc2[nH]5)C=C4)C=C3)cc1
REMARK SMILES IDX 5 1 4 2 3 3 1 4 2 5 35 7 36 8 88 9 37 10 87 11 38 12 39 13
REMARK SMILES IDX 40 14 81 15 41 16 86 17 80 18 82 19 42 20 85 21 79 22 78 23
REMARK SMILES IDX 43 25 69 26 52 27 68 28 53 29 56 30 67 31 83 32 54 33 55 34
REMARK SMILES IDX 66 36 84 37 57 38 44 39 45 40 50 41 46 42 47 43 49 44 51 45
REMARK SMILES IDX 48 46 70 47 71 48 76 49 72 50 73 51 75 52 77 53 74 54 58 55
REMARK SMILES IDX 59 56 64 57 60 58 61 59 63 60 65 61 62 62 6 63 7 64 8 65
REMARK SMILES IDX 9 66 10 68 11 69 22 70 23 71 34 72 24 74 33 75 25 76 26 77
REMARK SMILES IDX 27 78 32 79 28 80 30 81 29 82 31 83 12 84 13 85 21 86 14 87
REMARK SMILES IDX 15 88 20 89 16 91 18 92 17 93 19 94
REMARK H PARENT 3 6 82 24 56 35 8 67 22 73 14 90
REMARK Flexibility Score: inf
ROOT
ATOM      1  C   UNL     1       7.827   7.740   0.171  1.00  0.00     0.023 C 
ENDROOT
BRANCH   1   2
ATOM      2  C   UNL     1       7.954   9.253   0.231  1.00  0.00     0.116 C 
BRANCH   2   3
ATOM      3  N   UNL     1       9.325   9.701   0.411  1.00  0.00    -0.352 N 
ATOM      4  O   UNL     1      11.133  10.995  -0.005  1.00  0.00    -0.269 OA
ATOM      5  C   UNL     1       9.930  10.801  -0.144  1.00  0.00     0.251 C 
ATOM      6  H   UNL     1       9.887   9.150   1.002  1.00  0.00     0.163 HD
BRANCH   5   7
ATOM      7  C   UNL     1       9.110  11.734  -0.940  1.00  0.00     0.039 A 
ATOM      8  C   UNL     1       7.899  12.213  -0.431  1.00  0.00     0.014 A 
ATOM      9  C   UNL     1       9.551  12.117  -2.208  1.00  0.00     0.014 A 
ATOM     10  C   UNL     1       7.079  12.996  -1.232  1.00  0.00     0.010 A 
ATOM     11  C   UNL     1       8.761  12.965  -2.983  1.00  0.00     0.010 A 
ATOM     12  C   UNL     1       7.517  13.403  -2.502  1.00  0.00    -0.014 A 
BRANCH  12  13
ATOM     13  C   UNL     1       6.718  14.398  -3.254  1.00  0.00     0.031 A 
ATOM     14  C   UNL     1       6.038  14.046  -4.542  1.00  0.00     0.074 A 
ATOM     15  C   UNL     1       6.629  15.641  -2.744  1.00  0.00     0.049 A 
ATOM     16  N   UNL     1       5.327  14.814  -5.327  1.00  0.00    -0.248 NA
ATOM     17  C   UNL     1       6.175  12.661  -5.019  1.00  0.00     0.031 C 
ATOM     18  C   UNL     1       7.274  16.092  -1.507  1.00  0.00     0.029 A 
ATOM     19  N   UNL     1       5.965  16.752  -3.195  1.00  0.00    -0.354 N 
ATOM     20  C   UNL     1       4.948  14.018  -6.399  1.00  0.00     0.074 A 
ATOM     21  C   UNL     1       5.516  12.705  -6.171  1.00  0.00     0.031 C 
ATOM     22  C   UNL     1       6.957  17.374  -1.286  1.00  0.00     0.029 A 
ATOM     23  C   UNL     1       6.139  17.853  -2.393  1.00  0.00     0.049 A 
ATOM     24  H   UNL     1       5.418  16.759  -4.013  1.00  0.00     0.167 HD
ATOM     25  C   UNL     1       4.193  14.359  -7.470  1.00  0.00     0.037 A 
ATOM     26  C   UNL     1       5.716  19.119  -2.548  1.00  0.00     0.037 A 
ATOM     27  C   UNL     1       3.613  15.663  -7.670  1.00  0.00     0.049 A 
ATOM     28  C   UNL     1       4.903  19.467  -3.758  1.00  0.00     0.074 A 
ATOM     29  C   UNL     1       2.764  16.081  -8.679  1.00  0.00     0.029 A 
ATOM     30  N   UNL     1       3.833  16.760  -6.851  1.00  0.00    -0.354 N 
ATOM     31  N   UNL     1       4.499  18.687  -4.730  1.00  0.00    -0.248 NA
ATOM     32  C   UNL     1       4.498  20.871  -3.900  1.00  0.00     0.031 C 
ATOM     33  C   UNL     1       2.508  17.445  -8.499  1.00  0.00     0.029 A 
ATOM     34  C   UNL     1       3.167  17.866  -7.356  1.00  0.00     0.049 A 
ATOM     35  H   UNL     1       4.380  16.755  -6.033  1.00  0.00     0.167 HD
ATOM     36  C   UNL     1       3.791  19.502  -5.599  1.00  0.00     0.074 A 
ATOM     37  C   UNL     1       3.796  20.832  -5.023  1.00  0.00     0.031 C 
ATOM     38  C   UNL     1       3.198  19.182  -6.774  1.00  0.00     0.037 A 
BRANCH  25  39
ATOM     39  C   UNL     1       3.950  13.322  -8.525  1.00  0.00     0.057 A 
ATOM     40  C   UNL     1       3.034  12.280  -8.341  1.00  0.00     0.134 A 
ATOM     41  C   UNL     1       4.569  13.428  -9.778  1.00  0.00     0.134 A 
ATOM     42  F   UNL     1       2.413  12.120  -7.163  1.00  0.00    -0.206 F 
ATOM     43  C   UNL     1       2.742  11.378  -9.367  1.00  0.00     0.040 A 
ATOM     44  C   UNL     1       4.272  12.543 -10.816  1.00  0.00     0.040 A 
ATOM     45  F   UNL     1       5.452  14.408 -10.020  1.00  0.00    -0.206 F 
ATOM     46  C   UNL     1       3.354  11.514 -10.611  1.00  0.00     0.006 A 
ENDBRANCH  25  39
BRANCH  26  47
ATOM     47  C   UNL     1       6.093  20.151  -1.552  1.00  0.00     0.057 A 
ATOM     48  C   UNL     1       5.140  20.725  -0.704  1.00  0.00     0.134 A 
ATOM     49  C   UNL     1       7.418  20.585  -1.424  1.00  0.00     0.134 A 
ATOM     50  F   UNL     1       3.852  20.360  -0.792  1.00  0.00    -0.206 F 
ATOM     51  C   UNL     1       5.488  21.706   0.225  1.00  0.00     0.040 A 
ATOM     52  C   UNL     1       7.785  21.545  -0.481  1.00  0.00     0.040 A 
ATOM     53  F   UNL     1       8.379  20.066  -2.203  1.00  0.00    -0.206 F 
ATOM     54  C   UNL     1       6.816  22.114   0.342  1.00  0.00     0.006 A 
ENDBRANCH  26  47
BRANCH  38  55
ATOM     55  C   UNL     1       2.515  20.294  -7.508  1.00  0.00     0.057 A 
ATOM     56  C   UNL     1       3.247  21.276  -8.188  1.00  0.00     0.134 A 
ATOM     57  C   UNL     1       1.119  20.375  -7.552  1.00  0.00     0.134 A 
ATOM     58  F   UNL     1       4.588  21.262  -8.167  1.00  0.00    -0.206 F 
ATOM     59  C   UNL     1       2.611  22.313  -8.872  1.00  0.00     0.040 A 
ATOM     60  C   UNL     1       0.472  21.394  -8.252  1.00  0.00     0.040 A 
ATOM     61  F   UNL     1       0.363  19.462  -6.924  1.00  0.00    -0.206 F 
ATOM     62  C   UNL     1       1.219  22.370  -8.909  1.00  0.00     0.006 A 
ENDBRANCH  38  55
ENDBRANCH  12  13
ENDBRANCH   5   7
ENDBRANCH   2   3
ENDBRANCH   1   2
BRANCH   1  63
ATOM     63  C   UNL     1       8.339   7.012   1.412  1.00  0.00     0.023 C 
BRANCH  63  64
ATOM     64  C   UNL     1       7.685   7.454   2.720  1.00  0.00     0.116 C 
BRANCH  64  65
ATOM     65  N   UNL     1       6.278   7.102   2.767  1.00  0.00    -0.351 N 
ATOM     66  C   UNL     1       5.694   5.972   3.291  1.00  0.00     0.283 C 
ATOM     67  H   UNL     1       5.660   7.759   2.371  1.00  0.00     0.163 HD
ATOM     68  O   UNL     1       4.490   5.810   3.072  1.00  0.00    -0.268 OA
BRANCH  66  69
ATOM     69  C   UNL     1       6.576   4.986   4.119  1.00  0.00     0.307 C 
BRANCH  69  70
ATOM     70  N   UNL     1       5.763   4.293   5.139  1.00  0.00    -0.318 N 
ATOM     71  C   UNL     1       5.006   3.100   4.726  1.00  0.00     0.284 C 
ATOM     72  C   UNL     1       6.437   4.070   6.428  1.00  0.00     0.284 C 
ATOM     73  H   UNL     1       5.048   5.007   5.276  1.00  0.00     0.349 HD
ATOM     74  C   UNL     1       5.753   1.743   4.844  1.00  0.00     0.178 C 
ATOM     75  C   UNL     1       7.245   2.762   6.544  1.00  0.00     0.178 C 
ATOM     76  N   UNL     1       6.408   1.623   6.152  1.00  0.00    -0.360 N 
BRANCH  76  77
ATOM     77  C   UNL     1       6.850   0.373   6.560  1.00  0.00     0.038 A 
ATOM     78  C   UNL     1       6.514  -0.072   7.846  1.00  0.00     0.026 A 
ATOM     79  C   UNL     1       7.616  -0.466   5.744  1.00  0.00     0.046 A 
ATOM     80  C   UNL     1       6.897  -1.336   8.298  1.00  0.00     0.004 A 
ATOM     81  C   UNL     1       8.008  -1.726   6.199  1.00  0.00     0.043 A 
ATOM     82  C   UNL     1       7.645  -2.168   7.470  1.00  0.00     0.020 A 
ATOM     83  Cl  UNL     1       8.947  -2.748   5.180  1.00  0.00    -0.084 Cl
ENDBRANCH  76  77
ENDBRANCH  69  70
BRANCH  69  84
ATOM     84  C   UNL     1       7.379   4.091   3.207  1.00  0.00     0.044 A 
ATOM     85  C   UNL     1       6.920   3.376   2.110  1.00  0.00     0.094 A 
ATOM     86  C   UNL     1       8.806   3.912   3.227  1.00  0.00     0.011 A 
ATOM     87  N   UNL     1       7.970   2.709   1.546  1.00  0.00    -0.361 N 
ATOM     88  C   UNL     1       9.139   3.040   2.188  1.00  0.00     0.046 A 
ATOM     89  C   UNL     1       9.850   4.442   4.014  1.00  0.00     0.031 A 
ATOM     90  H   UNL     1       7.900   2.082   0.790  1.00  0.00     0.166 HD
ATOM     91  C   UNL     1      10.454   2.647   1.915  1.00  0.00     0.028 A 
ATOM     92  C   UNL     1      11.170   4.079   3.732  1.00  0.00     0.041 A 
ATOM     93  C   UNL     1      11.470   3.189   2.706  1.00  0.00     0.022 A 
ATOM     94  Cl  UNL     1      12.447   4.763   4.665  1.00  0.00    -0.084 Cl
ENDBRANCH  69  84
ENDBRANCH  66  69
ENDBRANCH  64  65
ENDBRANCH  63  64
ENDBRANCH   1  63
TORSDOF 14
