REMARK SMILES CCOc1cc([C@@H]2[NH2+][C@H](C(=O)NCCCCNC(=O)c3ccc(-c4c5nc(c(-c6c(F)cccc6F)c6ccc([nH]6)c(-c6c(F)cccc6F)c6nc(c(-c7c(F)cccc7F)c7ccc4[nH]7)C=C6)C=C5)cc3)CS2)ccc1OCc1ccc(Cl)cc1
REMARK SMILES IDX 13 1 12 2 10 3 11 4 9 6 7 7 8 8 75 9 74 12 6 13 4 14 5 15
REMARK SMILES IDX 78 16 77 17 76 18 3 19 2 20 1 21 79 22 80 23 81 24 82 25
REMARK SMILES IDX 87 26 83 27 86 28 84 29 85 30 14 31 15 32 16 33 17 34 18 35
REMARK SMILES IDX 19 37 20 38 21 39 73 40 22 41 72 42 23 43 24 44 25 45 66 46
REMARK SMILES IDX 26 47 71 48 65 49 67 50 27 51 70 52 64 53 63 54 28 56 54 57
REMARK SMILES IDX 37 58 53 59 38 60 41 61 52 62 68 63 39 64 40 65 51 67 69 68
REMARK SMILES IDX 42 69 29 70 30 71 35 72 31 73 32 74 34 75 36 76 33 77 55 78
REMARK SMILES IDX 56 79 61 80 57 81 58 82 60 83 62 84 59 85 43 86 44 87 49 88
REMARK SMILES IDX 45 89 46 90 48 91 50 92 47 93
REMARK H PARENT 12 5 8 10 8 11 17 36 67 55 41 66
REMARK Flexibility Score: inf
ROOT
ATOM      1  C   UNL     1       5.765  -2.738  -1.436  1.00  0.00     0.116 C 
ENDROOT
BRANCH   1   2
ATOM      2  N   UNL     1       6.465  -3.984  -1.690  1.00  0.00    -0.351 N 
ATOM      3  C   UNL     1       6.727  -4.644  -2.852  1.00  0.00     0.279 C 
ATOM      4  O   UNL     1       7.334  -5.717  -2.759  1.00  0.00    -0.268 OA
ATOM      5  H   UNL     1       6.810  -4.429  -0.882  1.00  0.00     0.163 HD
BRANCH   3   6
ATOM      6  C   UNL     1       6.340  -4.099  -4.237  1.00  0.00     0.283 C 
ATOM      7  C   UNL     1       4.589  -2.759  -5.275  1.00  0.00     0.274 C 
ATOM      8  N   UNL     1       4.880  -3.864  -4.343  1.00  0.00    -0.321 N 
ATOM      9  S   UNL     1       6.170  -2.258  -6.031  1.00  0.00    -0.088 SA
ATOM     10  H   UNL     1       4.428  -4.714  -4.683  1.00  0.00     0.348 HD
ATOM     11  H   UNL     1       4.522  -3.614  -3.421  1.00  0.00     0.348 HD
ATOM     12  C   UNL     1       7.137  -2.871  -4.634  1.00  0.00     0.151 C 
BRANCH   7  13
ATOM     13  C   UNL     1       3.839  -1.669  -4.498  1.00  0.00     0.024 A 
ATOM     14  C   UNL     1       2.073  -1.215  -2.840  1.00  0.00     0.161 A 
ATOM     15  C   UNL     1       2.588  -1.987  -3.895  1.00  0.00     0.061 A 
ATOM     16  C   UNL     1       2.806  -0.105  -2.415  1.00  0.00     0.161 A 
ATOM     17  C   UNL     1       3.934   0.318  -3.121  1.00  0.00     0.051 A 
ATOM     18  C   UNL     1       4.442  -0.449  -4.160  1.00  0.00     0.015 A 
BRANCH  14  19
ATOM     19  O   UNL     1       1.128  -1.779  -2.011  1.00  0.00    -0.490 OA
BRANCH  19  20
ATOM     20  C   UNL     1      -0.223  -1.546  -2.426  1.00  0.00     0.226 C 
ATOM     21  C   UNL     1      -1.131  -1.578  -1.192  1.00  0.00     0.049 C 
ENDBRANCH  19  20
ENDBRANCH  14  19
BRANCH  16  22
ATOM     22  O   UNL     1       2.727   0.470  -1.181  1.00  0.00    -0.485 OA
BRANCH  22  23
ATOM     23  C   UNL     1       1.477   0.960  -0.742  1.00  0.00     0.265 C 
BRANCH  23  24
ATOM     24  C   UNL     1       1.051   2.171  -1.515  1.00  0.00    -0.011 A 
ATOM     25  C   UNL     1       1.951   3.229  -1.700  1.00  0.00     0.009 A 
ATOM     26  C   UNL     1      -0.226   2.244  -2.077  1.00  0.00     0.009 A 
ATOM     27  C   UNL     1       1.603   4.319  -2.489  1.00  0.00     0.021 A 
ATOM     28  C   UNL     1      -0.573   3.331  -2.875  1.00  0.00     0.021 A 
ATOM     29  C   UNL     1       0.347   4.357  -3.086  1.00  0.00     0.041 A 
ATOM     30  Cl  UNL     1      -0.070   5.678  -4.105  1.00  0.00    -0.084 Cl
ENDBRANCH  23  24
ENDBRANCH  22  23
ENDBRANCH  16  22
ENDBRANCH   7  13
ENDBRANCH   3   6
ENDBRANCH   1   2
BRANCH   1  31
ATOM     31  C   UNL     1       4.404  -2.988  -0.794  1.00  0.00     0.023 C 
BRANCH  31  32
ATOM     32  C   UNL     1       4.050  -2.308   0.533  1.00  0.00     0.023 C 
BRANCH  32  33
ATOM     33  C   UNL     1       4.971  -1.249   1.126  1.00  0.00     0.116 C 
BRANCH  33  34
ATOM     34  N   UNL     1       4.835   0.095   0.579  1.00  0.00    -0.352 N 
ATOM     35  C   UNL     1       4.367   1.251   1.165  1.00  0.00     0.251 C 
ATOM     36  H   UNL     1       5.124   0.193  -0.357  1.00  0.00     0.163 HD
ATOM     37  O   UNL     1       4.337   2.320   0.554  1.00  0.00    -0.269 OA
BRANCH  35  38
ATOM     38  C   UNL     1       3.851   1.212   2.541  1.00  0.00     0.039 A 
ATOM     39  C   UNL     1       2.578   1.719   2.842  1.00  0.00     0.014 A 
ATOM     40  C   UNL     1       4.649   0.653   3.533  1.00  0.00     0.014 A 
ATOM     41  C   UNL     1       2.065   1.581   4.129  1.00  0.00     0.010 A 
ATOM     42  C   UNL     1       4.114   0.440   4.785  1.00  0.00     0.010 A 
ATOM     43  C   UNL     1       2.836   0.933   5.095  1.00  0.00    -0.014 A 
BRANCH  43  44
ATOM     44  C   UNL     1       2.466   0.909   6.518  1.00  0.00     0.031 A 
ATOM     45  C   UNL     1       3.320   1.726   7.440  1.00  0.00     0.074 A 
ATOM     46  C   UNL     1       1.532   0.051   6.955  1.00  0.00     0.049 A 
ATOM     47  N   UNL     1       3.464   1.641   8.732  1.00  0.00    -0.248 NA
ATOM     48  C   UNL     1       4.198   2.723   6.795  1.00  0.00     0.031 C 
ATOM     49  C   UNL     1       0.683  -0.786   6.106  1.00  0.00     0.029 A 
ATOM     50  N   UNL     1       1.181  -0.294   8.230  1.00  0.00    -0.354 N 
ATOM     51  C   UNL     1       4.484   2.532   9.045  1.00  0.00     0.074 A 
ATOM     52  C   UNL     1       4.960   3.102   7.807  1.00  0.00     0.031 C 
ATOM     53  C   UNL     1      -0.084  -1.564   6.889  1.00  0.00     0.029 A 
ATOM     54  C   UNL     1       0.258  -1.310   8.284  1.00  0.00     0.049 A 
ATOM     55  H   UNL     1       1.553   0.142   9.030  1.00  0.00     0.167 HD
ATOM     56  C   UNL     1       4.962   2.848  10.269  1.00  0.00     0.037 A 
ATOM     57  C   UNL     1      -0.221  -1.969   9.354  1.00  0.00     0.037 A 
ATOM     58  C   UNL     1       4.431   2.273  11.475  1.00  0.00     0.049 A 
ATOM     59  C   UNL     1       0.301  -1.576  10.710  1.00  0.00     0.074 A 
ATOM     60  C   UNL     1       4.769   2.540  12.786  1.00  0.00     0.029 A 
ATOM     61  N   UNL     1       3.429   1.310  11.501  1.00  0.00    -0.354 N 
ATOM     62  N   UNL     1       1.237  -0.706  11.015  1.00  0.00    -0.248 NA
ATOM     63  C   UNL     1      -0.301  -2.245  11.868  1.00  0.00     0.031 C 
ATOM     64  C   UNL     1       3.998   1.709  13.605  1.00  0.00     0.029 A 
ATOM     65  C   UNL     1       3.140   0.964  12.807  1.00  0.00     0.049 A 
ATOM     66  H   UNL     1       2.990   0.930  10.706  1.00  0.00     0.167 HD
ATOM     67  C   UNL     1       1.316  -0.697  12.401  1.00  0.00     0.074 A 
ATOM     68  C   UNL     1       0.319  -1.641  12.872  1.00  0.00     0.031 C 
ATOM     69  C   UNL     1       2.131   0.018  13.217  1.00  0.00     0.037 A 
BRANCH  56  70
ATOM     70  C   UNL     1       6.093   3.834  10.342  1.00  0.00     0.057 A 
ATOM     71  C   UNL     1       5.940   5.174   9.956  1.00  0.00     0.134 A 
ATOM     72  C   UNL     1       7.360   3.439  10.790  1.00  0.00     0.134 A 
ATOM     73  F   UNL     1       4.761   5.619   9.496  1.00  0.00    -0.206 F 
ATOM     74  C   UNL     1       7.009   6.072   9.979  1.00  0.00     0.040 A 
ATOM     75  C   UNL     1       8.429   4.337  10.850  1.00  0.00     0.040 A 
ATOM     76  F   UNL     1       7.585   2.173  11.171  1.00  0.00    -0.206 F 
ATOM     77  C   UNL     1       8.258   5.656  10.434  1.00  0.00     0.006 A 
ENDBRANCH  56  70
BRANCH  57  78
ATOM     78  C   UNL     1      -1.258  -3.018   9.184  1.00  0.00     0.057 A 
ATOM     79  C   UNL     1      -2.573  -2.799   9.611  1.00  0.00     0.134 A 
ATOM     80  C   UNL     1      -0.980  -4.244   8.566  1.00  0.00     0.134 A 
ATOM     81  F   UNL     1      -2.902  -1.649  10.217  1.00  0.00    -0.206 F 
ATOM     82  C   UNL     1      -3.569  -3.764   9.448  1.00  0.00     0.040 A 
ATOM     83  C   UNL     1      -1.972  -5.208   8.373  1.00  0.00     0.040 A 
ATOM     84  F   UNL     1       0.255  -4.513   8.118  1.00  0.00    -0.206 F 
ATOM     85  C   UNL     1      -3.271  -4.971   8.821  1.00  0.00     0.006 A 
ENDBRANCH  57  78
BRANCH  69  86
ATOM     86  C   UNL     1       1.936  -0.171  14.691  1.00  0.00     0.057 A 
ATOM     87  C   UNL     1       2.325  -1.347  15.344  1.00  0.00     0.134 A 
ATOM     88  C   UNL     1       1.385   0.855  15.469  1.00  0.00     0.134 A 
ATOM     89  F   UNL     1       2.848  -2.369  14.650  1.00  0.00    -0.206 F 
ATOM     90  C   UNL     1       2.142  -1.508  16.717  1.00  0.00     0.040 A 
ATOM     91  C   UNL     1       1.228   0.719  16.846  1.00  0.00     0.040 A 
ATOM     92  F   UNL     1       1.006   2.011  14.903  1.00  0.00    -0.206 F 
ATOM     93  C   UNL     1       1.599  -0.469  17.473  1.00  0.00     0.006 A 
ENDBRANCH  69  86
ENDBRANCH  43  44
ENDBRANCH  35  38
ENDBRANCH  33  34
ENDBRANCH  32  33
ENDBRANCH  31  32
ENDBRANCH   1  31
TORSDOF 17
