REMARK SMILES C[NH+]1CCN(c2ccc(C(=O)N3C[C@@H](C(=O)NCCCCNC(=O)c4ccc(-c5c6nc(c(-c7c(F)cccc7F)c7ccc([nH]7)c(-c7c(F)cccc7F)c7nc(c(-c8c(F)cccc8F)c8ccc5[nH]8)C=C7)C=C6)cc4)[C@H](C4CC4)C3)cc2)CC1
REMARK SMILES IDX 19 1 18 2 17 3 15 4 16 5 14 7 12 8 13 9 83 10 79 11 10 12
REMARK SMILES IDX 11 13 9 14 6 15 7 16 85 17 8 18 84 19 5 20 1 21 2 22 3 23
REMARK SMILES IDX 87 24 4 26 86 27 80 28 81 29 82 30 20 31 21 32 22 33 23 34
REMARK SMILES IDX 24 36 25 37 26 38 78 39 27 40 77 41 28 42 29 43 30 44 71 45
REMARK SMILES IDX 31 46 76 47 70 48 72 49 32 50 75 51 69 52 68 53 33 55 59 56
REMARK SMILES IDX 42 57 58 58 43 59 46 60 57 61 73 62 44 63 45 64 56 66 74 67
REMARK SMILES IDX 47 68 34 69 35 70 40 71 36 72 37 73 39 74 41 75 38 76 60 77
REMARK SMILES IDX 61 78 66 79 62 80 63 81 65 82 67 83 64 84 48 85 49 86 54 87
REMARK SMILES IDX 50 88 51 89 53 90 55 91 52 92
REMARK H PARENT 17 6 2 25 22 35 72 54 46 65
REMARK Flexibility Score: inf
ROOT
ATOM      1  C   UNL     1      -2.212  -0.982   6.714  1.00  0.00     0.023 C 
ENDROOT
BRANCH   1   2
ATOM      2  C   UNL     1      -3.273  -2.072   6.607  1.00  0.00     0.116 C 
BRANCH   2   3
ATOM      3  N   UNL     1      -4.394  -1.848   7.505  1.00  0.00    -0.356 N 
ATOM      4  C   UNL     1      -5.735  -1.820   7.232  1.00  0.00     0.225 C 
ATOM      5  O   UNL     1      -6.521  -1.691   8.169  1.00  0.00    -0.275 OA
ATOM      6  H   UNL     1      -4.154  -1.693   8.447  1.00  0.00     0.163 HD
BRANCH   4   7
ATOM      7  C   UNL     1      -6.182  -1.907   5.793  1.00  0.00     0.103 C 
ATOM      8  N   UNL     1      -7.054  -0.722   4.013  1.00  0.00    -0.338 N 
ATOM      9  C   UNL     1      -6.213  -0.518   5.176  1.00  0.00     0.133 C 
ATOM     10  C   UNL     1      -8.129  -1.637   4.344  1.00  0.00     0.124 C 
ATOM     11  C   UNL     1      -7.619  -2.433   5.571  1.00  0.00     0.026 C 
BRANCH   8  12
ATOM     12  C   UNL     1      -6.899  -0.271   2.717  1.00  0.00     0.253 C 
ATOM     13  O   UNL     1      -7.852  -0.147   1.950  1.00  0.00    -0.269 OA
BRANCH  12  14
ATOM     14  C   UNL     1      -5.527  -0.071   2.173  1.00  0.00     0.040 A 
ATOM     15  C   UNL     1      -3.002   0.056   0.883  1.00  0.00     0.037 A 
ATOM     16  C   UNL     1      -4.064   0.875   0.480  1.00  0.00     0.027 A 
ATOM     17  C   UNL     1      -3.231  -0.815   1.954  1.00  0.00     0.027 A 
ATOM     18  C   UNL     1      -5.319   0.809   1.109  1.00  0.00     0.016 A 
ATOM     19  C   UNL     1      -4.477  -0.899   2.573  1.00  0.00     0.016 A 
BRANCH  15  20
ATOM     20  N   UNL     1      -1.772   0.069   0.270  1.00  0.00    -0.360 N 
ATOM     21  C   UNL     1       2.456   0.050   0.064  1.00  0.00     0.332 C 
ATOM     22  N   UNL     1       1.058   0.041  -0.366  1.00  0.00    -0.334 N 
ATOM     23  C   UNL     1       0.363   1.269   0.091  1.00  0.00     0.283 C 
ATOM     24  C   UNL     1       0.367  -1.153   0.174  1.00  0.00     0.283 C 
ATOM     25  H   UNL     1       1.036   0.011  -1.385  1.00  0.00     0.347 HD
ATOM     26  C   UNL     1      -1.150   1.287  -0.251  1.00  0.00     0.178 C 
ATOM     27  C   UNL     1      -1.137  -1.181  -0.171  1.00  0.00     0.178 C 
ENDBRANCH  15  20
ENDBRANCH  12  14
ENDBRANCH   8  12
BRANCH  11  28
ATOM     28  C   UNL     1      -7.743  -3.925   5.336  1.00  0.00    -0.005 C 
ATOM     29  C   UNL     1      -6.727  -4.755   4.582  1.00  0.00     0.004 C 
ATOM     30  C   UNL     1      -6.889  -4.932   6.068  1.00  0.00     0.004 C 
ENDBRANCH  11  28
ENDBRANCH   4   7
ENDBRANCH   2   3
ENDBRANCH   1   2
BRANCH   1  31
ATOM     31  C   UNL     1      -1.516  -0.884   8.071  1.00  0.00     0.023 C 
BRANCH  31  32
ATOM     32  C   UNL     1      -0.882  -2.175   8.580  1.00  0.00     0.116 C 
BRANCH  32  33
ATOM     33  N   UNL     1       0.138  -2.703   7.687  1.00  0.00    -0.352 N 
ATOM     34  C   UNL     1       1.418  -3.117   7.973  1.00  0.00     0.251 C 
ATOM     35  H   UNL     1      -0.126  -2.776   6.742  1.00  0.00     0.163 HD
ATOM     36  O   UNL     1       2.183  -3.422   7.063  1.00  0.00    -0.269 OA
BRANCH  34  37
ATOM     37  C   UNL     1       1.886  -3.156   9.375  1.00  0.00     0.039 A 
ATOM     38  C   UNL     1       3.128  -2.595   9.686  1.00  0.00     0.014 A 
ATOM     39  C   UNL     1       1.099  -3.721  10.383  1.00  0.00     0.014 A 
ATOM     40  C   UNL     1       3.541  -2.522  11.018  1.00  0.00     0.010 A 
ATOM     41  C   UNL     1       1.480  -3.584  11.716  1.00  0.00     0.010 A 
ATOM     42  C   UNL     1       2.699  -2.973  12.048  1.00  0.00    -0.014 A 
BRANCH  42  43
ATOM     43  C   UNL     1       3.060  -2.786  13.477  1.00  0.00     0.031 A 
ATOM     44  C   UNL     1       3.283  -3.975  14.368  1.00  0.00     0.074 A 
ATOM     45  C   UNL     1       3.112  -1.541  13.990  1.00  0.00     0.049 A 
ATOM     46  N   UNL     1       3.526  -4.009  15.654  1.00  0.00    -0.248 NA
ATOM     47  C   UNL     1       3.196  -5.301  13.737  1.00  0.00     0.031 C 
ATOM     48  C   UNL     1       2.868  -0.305  13.243  1.00  0.00     0.029 A 
ATOM     49  N   UNL     1       3.374  -1.109  15.267  1.00  0.00    -0.354 N 
ATOM     50  C   UNL     1       3.608  -5.355  15.988  1.00  0.00     0.074 A 
ATOM     51  C   UNL     1       3.340  -6.106  14.780  1.00  0.00     0.031 C 
ATOM     52  C   UNL     1       3.011   0.744  14.068  1.00  0.00     0.029 A 
ATOM     53  C   UNL     1       3.316   0.257  15.410  1.00  0.00     0.049 A 
ATOM     54  H   UNL     1       3.583  -1.720  16.010  1.00  0.00     0.167 HD
ATOM     55  C   UNL     1       3.900  -5.914  17.186  1.00  0.00     0.037 A 
ATOM     56  C   UNL     1       3.478   1.030  16.500  1.00  0.00     0.037 A 
ATOM     57  C   UNL     1       4.188  -5.166  18.383  1.00  0.00     0.049 A 
ATOM     58  C   UNL     1       3.788   0.384  17.822  1.00  0.00     0.074 A 
ATOM     59  C   UNL     1       4.559  -5.642  19.628  1.00  0.00     0.029 A 
ATOM     60  N   UNL     1       4.130  -3.784  18.484  1.00  0.00    -0.354 N 
ATOM     61  N   UNL     1       3.933  -0.887  18.106  1.00  0.00    -0.248 NA
ATOM     62  C   UNL     1       3.960   1.281  18.973  1.00  0.00     0.031 C 
ATOM     63  C   UNL     1       4.682  -4.551  20.495  1.00  0.00     0.029 A 
ATOM     64  C   UNL     1       4.434  -3.392  19.777  1.00  0.00     0.049 A 
ATOM     65  H   UNL     1       3.907  -3.172  17.745  1.00  0.00     0.167 HD
ATOM     66  C   UNL     1       4.237  -0.942  19.460  1.00  0.00     0.074 A 
ATOM     67  C   UNL     1       4.271   0.425  19.937  1.00  0.00     0.031 C 
ATOM     68  C   UNL     1       4.467  -2.027  20.238  1.00  0.00     0.037 A 
BRANCH  55  69
ATOM     69  C   UNL     1       3.928  -7.413  17.263  1.00  0.00     0.057 A 
ATOM     70  C   UNL     1       4.942  -8.165  16.654  1.00  0.00     0.134 A 
ATOM     71  C   UNL     1       2.952  -8.111  17.985  1.00  0.00     0.134 A 
ATOM     72  F   UNL     1       5.901  -7.558  15.938  1.00  0.00    -0.206 F 
ATOM     73  C   UNL     1       4.970  -9.557  16.740  1.00  0.00     0.040 A 
ATOM     74  C   UNL     1       2.985  -9.502  18.100  1.00  0.00     0.040 A 
ATOM     75  F   UNL     1       1.957  -7.453  18.598  1.00  0.00    -0.206 F 
ATOM     76  C   UNL     1       3.993 -10.229  17.471  1.00  0.00     0.006 A 
ENDBRANCH  55  69
BRANCH  56  77
ATOM     77  C   UNL     1       3.367   2.506  16.388  1.00  0.00     0.057 A 
ATOM     78  C   UNL     1       4.494   3.326  16.519  1.00  0.00     0.134 A 
ATOM     79  C   UNL     1       2.136   3.132  16.156  1.00  0.00     0.134 A 
ATOM     80  F   UNL     1       5.697   2.785  16.761  1.00  0.00    -0.206 F 
ATOM     81  C   UNL     1       4.399   4.716  16.443  1.00  0.00     0.040 A 
ATOM     82  C   UNL     1       2.031   4.520  16.053  1.00  0.00     0.040 A 
ATOM     83  F   UNL     1       1.020   2.402  16.014  1.00  0.00    -0.206 F 
ATOM     84  C   UNL     1       3.165   5.317  16.204  1.00  0.00     0.006 A 
ENDBRANCH  56  77
BRANCH  68  85
ATOM     85  C   UNL     1       4.804  -1.780  21.680  1.00  0.00     0.057 A 
ATOM     86  C   UNL     1       3.838  -1.358  22.602  1.00  0.00     0.134 A 
ATOM     87  C   UNL     1       6.101  -2.006  22.158  1.00  0.00     0.134 A 
ATOM     88  F   UNL     1       2.581  -1.110  22.204  1.00  0.00    -0.206 F 
ATOM     89  C   UNL     1       4.156  -1.148  23.945  1.00  0.00     0.040 A 
ATOM     90  C   UNL     1       6.424  -1.825  23.503  1.00  0.00     0.040 A 
ATOM     91  F   UNL     1       7.071  -2.419  21.328  1.00  0.00    -0.206 F 
ATOM     92  C   UNL     1       5.451  -1.390  24.400  1.00  0.00     0.006 A 
ENDBRANCH  68  85
ENDBRANCH  42  43
ENDBRANCH  34  37
ENDBRANCH  32  33
ENDBRANCH  31  32
ENDBRANCH   1  31
TORSDOF 15
