REMARK SMILES CC[C@@](C)(NC(=O)Nc1c(C)cccc1Cl)C(=O)NCCCCNC(=O)c1ccc(-c2c3nc(c(-c4c(F)cccc4F)c4ccc([nH]4)c(-c4c(F)cccc4F)c4nc(c(-c5c(F)cccc5F)c5ccc2[nH]5)C=C4)C=C3)cc1
REMARK SMILES IDX 21 1 20 2 19 3 17 4 18 5 3 7 4 8 2 9 1 10 5 11 6 12 7 14
REMARK SMILES IDX 8 15 9 17 10 18 15 19 11 20 12 21 14 22 16 23 13 24 22 25
REMARK SMILES IDX 23 26 24 27 25 28 26 30 27 31 28 32 80 33 29 34 79 35 30 36
REMARK SMILES IDX 31 37 32 38 73 39 33 40 78 41 72 42 74 43 34 44 77 45 71 46
REMARK SMILES IDX 70 47 35 49 61 50 44 51 60 52 45 53 48 54 59 55 75 56 46 57
REMARK SMILES IDX 47 58 58 60 76 61 49 62 36 63 37 64 42 65 38 66 39 67 41 68
REMARK SMILES IDX 43 69 40 70 62 71 63 72 68 73 64 74 65 75 67 76 69 77 66 78
REMARK SMILES IDX 50 79 51 80 56 81 52 82 53 83 55 84 57 85 54 86
REMARK H PARENT 19 6 5 13 8 16 24 29 74 48 48 59
REMARK Flexibility Score: inf
ROOT
ATOM      1  C   UNL     1       2.070   6.598  -0.512  1.00  0.00     0.023 C 
ENDROOT
BRANCH   1   2
ATOM      2  C   UNL     1       1.141   5.629  -1.282  1.00  0.00     0.116 C 
BRANCH   2   3
ATOM      3  N   UNL     1       1.589   4.248  -1.373  1.00  0.00    -0.354 N 
ATOM      4  C   UNL     1       0.911   3.038  -1.181  1.00  0.00     0.245 C 
ATOM      5  O   UNL     1       0.812   2.213  -2.090  1.00  0.00    -0.272 OA
ATOM      6  H   UNL     1       2.538   4.146  -1.612  1.00  0.00     0.163 HD
BRANCH   4   7
ATOM      7  C   UNL     1       0.240   2.802   0.181  1.00  0.00     0.117 C 
ATOM      8  C   UNL     1      -1.231   3.197  -0.121  1.00  0.00     0.045 C 
BRANCH   7   9
ATOM      9  C   UNL     1       0.202   1.425   0.894  1.00  0.00     0.035 C 
ATOM     10  C   UNL     1       0.422   0.167   0.084  1.00  0.00     0.007 C 
ENDBRANCH   7   9
BRANCH   7  11
ATOM     11  N   UNL     1       0.909   3.735   1.073  1.00  0.00    -0.324 N 
ATOM     12  C   UNL     1       2.182   3.886   1.425  1.00  0.00     0.320 C 
ATOM     13  H   UNL     1       0.301   4.381   1.500  1.00  0.00     0.166 HD
ATOM     14  O   UNL     1       2.357   4.701   2.346  1.00  0.00    -0.248 OA
ATOM     15  N   UNL     1       3.300   3.284   1.002  1.00  0.00    -0.306 N 
ATOM     16  H   UNL     1       4.011   3.739   1.509  1.00  0.00     0.171 HD
BRANCH  15  17
ATOM     17  C   UNL     1       4.017   2.328   0.203  1.00  0.00     0.064 A 
ATOM     18  C   UNL     1       4.035   1.934  -1.168  1.00  0.00    -0.026 A 
ATOM     19  C   UNL     1       5.053   1.721   0.991  1.00  0.00     0.064 A 
ATOM     20  C   UNL     1       3.819   2.768  -2.426  1.00  0.00     0.046 C 
ATOM     21  C   UNL     1       4.765   0.766  -1.548  1.00  0.00     0.005 A 
ATOM     22  C   UNL     1       5.876   0.683   0.545  1.00  0.00     0.023 A 
ATOM     23  Cl  UNL     1       5.400   2.285   2.611  1.00  0.00    -0.082 Cl
ATOM     24  C   UNL     1       5.683   0.157  -0.711  1.00  0.00     0.002 A 
ENDBRANCH  15  17
ENDBRANCH   7  11
ENDBRANCH   4   7
ENDBRANCH   2   3
ENDBRANCH   1   2
BRANCH   1  25
ATOM     25  C   UNL     1       3.601   6.504  -0.637  1.00  0.00     0.023 C 
BRANCH  25  26
ATOM     26  C   UNL     1       4.233   6.544  -2.025  1.00  0.00     0.116 C 
BRANCH  26  27
ATOM     27  N   UNL     1       3.857   7.688  -2.824  1.00  0.00    -0.352 N 
ATOM     28  C   UNL     1       4.616   8.552  -3.563  1.00  0.00     0.251 C 
ATOM     29  H   UNL     1       2.891   7.878  -2.838  1.00  0.00     0.163 HD
ATOM     30  O   UNL     1       4.039   9.457  -4.188  1.00  0.00    -0.269 OA
BRANCH  28  31
ATOM     31  C   UNL     1       6.096   8.487  -3.618  1.00  0.00     0.039 A 
ATOM     32  C   UNL     1       6.799   9.696  -3.533  1.00  0.00     0.014 A 
ATOM     33  C   UNL     1       6.807   7.299  -3.818  1.00  0.00     0.014 A 
ATOM     34  C   UNL     1       8.196   9.714  -3.595  1.00  0.00     0.010 A 
ATOM     35  C   UNL     1       8.210   7.312  -3.829  1.00  0.00     0.010 A 
ATOM     36  C   UNL     1       8.921   8.519  -3.712  1.00  0.00    -0.014 A 
BRANCH  36  37
ATOM     37  C   UNL     1      10.412   8.532  -3.687  1.00  0.00     0.031 A 
ATOM     38  C   UNL     1      11.215   8.129  -4.895  1.00  0.00     0.074 A 
ATOM     39  C   UNL     1      11.056   8.885  -2.555  1.00  0.00     0.049 A 
ATOM     40  N   UNL     1      12.516   8.044  -5.035  1.00  0.00    -0.248 NA
ATOM     41  C   UNL     1      10.458   7.757  -6.098  1.00  0.00     0.031 C 
ATOM     42  C   UNL     1      10.406   9.273  -1.302  1.00  0.00     0.029 A 
ATOM     43  N   UNL     1      12.398   8.966  -2.270  1.00  0.00    -0.354 N 
ATOM     44  C   UNL     1      12.732   7.604  -6.335  1.00  0.00     0.074 A 
ATOM     45  C   UNL     1      11.427   7.396  -6.928  1.00  0.00     0.031 C 
ATOM     46  C   UNL     1      11.347   9.563  -0.390  1.00  0.00     0.029 A 
ATOM     47  C   UNL     1      12.666   9.346  -0.977  1.00  0.00     0.049 A 
ATOM     48  H   UNL     1      13.101   8.770  -2.931  1.00  0.00     0.167 HD
ATOM     49  C   UNL     1      13.908   7.409  -6.984  1.00  0.00     0.037 A 
ATOM     50  C   UNL     1      13.838   9.492  -0.328  1.00  0.00     0.037 A 
ATOM     51  C   UNL     1      15.209   7.625  -6.401  1.00  0.00     0.049 A 
ATOM     52  C   UNL     1      15.127   9.242  -1.061  1.00  0.00     0.074 A 
ATOM     53  C   UNL     1      16.452   7.494  -6.997  1.00  0.00     0.029 A 
ATOM     54  N   UNL     1      15.435   8.013  -5.089  1.00  0.00    -0.354 N 
ATOM     55  N   UNL     1      15.314   8.880  -2.307  1.00  0.00    -0.248 NA
ATOM     56  C   UNL     1      16.371   9.427  -0.298  1.00  0.00     0.031 C 
ATOM     57  C   UNL     1      17.432   7.755  -6.032  1.00  0.00     0.029 A 
ATOM     58  C   UNL     1      16.799   8.102  -4.851  1.00  0.00     0.049 A 
ATOM     59  H   UNL     1      14.732   8.197  -4.425  1.00  0.00     0.167 HD
ATOM     60  C   UNL     1      16.691   8.823  -2.485  1.00  0.00     0.074 A 
ATOM     61  C   UNL     1      17.292   9.201  -1.224  1.00  0.00     0.031 C 
ATOM     62  C   UNL     1      17.391   8.486  -3.595  1.00  0.00     0.037 A 
BRANCH  49  63
ATOM     63  C   UNL     1      13.844   6.931  -8.408  1.00  0.00     0.057 A 
ATOM     64  C   UNL     1      13.396   7.760  -9.445  1.00  0.00     0.134 A 
ATOM     65  C   UNL     1      14.281   5.646  -8.754  1.00  0.00     0.134 A 
ATOM     66  F   UNL     1      12.959   9.001  -9.183  1.00  0.00    -0.206 F 
ATOM     67  C   UNL     1      13.358   7.319 -10.769  1.00  0.00     0.040 A 
ATOM     68  C   UNL     1      14.274   5.203 -10.078  1.00  0.00     0.040 A 
ATOM     69  F   UNL     1      14.735   4.803  -7.814  1.00  0.00    -0.206 F 
ATOM     70  C   UNL     1      13.804   6.038 -11.090  1.00  0.00     0.006 A 
ENDBRANCH  49  63
BRANCH  50  71
ATOM     71  C   UNL     1      13.850   9.901   1.100  1.00  0.00     0.057 A 
ATOM     72  C   UNL     1      14.327  11.158   1.491  1.00  0.00     0.134 A 
ATOM     73  C   UNL     1      13.402   9.040   2.110  1.00  0.00     0.134 A 
ATOM     74  F   UNL     1      14.791  12.018   0.573  1.00  0.00    -0.206 F 
ATOM     75  C   UNL     1      14.376  11.537   2.833  1.00  0.00     0.040 A 
ATOM     76  C   UNL     1      13.419   9.417   3.454  1.00  0.00     0.040 A 
ATOM     77  F   UNL     1      12.929   7.823   1.802  1.00  0.00    -0.206 F 
ATOM     78  C   UNL     1      13.916  10.666   3.819  1.00  0.00     0.006 A 
ENDBRANCH  50  71
BRANCH  62  79
ATOM     79  C   UNL     1      18.890   8.548  -3.510  1.00  0.00     0.057 A 
ATOM     80  C   UNL     1      19.631   7.615  -2.773  1.00  0.00     0.134 A 
ATOM     81  C   UNL     1      19.602   9.535  -4.204  1.00  0.00     0.134 A 
ATOM     82  F   UNL     1      19.011   6.653  -2.074  1.00  0.00    -0.206 F 
ATOM     83  C   UNL     1      21.025   7.676  -2.711  1.00  0.00     0.040 A 
ATOM     84  C   UNL     1      20.997   9.589  -4.172  1.00  0.00     0.040 A 
ATOM     85  F   UNL     1      18.956  10.455  -4.936  1.00  0.00    -0.206 F 
ATOM     86  C   UNL     1      21.712   8.662  -3.418  1.00  0.00     0.006 A 
ENDBRANCH  62  79
ENDBRANCH  36  37
ENDBRANCH  28  31
ENDBRANCH  26  27
ENDBRANCH  25  26
ENDBRANCH   1  25
TORSDOF 14
