REMARK SMILES CCSc1nc(CC(=O)N[C@@H](C(=O)NCCCCNC(=O)c2ccc(-c3c4nc(c(-c5c(F)cccc5F)c5ccc([nH]5)c(-c5c(F)cccc5F)c5nc(c(-c6c(F)cccc6F)c6ccc3[nH]6)C=C5)C=C4)cc2)C2=C(C)N=N[C@@H]2C)cs1
REMARK SMILES IDX 15 1 14 2 12 3 13 4 11 6 10 7 8 8 9 9 7 11 6 12 4 13 5 14
REMARK SMILES IDX 84 15 83 16 3 17 2 18 1 19 76 20 77 21 81 22 78 23 79 24
REMARK SMILES IDX 80 25 82 26 16 27 17 28 18 29 19 30 20 31 21 33 22 34 23 35
REMARK SMILES IDX 75 36 24 37 74 38 25 39 26 40 27 41 68 42 28 43 73 44 67 45
REMARK SMILES IDX 69 46 29 47 72 48 66 49 65 50 30 52 56 53 39 54 55 55 40 56
REMARK SMILES IDX 43 57 54 58 70 59 41 60 42 61 53 63 71 64 44 65 31 66 32 67
REMARK SMILES IDX 37 68 33 69 34 70 36 71 38 72 35 73 57 74 58 75 63 76 59 77
REMARK SMILES IDX 60 78 62 79 64 80 61 81 45 82 46 83 51 84 47 85 48 86 50 87
REMARK SMILES IDX 52 88 49 89
REMARK H PARENT 14 5 10 10 19 32 69 51 43 62
REMARK Flexibility Score: inf
ROOT
ATOM      1  C   UNL     1       5.197  -0.530  -4.506  1.00  0.00     0.116 C 
ENDROOT
BRANCH   1   2
ATOM      2  N   UNL     1       4.587  -1.147  -5.657  1.00  0.00    -0.354 N 
ATOM      3  C   UNL     1       4.088  -2.421  -5.751  1.00  0.00     0.247 C 
ATOM      4  O   UNL     1       3.066  -2.528  -6.440  1.00  0.00    -0.272 OA
ATOM      5  H   UNL     1       4.520  -0.591  -6.467  1.00  0.00     0.163 HD
BRANCH   3   6
ATOM      6  C   UNL     1       4.724  -3.668  -5.003  1.00  0.00     0.202 C 
BRANCH   6   7
ATOM      7  N   UNL     1       6.128  -3.481  -4.629  1.00  0.00    -0.340 N 
ATOM      8  C   UNL     1       6.709  -3.339  -3.400  1.00  0.00     0.226 C 
ATOM      9  O   UNL     1       7.889  -2.977  -3.368  1.00  0.00    -0.275 OA
ATOM     10  H   UNL     1       6.756  -3.451  -5.387  1.00  0.00     0.164 HD
BRANCH   8  11
ATOM     11  C   UNL     1       5.951  -3.601  -2.106  1.00  0.00     0.157 C 
BRANCH  11  12
ATOM     12  C   UNL     1       5.067  -2.474  -1.688  1.00  0.00     0.062 A 
ATOM     13  C   UNL     1       3.060  -1.509  -1.574  1.00  0.00     0.150 A 
ATOM     14  N   UNL     1       3.720  -2.562  -2.002  1.00  0.00    -0.234 NA
ATOM     15  S   UNL     1       4.030  -0.329  -0.797  1.00  0.00    -0.116 S 
ATOM     16  C   UNL     1       5.415  -1.320  -1.013  1.00  0.00     0.092 A 
BRANCH  13  17
ATOM     17  S   UNL     1       1.345  -1.430  -1.911  1.00  0.00    -0.096 SA
BRANCH  17  18
ATOM     18  C   UNL     1       0.750   0.079  -1.114  1.00  0.00     0.074 C 
ATOM     19  C   UNL     1       0.601  -0.079   0.389  1.00  0.00     0.016 C 
ENDBRANCH  17  18
ENDBRANCH  13  17
ENDBRANCH  11  12
ENDBRANCH   8  11
ENDBRANCH   6   7
BRANCH   6  20
ATOM     20  C   UNL     1       4.666  -4.922  -5.846  1.00  0.00     0.011 C 
ATOM     21  C   UNL     1       4.857  -6.208  -5.514  1.00  0.00     0.064 C 
ATOM     22  C   UNL     1       4.264  -4.977  -7.293  1.00  0.00     0.156 C 
ATOM     23  C   UNL     1       5.232  -6.818  -4.211  1.00  0.00     0.069 C 
ATOM     24  N   UNL     1       4.651  -7.070  -6.562  1.00  0.00    -0.160 NA
ATOM     25  N   UNL     1       4.308  -6.436  -7.592  1.00  0.00    -0.181 NA
ATOM     26  C   UNL     1       5.213  -4.283  -8.261  1.00  0.00     0.040 C 
ENDBRANCH   6  20
ENDBRANCH   3   6
ENDBRANCH   1   2
BRANCH   1  27
ATOM     27  C   UNL     1       6.350   0.410  -4.819  1.00  0.00     0.023 C 
BRANCH  27  28
ATOM     28  C   UNL     1       5.935   1.816  -5.246  1.00  0.00     0.023 C 
BRANCH  28  29
ATOM     29  C   UNL     1       4.995   2.556  -4.295  1.00  0.00     0.116 C 
BRANCH  29  30
ATOM     30  N   UNL     1       5.481   2.654  -2.925  1.00  0.00    -0.352 N 
ATOM     31  C   UNL     1       5.453   3.739  -2.072  1.00  0.00     0.251 C 
ATOM     32  H   UNL     1       5.885   1.835  -2.558  1.00  0.00     0.163 HD
ATOM     33  O   UNL     1       5.943   3.675  -0.959  1.00  0.00    -0.269 OA
BRANCH  31  34
ATOM     34  C   UNL     1       4.860   5.004  -2.557  1.00  0.00     0.039 A 
ATOM     35  C   UNL     1       5.649   6.157  -2.558  1.00  0.00     0.014 A 
ATOM     36  C   UNL     1       3.574   5.019  -3.101  1.00  0.00     0.014 A 
ATOM     37  C   UNL     1       5.192   7.299  -3.219  1.00  0.00     0.010 A 
ATOM     38  C   UNL     1       3.147   6.137  -3.811  1.00  0.00     0.010 A 
ATOM     39  C   UNL     1       3.967   7.272  -3.907  1.00  0.00    -0.014 A 
BRANCH  39  40
ATOM     40  C   UNL     1       3.562   8.380  -4.808  1.00  0.00     0.031 A 
ATOM     41  C   UNL     1       2.336   9.192  -4.513  1.00  0.00     0.074 A 
ATOM     42  C   UNL     1       4.243   8.578  -5.954  1.00  0.00     0.049 A 
ATOM     43  N   UNL     1       1.757  10.107  -5.247  1.00  0.00    -0.248 NA
ATOM     44  C   UNL     1       1.657   8.920  -3.237  1.00  0.00     0.031 C 
ATOM     45  C   UNL     1       5.423   7.822  -6.380  1.00  0.00     0.029 A 
ATOM     46  N   UNL     1       4.026   9.459  -6.984  1.00  0.00    -0.354 N 
ATOM     47  C   UNL     1       0.639  10.512  -4.531  1.00  0.00     0.074 A 
ATOM     48  C   UNL     1       0.599   9.714  -3.323  1.00  0.00     0.031 C 
ATOM     49  C   UNL     1       5.832   8.280  -7.574  1.00  0.00     0.029 A 
ATOM     50  C   UNL     1       4.921   9.330  -8.018  1.00  0.00     0.049 A 
ATOM     51  H   UNL     1       3.298  10.122  -6.981  1.00  0.00     0.167 HD
ATOM     52  C   UNL     1      -0.261  11.473  -4.845  1.00  0.00     0.037 A 
ATOM     53  C   UNL     1       4.990   9.970  -9.200  1.00  0.00     0.037 A 
ATOM     54  C   UNL     1      -0.205  12.283  -6.033  1.00  0.00     0.049 A 
ATOM     55  C   UNL     1       3.962  11.011  -9.537  1.00  0.00     0.074 A 
ATOM     56  C   UNL     1      -1.020  13.342  -6.394  1.00  0.00     0.029 A 
ATOM     57  N   UNL     1       0.713  12.117  -7.059  1.00  0.00    -0.354 N 
ATOM     58  N   UNL     1       2.951  11.432  -8.819  1.00  0.00    -0.248 NA
ATOM     59  C   UNL     1       4.078  11.657 -10.853  1.00  0.00     0.031 C 
ATOM     60  C   UNL     1      -0.620  13.791  -7.657  1.00  0.00     0.029 A 
ATOM     61  C   UNL     1       0.464  13.033  -8.068  1.00  0.00     0.049 A 
ATOM     62  H   UNL     1       1.435  11.448  -7.068  1.00  0.00     0.167 HD
ATOM     63  C   UNL     1       2.317  12.399  -9.587  1.00  0.00     0.074 A 
ATOM     64  C   UNL     1       3.066  12.513 -10.821  1.00  0.00     0.031 C 
ATOM     65  C   UNL     1       1.211  13.125  -9.295  1.00  0.00     0.037 A 
BRANCH  52  66
ATOM     66  C   UNL     1      -1.384  11.706  -3.880  1.00  0.00     0.057 A 
ATOM     67  C   UNL     1      -1.176  12.338  -2.648  1.00  0.00     0.134 A 
ATOM     68  C   UNL     1      -2.692  11.324  -4.200  1.00  0.00     0.134 A 
ATOM     69  F   UNL     1       0.057  12.717  -2.278  1.00  0.00    -0.206 F 
ATOM     70  C   UNL     1      -2.227  12.563  -1.757  1.00  0.00     0.040 A 
ATOM     71  C   UNL     1      -3.755  11.563  -3.327  1.00  0.00     0.040 A 
ATOM     72  F   UNL     1      -2.959  10.717  -5.366  1.00  0.00    -0.206 F 
ATOM     73  C   UNL     1      -3.522  12.179  -2.099  1.00  0.00     0.006 A 
ENDBRANCH  52  66
BRANCH  53  74
ATOM     74  C   UNL     1       6.076   9.642 -10.157  1.00  0.00     0.057 A 
ATOM     75  C   UNL     1       7.131  10.534 -10.377  1.00  0.00     0.134 A 
ATOM     76  C   UNL     1       6.087   8.437 -10.868  1.00  0.00     0.134 A 
ATOM     77  F   UNL     1       7.162  11.713  -9.739  1.00  0.00    -0.206 F 
ATOM     78  C   UNL     1       8.155  10.245 -11.279  1.00  0.00     0.040 A 
ATOM     79  C   UNL     1       7.116   8.126 -11.759  1.00  0.00     0.040 A 
ATOM     80  F   UNL     1       5.106   7.540 -10.697  1.00  0.00    -0.206 F 
ATOM     81  C   UNL     1       8.152   9.034 -11.970  1.00  0.00     0.006 A 
ENDBRANCH  53  74
BRANCH  65  82
ATOM     82  C   UNL     1       0.746  14.106 -10.328  1.00  0.00     0.057 A 
ATOM     83  C   UNL     1       0.074  13.687 -11.483  1.00  0.00     0.134 A 
ATOM     84  C   UNL     1       0.931  15.482 -10.146  1.00  0.00     0.134 A 
ATOM     85  F   UNL     1      -0.119  12.381 -11.721  1.00  0.00    -0.206 F 
ATOM     86  C   UNL     1      -0.388  14.604 -12.428  1.00  0.00     0.040 A 
ATOM     87  C   UNL     1       0.456  16.409 -11.075  1.00  0.00     0.040 A 
ATOM     88  F   UNL     1       1.563  15.946  -9.058  1.00  0.00    -0.206 F 
ATOM     89  C   UNL     1      -0.203  15.970 -12.221  1.00  0.00     0.006 A 
ENDBRANCH  65  82
ENDBRANCH  39  40
ENDBRANCH  31  34
ENDBRANCH  29  30
ENDBRANCH  28  29
ENDBRANCH  27  28
ENDBRANCH   1  27
TORSDOF 17
