REMARK SMILES CC(C)[C@H](NC(=O)[C@H](Cc1ccccc1)n1c(=O)[nH]c2ccccc2c1=O)C(=O)NCCCCNC(=O)c1ccc(-c2c3nc(c(-c4c(F)cccc4F)c4ccc([nH]4)c(-c4c(F)cccc4F)c4nc(c(-c5c(F)cccc5F)c5ccc2[nH]5)C=C4)C=C3)cc1
REMARK SMILES IDX 31 1 30 2 28 3 29 4 4 6 2 7 1 8 3 9 5 10 6 11 7 13 8 14
REMARK SMILES IDX 16 15 17 16 26 17 18 18 19 19 25 20 27 21 20 22 24 24 21 25
REMARK SMILES IDX 23 26 22 27 9 28 10 29 11 30 15 31 12 32 14 33 13 34 32 35
REMARK SMILES IDX 33 36 34 37 35 38 36 39 37 41 38 42 39 43 91 44 40 45 90 46
REMARK SMILES IDX 41 47 42 48 43 49 84 50 44 51 89 52 83 53 85 54 45 55 88 56
REMARK SMILES IDX 82 57 81 58 46 60 72 61 55 62 71 63 56 64 59 65 70 66 86 67
REMARK SMILES IDX 57 68 58 69 69 71 87 72 60 73 47 74 48 75 53 76 49 77 50 78
REMARK SMILES IDX 52 79 54 80 51 81 73 82 74 83 79 84 75 85 76 86 78 87 80 88
REMARK SMILES IDX 77 89 61 90 62 91 67 92 63 93 64 94 66 95 68 96 65 97
REMARK H PARENT 30 5 5 12 19 23 35 40 85 59 59 70
REMARK Flexibility Score: inf
ROOT
ATOM      1  C   UNL     1       1.676  -1.268   5.457  1.00  0.00     0.116 C 
ENDROOT
BRANCH   1   2
ATOM      2  N   UNL     1       0.860  -1.408   6.631  1.00  0.00    -0.354 N 
ATOM      3  C   UNL     1      -0.494  -1.406   6.738  1.00  0.00     0.242 C 
ATOM      4  O   UNL     1      -0.953  -1.672   7.856  1.00  0.00    -0.273 OA
ATOM      5  H   UNL     1       1.351  -1.522   7.477  1.00  0.00     0.163 HD
BRANCH   3   6
ATOM      6  C   UNL     1      -1.459  -1.202   5.528  1.00  0.00     0.173 C 
BRANCH   6   7
ATOM      7  C   UNL     1      -1.832  -2.456   4.735  1.00  0.00     0.015 C 
ATOM      8  C   UNL     1      -1.836  -3.775   5.513  1.00  0.00     0.010 C 
ATOM      9  C   UNL     1      -3.193  -2.256   4.052  1.00  0.00     0.010 C 
ENDBRANCH   6   7
BRANCH   6  10
ATOM     10  N   UNL     1      -1.195   0.009   4.713  1.00  0.00    -0.342 N 
ATOM     11  C   UNL     1      -0.623   0.446   3.567  1.00  0.00     0.244 C 
ATOM     12  H   UNL     1      -1.579   0.785   5.181  1.00  0.00     0.164 HD
ATOM     13  O   UNL     1      -0.408   1.667   3.643  1.00  0.00    -0.273 OA
BRANCH  11  14
ATOM     14  C   UNL     1      -0.005  -0.381   2.386  1.00  0.00     0.189 C 
BRANCH  14  15
ATOM     15  N   UNL     1      -0.738  -1.501   1.768  1.00  0.00    -0.247 N 
ATOM     16  C   UNL     1      -1.880  -1.230   1.041  1.00  0.00     0.329 A 
ATOM     17  C   UNL     1      -0.192  -2.786   1.861  1.00  0.00     0.264 A 
ATOM     18  O   UNL     1      -2.491  -0.167   1.085  1.00  0.00    -0.248 OA
ATOM     19  N   UNL     1      -2.368  -2.238   0.254  1.00  0.00    -0.307 N 
ATOM     20  C   UNL     1      -0.990  -3.891   1.301  1.00  0.00     0.064 A 
ATOM     21  O   UNL     1       0.875  -3.052   2.410  1.00  0.00    -0.268 OA
ATOM     22  C   UNL     1      -1.994  -3.571   0.401  1.00  0.00     0.055 A 
ATOM     23  H   UNL     1      -3.016  -2.009  -0.451  1.00  0.00     0.171 HD
ATOM     24  C   UNL     1      -0.775  -5.220   1.678  1.00  0.00     0.016 A 
ATOM     25  C   UNL     1      -2.701  -4.580  -0.249  1.00  0.00     0.027 A 
ATOM     26  C   UNL     1      -1.540  -6.230   1.093  1.00  0.00     0.001 A 
ATOM     27  C   UNL     1      -2.473  -5.913   0.103  1.00  0.00     0.002 A 
ENDBRANCH  14  15
BRANCH  14  28
ATOM     28  C   UNL     1       0.788   0.479   1.339  1.00  0.00     0.071 C 
BRANCH  28  29
ATOM     29  C   UNL     1       0.069   1.590   0.613  1.00  0.00    -0.045 A 
ATOM     30  C   UNL     1      -0.646   1.348  -0.564  1.00  0.00     0.004 A 
ATOM     31  C   UNL     1       0.075   2.893   1.134  1.00  0.00     0.004 A 
ATOM     32  C   UNL     1      -1.446   2.347  -1.122  1.00  0.00     0.000 A 
ATOM     33  C   UNL     1      -0.719   3.892   0.576  1.00  0.00     0.000 A 
ATOM     34  C   UNL     1      -1.502   3.611  -0.538  1.00  0.00     0.000 A 
ENDBRANCH  28  29
ENDBRANCH  14  28
ENDBRANCH  11  14
ENDBRANCH   6  10
ENDBRANCH   3   6
ENDBRANCH   1   2
BRANCH   1  35
ATOM     35  C   UNL     1       2.160   0.172   5.263  1.00  0.00     0.023 C 
BRANCH  35  36
ATOM     36  C   UNL     1       3.587   0.417   5.749  1.00  0.00     0.023 C 
BRANCH  36  37
ATOM     37  C   UNL     1       4.652  -0.347   4.970  1.00  0.00     0.116 C 
BRANCH  37  38
ATOM     38  N   UNL     1       4.779   0.058   3.577  1.00  0.00    -0.352 N 
ATOM     39  C   UNL     1       5.917   0.093   2.804  1.00  0.00     0.251 C 
ATOM     40  H   UNL     1       3.947   0.341   3.133  1.00  0.00     0.163 HD
ATOM     41  O   UNL     1       5.878   0.524   1.655  1.00  0.00    -0.269 OA
BRANCH  39  42
ATOM     42  C   UNL     1       7.205  -0.336   3.392  1.00  0.00     0.039 A 
ATOM     43  C   UNL     1       8.316   0.498   3.255  1.00  0.00     0.014 A 
ATOM     44  C   UNL     1       7.301  -1.518   4.132  1.00  0.00     0.014 A 
ATOM     45  C   UNL     1       9.499   0.185   3.926  1.00  0.00     0.010 A 
ATOM     46  C   UNL     1       8.448  -1.776   4.877  1.00  0.00     0.010 A 
ATOM     47  C   UNL     1       9.562  -0.930   4.781  1.00  0.00    -0.014 A 
BRANCH  47  48
ATOM     48  C   UNL     1      10.784  -1.198   5.583  1.00  0.00     0.031 A 
ATOM     49  C   UNL     1      11.574  -2.462   5.379  1.00  0.00     0.074 A 
ATOM     50  C   UNL     1      11.166  -0.311   6.523  1.00  0.00     0.049 A 
ATOM     51  N   UNL     1      12.690  -2.838   5.952  1.00  0.00    -0.248 NA
ATOM     52  C   UNL     1      11.028  -3.446   4.432  1.00  0.00     0.031 C 
ATOM     53  C   UNL     1      10.442   0.911   6.878  1.00  0.00     0.029 A 
ATOM     54  N   UNL     1      12.264  -0.296   7.347  1.00  0.00    -0.354 N 
ATOM     55  C   UNL     1      12.974  -4.097   5.438  1.00  0.00     0.074 A 
ATOM     56  C   UNL     1      11.879  -4.452   4.563  1.00  0.00     0.031 C 
ATOM     57  C   UNL     1      11.139   1.581   7.810  1.00  0.00     0.029 A 
ATOM     58  C   UNL     1      12.343   0.824   8.139  1.00  0.00     0.049 A 
ATOM     59  H   UNL     1      12.932  -1.019   7.368  1.00  0.00     0.167 HD
ATOM     60  C   UNL     1      14.063  -4.875   5.650  1.00  0.00     0.037 A 
ATOM     61  C   UNL     1      13.286   1.206   9.020  1.00  0.00     0.037 A 
ATOM     62  C   UNL     1      15.161  -4.513   6.508  1.00  0.00     0.049 A 
ATOM     63  C   UNL     1      14.499   0.340   9.216  1.00  0.00     0.074 A 
ATOM     64  C   UNL     1      16.337  -5.203   6.742  1.00  0.00     0.029 A 
ATOM     65  N   UNL     1      15.214  -3.360   7.277  1.00  0.00    -0.354 N 
ATOM     66  N   UNL     1      14.799  -0.805   8.652  1.00  0.00    -0.248 NA
ATOM     67  C   UNL     1      15.514   0.829  10.160  1.00  0.00     0.031 C 
ATOM     68  C   UNL     1      17.082  -4.490   7.689  1.00  0.00     0.029 A 
ATOM     69  C   UNL     1      16.395  -3.329   8.002  1.00  0.00     0.049 A 
ATOM     70  H   UNL     1      14.516  -2.666   7.304  1.00  0.00     0.167 HD
ATOM     71  C   UNL     1      16.047  -1.158   9.149  1.00  0.00     0.074 A 
ATOM     72  C   UNL     1      16.456  -0.094  10.042  1.00  0.00     0.031 C 
ATOM     73  C   UNL     1      16.789  -2.264   8.889  1.00  0.00     0.037 A 
BRANCH  60  74
ATOM     74  C   UNL     1      14.121  -6.193   4.931  1.00  0.00     0.057 A 
ATOM     75  C   UNL     1      14.285  -6.270   3.541  1.00  0.00     0.134 A 
ATOM     76  C   UNL     1      14.040  -7.400   5.637  1.00  0.00     0.134 A 
ATOM     77  F   UNL     1      14.356  -5.153   2.801  1.00  0.00    -0.206 F 
ATOM     78  C   UNL     1      14.337  -7.497   2.877  1.00  0.00     0.040 A 
ATOM     79  C   UNL     1      14.121  -8.633   4.987  1.00  0.00     0.040 A 
ATOM     80  F   UNL     1      13.888  -7.401   6.970  1.00  0.00    -0.206 F 
ATOM     81  C   UNL     1      14.263  -8.684   3.602  1.00  0.00     0.006 A 
ENDBRANCH  60  74
BRANCH  61  82
ATOM     82  C   UNL     1      13.147   2.493   9.749  1.00  0.00     0.057 A 
ATOM     83  C   UNL     1      13.993   3.575   9.476  1.00  0.00     0.134 A 
ATOM     84  C   UNL     1      12.176   2.670  10.741  1.00  0.00     0.134 A 
ATOM     85  F   UNL     1      14.956   3.462   8.549  1.00  0.00    -0.206 F 
ATOM     86  C   UNL     1      13.895   4.777  10.179  1.00  0.00     0.040 A 
ATOM     87  C   UNL     1      12.048   3.876  11.433  1.00  0.00     0.040 A 
ATOM     88  F   UNL     1      11.328   1.676  11.044  1.00  0.00    -0.206 F 
ATOM     89  C   UNL     1      12.916   4.931  11.158  1.00  0.00     0.006 A 
ENDBRANCH  61  82
BRANCH  73  90
ATOM     90  C   UNL     1      18.131  -2.356   9.557  1.00  0.00     0.057 A 
ATOM     91  C   UNL     1      18.263  -2.557  10.937  1.00  0.00     0.134 A 
ATOM     92  C   UNL     1      19.308  -2.245   8.806  1.00  0.00     0.134 A 
ATOM     93  F   UNL     1      17.176  -2.661  11.717  1.00  0.00    -0.206 F 
ATOM     94  C   UNL     1      19.516  -2.603  11.551  1.00  0.00     0.040 A 
ATOM     95  C   UNL     1      20.567  -2.321   9.404  1.00  0.00     0.040 A 
ATOM     96  F   UNL     1      19.255  -2.063   7.477  1.00  0.00    -0.206 F 
ATOM     97  C   UNL     1      20.672  -2.489  10.783  1.00  0.00     0.006 A 
ENDBRANCH  73  90
ENDBRANCH  47  48
ENDBRANCH  39  42
ENDBRANCH  37  38
ENDBRANCH  36  37
ENDBRANCH  35  36
ENDBRANCH   1  35
TORSDOF 17
