REMARK SMILES C[C@@H]1CCC[C@@]1(C[NH3+])C(=O)NCCCCNC(=O)c1ccc(-c2c3nc(c(-c4c(F)cccc4F)c4ccc([nH]4)c(-c4c(F)cccc4F)c4nc(c(-c5c(F)cccc5F)c5ccc2[nH]5)C=C4)C=C3)cc1
REMARK SMILES IDX 13 1 12 2 11 3 9 4 10 5 6 7 1 8 2 9 3 10 4 11 5 12 7 13 8 14
REMARK SMILES IDX 14 18 15 19 16 20 17 21 18 23 19 24 20 25 72 26 21 27 71 28
REMARK SMILES IDX 22 29 23 30 24 31 65 32 25 33 70 34 64 35 66 36 26 37 69 38
REMARK SMILES IDX 63 39 62 40 27 42 53 43 36 44 52 45 37 46 40 47 51 48 67 49
REMARK SMILES IDX 38 50 39 51 50 53 68 54 41 55 28 56 29 57 34 58 30 59 31 60
REMARK SMILES IDX 33 61 35 62 32 63 54 64 55 65 60 66 56 67 57 68 59 69 61 70
REMARK SMILES IDX 58 71 42 72 43 73 48 74 44 75 45 76 47 77 49 78 46 79
REMARK H PARENT 11 6 8 15 8 16 8 17 16 22 66 41 40 52
REMARK Flexibility Score: inf
ROOT
ATOM      1  C   UNL     1       1.431   4.157   2.350  1.00  0.00     0.023 C 
ENDROOT
BRANCH   1   2
ATOM      2  C   UNL     1       1.495   2.647   2.587  1.00  0.00     0.116 C 
BRANCH   2   3
ATOM      3  N   UNL     1       0.165   2.075   2.642  1.00  0.00    -0.355 N 
ATOM      4  C   UNL     1      -0.625   1.505   1.690  1.00  0.00     0.232 C 
ATOM      5  O   UNL     1      -1.766   1.217   2.064  1.00  0.00    -0.274 OA
ATOM      6  H   UNL     1      -0.245   2.105   3.536  1.00  0.00     0.163 HD
BRANCH   4   7
ATOM      7  C   UNL     1      -0.110   1.152   0.258  1.00  0.00     0.100 C 
ATOM      8  C   UNL     1       1.842  -0.286  -0.751  1.00  0.00     0.009 C 
ATOM      9  C   UNL     1       0.868  -0.052   0.400  1.00  0.00     0.007 C 
ATOM     10  C   UNL     1      -0.078  -1.251   0.559  1.00  0.00     0.005 C 
ATOM     11  C   UNL     1      -1.255  -0.962  -0.360  1.00  0.00     0.002 C 
ATOM     12  C   UNL     1      -1.295   0.553  -0.556  1.00  0.00     0.023 C 
BRANCH   7  13
ATOM     13  C   UNL     1       0.423   2.436  -0.431  1.00  0.00     0.276 C 
BRANCH  13  14
ATOM     14  N   UNL     1       0.558   2.433  -1.889  1.00  0.00    -0.357 N 
ATOM     15  H   UNL     1       1.262   1.749  -2.164  1.00  0.00     0.344 HD
ATOM     16  H   UNL     1       0.842   3.360  -2.206  1.00  0.00     0.344 HD
ATOM     17  H   UNL     1      -0.337   2.188  -2.313  1.00  0.00     0.344 HD
ENDBRANCH  13  14
ENDBRANCH   7  13
ENDBRANCH   4   7
ENDBRANCH   2   3
ENDBRANCH   1   2
BRANCH   1  18
ATOM     18  C   UNL     1       0.981   4.972   3.565  1.00  0.00     0.023 C 
BRANCH  18  19
ATOM     19  C   UNL     1       1.927   4.916   4.756  1.00  0.00     0.116 C 
BRANCH  19  20
ATOM     20  N   UNL     1       3.268   5.390   4.447  1.00  0.00    -0.352 N 
ATOM     21  C   UNL     1       4.168   5.995   5.290  1.00  0.00     0.251 C 
ATOM     22  H   UNL     1       3.568   5.260   3.518  1.00  0.00     0.163 HD
ATOM     23  O   UNL     1       5.231   6.433   4.863  1.00  0.00    -0.269 OA
BRANCH  21  24
ATOM     24  C   UNL     1       3.817   6.149   6.715  1.00  0.00     0.039 A 
ATOM     25  C   UNL     1       3.917   7.413   7.303  1.00  0.00     0.014 A 
ATOM     26  C   UNL     1       3.349   5.057   7.449  1.00  0.00     0.014 A 
ATOM     27  C   UNL     1       3.486   7.595   8.617  1.00  0.00     0.010 A 
ATOM     28  C   UNL     1       2.858   5.255   8.732  1.00  0.00     0.010 A 
ATOM     29  C   UNL     1       2.925   6.524   9.329  1.00  0.00    -0.014 A 
BRANCH  29  30
ATOM     30  C   UNL     1       2.425   6.685  10.714  1.00  0.00     0.031 A 
ATOM     31  C   UNL     1       3.101   5.949  11.834  1.00  0.00     0.074 A 
ATOM     32  C   UNL     1       1.318   7.414  10.950  1.00  0.00     0.049 A 
ATOM     33  N   UNL     1       2.745   5.837  13.088  1.00  0.00    -0.248 NA
ATOM     34  C   UNL     1       4.326   5.211  11.486  1.00  0.00     0.031 C 
ATOM     35  C   UNL     1       0.556   8.152   9.941  1.00  0.00     0.029 A 
ATOM     36  N   UNL     1       0.633   7.639  12.117  1.00  0.00    -0.354 N 
ATOM     37  C   UNL     1       3.683   4.995  13.669  1.00  0.00     0.074 A 
ATOM     38  C   UNL     1       4.596   4.588  12.623  1.00  0.00     0.031 C 
ATOM     39  C   UNL     1      -0.480   8.764  10.536  1.00  0.00     0.029 A 
ATOM     40  C   UNL     1      -0.479   8.429  11.957  1.00  0.00     0.049 A 
ATOM     41  H   UNL     1       0.911   7.270  12.985  1.00  0.00     0.167 HD
ATOM     42  C   UNL     1       3.788   4.612  14.964  1.00  0.00     0.037 A 
ATOM     43  C   UNL     1      -1.397   8.830  12.857  1.00  0.00     0.037 A 
ATOM     44  C   UNL     1       2.897   5.045  16.006  1.00  0.00     0.049 A 
ATOM     45  C   UNL     1      -1.265   8.389  14.288  1.00  0.00     0.074 A 
ATOM     46  C   UNL     1       2.943   4.755  17.358  1.00  0.00     0.029 A 
ATOM     47  N   UNL     1       1.796   5.866  15.809  1.00  0.00    -0.354 N 
ATOM     48  N   UNL     1      -0.350   7.626  14.836  1.00  0.00    -0.248 NA
ATOM     49  C   UNL     1      -2.292   8.864  15.225  1.00  0.00     0.031 C 
ATOM     50  C   UNL     1       1.852   5.377  17.975  1.00  0.00     0.029 A 
ATOM     51  C   UNL     1       1.149   6.086  17.013  1.00  0.00     0.049 A 
ATOM     52  H   UNL     1       1.517   6.238  14.941  1.00  0.00     0.167 HD
ATOM     53  C   UNL     1      -0.669   7.560  16.186  1.00  0.00     0.074 A 
ATOM     54  C   UNL     1      -1.863   8.358  16.374  1.00  0.00     0.031 C 
ATOM     55  C   UNL     1      -0.026   6.902  17.182  1.00  0.00     0.037 A 
BRANCH  42  56
ATOM     56  C   UNL     1       4.907   3.674  15.310  1.00  0.00     0.057 A 
ATOM     57  C   UNL     1       6.247   4.085  15.292  1.00  0.00     0.134 A 
ATOM     58  C   UNL     1       4.644   2.343  15.656  1.00  0.00     0.134 A 
ATOM     59  F   UNL     1       6.568   5.343  14.953  1.00  0.00    -0.206 F 
ATOM     60  C   UNL     1       7.287   3.196  15.567  1.00  0.00     0.040 A 
ATOM     61  C   UNL     1       5.674   1.452  15.961  1.00  0.00     0.040 A 
ATOM     62  F   UNL     1       3.384   1.885  15.697  1.00  0.00    -0.206 F 
ATOM     63  C   UNL     1       7.001   1.875  15.907  1.00  0.00     0.006 A 
ENDBRANCH  42  56
BRANCH  43  64
ATOM     64  C   UNL     1      -2.498   9.730  12.438  1.00  0.00     0.057 A 
ATOM     65  C   UNL     1      -2.501  11.078  12.816  1.00  0.00     0.134 A 
ATOM     66  C   UNL     1      -3.558   9.279  11.645  1.00  0.00     0.134 A 
ATOM     67  F   UNL     1      -1.519  11.563  13.590  1.00  0.00    -0.206 F 
ATOM     68  C   UNL     1      -3.525  11.943  12.430  1.00  0.00     0.040 A 
ATOM     69  C   UNL     1      -4.579  10.138  11.234  1.00  0.00     0.040 A 
ATOM     70  F   UNL     1      -3.608   8.000  11.243  1.00  0.00    -0.206 F 
ATOM     71  C   UNL     1      -4.566  11.474  11.631  1.00  0.00     0.006 A 
ENDBRANCH  43  64
BRANCH  55  72
ATOM     72  C   UNL     1      -0.566   7.059  18.571  1.00  0.00     0.057 A 
ATOM     73  C   UNL     1      -1.729   6.404  18.993  1.00  0.00     0.134 A 
ATOM     74  C   UNL     1       0.123   7.833  19.514  1.00  0.00     0.134 A 
ATOM     75  F   UNL     1      -2.440   5.660  18.134  1.00  0.00    -0.206 F 
ATOM     76  C   UNL     1      -2.195   6.523  20.304  1.00  0.00     0.040 A 
ATOM     77  C   UNL     1      -0.320   7.941  20.832  1.00  0.00     0.040 A 
ATOM     78  F   UNL     1       1.248   8.479  19.173  1.00  0.00    -0.206 F 
ATOM     79  C   UNL     1      -1.485   7.287  21.229  1.00  0.00     0.006 A 
ENDBRANCH  55  72
ENDBRANCH  29  30
ENDBRANCH  21  24
ENDBRANCH  19  20
ENDBRANCH  18  19
ENDBRANCH   1  18
TORSDOF 13
