REMARK SMILES Cc1cc(C)c2c(=O)n(CCCC(=O)NCCCCNC(=O)c3ccc(-c4c5nc(c(-c6c(F)cccc6F)c6ccc([nH]6)c(-c6c(F)cccc6F)c6nc(c(-c7c(F)cccc7F)c7ccc4[nH]7)C=C6)C=C5)cc3)sc2n1
REMARK SMILES IDX 17 1 16 2 15 3 13 4 14 5 12 7 11 8 10 9 9 10 1 11 2 12 3 13
REMARK SMILES IDX 79 14 4 15 78 16 5 17 6 18 77 19 7 20 8 21 18 22 19 23 20 24
REMARK SMILES IDX 21 25 22 27 23 28 24 29 76 30 25 31 75 32 26 33 27 34 28 35
REMARK SMILES IDX 69 36 29 37 74 38 68 39 70 40 30 41 73 42 67 43 66 44 31 46
REMARK SMILES IDX 57 47 40 48 56 49 41 50 44 51 55 52 71 53 42 54 43 55 54 57
REMARK SMILES IDX 72 58 45 59 32 60 33 61 38 62 34 63 35 64 37 65 39 66 36 67
REMARK SMILES IDX 58 68 59 69 64 70 60 71 61 72 63 73 65 74 62 75 46 76 47 77
REMARK SMILES IDX 52 78 48 79 49 80 51 81 53 82 50 83
REMARK H PARENT 15 6 20 26 70 45 44 56
REMARK Flexibility Score: inf
ROOT
ATOM      1  C   UNL     1      -3.830   0.680   6.425  1.00  0.00     0.023 C 
ENDROOT
BRANCH   1   2
ATOM      2  C   UNL     1      -3.156   1.815   5.643  1.00  0.00     0.116 C 
BRANCH   2   3
ATOM      3  N   UNL     1      -3.105   3.028   6.432  1.00  0.00    -0.356 N 
ATOM      4  C   UNL     1      -2.086   3.606   7.119  1.00  0.00     0.220 C 
ATOM      5  O   UNL     1      -2.355   4.599   7.800  1.00  0.00    -0.275 OA
ATOM      6  H   UNL     1      -3.957   3.519   6.479  1.00  0.00     0.163 HD
BRANCH   4   7
ATOM      7  C   UNL     1      -0.648   3.143   6.975  1.00  0.00     0.102 C 
BRANCH   7   8
ATOM      8  C   UNL     1      -0.171   1.888   7.713  1.00  0.00     0.033 C 
BRANCH   8   9
ATOM      9  C   UNL     1      -0.357   0.487   7.111  1.00  0.00     0.139 C 
BRANCH   9  10
ATOM     10  N   UNL     1       0.123   0.153   5.781  1.00  0.00    -0.262 N 
ATOM     11  C   UNL     1       0.995  -0.193  -0.264  1.00  0.00     0.067 C 
ATOM     12  C   UNL     1       0.738  -0.551   1.170  1.00  0.00     0.039 A 
ATOM     13  C   UNL     1       0.475  -1.877   1.545  1.00  0.00     0.027 A 
ATOM     14  N   UNL     1       0.842   0.456   2.067  1.00  0.00    -0.241 NA
ATOM     15  C   UNL     1       0.237  -2.193   2.893  1.00  0.00    -0.033 A 
ATOM     16  C   UNL     1       0.612   0.121   3.348  1.00  0.00     0.146 A 
ATOM     17  C   UNL     1       0.003  -3.609   3.319  1.00  0.00     0.045 C 
ATOM     18  C   UNL     1       0.257  -1.137   3.796  1.00  0.00     0.081 A 
ATOM     19  S   UNL     1       0.793   1.270   4.681  1.00  0.00    -0.035 S 
ATOM     20  C   UNL     1      -0.089  -1.117   5.235  1.00  0.00     0.270 A 
ATOM     21  O   UNL     1      -0.569  -2.077   5.817  1.00  0.00    -0.268 OA
ENDBRANCH   9  10
ENDBRANCH   8   9
ENDBRANCH   7   8
ENDBRANCH   4   7
ENDBRANCH   2   3
ENDBRANCH   1   2
BRANCH   1  22
ATOM     22  C   UNL     1      -5.358   0.758   6.532  1.00  0.00     0.023 C 
BRANCH  22  23
ATOM     23  C   UNL     1      -6.094   0.473   5.232  1.00  0.00     0.116 C 
BRANCH  23  24
ATOM     24  N   UNL     1      -5.926  -0.899   4.748  1.00  0.00    -0.352 N 
ATOM     25  C   UNL     1      -6.307  -1.404   3.510  1.00  0.00     0.251 C 
ATOM     26  H   UNL     1      -5.497  -1.533   5.368  1.00  0.00     0.163 HD
ATOM     27  O   UNL     1      -6.467  -2.586   3.308  1.00  0.00    -0.269 OA
BRANCH  25  28
ATOM     28  C   UNL     1      -6.490  -0.418   2.429  1.00  0.00     0.039 A 
ATOM     29  C   UNL     1      -7.673  -0.341   1.692  1.00  0.00     0.014 A 
ATOM     30  C   UNL     1      -5.486   0.533   2.295  1.00  0.00     0.014 A 
ATOM     31  C   UNL     1      -7.877   0.777   0.884  1.00  0.00     0.010 A 
ATOM     32  C   UNL     1      -5.775   1.708   1.652  1.00  0.00     0.010 A 
ATOM     33  C   UNL     1      -6.936   1.821   0.893  1.00  0.00    -0.014 A 
BRANCH  33  34
ATOM     34  C   UNL     1      -7.168   3.058   0.151  1.00  0.00     0.031 A 
ATOM     35  C   UNL     1      -8.507   3.700   0.309  1.00  0.00     0.074 A 
ATOM     36  C   UNL     1      -6.192   3.701  -0.528  1.00  0.00     0.049 A 
ATOM     37  N   UNL     1      -9.435   3.816  -0.585  1.00  0.00    -0.248 NA
ATOM     38  C   UNL     1      -8.894   4.212   1.631  1.00  0.00     0.031 C 
ATOM     39  C   UNL     1      -4.750   3.421  -0.595  1.00  0.00     0.029 A 
ATOM     40  N   UNL     1      -6.303   4.833  -1.272  1.00  0.00    -0.354 N 
ATOM     41  C   UNL     1     -10.462   4.555  -0.001  1.00  0.00     0.074 A 
ATOM     42  C   UNL     1     -10.128   4.669   1.396  1.00  0.00     0.031 C 
ATOM     43  C   UNL     1      -4.102   4.473  -1.141  1.00  0.00     0.029 A 
ATOM     44  C   UNL     1      -5.095   5.393  -1.655  1.00  0.00     0.049 A 
ATOM     45  H   UNL     1      -7.173   5.223  -1.520  1.00  0.00     0.167 HD
ATOM     46  C   UNL     1     -11.425   5.164  -0.752  1.00  0.00     0.037 A 
ATOM     47  C   UNL     1      -4.922   6.528  -2.370  1.00  0.00     0.037 A 
ATOM     48  C   UNL     1     -11.438   4.659  -2.101  1.00  0.00     0.049 A 
ATOM     49  C   UNL     1      -6.185   6.779  -3.099  1.00  0.00     0.074 A 
ATOM     50  C   UNL     1     -11.666   3.422  -2.674  1.00  0.00     0.029 A 
ATOM     51  N   UNL     1     -10.820   5.403  -3.075  1.00  0.00    -0.354 N 
ATOM     52  N   UNL     1      -6.621   6.030  -4.072  1.00  0.00    -0.248 NA
ATOM     53  C   UNL     1      -7.184   7.613  -2.451  1.00  0.00     0.031 C 
ATOM     54  C   UNL     1     -10.719   3.334  -3.739  1.00  0.00     0.029 A 
ATOM     55  C   UNL     1     -10.021   4.541  -3.783  1.00  0.00     0.049 A 
ATOM     56  H   UNL     1     -10.930   6.368  -3.236  1.00  0.00     0.167 HD
ATOM     57  C   UNL     1      -7.993   5.971  -3.883  1.00  0.00     0.074 A 
ATOM     58  C   UNL     1      -8.290   7.039  -2.929  1.00  0.00     0.031 C 
ATOM     59  C   UNL     1      -8.721   4.895  -4.303  1.00  0.00     0.037 A 
BRANCH  46  60
ATOM     60  C   UNL     1     -12.156   6.427  -0.373  1.00  0.00     0.057 A 
ATOM     61  C   UNL     1     -13.275   6.840  -1.121  1.00  0.00     0.134 A 
ATOM     62  C   UNL     1     -11.641   7.392   0.514  1.00  0.00     0.134 A 
ATOM     63  F   UNL     1     -13.847   6.019  -2.015  1.00  0.00    -0.206 F 
ATOM     64  C   UNL     1     -13.802   8.135  -1.035  1.00  0.00     0.040 A 
ATOM     65  C   UNL     1     -12.190   8.672   0.644  1.00  0.00     0.040 A 
ATOM     66  F   UNL     1     -10.525   7.180   1.223  1.00  0.00    -0.206 F 
ATOM     67  C   UNL     1     -13.255   9.059  -0.153  1.00  0.00     0.006 A 
ENDBRANCH  46  60
BRANCH  47  68
ATOM     68  C   UNL     1      -3.875   7.558  -2.232  1.00  0.00     0.057 A 
ATOM     69  C   UNL     1      -3.678   8.509  -3.241  1.00  0.00     0.134 A 
ATOM     70  C   UNL     1      -3.283   7.832  -0.988  1.00  0.00     0.134 A 
ATOM     71  F   UNL     1      -4.224   8.336  -4.453  1.00  0.00    -0.206 F 
ATOM     72  C   UNL     1      -2.983   9.701  -3.009  1.00  0.00     0.040 A 
ATOM     73  C   UNL     1      -2.583   9.017  -0.744  1.00  0.00     0.040 A 
ATOM     74  F   UNL     1      -3.451   7.006   0.056  1.00  0.00    -0.206 F 
ATOM     75  C   UNL     1      -2.452   9.967  -1.751  1.00  0.00     0.006 A 
ENDBRANCH  47  68
BRANCH  59  76
ATOM     76  C   UNL     1      -8.031   3.881  -5.175  1.00  0.00     0.057 A 
ATOM     77  C   UNL     1      -6.943   3.095  -4.762  1.00  0.00     0.134 A 
ATOM     78  C   UNL     1      -8.568   3.595  -6.434  1.00  0.00     0.134 A 
ATOM     79  F   UNL     1      -6.421   3.221  -3.537  1.00  0.00    -0.206 F 
ATOM     80  C   UNL     1      -6.388   2.106  -5.582  1.00  0.00     0.040 A 
ATOM     81  C   UNL     1      -8.044   2.589  -7.250  1.00  0.00     0.040 A 
ATOM     82  F   UNL     1      -9.644   4.264  -6.876  1.00  0.00    -0.206 F 
ATOM     83  C   UNL     1      -6.942   1.848  -6.830  1.00  0.00     0.006 A 
ENDBRANCH  59  76
ENDBRANCH  33  34
ENDBRANCH  25  28
ENDBRANCH  23  24
ENDBRANCH  22  23
ENDBRANCH   1  22
TORSDOF 14
