REMARK SMILES C[C@@H](C(=O)NCCCCNC(=O)c1ccc(-c2c3nc(c(-c4c(F)cccc4F)c4ccc([nH]4)c(-c4c(F)cccc4F)c4nc(c(-c5c(F)cccc5F)c5ccc2[nH]5)C=C4)C=C3)cc1)c1ccc(N[C@H]2CCC[C@@H]2O)cc1F
REMARK SMILES IDX 6 1 5 2 3 3 4 4 2 6 1 7 67 8 68 9 79 10 69 11 78 12 80 13
REMARK SMILES IDX 70 14 71 15 72 17 73 18 76 19 74 20 75 21 77 22 7 24 8 25
REMARK SMILES IDX 9 26 10 27 11 28 12 30 13 31 14 32 66 33 15 34 65 35 16 36
REMARK SMILES IDX 17 37 18 38 59 39 19 40 64 41 58 42 60 43 20 44 63 45 57 46
REMARK SMILES IDX 56 47 21 49 47 50 30 51 46 52 31 53 34 54 45 55 61 56 32 57
REMARK SMILES IDX 33 58 44 60 62 61 35 62 22 63 23 64 28 65 24 66 25 67 27 68
REMARK SMILES IDX 29 69 26 70 48 71 49 72 54 73 50 74 51 75 53 76 55 77 52 78
REMARK SMILES IDX 36 79 37 80 42 81 38 82 39 83 41 84 43 85 40 86
REMARK H PARENT 5 5 71 16 77 23 10 29 60 48 34 59
REMARK Flexibility Score: inf
ROOT
ATOM      1  C   UNL     1       3.547   0.619   1.509  1.00  0.00     0.116 C 
ENDROOT
BRANCH   1   2
ATOM      2  N   UNL     1       2.579   1.616   1.897  1.00  0.00    -0.356 N 
ATOM      3  C   UNL     1       1.221   1.619   1.821  1.00  0.00     0.227 C 
ATOM      4  O   UNL     1       0.693   2.645   2.255  1.00  0.00    -0.274 OA
ATOM      5  H   UNL     1       2.967   2.434   2.284  1.00  0.00     0.163 HD
BRANCH   3   6
ATOM      6  C   UNL     1       0.453   0.390   1.286  1.00  0.00     0.108 C 
ATOM      7  C   UNL     1       0.735   0.094  -0.190  1.00  0.00     0.023 C 
BRANCH   6   8
ATOM      8  C   UNL     1      -1.061   0.453   1.449  1.00  0.00     0.000 A 
ATOM      9  C   UNL     1      -1.779   1.645   1.377  1.00  0.00     0.009 A 
ATOM     10  C   UNL     1      -1.803  -0.725   1.578  1.00  0.00     0.129 A 
ATOM     11  C   UNL     1      -3.168   1.658   1.497  1.00  0.00     0.026 A 
ATOM     12  C   UNL     1      -3.200  -0.715   1.632  1.00  0.00     0.065 A 
ATOM     13  F   UNL     1      -1.169  -1.907   1.612  1.00  0.00    -0.207 F 
ATOM     14  C   UNL     1      -3.916   0.486   1.580  1.00  0.00     0.037 A 
BRANCH  14  15
ATOM     15  N   UNL     1      -5.294   0.462   1.636  1.00  0.00    -0.380 N 
ATOM     16  H   UNL     1      -5.707  -0.431   1.664  1.00  0.00     0.160 HD
BRANCH  15  17
ATOM     17  C   UNL     1      -6.217   1.594   1.661  1.00  0.00     0.107 C 
ATOM     18  C   UNL     1      -6.059   2.473   2.909  1.00  0.00     0.027 C 
ATOM     19  C   UNL     1      -6.144   2.542   0.443  1.00  0.00     0.136 C 
ATOM     20  C   UNL     1      -6.050   3.918   2.415  1.00  0.00     0.005 C 
ATOM     21  C   UNL     1      -6.626   3.874   1.007  1.00  0.00     0.034 C 
BRANCH  19  22
ATOM     22  O   UNL     1      -6.961   2.127  -0.647  1.00  0.00    -0.391 OA
ATOM     23  H   UNL     1      -7.884   2.071  -0.356  1.00  0.00     0.211 HD
ENDBRANCH  19  22
ENDBRANCH  15  17
ENDBRANCH  14  15
ENDBRANCH   6   8
ENDBRANCH   3   6
ENDBRANCH   1   2
BRANCH   1  24
ATOM     24  C   UNL     1       4.275   1.028   0.228  1.00  0.00     0.023 C 
BRANCH  24  25
ATOM     25  C   UNL     1       5.007   2.371   0.305  1.00  0.00     0.023 C 
BRANCH  25  26
ATOM     26  C   UNL     1       5.953   2.521   1.487  1.00  0.00     0.116 C 
BRANCH  26  27
ATOM     27  N   UNL     1       6.964   1.476   1.529  1.00  0.00    -0.352 N 
ATOM     28  C   UNL     1       8.316   1.593   1.726  1.00  0.00     0.251 C 
ATOM     29  H   UNL     1       6.631   0.559   1.399  1.00  0.00     0.163 HD
ATOM     30  O   UNL     1       9.049   0.618   1.580  1.00  0.00    -0.269 OA
BRANCH  28  31
ATOM     31  C   UNL     1       8.889   2.904   2.086  1.00  0.00     0.039 A 
ATOM     32  C   UNL     1      10.034   3.346   1.421  1.00  0.00     0.014 A 
ATOM     33  C   UNL     1       8.288   3.700   3.066  1.00  0.00     0.014 A 
ATOM     34  C   UNL     1      10.549   4.611   1.703  1.00  0.00     0.010 A 
ATOM     35  C   UNL     1       8.751   4.993   3.283  1.00  0.00     0.010 A 
ATOM     36  C   UNL     1       9.895   5.456   2.615  1.00  0.00    -0.014 A 
BRANCH  36  37
ATOM     37  C   UNL     1      10.407   6.818   2.905  1.00  0.00     0.031 A 
ATOM     38  C   UNL     1      10.879   7.163   4.290  1.00  0.00     0.074 A 
ATOM     39  C   UNL     1      10.395   7.757   1.941  1.00  0.00     0.049 A 
ATOM     40  N   UNL     1      11.315   8.306   4.755  1.00  0.00    -0.248 NA
ATOM     41  C   UNL     1      10.825   6.088   5.293  1.00  0.00     0.031 C 
ATOM     42  C   UNL     1       9.921   7.559   0.570  1.00  0.00     0.029 A 
ATOM     43  N   UNL     1      10.790   9.071   1.969  1.00  0.00    -0.354 N 
ATOM     44  C   UNL     1      11.570   8.091   6.104  1.00  0.00     0.074 A 
ATOM     45  C   UNL     1      11.178   6.730   6.396  1.00  0.00     0.031 C 
ATOM     46  C   UNL     1      10.083   8.699  -0.119  1.00  0.00     0.029 A 
ATOM     47  C   UNL     1      10.633   9.718   0.769  1.00  0.00     0.049 A 
ATOM     48  H   UNL     1      11.151   9.507   2.774  1.00  0.00     0.167 HD
ATOM     49  C   UNL     1      12.106   8.941   7.012  1.00  0.00     0.037 A 
ATOM     50  C   UNL     1      10.902  10.992   0.424  1.00  0.00     0.037 A 
ATOM     51  C   UNL     1      12.508  10.290   6.712  1.00  0.00     0.049 A 
ATOM     52  C   UNL     1      11.480  11.924   1.452  1.00  0.00     0.074 A 
ATOM     53  C   UNL     1      13.112  11.216   7.544  1.00  0.00     0.029 A 
ATOM     54  N   UNL     1      12.337  10.910   5.482  1.00  0.00    -0.354 N 
ATOM     55  N   UNL     1      11.783  11.689   2.706  1.00  0.00    -0.248 NA
ATOM     56  C   UNL     1      11.761  13.298   1.014  1.00  0.00     0.031 C 
ATOM     57  C   UNL     1      13.256  12.413   6.835  1.00  0.00     0.029 A 
ATOM     58  C   UNL     1      12.800  12.214   5.541  1.00  0.00     0.049 A 
ATOM     59  H   UNL     1      11.944  10.485   4.685  1.00  0.00     0.167 HD
ATOM     60  C   UNL     1      12.322  12.872   3.197  1.00  0.00     0.074 A 
ATOM     61  C   UNL     1      12.312  13.819   2.101  1.00  0.00     0.031 C 
ATOM     62  C   UNL     1      12.789  13.146   4.440  1.00  0.00     0.037 A 
BRANCH  49  63
ATOM     63  C   UNL     1      12.273   8.431   8.416  1.00  0.00     0.057 A 
ATOM     64  C   UNL     1      13.184   7.412   8.733  1.00  0.00     0.134 A 
ATOM     65  C   UNL     1      11.514   8.963   9.465  1.00  0.00     0.134 A 
ATOM     66  F   UNL     1      13.935   6.848   7.775  1.00  0.00    -0.206 F 
ATOM     67  C   UNL     1      13.300   6.913  10.032  1.00  0.00     0.040 A 
ATOM     68  C   UNL     1      11.647   8.496  10.774  1.00  0.00     0.040 A 
ATOM     69  F   UNL     1      10.629   9.945   9.237  1.00  0.00    -0.206 F 
ATOM     70  C   UNL     1      12.533   7.459  11.058  1.00  0.00     0.006 A 
ENDBRANCH  49  63
BRANCH  50  71
ATOM     71  C   UNL     1      10.665  11.447  -0.969  1.00  0.00     0.057 A 
ATOM     72  C   UNL     1      11.735  11.735  -1.824  1.00  0.00     0.134 A 
ATOM     73  C   UNL     1       9.371  11.596  -1.483  1.00  0.00     0.134 A 
ATOM     74  F   UNL     1      12.997  11.627  -1.384  1.00  0.00    -0.206 F 
ATOM     75  C   UNL     1      11.529  12.170  -3.134  1.00  0.00     0.040 A 
ATOM     76  C   UNL     1       9.150  12.006  -2.799  1.00  0.00     0.040 A 
ATOM     77  F   UNL     1       8.303  11.327  -0.718  1.00  0.00    -0.206 F 
ATOM     78  C   UNL     1      10.232  12.301  -3.627  1.00  0.00     0.006 A 
ENDBRANCH  50  71
BRANCH  62  79
ATOM     79  C   UNL     1      13.373  14.510   4.671  1.00  0.00     0.057 A 
ATOM     80  C   UNL     1      12.580  15.664   4.714  1.00  0.00     0.134 A 
ATOM     81  C   UNL     1      14.749  14.665   4.891  1.00  0.00     0.134 A 
ATOM     82  F   UNL     1      11.258  15.589   4.499  1.00  0.00    -0.206 F 
ATOM     83  C   UNL     1      13.137  16.924   4.939  1.00  0.00     0.040 A 
ATOM     84  C   UNL     1      15.313  15.914   5.149  1.00  0.00     0.040 A 
ATOM     85  F   UNL     1      15.565  13.600   4.874  1.00  0.00    -0.206 F 
ATOM     86  C   UNL     1      14.507  17.050   5.165  1.00  0.00     0.006 A 
ENDBRANCH  62  79
ENDBRANCH  36  37
ENDBRANCH  28  31
ENDBRANCH  26  27
ENDBRANCH  25  26
ENDBRANCH  24  25
ENDBRANCH   1  24
TORSDOF 15
