REMARK SMILES C/C(=C/c1cccc(OCC(=O)NCCCCNC(=O)c2ccc(-c3c4nc(c(-c5c(F)cccc5F)c5ccc([nH]5)c(-c5c(F)cccc5F)c5nc(c(-c6c(F)cccc6F)c6ccc3[nH]6)C=C5)C=C4)cc2)c1)c1nc2sccc2c(=O)[nH]1
REMARK SMILES IDX 14 1 13 2 11 3 12 4 10 6 9 7 8 8 4 9 5 10 75 11 6 12 7 13
REMARK SMILES IDX 3 14 1 15 2 16 76 17 77 18 85 19 78 20 83 21 79 23 82 24
REMARK SMILES IDX 84 25 80 26 81 27 15 28 16 29 17 30 18 31 19 32 20 34 21 35
REMARK SMILES IDX 22 36 74 37 23 38 73 39 24 40 25 41 26 42 67 43 27 44 72 45
REMARK SMILES IDX 66 46 68 47 28 48 71 49 65 50 64 51 29 53 55 54 38 55 54 56
REMARK SMILES IDX 39 57 42 58 53 59 69 60 40 61 41 62 52 64 70 65 43 66 30 67
REMARK SMILES IDX 31 68 36 69 32 70 33 71 35 72 37 73 34 74 56 75 57 76 62 77
REMARK SMILES IDX 58 78 59 79 61 80 63 81 60 82 44 83 45 84 50 85 46 86 47 87
REMARK SMILES IDX 49 88 51 89 48 90
REMARK H PARENT 13 5 85 22 18 33 68 52 42 63
REMARK Flexibility Score: inf
ROOT
ATOM      1  C   UNL     1       0.423   8.363  -1.109  1.00  0.00     0.116 C 
ENDROOT
BRANCH   1   2
ATOM      2  N   UNL     1       1.315   7.261  -0.806  1.00  0.00    -0.353 N 
ATOM      3  C   UNL     1       1.864   6.357  -1.674  1.00  0.00     0.257 C 
ATOM      4  O   UNL     1       2.801   5.657  -1.288  1.00  0.00    -0.271 OA
ATOM      5  H   UNL     1       1.556   7.149   0.141  1.00  0.00     0.163 HD
BRANCH   3   6
ATOM      6  C   UNL     1       1.363   6.263  -3.115  1.00  0.00     0.329 C 
BRANCH   6   7
ATOM      7  O   UNL     1      -0.041   6.175  -3.284  1.00  0.00    -0.484 OA
BRANCH   7   8
ATOM      8  C   UNL     1      -0.664   4.991  -3.002  1.00  0.00     0.120 A 
ATOM      9  C   UNL     1      -0.866   2.696  -2.227  1.00  0.00    -0.022 A 
ATOM     10  C   UNL     1      -2.236   2.725  -2.511  1.00  0.00     0.008 A 
ATOM     11  C   UNL     1      -0.077   3.832  -2.487  1.00  0.00     0.054 A 
ATOM     12  C   UNL     1      -2.821   3.879  -3.026  1.00  0.00     0.004 A 
ATOM     13  C   UNL     1      -2.036   5.005  -3.266  1.00  0.00     0.046 A 
BRANCH   9  14
ATOM     14  C   UNL     1      -0.293   1.454  -1.689  1.00  0.00     0.015 C 
ATOM     15  C   UNL     1       0.981   0.003  -0.095  1.00  0.00     0.048 C 
ATOM     16  C   UNL     1       0.397   1.309  -0.541  1.00  0.00    -0.008 C 
BRANCH  16  17
ATOM     17  C   UNL     1       0.667   2.456   0.366  1.00  0.00     0.137 A 
ATOM     18  N   UNL     1       1.876   2.828   0.656  1.00  0.00    -0.219 NA
ATOM     19  N   UNL     1      -0.469   3.047   0.878  1.00  0.00    -0.306 N 
ATOM     20  C   UNL     1       1.952   3.921   1.460  1.00  0.00     0.131 A 
ATOM     21  C   UNL     1      -0.443   4.124   1.732  1.00  0.00     0.259 A 
ATOM     22  H   UNL     1      -1.345   2.678   0.619  1.00  0.00     0.171 HD
ATOM     23  S   UNL     1       3.445   4.629   1.890  1.00  0.00    -0.124 S 
ATOM     24  C   UNL     1       0.891   4.606   2.013  1.00  0.00     0.077 A 
ATOM     25  O   UNL     1      -1.460   4.622   2.195  1.00  0.00    -0.269 OA
ATOM     26  C   UNL     1       2.673   5.878   2.773  1.00  0.00     0.068 A 
ATOM     27  C   UNL     1       1.304   5.730   2.788  1.00  0.00     0.028 A 
ENDBRANCH  16  17
ENDBRANCH   9  14
ENDBRANCH   7   8
ENDBRANCH   6   7
ENDBRANCH   3   6
ENDBRANCH   1   2
BRANCH   1  28
ATOM     28  C   UNL     1      -1.019   8.149  -0.653  1.00  0.00     0.023 C 
BRANCH  28  29
ATOM     29  C   UNL     1      -1.241   7.945   0.848  1.00  0.00     0.023 C 
BRANCH  29  30
ATOM     30  C   UNL     1      -0.600   8.956   1.794  1.00  0.00     0.116 C 
BRANCH  30  31
ATOM     31  N   UNL     1      -1.087  10.311   1.611  1.00  0.00    -0.352 N 
ATOM     32  C   UNL     1      -1.466  11.249   2.541  1.00  0.00     0.251 C 
ATOM     33  H   UNL     1      -1.157  10.603   0.673  1.00  0.00     0.163 HD
ATOM     34  O   UNL     1      -1.944  12.314   2.154  1.00  0.00    -0.269 OA
BRANCH  32  35
ATOM     35  C   UNL     1      -1.341  11.000   4.000  1.00  0.00     0.039 A 
ATOM     36  C   UNL     1      -2.376  11.441   4.835  1.00  0.00     0.014 A 
ATOM     37  C   UNL     1      -0.215  10.397   4.566  1.00  0.00     0.014 A 
ATOM     38  C   UNL     1      -2.306  11.233   6.217  1.00  0.00     0.010 A 
ATOM     39  C   UNL     1      -0.170  10.140   5.942  1.00  0.00     0.010 A 
ATOM     40  C   UNL     1      -1.214  10.556   6.782  1.00  0.00    -0.014 A 
BRANCH  40  41
ATOM     41  C   UNL     1      -1.166  10.279   8.245  1.00  0.00     0.031 A 
ATOM     42  C   UNL     1      -0.138  10.940   9.123  1.00  0.00     0.074 A 
ATOM     43  C   UNL     1      -2.031   9.399   8.787  1.00  0.00     0.049 A 
ATOM     44  N   UNL     1       0.061  10.804  10.411  1.00  0.00    -0.248 NA
ATOM     45  C   UNL     1       0.800  11.863   8.466  1.00  0.00     0.031 C 
ATOM     46  C   UNL     1      -3.053   8.655   8.051  1.00  0.00     0.029 A 
ATOM     47  N   UNL     1      -2.185   8.979  10.086  1.00  0.00    -0.354 N 
ATOM     48  C   UNL     1       1.148  11.612  10.716  1.00  0.00     0.074 A 
ATOM     49  C   UNL     1       1.594  12.203   9.472  1.00  0.00     0.031 C 
ATOM     50  C   UNL     1      -3.740   7.885   8.910  1.00  0.00     0.029 A 
ATOM     51  C   UNL     1      -3.192   8.059  10.252  1.00  0.00     0.049 A 
ATOM     52  H   UNL     1      -1.626   9.305  10.828  1.00  0.00     0.167 HD
ATOM     53  C   UNL     1       1.714  11.857  11.924  1.00  0.00     0.037 A 
ATOM     54  C   UNL     1      -3.627   7.426  11.358  1.00  0.00     0.037 A 
ATOM     55  C   UNL     1       1.263  11.292  13.170  1.00  0.00     0.049 A 
ATOM     56  C   UNL     1      -2.983   7.714  12.686  1.00  0.00     0.074 A 
ATOM     57  C   UNL     1       1.742  11.530  14.447  1.00  0.00     0.029 A 
ATOM     58  N   UNL     1       0.232  10.376  13.296  1.00  0.00    -0.354 N 
ATOM     59  N   UNL     1      -1.999   8.532  12.966  1.00  0.00    -0.248 NA
ATOM     60  C   UNL     1      -3.518   6.996  13.852  1.00  0.00     0.031 C 
ATOM     61  C   UNL     1       1.024  10.730  15.343  1.00  0.00     0.029 A 
ATOM     62  C   UNL     1       0.071  10.025  14.628  1.00  0.00     0.049 A 
ATOM     63  H   UNL     1      -0.307  10.025  12.551  1.00  0.00     0.167 HD
ATOM     64  C   UNL     1      -1.815   8.449  14.341  1.00  0.00     0.074 A 
ATOM     65  C   UNL     1      -2.797   7.510  14.840  1.00  0.00     0.031 C 
ATOM     66  C   UNL     1      -0.914   9.096  15.118  1.00  0.00     0.037 A 
BRANCH  53  67
ATOM     67  C   UNL     1       2.890  12.789  11.959  1.00  0.00     0.057 A 
ATOM     68  C   UNL     1       2.742  14.168  11.769  1.00  0.00     0.134 A 
ATOM     69  C   UNL     1       4.177  12.308  12.230  1.00  0.00     0.134 A 
ATOM     70  F   UNL     1       1.536  14.691  11.498  1.00  0.00    -0.206 F 
ATOM     71  C   UNL     1       3.835  15.034  11.824  1.00  0.00     0.040 A 
ATOM     72  C   UNL     1       5.275  13.167  12.311  1.00  0.00     0.040 A 
ATOM     73  F   UNL     1       4.387  10.998  12.431  1.00  0.00    -0.206 F 
ATOM     74  C   UNL     1       5.106  14.534  12.102  1.00  0.00     0.006 A 
ENDBRANCH  53  67
BRANCH  54  75
ATOM     75  C   UNL     1      -4.756   6.468  11.266  1.00  0.00     0.057 A 
ATOM     76  C   UNL     1      -6.015   6.786  11.788  1.00  0.00     0.134 A 
ATOM     77  C   UNL     1      -4.603   5.212  10.668  1.00  0.00     0.134 A 
ATOM     78  F   UNL     1      -6.216   7.966  12.393  1.00  0.00    -0.206 F 
ATOM     79  C   UNL     1      -7.078   5.884  11.733  1.00  0.00     0.040 A 
ATOM     80  C   UNL     1      -5.663   4.309  10.586  1.00  0.00     0.040 A 
ATOM     81  F   UNL     1      -3.421   4.850  10.147  1.00  0.00    -0.206 F 
ATOM     82  C   UNL     1      -6.904   4.642  11.126  1.00  0.00     0.006 A 
ENDBRANCH  54  75
BRANCH  66  83
ATOM     83  C   UNL     1      -0.968   8.838  16.595  1.00  0.00     0.057 A 
ATOM     84  C   UNL     1      -0.522   7.634  17.153  1.00  0.00     0.134 A 
ATOM     85  C   UNL     1      -1.445   9.820  17.473  1.00  0.00     0.134 A 
ATOM     86  F   UNL     1      -0.066   6.648  16.366  1.00  0.00    -0.206 F 
ATOM     87  C   UNL     1      -0.567   7.407  18.530  1.00  0.00     0.040 A 
ATOM     88  C   UNL     1      -1.474   9.614  18.853  1.00  0.00     0.040 A 
ATOM     89  F   UNL     1      -1.882  10.999  17.005  1.00  0.00    -0.206 F 
ATOM     90  C   UNL     1      -1.039   8.401  19.384  1.00  0.00     0.006 A 
ENDBRANCH  66  83
ENDBRANCH  40  41
ENDBRANCH  32  35
ENDBRANCH  30  31
ENDBRANCH  29  30
ENDBRANCH  28  29
ENDBRANCH   1  28
TORSDOF 15
