REMARK SMILES CC(=O)Nc1cccc(NC(=O)N[C@H](C(=O)NCCCCNC(=O)c2ccc(-c3c4nc(c(-c5c(F)cccc5F)c5ccc([nH]5)c(-c5c(F)cccc5F)c5nc(c(-c6c(F)cccc6F)c6ccc3[nH]6)C=C5)C=C4)cc2)C(C)C)c1
REMARK SMILES IDX 19 1 18 2 17 3 15 4 16 5 14 7 13 8 10 9 11 10 12 12 9 14
REMARK SMILES IDX 5 15 6 16 82 17 7 18 8 19 4 20 1 21 2 22 3 23 79 25 80 26
REMARK SMILES IDX 81 27 20 28 21 29 22 30 23 31 24 33 25 34 26 35 78 36 27 37
REMARK SMILES IDX 77 38 28 39 29 40 30 41 71 42 31 43 76 44 70 45 72 46 32 47
REMARK SMILES IDX 75 48 69 49 68 50 33 52 59 53 42 54 58 55 43 56 46 57 57 58
REMARK SMILES IDX 73 59 44 60 45 61 56 63 74 64 47 65 34 66 35 67 40 68 36 69
REMARK SMILES IDX 37 70 39 71 41 72 38 73 60 74 61 75 66 76 62 77 63 78 65 79
REMARK SMILES IDX 67 80 64 81 48 82 49 83 54 84 50 85 51 86 53 87 55 88 52 89
REMARK H PARENT 17 6 10 11 13 13 4 24 22 32 72 51 46 62
REMARK Flexibility Score: inf
ROOT
ATOM      1  C   UNL     1       5.368  -2.988   1.374  1.00  0.00     0.023 C 
ENDROOT
BRANCH   1   2
ATOM      2  C   UNL     1       5.338  -4.335   2.088  1.00  0.00     0.116 C 
BRANCH   2   3
ATOM      3  N   UNL     1       6.213  -4.396   3.240  1.00  0.00    -0.354 N 
ATOM      4  C   UNL     1       6.031  -3.943   4.518  1.00  0.00     0.242 C 
ATOM      5  O   UNL     1       6.941  -4.193   5.314  1.00  0.00    -0.273 OA
ATOM      6  H   UNL     1       7.079  -4.833   3.078  1.00  0.00     0.163 HD
BRANCH   4   7
ATOM      7  C   UNL     1       4.840  -3.002   4.891  1.00  0.00     0.175 C 
BRANCH   7   8
ATOM      8  N   UNL     1       3.534  -3.573   4.564  1.00  0.00    -0.326 N 
ATOM      9  N   UNL     1       2.275  -2.168   3.078  1.00  0.00    -0.308 N 
ATOM     10  C   UNL     1       2.437  -3.215   3.899  1.00  0.00     0.319 C 
ATOM     11  H   UNL     1       1.404  -2.214   2.621  1.00  0.00     0.171 HD
ATOM     12  O   UNL     1       1.492  -4.013   3.955  1.00  0.00    -0.248 OA
ATOM     13  H   UNL     1       3.440  -4.477   4.941  1.00  0.00     0.166 HD
BRANCH   9  14
ATOM     14  C   UNL     1       2.985  -1.028   2.682  1.00  0.00     0.044 A 
ATOM     15  C   UNL     1       3.660   0.339   0.772  1.00  0.00     0.043 A 
ATOM     16  C   UNL     1       4.594   0.977   1.594  1.00  0.00     0.026 A 
ATOM     17  C   UNL     1       2.846  -0.647   1.333  1.00  0.00     0.052 A 
ATOM     18  C   UNL     1       4.639   0.701   2.961  1.00  0.00     0.004 A 
ATOM     19  C   UNL     1       3.807  -0.277   3.506  1.00  0.00     0.026 A 
BRANCH  15  20
ATOM     20  N   UNL     1       3.676   0.688  -0.589  1.00  0.00    -0.326 N 
ATOM     21  C   UNL     1       1.419  -0.039  -1.379  1.00  0.00     0.114 C 
ATOM     22  C   UNL     1       2.802   0.495  -1.618  1.00  0.00     0.221 C 
ATOM     23  O   UNL     1       3.160   0.829  -2.751  1.00  0.00    -0.275 OA
ATOM     24  H   UNL     1       4.489   1.174  -0.856  1.00  0.00     0.169 HD
ENDBRANCH  15  20
ENDBRANCH   9  14
ENDBRANCH   7   8
BRANCH   7  25
ATOM     25  C   UNL     1       4.892  -2.635   6.412  1.00  0.00     0.015 C 
ATOM     26  C   UNL     1       5.866  -1.478   6.665  1.00  0.00     0.010 C 
ATOM     27  C   UNL     1       3.532  -2.285   7.036  1.00  0.00     0.010 C 
ENDBRANCH   7  25
ENDBRANCH   4   7
ENDBRANCH   2   3
ENDBRANCH   1   2
BRANCH   1  28
ATOM     28  C   UNL     1       6.358  -2.858   0.221  1.00  0.00     0.023 C 
BRANCH  28  29
ATOM     29  C   UNL     1       6.029  -3.711  -0.998  1.00  0.00     0.116 C 
BRANCH  29  30
ATOM     30  N   UNL     1       4.770  -3.379  -1.654  1.00  0.00    -0.352 N 
ATOM     31  C   UNL     1       4.447  -3.480  -2.993  1.00  0.00     0.251 C 
ATOM     32  H   UNL     1       4.058  -3.039  -1.066  1.00  0.00     0.163 HD
ATOM     33  O   UNL     1       3.339  -3.147  -3.390  1.00  0.00    -0.269 OA
BRANCH  31  34
ATOM     34  C   UNL     1       5.478  -3.952  -3.947  1.00  0.00     0.039 A 
ATOM     35  C   UNL     1       5.730  -3.214  -5.107  1.00  0.00     0.014 A 
ATOM     36  C   UNL     1       6.257  -5.069  -3.647  1.00  0.00     0.014 A 
ATOM     37  C   UNL     1       6.833  -3.537  -5.905  1.00  0.00     0.010 A 
ATOM     38  C   UNL     1       7.412  -5.319  -4.378  1.00  0.00     0.010 A 
ATOM     39  C   UNL     1       7.720  -4.553  -5.513  1.00  0.00    -0.014 A 
BRANCH  39  40
ATOM     40  C   UNL     1       8.976  -4.849  -6.256  1.00  0.00     0.031 A 
ATOM     41  C   UNL     1       9.218  -6.236  -6.793  1.00  0.00     0.074 A 
ATOM     42  C   UNL     1       9.948  -3.919  -6.346  1.00  0.00     0.049 A 
ATOM     43  N   UNL     1      10.309  -6.750  -7.302  1.00  0.00    -0.248 NA
ATOM     44  C   UNL     1       8.097  -7.185  -6.694  1.00  0.00     0.031 C 
ATOM     45  C   UNL     1       9.877  -2.556  -5.814  1.00  0.00     0.029 A 
ATOM     46  N   UNL     1      11.201  -3.989  -6.906  1.00  0.00    -0.354 N 
ATOM     47  C   UNL     1      10.018  -8.088  -7.540  1.00  0.00     0.074 A 
ATOM     48  C   UNL     1       8.669  -8.318  -7.069  1.00  0.00     0.031 C 
ATOM     49  C   UNL     1      11.020  -1.911  -6.101  1.00  0.00     0.029 A 
ATOM     50  C   UNL     1      11.921  -2.823  -6.797  1.00  0.00     0.049 A 
ATOM     51  H   UNL     1      11.550  -4.798  -7.344  1.00  0.00     0.167 HD
ATOM     52  C   UNL     1      10.790  -9.035  -8.124  1.00  0.00     0.037 A 
ATOM     53  C   UNL     1      13.168  -2.525  -7.209  1.00  0.00     0.037 A 
ATOM     54  C   UNL     1      12.103  -8.791  -8.657  1.00  0.00     0.049 A 
ATOM     55  C   UNL     1      13.986  -3.576  -7.907  1.00  0.00     0.074 A 
ATOM     56  C   UNL     1      12.934  -9.664  -9.338  1.00  0.00     0.029 A 
ATOM     57  N   UNL     1      12.768  -7.577  -8.585  1.00  0.00    -0.354 N 
ATOM     58  N   UNL     1      13.678  -4.823  -8.169  1.00  0.00    -0.248 NA
ATOM     59  C   UNL     1      15.324  -3.178  -8.369  1.00  0.00     0.031 C 
ATOM     60  C   UNL     1      14.112  -8.983  -9.661  1.00  0.00     0.029 A 
ATOM     61  C   UNL     1      14.000  -7.678  -9.208  1.00  0.00     0.049 A 
ATOM     62  H   UNL     1      12.416  -6.765  -8.154  1.00  0.00     0.167 HD
ATOM     63  C   UNL     1      14.768  -5.348  -8.852  1.00  0.00     0.074 A 
ATOM     64  C   UNL     1      15.741  -4.282  -8.972  1.00  0.00     0.031 C 
ATOM     65  C   UNL     1      14.947  -6.601  -9.336  1.00  0.00     0.037 A 
BRANCH  52  66
ATOM     66  C   UNL     1      10.217 -10.418  -8.234  1.00  0.00     0.057 A 
ATOM     67  C   UNL     1       9.159 -10.710  -9.105  1.00  0.00     0.134 A 
ATOM     68  C   UNL     1      10.736 -11.472  -7.473  1.00  0.00     0.134 A 
ATOM     69  F   UNL     1       8.607  -9.742  -9.852  1.00  0.00    -0.206 F 
ATOM     70  C   UNL     1       8.614 -11.993  -9.189  1.00  0.00     0.040 A 
ATOM     71  C   UNL     1      10.219 -12.765  -7.569  1.00  0.00     0.040 A 
ATOM     72  F   UNL     1      11.754 -11.264  -6.624  1.00  0.00    -0.206 F 
ATOM     73  C   UNL     1       9.149 -13.026  -8.422  1.00  0.00     0.006 A 
ENDBRANCH  52  66
BRANCH  53  74
ATOM     74  C   UNL     1      13.712  -1.157  -7.013  1.00  0.00     0.057 A 
ATOM     75  C   UNL     1      13.873  -0.290  -8.101  1.00  0.00     0.134 A 
ATOM     76  C   UNL     1      14.096  -0.689  -5.752  1.00  0.00     0.134 A 
ATOM     77  F   UNL     1      13.541  -0.691  -9.337  1.00  0.00    -0.206 F 
ATOM     78  C   UNL     1      14.414   0.987  -7.945  1.00  0.00     0.040 A 
ATOM     79  C   UNL     1      14.619   0.594  -5.578  1.00  0.00     0.040 A 
ATOM     80  F   UNL     1      13.960  -1.469  -4.670  1.00  0.00    -0.206 F 
ATOM     81  C   UNL     1      14.786   1.433  -6.678  1.00  0.00     0.006 A 
ENDBRANCH  53  74
BRANCH  65  82
ATOM     82  C   UNL     1      16.220  -6.876 -10.077  1.00  0.00     0.057 A 
ATOM     83  C   UNL     1      17.443  -7.027  -9.412  1.00  0.00     0.134 A 
ATOM     84  C   UNL     1      16.212  -7.036 -11.468  1.00  0.00     0.134 A 
ATOM     85  F   UNL     1      17.517  -6.872  -8.082  1.00  0.00    -0.206 F 
ATOM     86  C   UNL     1      18.618  -7.313 -10.109  1.00  0.00     0.040 A 
ATOM     87  C   UNL     1      17.376  -7.343 -12.173  1.00  0.00     0.040 A 
ATOM     88  F   UNL     1      15.070  -6.910 -12.162  1.00  0.00    -0.206 F 
ATOM     89  C   UNL     1      18.585  -7.479 -11.493  1.00  0.00     0.006 A 
ENDBRANCH  65  82
ENDBRANCH  39  40
ENDBRANCH  31  34
ENDBRANCH  29  30
ENDBRANCH  28  29
ENDBRANCH   1  28
TORSDOF 15
