REMARK SMILES CC(=O)Nc1cccc(-c2cc(F)ccc2C(=O)NCCCCNC(=O)c2ccc(-c3c4nc(c(-c5c(F)cccc5F)c5ccc([nH]5)c(-c5c(F)cccc5F)c5nc(c(-c6c(F)cccc6F)c6ccc3[nH]6)C=C5)C=C4)cc2)c1
REMARK SMILES IDX 21 1 20 2 19 3 17 4 18 5 16 7 10 8 11 9 12 10 15 11 13 12
REMARK SMILES IDX 14 13 9 14 5 15 6 16 81 17 7 18 8 19 4 20 1 21 2 22 3 23
REMARK SMILES IDX 22 25 23 26 24 27 25 28 26 30 27 31 28 32 80 33 29 34 79 35
REMARK SMILES IDX 30 36 31 37 32 38 73 39 33 40 78 41 72 42 74 43 34 44 77 45
REMARK SMILES IDX 71 46 70 47 35 49 61 50 44 51 60 52 45 53 48 54 59 55 75 56
REMARK SMILES IDX 46 57 47 58 58 60 76 61 49 62 36 63 37 64 42 65 38 66 39 67
REMARK SMILES IDX 41 68 43 69 40 70 62 71 63 72 68 73 64 74 65 75 67 76 69 77
REMARK SMILES IDX 66 78 50 79 51 80 56 81 52 82 53 83 55 84 57 85 54 86
REMARK H PARENT 19 6 4 24 24 29 74 48 48 59
REMARK Flexibility Score: inf
ROOT
ATOM      1  C   UNL     1       3.483   4.728   2.756  1.00  0.00     0.023 C 
ENDROOT
BRANCH   1   2
ATOM      2  C   UNL     1       3.727   3.275   2.378  1.00  0.00     0.116 C 
BRANCH   2   3
ATOM      3  N   UNL     1       4.506   3.030   1.194  1.00  0.00    -0.352 N 
ATOM      4  C   UNL     1       5.249   1.933   0.823  1.00  0.00     0.251 C 
ATOM      5  O   UNL     1       5.690   1.941  -0.331  1.00  0.00    -0.269 OA
ATOM      6  H   UNL     1       4.508   3.768   0.542  1.00  0.00     0.163 HD
BRANCH   4   7
ATOM      7  C   UNL     1       5.647   0.779   1.706  1.00  0.00     0.047 A 
ATOM      8  C   UNL     1       4.862   0.030   2.621  1.00  0.00    -0.003 A 
ATOM      9  C   UNL     1       5.468  -1.080   3.266  1.00  0.00     0.048 A 
ATOM     10  C   UNL     1       6.785  -1.445   3.024  1.00  0.00     0.123 A 
ATOM     11  C   UNL     1       6.989   0.369   1.480  1.00  0.00     0.017 A 
ATOM     12  F   UNL     1       7.306  -2.504   3.656  1.00  0.00    -0.207 F 
ATOM     13  C   UNL     1       7.556  -0.728   2.133  1.00  0.00     0.040 A 
BRANCH   8  14
ATOM     14  C   UNL     1       3.458   0.288   2.988  1.00  0.00    -0.015 A 
ATOM     15  C   UNL     1       1.127   0.688   2.395  1.00  0.00     0.041 A 
ATOM     16  C   UNL     1       0.852   0.995   3.736  1.00  0.00     0.026 A 
ATOM     17  C   UNL     1       2.425   0.301   2.035  1.00  0.00     0.034 A 
ATOM     18  C   UNL     1       1.847   0.924   4.705  1.00  0.00     0.003 A 
ATOM     19  C   UNL     1       3.140   0.573   4.332  1.00  0.00     0.009 A 
BRANCH  15  20
ATOM     20  N   UNL     1       0.096   0.962   1.480  1.00  0.00    -0.326 N 
ATOM     21  C   UNL     1       0.740  -0.403  -0.501  1.00  0.00     0.114 C 
ATOM     22  C   UNL     1      -0.056   0.690   0.154  1.00  0.00     0.221 C 
ATOM     23  O   UNL     1      -0.892   1.330  -0.490  1.00  0.00    -0.275 OA
ATOM     24  H   UNL     1      -0.665   1.446   1.875  1.00  0.00     0.169 HD
ENDBRANCH  15  20
ENDBRANCH   8  14
ENDBRANCH   4   7
ENDBRANCH   2   3
ENDBRANCH   1   2
BRANCH   1  25
ATOM     25  C   UNL     1       2.575   5.559   1.847  1.00  0.00     0.023 C 
BRANCH  25  26
ATOM     26  C   UNL     1       1.267   4.946   1.345  1.00  0.00     0.116 C 
BRANCH  26  27
ATOM     27  N   UNL     1       0.426   4.324   2.357  1.00  0.00    -0.352 N 
ATOM     28  C   UNL     1      -0.949   4.351   2.499  1.00  0.00     0.251 C 
ATOM     29  H   UNL     1       0.908   3.807   3.042  1.00  0.00     0.163 HD
ATOM     30  O   UNL     1      -1.498   3.622   3.308  1.00  0.00    -0.269 OA
BRANCH  28  31
ATOM     31  C   UNL     1      -1.737   5.332   1.718  1.00  0.00     0.039 A 
ATOM     32  C   UNL     1      -2.464   6.301   2.416  1.00  0.00     0.014 A 
ATOM     33  C   UNL     1      -1.652   5.376   0.326  1.00  0.00     0.014 A 
ATOM     34  C   UNL     1      -2.968   7.409   1.732  1.00  0.00     0.010 A 
ATOM     35  C   UNL     1      -2.094   6.515  -0.344  1.00  0.00     0.010 A 
ATOM     36  C   UNL     1      -2.703   7.567   0.362  1.00  0.00    -0.014 A 
BRANCH  36  37
ATOM     37  C   UNL     1      -2.925   8.869  -0.322  1.00  0.00     0.031 A 
ATOM     38  C   UNL     1      -3.878   8.981  -1.475  1.00  0.00     0.074 A 
ATOM     39  C   UNL     1      -2.159   9.927   0.022  1.00  0.00     0.049 A 
ATOM     40  N   UNL     1      -4.083   9.992  -2.281  1.00  0.00    -0.248 NA
ATOM     41  C   UNL     1      -4.687   7.791  -1.779  1.00  0.00     0.031 C 
ATOM     42  C   UNL     1      -1.151   9.934   1.086  1.00  0.00     0.029 A 
ATOM     43  N   UNL     1      -2.087  11.193  -0.505  1.00  0.00    -0.354 N 
ATOM     44  C   UNL     1      -5.026   9.555  -3.201  1.00  0.00     0.074 A 
ATOM     45  C   UNL     1      -5.332   8.178  -2.871  1.00  0.00     0.031 C 
ATOM     46  C   UNL     1      -0.569  11.142   1.136  1.00  0.00     0.029 A 
ATOM     47  C   UNL     1      -1.127  11.982   0.084  1.00  0.00     0.049 A 
ATOM     48  H   UNL     1      -2.668  11.507  -1.236  1.00  0.00     0.167 HD
ATOM     49  C   UNL     1      -5.593  10.244  -4.220  1.00  0.00     0.037 A 
ATOM     50  C   UNL     1      -0.722  13.234  -0.204  1.00  0.00     0.037 A 
ATOM     51  C   UNL     1      -5.307  11.620  -4.533  1.00  0.00     0.049 A 
ATOM     52  C   UNL     1      -1.369  13.975  -1.339  1.00  0.00     0.074 A 
ATOM     53  C   UNL     1      -5.892  12.424  -5.496  1.00  0.00     0.029 A 
ATOM     54  N   UNL     1      -4.351  12.393  -3.893  1.00  0.00    -0.354 N 
ATOM     55  N   UNL     1      -2.313  13.572  -2.154  1.00  0.00    -0.248 NA
ATOM     56  C   UNL     1      -0.893  15.341  -1.598  1.00  0.00     0.031 C 
ATOM     57  C   UNL     1      -5.264  13.674  -5.463  1.00  0.00     0.029 A 
ATOM     58  C   UNL     1      -4.313  13.658  -4.456  1.00  0.00     0.049 A 
ATOM     59  H   UNL     1      -3.784  12.089  -3.148  1.00  0.00     0.167 HD
ATOM     60  C   UNL     1      -2.554  14.637  -3.011  1.00  0.00     0.074 A 
ATOM     61  C   UNL     1      -1.671  15.711  -2.606  1.00  0.00     0.031 C 
ATOM     62  C   UNL     1      -3.428  14.716  -4.043  1.00  0.00     0.037 A 
BRANCH  49  63
ATOM     63  C   UNL     1      -6.586   9.516  -5.076  1.00  0.00     0.057 A 
ATOM     64  C   UNL     1      -7.871   9.207  -4.612  1.00  0.00     0.134 A 
ATOM     65  C   UNL     1      -6.269   9.157  -6.392  1.00  0.00     0.134 A 
ATOM     66  F   UNL     1      -8.232   9.516  -3.357  1.00  0.00    -0.206 F 
ATOM     67  C   UNL     1      -8.798   8.546  -5.419  1.00  0.00     0.040 A 
ATOM     68  C   UNL     1      -7.195   8.516  -7.216  1.00  0.00     0.040 A 
ATOM     69  F   UNL     1      -5.058   9.431  -6.900  1.00  0.00    -0.206 F 
ATOM     70  C   UNL     1      -8.463   8.204  -6.728  1.00  0.00     0.006 A 
ENDBRANCH  49  63
BRANCH  50  71
ATOM     71  C   UNL     1       0.358  13.870   0.592  1.00  0.00     0.057 A 
ATOM     72  C   UNL     1       0.078  14.914   1.480  1.00  0.00     0.134 A 
ATOM     73  C   UNL     1       1.692  13.462   0.474  1.00  0.00     0.134 A 
ATOM     74  F   UNL     1      -1.179  15.362   1.620  1.00  0.00    -0.206 F 
ATOM     75  C   UNL     1       1.087  15.542   2.212  1.00  0.00     0.040 A 
ATOM     76  C   UNL     1       2.709  14.067   1.216  1.00  0.00     0.040 A 
ATOM     77  F   UNL     1       2.025  12.463  -0.356  1.00  0.00    -0.206 F 
ATOM     78  C   UNL     1       2.408  15.116   2.083  1.00  0.00     0.006 A 
ENDBRANCH  50  71
BRANCH  62  79
ATOM     79  C   UNL     1      -3.479  16.011  -4.795  1.00  0.00     0.057 A 
ATOM     80  C   UNL     1      -2.473  16.375  -5.699  1.00  0.00     0.134 A 
ATOM     81  C   UNL     1      -4.562  16.885  -4.642  1.00  0.00     0.134 A 
ATOM     82  F   UNL     1      -1.402  15.588  -5.877  1.00  0.00    -0.206 F 
ATOM     83  C   UNL     1      -2.536  17.572  -6.414  1.00  0.00     0.040 A 
ATOM     84  C   UNL     1      -4.647  18.074  -5.367  1.00  0.00     0.040 A 
ATOM     85  F   UNL     1      -5.560  16.591  -3.794  1.00  0.00    -0.206 F 
ATOM     86  C   UNL     1      -3.630  18.422  -6.253  1.00  0.00     0.006 A 
ENDBRANCH  62  79
ENDBRANCH  36  37
ENDBRANCH  28  31
ENDBRANCH  26  27
ENDBRANCH  25  26
ENDBRANCH   1  25
TORSDOF 13
