REMARK SMILES O=C(NCCCCNC(=O)[C@H](NC(=O)c1ccc(Br)nc1)c1ccccc1)c1ccc(-c2c3nc(c(-c4c(F)cccc4F)c4ccc([nH]4)c(-c4c(F)cccc4F)c4nc(c(-c5c(F)cccc5F)c5ccc2[nH]5)C=C4)C=C3)cc1
REMARK SMILES IDX 5 1 4 2 3 3 1 4 2 5 28 7 29 8 81 9 30 10 80 11 31 12 32 13
REMARK SMILES IDX 33 14 74 15 34 16 79 17 73 18 75 19 35 20 78 21 72 22 71 23
REMARK SMILES IDX 36 25 62 26 45 27 61 28 46 29 49 30 60 31 76 32 47 33 48 34
REMARK SMILES IDX 59 36 77 37 50 38 37 39 38 40 43 41 39 42 40 43 42 44 44 45
REMARK SMILES IDX 41 46 63 47 64 48 69 49 65 50 66 51 68 52 70 53 67 54 51 55
REMARK SMILES IDX 52 56 57 57 53 58 54 59 56 60 58 61 55 62 6 63 7 64 8 65
REMARK SMILES IDX 9 66 10 68 11 69 22 70 23 71 27 72 24 73 26 74 25 75 12 76
REMARK SMILES IDX 13 77 14 79 15 80 16 81 21 82 17 83 20 84 18 85 19 86
REMARK H PARENT 3 6 75 24 49 35 8 67 12 78
REMARK Flexibility Score: inf
ROOT
ATOM      1  C   UNL     1       7.908   7.921   0.233  1.00  0.00     0.023 C 
ENDROOT
BRANCH   1   2
ATOM      2  C   UNL     1       7.957   9.434   0.398  1.00  0.00     0.116 C 
BRANCH   2   3
ATOM      3  N   UNL     1       9.306   9.937   0.600  1.00  0.00    -0.352 N 
ATOM      4  O   UNL     1      11.088  11.264   0.184  1.00  0.00    -0.269 OA
ATOM      5  C   UNL     1       9.893  11.038   0.026  1.00  0.00     0.251 C 
ATOM      6  H   UNL     1       9.868   9.425   1.226  1.00  0.00     0.163 HD
BRANCH   5   7
ATOM      7  C   UNL     1       9.069  11.941  -0.803  1.00  0.00     0.039 A 
ATOM      8  C   UNL     1       7.832  12.395  -0.336  1.00  0.00     0.014 A 
ATOM      9  C   UNL     1       9.540  12.335  -2.058  1.00  0.00     0.014 A 
ATOM     10  C   UNL     1       7.022  13.162  -1.163  1.00  0.00     0.010 A 
ATOM     11  C   UNL     1       8.757  13.169  -2.859  1.00  0.00     0.010 A 
ATOM     12  C   UNL     1       7.489  13.582  -2.419  1.00  0.00    -0.014 A 
BRANCH  12  13
ATOM     13  C   UNL     1       6.692  14.561  -3.195  1.00  0.00     0.031 A 
ATOM     14  C   UNL     1       6.070  14.202  -4.512  1.00  0.00     0.074 A 
ATOM     15  C   UNL     1       6.546  15.799  -2.683  1.00  0.00     0.049 A 
ATOM     16  N   UNL     1       5.362  14.956  -5.315  1.00  0.00    -0.248 NA
ATOM     17  C   UNL     1       6.267  12.828  -4.997  1.00  0.00     0.031 C 
ATOM     18  C   UNL     1       7.132  16.260  -1.420  1.00  0.00     0.029 A 
ATOM     19  N   UNL     1       5.867  16.892  -3.151  1.00  0.00    -0.354 N 
ATOM     20  C   UNL     1       5.046  14.159  -6.407  1.00  0.00     0.074 A 
ATOM     21  C   UNL     1       5.648  12.863  -6.171  1.00  0.00     0.031 C 
ATOM     22  C   UNL     1       6.767  17.531  -1.203  1.00  0.00     0.029 A 
ATOM     23  C   UNL     1       5.978  17.993  -2.337  1.00  0.00     0.049 A 
ATOM     24  H   UNL     1       5.350  16.889  -3.989  1.00  0.00     0.167 HD
ATOM     25  C   UNL     1       4.317  14.486  -7.500  1.00  0.00     0.037 A 
ATOM     26  C   UNL     1       5.524  19.249  -2.500  1.00  0.00     0.037 A 
ATOM     27  C   UNL     1       3.704  15.773  -7.711  1.00  0.00     0.049 A 
ATOM     28  C   UNL     1       4.745  19.582  -3.737  1.00  0.00     0.074 A 
ATOM     29  C   UNL     1       2.879  16.174  -8.749  1.00  0.00     0.029 A 
ATOM     30  N   UNL     1       3.859  16.871  -6.878  1.00  0.00    -0.354 N 
ATOM     31  N   UNL     1       4.394  18.798  -4.726  1.00  0.00    -0.248 NA
ATOM     32  C   UNL     1       4.307  20.976  -3.886  1.00  0.00     0.031 C 
ATOM     33  C   UNL     1       2.579  17.528  -8.572  1.00  0.00     0.029 A 
ATOM     34  C   UNL     1       3.180  17.960  -7.401  1.00  0.00     0.049 A 
ATOM     35  H   UNL     1       4.376  16.876  -6.040  1.00  0.00     0.167 HD
ATOM     36  C   UNL     1       3.692  19.600  -5.614  1.00  0.00     0.074 A 
ATOM     37  C   UNL     1       3.639  20.924  -5.029  1.00  0.00     0.031 C 
ATOM     38  C   UNL     1       3.148  19.272  -6.810  1.00  0.00     0.037 A 
BRANCH  25  39
ATOM     39  C   UNL     1       4.140  13.452  -8.572  1.00  0.00     0.057 A 
ATOM     40  C   UNL     1       3.261  12.373  -8.422  1.00  0.00     0.134 A 
ATOM     41  C   UNL     1       4.782  13.597  -9.809  1.00  0.00     0.134 A 
ATOM     42  F   UNL     1       2.620  12.175  -7.261  1.00  0.00    -0.206 F 
ATOM     43  C   UNL     1       3.026  11.475  -9.466  1.00  0.00     0.040 A 
ATOM     44  C   UNL     1       4.541  12.717 -10.865  1.00  0.00     0.040 A 
ATOM     45  F   UNL     1       5.631  14.614 -10.020  1.00  0.00    -0.206 F 
ATOM     46  C   UNL     1       3.659  11.652 -10.695  1.00  0.00     0.006 A 
ENDBRANCH  25  39
BRANCH  26  47
ATOM     47  C   UNL     1       5.835  20.287  -1.488  1.00  0.00     0.057 A 
ATOM     48  C   UNL     1       4.833  20.847  -0.689  1.00  0.00     0.134 A 
ATOM     49  C   UNL     1       7.144  20.750  -1.302  1.00  0.00     0.134 A 
ATOM     50  F   UNL     1       3.558  20.457  -0.832  1.00  0.00    -0.206 F 
ATOM     51  C   UNL     1       5.118  21.846   0.244  1.00  0.00     0.040 A 
ATOM     52  C   UNL     1       7.448  21.725  -0.353  1.00  0.00     0.040 A 
ATOM     53  F   UNL     1       8.151  20.246  -2.031  1.00  0.00    -0.206 F 
ATOM     54  C   UNL     1       6.430  22.283   0.417  1.00  0.00     0.006 A 
ENDBRANCH  26  47
BRANCH  38  55
ATOM     55  C   UNL     1       2.451  20.368  -7.558  1.00  0.00     0.057 A 
ATOM     56  C   UNL     1       3.168  21.391  -8.191  1.00  0.00     0.134 A 
ATOM     57  C   UNL     1       1.056  20.389  -7.665  1.00  0.00     0.134 A 
ATOM     58  F   UNL     1       4.506  21.436  -8.108  1.00  0.00    -0.206 F 
ATOM     59  C   UNL     1       2.518  22.411  -8.886  1.00  0.00     0.040 A 
ATOM     60  C   UNL     1       0.396  21.389  -8.379  1.00  0.00     0.040 A 
ATOM     61  F   UNL     1       0.313  19.434  -7.086  1.00  0.00    -0.206 F 
ATOM     62  C   UNL     1       1.128  22.408  -8.987  1.00  0.00     0.006 A 
ENDBRANCH  38  55
ENDBRANCH  12  13
ENDBRANCH   5   7
ENDBRANCH   2   3
ENDBRANCH   1   2
BRANCH   1  63
ATOM     63  C   UNL     1       8.389   7.125   1.448  1.00  0.00     0.023 C 
BRANCH  63  64
ATOM     64  C   UNL     1       7.656   7.457   2.746  1.00  0.00     0.116 C 
BRANCH  64  65
ATOM     65  N   UNL     1       6.256   7.072   2.683  1.00  0.00    -0.354 N 
ATOM     66  C   UNL     1       5.615   6.043   3.329  1.00  0.00     0.247 C 
ATOM     67  H   UNL     1       5.690   7.624   2.097  1.00  0.00     0.163 HD
ATOM     68  O   UNL     1       4.443   5.820   3.026  1.00  0.00    -0.272 OA
BRANCH  66  69
ATOM     69  C   UNL     1       6.408   5.219   4.371  1.00  0.00     0.202 C 
BRANCH  69  70
ATOM     70  C   UNL     1       5.532   4.471   5.367  1.00  0.00    -0.016 A 
ATOM     71  C   UNL     1       4.819   5.205   6.331  1.00  0.00     0.006 A 
ATOM     72  C   UNL     1       5.473   3.068   5.419  1.00  0.00     0.006 A 
ATOM     73  C   UNL     1       4.106   4.555   7.340  1.00  0.00     0.000 A 
ATOM     74  C   UNL     1       4.766   2.421   6.433  1.00  0.00     0.000 A 
ATOM     75  C   UNL     1       4.091   3.164   7.398  1.00  0.00     0.000 A 
ENDBRANCH  69  70
BRANCH  69  76
ATOM     76  N   UNL     1       7.336   4.337   3.660  1.00  0.00    -0.336 N 
ATOM     77  C   UNL     1       8.662   4.087   3.889  1.00  0.00     0.253 C 
ATOM     78  H   UNL     1       6.946   3.848   2.899  1.00  0.00     0.165 HD
ATOM     79  O   UNL     1       9.306   3.427   3.080  1.00  0.00    -0.269 OA
BRANCH  77  80
ATOM     80  C   UNL     1       9.356   4.663   5.057  1.00  0.00     0.058 A 
ATOM     81  C   UNL     1       8.850   4.638   6.356  1.00  0.00     0.018 A 
ATOM     82  C   UNL     1      10.596   5.255   4.856  1.00  0.00     0.126 A 
ATOM     83  C   UNL     1       9.558   5.268   7.379  1.00  0.00     0.037 A 
ATOM     84  N   UNL     1      11.304   5.876   5.831  1.00  0.00    -0.249 NA
ATOM     85  C   UNL     1      10.768   5.874   7.071  1.00  0.00     0.106 A 
ATOM     86  Br  UNL     1      11.728   6.752   8.449  1.00  0.00    -0.029 Br
ENDBRANCH  77  80
ENDBRANCH  69  76
ENDBRANCH  66  69
ENDBRANCH  64  65
ENDBRANCH  63  64
ENDBRANCH   1  63
TORSDOF 14
