REMARK SMILES O=C(CCCC[C@@H]1CCSS1)NCCCCNC(=O)c1ccc(-c2c3nc(c(-c4c(F)cccc4F)c4ccc([nH]4)c(-c4c(F)cccc4F)c4nc(c(-c5c(F)cccc5F)c5ccc2[nH]5)C=C4)C=C3)cc1
REMARK SMILES IDX 13 1 12 2 1 3 2 4 3 6 4 7 5 8 6 9 7 10 8 11 11 12 9 13 10 14
REMARK SMILES IDX 14 15 15 16 16 17 17 18 18 19 19 21 20 22 21 23 73 24 22 25
REMARK SMILES IDX 72 26 23 27 24 28 25 29 66 30 26 31 71 32 65 33 67 34 27 35
REMARK SMILES IDX 70 36 64 37 63 38 28 40 54 41 37 42 53 43 38 44 41 45 52 46
REMARK SMILES IDX 68 47 39 48 40 49 51 51 69 52 42 53 29 54 30 55 35 56 31 57
REMARK SMILES IDX 32 58 34 59 36 60 33 61 55 62 56 63 61 64 57 65 58 66 60 67
REMARK SMILES IDX 62 68 59 69 43 70 44 71 49 72 45 73 46 74 48 75 50 76 47 77
REMARK H PARENT 12 5 17 20 67 39 41 50
REMARK Flexibility Score: inf
ROOT
ATOM      1  C   UNL     1       1.993  -1.078  -2.308  1.00  0.00     0.116 C 
ENDROOT
BRANCH   1   2
ATOM      2  N   UNL     1       2.639  -0.442  -1.180  1.00  0.00    -0.356 N 
ATOM      3  O   UNL     1       0.740  -0.225   0.090  1.00  0.00    -0.275 OA
ATOM      4  C   UNL     1       1.954  -0.112  -0.034  1.00  0.00     0.219 C 
ATOM      5  H   UNL     1       3.601  -0.238  -1.234  1.00  0.00     0.163 HD
BRANCH   4   6
ATOM      6  C   UNL     1       2.829   0.404   1.089  1.00  0.00     0.100 C 
BRANCH   6   7
ATOM      7  C   UNL     1       3.716  -0.688   1.695  1.00  0.00     0.010 C 
BRANCH   7   8
ATOM      8  C   UNL     1       5.063  -0.973   1.005  1.00  0.00     0.002 C 
BRANCH   8   9
ATOM      9  C   UNL     1       5.892   0.228   0.527  1.00  0.00     0.015 C 
BRANCH   9  10
ATOM     10  C   UNL     1       6.670   1.015   1.595  1.00  0.00     0.059 C 
ATOM     11  C   UNL     1       5.959   1.262   2.926  1.00  0.00     0.027 C 
ATOM     12  S   UNL     1       7.112   2.660   0.923  1.00  0.00    -0.091 SA
ATOM     13  C   UNL     1       6.707   2.307   3.746  1.00  0.00     0.083 C 
ATOM     14  S   UNL     1       6.898   3.732   2.656  1.00  0.00    -0.094 SA
ENDBRANCH   9  10
ENDBRANCH   8   9
ENDBRANCH   7   8
ENDBRANCH   6   7
ENDBRANCH   4   6
ENDBRANCH   1   2
BRANCH   1  15
ATOM     15  C   UNL     1       2.469  -0.519  -3.646  1.00  0.00     0.023 C 
BRANCH  15  16
ATOM     16  C   UNL     1       3.971  -0.649  -3.915  1.00  0.00     0.023 C 
BRANCH  16  17
ATOM     17  C   UNL     1       4.535  -2.065  -3.839  1.00  0.00     0.116 C 
BRANCH  17  18
ATOM     18  N   UNL     1       3.965  -2.952  -4.839  1.00  0.00    -0.352 N 
ATOM     19  C   UNL     1       4.584  -3.706  -5.808  1.00  0.00     0.251 C 
ATOM     20  H   UNL     1       2.983  -3.025  -4.820  1.00  0.00     0.163 HD
ATOM     21  O   UNL     1       3.910  -4.270  -6.664  1.00  0.00    -0.269 OA
BRANCH  19  22
ATOM     22  C   UNL     1       6.060  -3.823  -5.845  1.00  0.00     0.039 A 
ATOM     23  C   UNL     1       6.709  -3.732  -7.080  1.00  0.00     0.014 A 
ATOM     24  C   UNL     1       6.804  -4.044  -4.683  1.00  0.00     0.014 A 
ATOM     25  C   UNL     1       8.104  -3.792  -7.141  1.00  0.00     0.010 A 
ATOM     26  C   UNL     1       8.197  -4.031  -4.736  1.00  0.00     0.010 A 
ATOM     27  C   UNL     1       8.864  -3.903  -5.965  1.00  0.00    -0.014 A 
BRANCH  27  28
ATOM     28  C   UNL     1      10.350  -3.870  -6.001  1.00  0.00     0.031 A 
ATOM     29  C   UNL     1      11.151  -5.062  -5.554  1.00  0.00     0.074 A 
ATOM     30  C   UNL     1      10.983  -2.741  -6.377  1.00  0.00     0.049 A 
ATOM     31  N   UNL     1      12.450  -5.194  -5.449  1.00  0.00    -0.248 NA
ATOM     32  C   UNL     1      10.393  -6.255  -5.147  1.00  0.00     0.031 C 
ATOM     33  C   UNL     1      10.325  -1.501  -6.794  1.00  0.00     0.029 A 
ATOM     34  N   UNL     1      12.322  -2.449  -6.458  1.00  0.00    -0.354 N 
ATOM     35  C   UNL     1      12.663  -6.474  -4.953  1.00  0.00     0.074 A 
ATOM     36  C   UNL     1      11.359  -7.061  -4.730  1.00  0.00     0.031 C 
ATOM     37  C   UNL     1      11.261  -0.592  -7.110  1.00  0.00     0.029 A 
ATOM     38  C   UNL     1      12.582  -1.167  -6.878  1.00  0.00     0.049 A 
ATOM     39  H   UNL     1      13.029  -3.097  -6.237  1.00  0.00     0.167 HD
ATOM     40  C   UNL     1      13.836  -7.111  -4.723  1.00  0.00     0.037 A 
ATOM     41  C   UNL     1      13.752  -0.522  -7.048  1.00  0.00     0.037 A 
ATOM     42  C   UNL     1      15.134  -6.535  -4.967  1.00  0.00     0.049 A 
ATOM     43  C   UNL     1      15.041  -1.245  -6.768  1.00  0.00     0.074 A 
ATOM     44  C   UNL     1      16.378  -7.125  -4.825  1.00  0.00     0.029 A 
ATOM     45  N   UNL     1      15.355  -5.236  -5.399  1.00  0.00    -0.354 N 
ATOM     46  N   UNL     1      15.226  -2.478  -6.364  1.00  0.00    -0.248 NA
ATOM     47  C   UNL     1      16.283  -0.487  -6.972  1.00  0.00     0.031 C 
ATOM     48  C   UNL     1      17.354  -6.167  -5.121  1.00  0.00     0.029 A 
ATOM     49  C   UNL     1      16.716  -4.997  -5.502  1.00  0.00     0.049 A 
ATOM     50  H   UNL     1      14.649  -4.580  -5.603  1.00  0.00     0.167 HD
ATOM     51  C   UNL     1      16.603  -2.653  -6.297  1.00  0.00     0.074 A 
ATOM     52  C   UNL     1      17.204  -1.404  -6.714  1.00  0.00     0.031 C 
ATOM     53  C   UNL     1      17.305  -3.752  -5.925  1.00  0.00     0.037 A 
BRANCH  40  54
ATOM     54  C   UNL     1      13.773  -8.508  -4.175  1.00  0.00     0.057 A 
ATOM     55  C   UNL     1      13.319  -9.586  -4.947  1.00  0.00     0.134 A 
ATOM     56  C   UNL     1      14.210  -8.786  -2.874  1.00  0.00     0.134 A 
ATOM     57  F   UNL     1      12.877  -9.389  -6.198  1.00  0.00    -0.206 F 
ATOM     58  C   UNL     1      13.276 -10.884  -4.434  1.00  0.00     0.040 A 
ATOM     59  C   UNL     1      14.200 -10.084  -2.361  1.00  0.00     0.040 A 
ATOM     60  F   UNL     1      14.666  -7.803  -2.083  1.00  0.00    -0.206 F 
ATOM     61  C   UNL     1      13.725 -11.137  -3.140  1.00  0.00     0.006 A 
ENDBRANCH  40  54
BRANCH  41  62
ATOM     62  C   UNL     1      13.765   0.885  -7.526  1.00  0.00     0.057 A 
ATOM     63  C   UNL     1      14.242   1.208  -8.801  1.00  0.00     0.134 A 
ATOM     64  C   UNL     1      13.318   1.938  -6.719  1.00  0.00     0.134 A 
ATOM     65  F   UNL     1      14.703   0.245  -9.613  1.00  0.00    -0.206 F 
ATOM     66  C   UNL     1      14.294   2.529  -9.250  1.00  0.00     0.040 A 
ATOM     67  C   UNL     1      13.338   3.260  -7.165  1.00  0.00     0.040 A 
ATOM     68  F   UNL     1      12.843   1.694  -5.488  1.00  0.00    -0.206 F 
ATOM     69  C   UNL     1      13.836   3.559  -8.432  1.00  0.00     0.006 A 
ENDBRANCH  41  62
BRANCH  53  70
ATOM     70  C   UNL     1      18.802  -3.667  -5.990  1.00  0.00     0.057 A 
ATOM     71  C   UNL     1      19.543  -2.901  -5.081  1.00  0.00     0.134 A 
ATOM     72  C   UNL     1      19.515  -4.393  -6.954  1.00  0.00     0.134 A 
ATOM     73  F   UNL     1      18.921  -2.172  -4.141  1.00  0.00    -0.206 F 
ATOM     74  C   UNL     1      20.936  -2.841  -5.143  1.00  0.00     0.040 A 
ATOM     75  C   UNL     1      20.909  -4.363  -7.008  1.00  0.00     0.040 A 
ATOM     76  F   UNL     1      18.868  -5.154  -7.850  1.00  0.00    -0.206 F 
ATOM     77  C   UNL     1      21.623  -3.579  -6.105  1.00  0.00     0.006 A 
ENDBRANCH  53  70
ENDBRANCH  27  28
ENDBRANCH  19  22
ENDBRANCH  17  18
ENDBRANCH  16  17
ENDBRANCH  15  16
ENDBRANCH   1  15
TORSDOF 15
