REMARK SMILES CC1(C)O[C@](C)([C@H](O)C2CCCCC2)CC[C@H]1C(=O)NCCCCNC(=O)c1ccc(-c2c3nc(c(-c4c(F)cccc4F)c4ccc([nH]4)c(-c4c(F)cccc4F)c4nc(c(-c5c(F)cccc5F)c5ccc2[nH]5)C=C4)C=C3)cc1
REMARK SMILES IDX 22 1 21 2 20 3 18 4 19 5 17 7 1 8 2 9 3 10 4 11 5 12 16 13
REMARK SMILES IDX 6 14 15 15 7 16 9 17 10 18 14 19 11 20 13 21 12 22 8 23
REMARK SMILES IDX 23 25 24 26 25 27 26 28 27 30 28 31 29 32 81 33 30 34 80 35
REMARK SMILES IDX 31 36 32 37 33 38 74 39 34 40 79 41 73 42 75 43 35 44 78 45
REMARK SMILES IDX 72 46 71 47 36 49 62 50 45 51 61 52 46 53 49 54 60 55 76 56
REMARK SMILES IDX 47 57 48 58 59 60 77 61 50 62 37 63 38 64 43 65 39 66 40 67
REMARK SMILES IDX 42 68 44 69 41 70 63 71 64 72 69 73 65 74 66 75 68 76 70 77
REMARK SMILES IDX 67 78 51 79 52 80 57 81 53 82 54 83 56 84 58 85 55 86
REMARK H PARENT 20 6 8 24 25 29 75 48 49 59
REMARK Flexibility Score: inf
ROOT
ATOM      1  C   UNL     1      -0.675   4.305   7.807  1.00  0.00     0.023 C 
ENDROOT
BRANCH   1   2
ATOM      2  C   UNL     1      -1.803   3.500   7.161  1.00  0.00     0.116 C 
BRANCH   2   3
ATOM      3  N   UNL     1      -3.044   4.241   7.087  1.00  0.00    -0.356 N 
ATOM      4  C   UNL     1      -3.766   4.695   6.029  1.00  0.00     0.226 C 
ATOM      5  O   UNL     1      -4.787   5.336   6.304  1.00  0.00    -0.275 OA
ATOM      6  H   UNL     1      -3.437   4.455   7.964  1.00  0.00     0.163 HD
BRANCH   4   7
ATOM      7  C   UNL     1      -3.392   4.463   4.558  1.00  0.00     0.110 C 
ATOM      8  C   UNL     1      -1.109   5.759   4.915  1.00  0.00     0.043 C 
ATOM      9  C   UNL     1      -2.266   5.383   3.996  1.00  0.00     0.075 C 
ATOM     10  C   UNL     1      -2.918   6.736   3.611  1.00  0.00     0.043 C 
ATOM     11  O   UNL     1      -1.673   4.914   2.781  1.00  0.00    -0.366 OA
ATOM     12  C   UNL     1      -1.449   3.519   2.556  1.00  0.00     0.092 C 
ATOM     13  C   UNL     1      -3.367   2.987   4.143  1.00  0.00     0.019 C 
ATOM     14  C   UNL     1      -0.412   2.846   3.482  1.00  0.00     0.045 C 
ATOM     15  C   UNL     1      -2.802   2.798   2.732  1.00  0.00     0.039 C 
BRANCH  12  16
ATOM     16  C   UNL     1      -0.971   3.425   1.058  1.00  0.00     0.149 C 
BRANCH  16  17
ATOM     17  C   UNL     1       0.130   4.450   0.600  1.00  0.00     0.021 C 
ATOM     18  C   UNL     1       1.352   4.656   1.510  1.00  0.00     0.006 C 
ATOM     19  C   UNL     1       0.641   4.194  -0.835  1.00  0.00     0.006 C 
ATOM     20  C   UNL     1       2.322   3.482   1.477  1.00  0.00     0.000 C 
ATOM     21  C   UNL     1       1.722   3.113  -0.950  1.00  0.00     0.000 C 
ATOM     22  C   UNL     1       2.851   3.276   0.064  1.00  0.00     0.000 C 
ENDBRANCH  16  17
BRANCH  16  23
ATOM     23  O   UNL     1      -0.634   2.077   0.733  1.00  0.00    -0.390 OA
ATOM     24  H   UNL     1       0.132   1.799   1.260  1.00  0.00     0.211 HD
ENDBRANCH  16  23
ENDBRANCH  12  16
ENDBRANCH   4   7
ENDBRANCH   2   3
ENDBRANCH   1   2
BRANCH   1  25
ATOM     25  C   UNL     1      -0.693   4.334   9.325  1.00  0.00     0.023 C 
BRANCH  25  26
ATOM     26  C   UNL     1      -0.534   2.974   9.979  1.00  0.00     0.116 C 
BRANCH  26  27
ATOM     27  N   UNL     1       0.683   2.275   9.578  1.00  0.00    -0.352 N 
ATOM     28  C   UNL     1       1.655   1.712  10.373  1.00  0.00     0.251 C 
ATOM     29  H   UNL     1       0.828   2.197   8.608  1.00  0.00     0.163 HD
ATOM     30  O   UNL     1       2.682   1.257   9.887  1.00  0.00    -0.269 OA
BRANCH  28  31
ATOM     31  C   UNL     1       1.450   1.708  11.833  1.00  0.00     0.039 A 
ATOM     32  C   UNL     1       2.441   2.240  12.659  1.00  0.00     0.014 A 
ATOM     33  C   UNL     1       0.229   1.284  12.360  1.00  0.00     0.014 A 
ATOM     34  C   UNL     1       2.163   2.445  14.010  1.00  0.00     0.010 A 
ATOM     35  C   UNL     1      -0.080   1.583  13.679  1.00  0.00     0.010 A 
ATOM     36  C   UNL     1       0.881   2.172  14.514  1.00  0.00    -0.014 A 
BRANCH  36  37
ATOM     37  C   UNL     1       0.508   2.502  15.911  1.00  0.00     0.031 A 
ATOM     38  C   UNL     1       0.079   1.406  16.845  1.00  0.00     0.074 A 
ATOM     39  C   UNL     1       0.458   3.790  16.303  1.00  0.00     0.049 A 
ATOM     40  N   UNL     1      -0.398   1.494  18.059  1.00  0.00    -0.248 NA
ATOM     41  C   UNL     1       0.159   0.029  16.328  1.00  0.00     0.031 C 
ATOM     42  C   UNL     1       0.783   4.948  15.467  1.00  0.00     0.029 A 
ATOM     43  N   UNL     1       0.099   4.342  17.507  1.00  0.00    -0.354 N 
ATOM     44  C   UNL     1      -0.701   0.193  18.437  1.00  0.00     0.074 A 
ATOM     45  C   UNL     1      -0.406  -0.660  17.307  1.00  0.00     0.031 C 
ATOM     46  C   UNL     1       0.635   6.069  16.191  1.00  0.00     0.029 A 
ATOM     47  C   UNL     1       0.170   5.714  17.527  1.00  0.00     0.049 A 
ATOM     48  H   UNL     1      -0.183   3.806  18.283  1.00  0.00     0.167 HD
ATOM     49  C   UNL     1      -1.159  -0.255  19.630  1.00  0.00     0.037 A 
ATOM     50  C   UNL     1      -0.114   6.585  18.513  1.00  0.00     0.037 A 
ATOM     51  C   UNL     1      -1.403   0.591  20.766  1.00  0.00     0.049 A 
ATOM     52  C   UNL     1      -0.588   6.061  19.839  1.00  0.00     0.074 A 
ATOM     53  C   UNL     1      -1.787   0.227  22.044  1.00  0.00     0.029 A 
ATOM     54  N   UNL     1      -1.280   1.972  20.760  1.00  0.00    -0.354 N 
ATOM     55  N   UNL     1      -0.804   4.821  20.206  1.00  0.00    -0.248 NA
ATOM     56  C   UNL     1      -0.855   7.055  20.887  1.00  0.00     0.031 C 
ATOM     57  C   UNL     1      -1.925   1.393  22.806  1.00  0.00     0.029 A 
ATOM     58  C   UNL     1      -1.595   2.478  22.009  1.00  0.00     0.049 A 
ATOM     59  H   UNL     1      -1.009   2.512  19.983  1.00  0.00     0.167 HD
ATOM     60  C   UNL     1      -1.213   4.883  21.531  1.00  0.00     0.074 A 
ATOM     61  C   UNL     1      -1.200   6.282  21.908  1.00  0.00     0.031 C 
ATOM     62  C   UNL     1      -1.571   3.874  22.361  1.00  0.00     0.037 A 
BRANCH  49  63
ATOM     63  C   UNL     1      -1.405  -1.728  19.762  1.00  0.00     0.057 A 
ATOM     64  C   UNL     1      -0.350  -2.649  19.812  1.00  0.00     0.134 A 
ATOM     65  C   UNL     1      -2.708  -2.230  19.857  1.00  0.00     0.134 A 
ATOM     66  F   UNL     1       0.921  -2.233  19.709  1.00  0.00    -0.206 F 
ATOM     67  C   UNL     1      -0.584  -4.020  19.924  1.00  0.00     0.040 A 
ATOM     68  C   UNL     1      -2.953  -3.597  19.994  1.00  0.00     0.040 A 
ATOM     69  F   UNL     1      -3.762  -1.402  19.817  1.00  0.00    -0.206 F 
ATOM     70  C   UNL     1      -1.889  -4.497  20.021  1.00  0.00     0.006 A 
ENDBRANCH  49  63
BRANCH  50  71
ATOM     71  C   UNL     1       0.072   8.041  18.296  1.00  0.00     0.057 A 
ATOM     72  C   UNL     1       1.125   8.730  18.909  1.00  0.00     0.134 A 
ATOM     73  C   UNL     1      -0.792   8.778  17.478  1.00  0.00     0.134 A 
ATOM     74  F   UNL     1       1.975   8.080  19.718  1.00  0.00    -0.206 F 
ATOM     75  C   UNL     1       1.303  10.103  18.732  1.00  0.00     0.040 A 
ATOM     76  C   UNL     1      -0.614  10.148  17.276  1.00  0.00     0.040 A 
ATOM     77  F   UNL     1      -1.816   8.175  16.857  1.00  0.00    -0.206 F 
ATOM     78  C   UNL     1       0.433  10.815  17.909  1.00  0.00     0.006 A 
ENDBRANCH  50  71
BRANCH  62  79
ATOM     79  C   UNL     1      -1.955   4.247  23.761  1.00  0.00     0.057 A 
ATOM     80  C   UNL     1      -3.188   4.844  24.049  1.00  0.00     0.134 A 
ATOM     81  C   UNL     1      -1.099   3.970  24.833  1.00  0.00     0.134 A 
ATOM     82  F   UNL     1      -4.044   5.147  23.062  1.00  0.00    -0.206 F 
ATOM     83  C   UNL     1      -3.549   5.169  25.357  1.00  0.00     0.040 A 
ATOM     84  C   UNL     1      -1.458   4.270  26.147  1.00  0.00     0.040 A 
ATOM     85  F   UNL     1       0.094   3.392  24.622  1.00  0.00    -0.206 F 
ATOM     86  C   UNL     1      -2.686   4.875  26.411  1.00  0.00     0.006 A 
ENDBRANCH  62  79
ENDBRANCH  36  37
ENDBRANCH  28  31
ENDBRANCH  26  27
ENDBRANCH  25  26
ENDBRANCH   1  25
TORSDOF 14
