REMARK SMILES O=C(NCCCCNC(=O)c1nnn(-c2ccc(C(F)(F)F)cc2)c1-c1cccc(Cl)c1)c1ccc(-c2c3nc(c(-c4c(F)cccc4F)c4ccc([nH]4)c(-c4c(F)cccc4F)c4nc(c(-c5c(F)cccc5F)c5ccc2[nH]5)C=C4)C=C3)cc1
REMARK SMILES IDX 5 1 4 2 3 3 1 4 2 5 33 7 34 8 86 9 35 10 85 11 36 12 37 13
REMARK SMILES IDX 38 14 79 15 39 16 84 17 78 18 80 19 40 20 83 21 77 22 76 23
REMARK SMILES IDX 41 25 67 26 50 27 66 28 51 29 54 30 65 31 81 32 52 33 53 34
REMARK SMILES IDX 64 36 82 37 55 38 42 39 43 40 48 41 44 42 45 43 47 44 49 45
REMARK SMILES IDX 46 46 68 47 69 48 74 49 70 50 71 51 73 52 75 53 72 54 56 55
REMARK SMILES IDX 57 56 62 57 58 58 59 59 61 60 63 61 60 62 6 63 7 64 8 65
REMARK SMILES IDX 9 66 10 68 11 69 12 70 25 71 13 72 14 73 26 74 27 75 32 76
REMARK SMILES IDX 28 77 30 78 29 79 31 80 15 81 16 82 24 83 17 84 23 85 18 86
REMARK SMILES IDX 19 87 20 88 21 89 22 90
REMARK H PARENT 3 6 80 24 54 35 8 67
REMARK Flexibility Score: inf
ROOT
ATOM      1  C   UNL     1       5.156   0.994   1.924  1.00  0.00     0.023 C 
ENDROOT
BRANCH   1   2
ATOM      2  C   UNL     1       4.798  -0.113   0.928  1.00  0.00     0.116 C 
BRANCH   2   3
ATOM      3  N   UNL     1       3.387  -0.440   0.851  1.00  0.00    -0.352 N 
ATOM      4  O   UNL     1       1.268  -0.597   0.257  1.00  0.00    -0.269 OA
ATOM      5  C   UNL     1       2.302   0.076   0.194  1.00  0.00     0.251 C 
ATOM      6  H   UNL     1       3.154  -1.222   1.402  1.00  0.00     0.163 HD
BRANCH   5   7
ATOM      7  C   UNL     1       2.260   1.376  -0.537  1.00  0.00     0.039 A 
ATOM      8  C   UNL     1       3.356   2.193  -0.804  1.00  0.00     0.014 A 
ATOM      9  C   UNL     1       0.991   1.808  -0.978  1.00  0.00     0.014 A 
ATOM     10  C   UNL     1       3.186   3.426  -1.435  1.00  0.00     0.010 A 
ATOM     11  C   UNL     1       0.817   3.032  -1.628  1.00  0.00     0.010 A 
ATOM     12  C   UNL     1       1.918   3.855  -1.843  1.00  0.00    -0.014 A 
BRANCH  12  13
ATOM     13  C   UNL     1       1.840   5.104  -2.602  1.00  0.00     0.031 A 
ATOM     14  C   UNL     1       2.538   5.109  -3.920  1.00  0.00     0.074 A 
ATOM     15  C   UNL     1       1.115   6.192  -2.274  1.00  0.00     0.049 A 
ATOM     16  N   UNL     1       3.547   5.832  -4.288  1.00  0.00    -0.248 NA
ATOM     17  C   UNL     1       2.070   4.165  -4.943  1.00  0.00     0.031 C 
ATOM     18  C   UNL     1       0.097   6.329  -1.235  1.00  0.00     0.029 A 
ATOM     19  N   UNL     1       1.102   7.412  -2.893  1.00  0.00    -0.354 N 
ATOM     20  C   UNL     1       3.752   5.555  -5.638  1.00  0.00     0.074 A 
ATOM     21  C   UNL     1       2.876   4.458  -5.966  1.00  0.00     0.031 C 
ATOM     22  C   UNL     1      -0.564   7.497  -1.416  1.00  0.00     0.029 A 
ATOM     23  C   UNL     1       0.068   8.243  -2.494  1.00  0.00     0.049 A 
ATOM     24  H   UNL     1       1.771   7.677  -3.565  1.00  0.00     0.167 HD
ATOM     25  C   UNL     1       4.513   6.353  -6.438  1.00  0.00     0.037 A 
ATOM     26  C   UNL     1      -0.270   9.439  -3.035  1.00  0.00     0.037 A 
ATOM     27  C   UNL     1       5.358   7.234  -5.680  1.00  0.00     0.049 A 
ATOM     28  C   UNL     1       0.892   9.959  -3.793  1.00  0.00     0.074 A 
ATOM     29  C   UNL     1       6.350   7.069  -4.733  1.00  0.00     0.029 A 
ATOM     30  N   UNL     1       5.046   8.570  -5.649  1.00  0.00    -0.354 N 
ATOM     31  N   UNL     1       1.973  10.444  -3.255  1.00  0.00    -0.248 NA
ATOM     32  C   UNL     1       0.988   9.649  -5.212  1.00  0.00     0.031 C 
ATOM     33  C   UNL     1       6.221   8.189  -3.859  1.00  0.00     0.029 A 
ATOM     34  C   UNL     1       5.172   8.969  -4.345  1.00  0.00     0.049 A 
ATOM     35  H   UNL     1       4.783   9.131  -6.414  1.00  0.00     0.167 HD
ATOM     36  C   UNL     1       2.987  10.104  -4.135  1.00  0.00     0.074 A 
ATOM     37  C   UNL     1       2.308   9.744  -5.374  1.00  0.00     0.031 C 
ATOM     38  C   UNL     1       4.257   9.874  -3.693  1.00  0.00     0.037 A 
BRANCH  25  39
ATOM     39  C   UNL     1       4.284   6.556  -7.914  1.00  0.00     0.057 A 
ATOM     40  C   UNL     1       5.264   7.204  -8.690  1.00  0.00     0.134 A 
ATOM     41  C   UNL     1       3.028   6.407  -8.535  1.00  0.00     0.134 A 
ATOM     42  F   UNL     1       6.492   7.428  -8.200  1.00  0.00    -0.206 F 
ATOM     43  C   UNL     1       4.995   7.720  -9.963  1.00  0.00     0.040 A 
ATOM     44  C   UNL     1       2.764   6.873  -9.826  1.00  0.00     0.040 A 
ATOM     45  F   UNL     1       1.974   5.895  -7.887  1.00  0.00    -0.206 F 
ATOM     46  C   UNL     1       3.739   7.559 -10.534  1.00  0.00     0.006 A 
ENDBRANCH  25  39
BRANCH  26  47
ATOM     47  C   UNL     1      -1.589  10.104  -3.102  1.00  0.00     0.057 A 
ATOM     48  C   UNL     1      -1.700  11.479  -3.361  1.00  0.00     0.134 A 
ATOM     49  C   UNL     1      -2.778   9.362  -3.183  1.00  0.00     0.134 A 
ATOM     50  F   UNL     1      -0.615  12.267  -3.346  1.00  0.00    -0.206 F 
ATOM     51  C   UNL     1      -2.918  12.075  -3.706  1.00  0.00     0.040 A 
ATOM     52  C   UNL     1      -4.003   9.947  -3.517  1.00  0.00     0.040 A 
ATOM     53  F   UNL     1      -2.775   8.030  -3.029  1.00  0.00    -0.206 F 
ATOM     54  C   UNL     1      -4.074  11.306  -3.795  1.00  0.00     0.006 A 
ENDBRANCH  26  47
BRANCH  38  55
ATOM     55  C   UNL     1       4.622  10.337  -2.312  1.00  0.00     0.057 A 
ATOM     56  C   UNL     1       3.993   9.891  -1.141  1.00  0.00     0.134 A 
ATOM     57  C   UNL     1       5.736  11.172  -2.157  1.00  0.00     0.134 A 
ATOM     58  F   UNL     1       2.991   9.002  -1.183  1.00  0.00    -0.206 F 
ATOM     59  C   UNL     1       4.417  10.310   0.124  1.00  0.00     0.040 A 
ATOM     60  C   UNL     1       6.193  11.565  -0.898  1.00  0.00     0.040 A 
ATOM     61  F   UNL     1       6.425  11.588  -3.231  1.00  0.00    -0.206 F 
ATOM     62  C   UNL     1       5.523  11.146   0.248  1.00  0.00     0.006 A 
ENDBRANCH  38  55
ENDBRANCH  12  13
ENDBRANCH   5   7
ENDBRANCH   2   3
ENDBRANCH   1   2
BRANCH   1  63
ATOM     63  C   UNL     1       4.632   0.811   3.350  1.00  0.00     0.023 C 
BRANCH  63  64
ATOM     64  C   UNL     1       5.029  -0.486   4.041  1.00  0.00     0.116 C 
BRANCH  64  65
ATOM     65  N   UNL     1       6.449  -0.583   4.320  1.00  0.00    -0.351 N 
ATOM     66  C   UNL     1       7.072  -1.017   5.475  1.00  0.00     0.274 C 
ATOM     67  H   UNL     1       7.047  -0.304   3.591  1.00  0.00     0.163 HD
ATOM     68  O   UNL     1       8.293  -1.002   5.528  1.00  0.00    -0.267 OA
BRANCH  66  69
ATOM     69  C   UNL     1       6.251  -1.478   6.587  1.00  0.00     0.178 A 
ATOM     70  N   UNL     1       6.206  -0.804   7.780  1.00  0.00    -0.124 NA
ATOM     71  C   UNL     1       5.366  -2.548   6.627  1.00  0.00     0.108 A 
ATOM     72  N   UNL     1       5.269  -1.359   8.535  1.00  0.00    -0.061 NA
ATOM     73  N   UNL     1       4.824  -2.470   7.907  1.00  0.00    -0.212 N 
BRANCH  71  74
ATOM     74  C   UNL     1       4.886  -3.420   5.556  1.00  0.00     0.004 A 
ATOM     75  C   UNL     1       3.536  -3.360   5.165  1.00  0.00     0.010 A 
ATOM     76  C   UNL     1       5.757  -4.276   4.877  1.00  0.00     0.031 A 
ATOM     77  C   UNL     1       3.061  -4.142   4.114  1.00  0.00     0.002 A 
ATOM     78  C   UNL     1       5.272  -5.063   3.830  1.00  0.00     0.041 A 
ATOM     79  C   UNL     1       3.932  -4.997   3.446  1.00  0.00     0.020 A 
ATOM     80  Cl  UNL     1       6.339  -6.126   3.000  1.00  0.00    -0.084 Cl
ENDBRANCH  71  74
BRANCH  73  81
ATOM     81  C   UNL     1       3.843  -3.309   8.491  1.00  0.00     0.067 A 
ATOM     82  C   UNL     1       2.817  -2.739   9.251  1.00  0.00     0.029 A 
ATOM     83  C   UNL     1       3.843  -4.683   8.224  1.00  0.00     0.029 A 
ATOM     84  C   UNL     1       1.734  -3.532   9.643  1.00  0.00     0.015 A 
ATOM     85  C   UNL     1       2.775  -5.474   8.644  1.00  0.00     0.015 A 
ATOM     86  C   UNL     1       1.693  -4.901   9.326  1.00  0.00     0.056 A 
BRANCH  86  87
ATOM     87  C   UNL     1       0.478  -5.726   9.677  1.00  0.00     0.416 C 
ATOM     88  F   UNL     1       0.152  -5.652  10.995  1.00  0.00    -0.166 F 
ATOM     89  F   UNL     1      -0.629  -5.323   8.991  1.00  0.00    -0.166 F 
ATOM     90  F   UNL     1       0.623  -7.052   9.399  1.00  0.00    -0.166 F 
ENDBRANCH  86  87
ENDBRANCH  73  81
ENDBRANCH  66  69
ENDBRANCH  64  65
ENDBRANCH  63  64
ENDBRANCH   1  63
TORSDOF 14
