REMARK SMILES C[C@H](CO)CSc1cc(Cl)ccc1C(=O)NCCCCNC(=O)c1ccc(-c2c3nc(c(-c4c(F)cccc4F)c4ccc([nH]4)c(-c4c(F)cccc4F)c4nc(c(-c5c(F)cccc5F)c5ccc2[nH]5)C=C4)C=C3)cc1
REMARK SMILES IDX 17 1 16 2 14 3 15 4 13 6 7 7 8 8 9 9 12 10 10 11 11 12 6 13
REMARK SMILES IDX 5 14 2 15 1 16 3 17 4 18 18 20 19 21 20 22 21 23 22 24 23 26
REMARK SMILES IDX 24 27 25 28 77 29 26 30 76 31 27 32 28 33 29 34 70 35 30 36
REMARK SMILES IDX 75 37 69 38 71 39 31 40 74 41 68 42 67 43 32 45 58 46 41 47
REMARK SMILES IDX 57 48 42 49 45 50 56 51 72 52 43 53 44 54 55 56 73 57 46 58
REMARK SMILES IDX 33 59 34 60 39 61 35 62 36 63 38 64 40 65 37 66 59 67 60 68
REMARK SMILES IDX 65 69 61 70 62 71 64 72 66 73 63 74 47 75 48 76 53 77 49 78
REMARK SMILES IDX 50 79 52 80 54 81 51 82
REMARK H PARENT 16 5 4 19 21 25 71 44 45 55
REMARK Flexibility Score: inf
ROOT
ATOM      1  C   UNL     1      -1.603   3.225  -1.203  1.00  0.00     0.116 C 
ENDROOT
BRANCH   1   2
ATOM      2  N   UNL     1      -1.534   3.923   0.056  1.00  0.00    -0.352 N 
ATOM      3  C   UNL     1      -1.313   3.562   1.353  1.00  0.00     0.252 C 
ATOM      4  O   UNL     1      -1.433   4.500   2.154  1.00  0.00    -0.269 OA
ATOM      5  H   UNL     1      -1.682   4.891  -0.044  1.00  0.00     0.163 HD
BRANCH   3   6
ATOM      6  C   UNL     1      -0.893   2.231   1.920  1.00  0.00     0.053 A 
ATOM      7  C   UNL     1      -1.248   0.909   1.570  1.00  0.00     0.021 A 
ATOM      8  C   UNL     1      -0.937  -0.147   2.462  1.00  0.00     0.036 A 
ATOM      9  C   UNL     1      -0.209   0.066   3.628  1.00  0.00     0.042 A 
ATOM     10  C   UNL     1      -0.121   2.399   3.102  1.00  0.00     0.016 A 
ATOM     11  Cl  UNL     1       0.141  -1.252   4.672  1.00  0.00    -0.084 Cl
ATOM     12  C   UNL     1       0.225   1.338   3.942  1.00  0.00     0.021 A 
BRANCH   7  13
ATOM     13  S   UNL     1      -2.186   0.368   0.165  1.00  0.00    -0.125 SA
BRANCH  13  14
ATOM     14  C   UNL     1      -1.035  -0.718  -0.796  1.00  0.00     0.080 C 
BRANCH  14  15
ATOM     15  C   UNL     1       0.389  -0.234  -1.155  1.00  0.00     0.022 C 
ATOM     16  C   UNL     1       0.891  -1.042  -2.367  1.00  0.00     0.011 C 
BRANCH  15  17
ATOM     17  C   UNL     1       1.421  -0.371  -0.029  1.00  0.00     0.160 C 
BRANCH  17  18
ATOM     18  O   UNL     1       1.481  -1.699   0.468  1.00  0.00    -0.396 OA
ATOM     19  H   UNL     1       0.617  -1.947   0.832  1.00  0.00     0.210 HD
ENDBRANCH  17  18
ENDBRANCH  15  17
ENDBRANCH  14  15
ENDBRANCH  13  14
ENDBRANCH   7  13
ENDBRANCH   3   6
ENDBRANCH   1   2
BRANCH   1  20
ATOM     20  C   UNL     1      -3.057   2.884  -1.541  1.00  0.00     0.023 C 
BRANCH  20  21
ATOM     21  C   UNL     1      -3.777   3.913  -2.403  1.00  0.00     0.023 C 
BRANCH  21  22
ATOM     22  C   UNL     1      -3.227   4.042  -3.817  1.00  0.00     0.116 C 
BRANCH  22  23
ATOM     23  N   UNL     1      -3.181   2.784  -4.554  1.00  0.00    -0.352 N 
ATOM     24  C   UNL     1      -3.363   2.580  -5.901  1.00  0.00     0.251 C 
ATOM     25  H   UNL     1      -2.997   1.978  -4.019  1.00  0.00     0.163 HD
ATOM     26  O   UNL     1      -3.351   1.452  -6.380  1.00  0.00    -0.269 OA
BRANCH  24  27
ATOM     27  C   UNL     1      -3.631   3.753  -6.752  1.00  0.00     0.039 A 
ATOM     28  C   UNL     1      -4.810   3.784  -7.498  1.00  0.00     0.014 A 
ATOM     29  C   UNL     1      -2.781   4.860  -6.702  1.00  0.00     0.014 A 
ATOM     30  C   UNL     1      -5.193   4.973  -8.116  1.00  0.00     0.010 A 
ATOM     31  C   UNL     1      -3.198   6.061  -7.258  1.00  0.00     0.010 A 
ATOM     32  C   UNL     1      -4.418   6.132  -7.950  1.00  0.00    -0.014 A 
BRANCH  32  33
ATOM     33  C   UNL     1      -4.885   7.448  -8.444  1.00  0.00     0.031 A 
ATOM     34  C   UNL     1      -4.112   8.167  -9.508  1.00  0.00     0.074 A 
ATOM     35  C   UNL     1      -5.946   8.035  -7.856  1.00  0.00     0.049 A 
ATOM     36  N   UNL     1      -4.292   9.370  -9.988  1.00  0.00    -0.248 NA
ATOM     37  C   UNL     1      -2.966   7.449 -10.089  1.00  0.00     0.031 C 
ATOM     38  C   UNL     1      -6.743   7.458  -6.771  1.00  0.00     0.029 A 
ATOM     39  N   UNL     1      -6.526   9.258  -8.078  1.00  0.00    -0.354 N 
ATOM     40  C   UNL     1      -3.275   9.561 -10.912  1.00  0.00     0.074 A 
ATOM     41  C   UNL     1      -2.455   8.369 -10.894  1.00  0.00     0.031 C 
ATOM     42  C   UNL     1      -7.715   8.320  -6.433  1.00  0.00     0.029 A 
ATOM     43  C   UNL     1      -7.589   9.522  -7.249  1.00  0.00     0.049 A 
ATOM     44  H   UNL     1      -6.210   9.888  -8.766  1.00  0.00     0.167 HD
ATOM     45  C   UNL     1      -3.057  10.627 -11.716  1.00  0.00     0.037 A 
ATOM     46  C   UNL     1      -8.366  10.616  -7.151  1.00  0.00     0.037 A 
ATOM     47  C   UNL     1      -3.892  11.797 -11.752  1.00  0.00     0.049 A 
ATOM     48  C   UNL     1      -8.102  11.786  -8.055  1.00  0.00     0.074 A 
ATOM     49  C   UNL     1      -3.804  12.895 -12.590  1.00  0.00     0.029 A 
ATOM     50  N   UNL     1      -4.969  12.022 -10.908  1.00  0.00    -0.354 N 
ATOM     51  N   UNL     1      -7.178  11.926  -8.974  1.00  0.00    -0.248 NA
ATOM     52  C   UNL     1      -8.985  12.952  -7.905  1.00  0.00     0.031 C 
ATOM     53  C   UNL     1      -4.807  13.801 -12.229  1.00  0.00     0.029 A 
ATOM     54  C   UNL     1      -5.540  13.252 -11.189  1.00  0.00     0.049 A 
ATOM     55  H   UNL     1      -5.282  11.400 -10.213  1.00  0.00     0.167 HD
ATOM     56  C   UNL     1      -7.375  13.187  -9.521  1.00  0.00     0.074 A 
ATOM     57  C   UNL     1      -8.518  13.764  -8.843  1.00  0.00     0.031 C 
ATOM     58  C   UNL     1      -6.672  13.811 -10.496  1.00  0.00     0.037 A 
BRANCH  45  59
ATOM     59  C   UNL     1      -1.871  10.567 -12.630  1.00  0.00     0.057 A 
ATOM     60  C   UNL     1      -1.850   9.732 -13.754  1.00  0.00     0.134 A 
ATOM     61  C   UNL     1      -0.747  11.369 -12.398  1.00  0.00     0.134 A 
ATOM     62  F   UNL     1      -2.890   8.927 -14.022  1.00  0.00    -0.206 F 
ATOM     63  C   UNL     1      -0.744   9.679 -14.604  1.00  0.00     0.040 A 
ATOM     64  C   UNL     1       0.356  11.343 -13.253  1.00  0.00     0.040 A 
ATOM     65  F   UNL     1      -0.704  12.192 -11.339  1.00  0.00    -0.206 F 
ATOM     66  C   UNL     1       0.361  10.492 -14.357  1.00  0.00     0.006 A 
ENDBRANCH  45  59
BRANCH  46  67
ATOM     67  C   UNL     1      -9.476  10.653  -6.168  1.00  0.00     0.057 A 
ATOM     68  C   UNL     1     -10.809  10.572  -6.586  1.00  0.00     0.134 A 
ATOM     69  C   UNL     1      -9.234  10.772  -4.795  1.00  0.00     0.134 A 
ATOM     70  F   UNL     1     -11.101  10.476  -7.892  1.00  0.00    -0.206 F 
ATOM     71  C   UNL     1     -11.864  10.621  -5.675  1.00  0.00     0.040 A 
ATOM     72  C   UNL     1     -10.280  10.802  -3.870  1.00  0.00     0.040 A 
ATOM     73  F   UNL     1      -7.978  10.848  -4.332  1.00  0.00    -0.206 F 
ATOM     74  C   UNL     1     -11.600  10.732  -4.311  1.00  0.00     0.006 A 
ENDBRANCH  46  67
BRANCH  58  75
ATOM     75  C   UNL     1      -7.125  15.185 -10.888  1.00  0.00     0.057 A 
ATOM     76  C   UNL     1      -6.872  16.298 -10.078  1.00  0.00     0.134 A 
ATOM     77  C   UNL     1      -7.788  15.401 -12.102  1.00  0.00     0.134 A 
ATOM     78  F   UNL     1      -6.254  16.152  -8.896  1.00  0.00    -0.206 F 
ATOM     79  C   UNL     1      -7.277  17.579 -10.455  1.00  0.00     0.040 A 
ATOM     80  C   UNL     1      -8.179  16.679 -12.500  1.00  0.00     0.040 A 
ATOM     81  F   UNL     1      -8.054  14.375 -12.925  1.00  0.00    -0.206 F 
ATOM     82  C   UNL     1      -7.927  17.772 -11.672  1.00  0.00     0.006 A 
ENDBRANCH  58  75
ENDBRANCH  32  33
ENDBRANCH  24  27
ENDBRANCH  22  23
ENDBRANCH  21  22
ENDBRANCH  20  21
ENDBRANCH   1  20
TORSDOF 16
