REMARK SMILES CCn1ccc2ccc(C[NH+]3CCC4(CC3)C[C@H](C(=O)NCCCCNC(=O)c3ccc(-c5c6nc(c(-c7c(F)cccc7F)c7ccc([nH]7)c(-c7c(F)cccc7F)c7nc(c(-c8c(F)cccc8F)c8ccc5[nH]8)C=C7)C=C6)cc3)N(C(C)=O)C4)cc21
REMARK SMILES IDX 23 1 22 2 21 3 19 4 20 5 18 7 11 8 12 9 16 10 13 12 15 13
REMARK SMILES IDX 14 14 17 15 87 16 83 17 10 18 9 19 3 20 4 21 89 22 5 23 6 24
REMARK SMILES IDX 88 25 7 26 8 27 2 28 1 29 84 30 85 31 86 32 24 33 25 34
REMARK SMILES IDX 26 35 27 36 28 38 29 39 30 40 82 41 31 42 81 43 32 44 33 45
REMARK SMILES IDX 34 46 75 47 35 48 80 49 74 50 76 51 36 52 79 53 73 54 72 55
REMARK SMILES IDX 37 57 63 58 46 59 62 60 47 61 50 62 61 63 77 64 48 65 49 66
REMARK SMILES IDX 60 68 78 69 51 70 38 71 39 72 44 73 40 74 41 75 43 76 45 77
REMARK SMILES IDX 42 78 64 79 65 80 70 81 66 82 67 83 69 84 71 85 68 86 52 87
REMARK SMILES IDX 53 88 58 89 54 90 55 91 57 92 59 93 56 94
REMARK H PARENT 21 6 11 11 26 37 76 56 50 67
REMARK Flexibility Score: inf
ROOT
ATOM      1  C   UNL     1       0.596  -2.609   4.512  1.00  0.00     0.023 C 
ENDROOT
BRANCH   1   2
ATOM      2  C   UNL     1      -0.721  -3.186   4.018  1.00  0.00     0.116 C 
BRANCH   2   3
ATOM      3  N   UNL     1      -1.830  -2.256   4.182  1.00  0.00    -0.354 N 
ATOM      4  C   UNL     1      -2.730  -1.712   3.317  1.00  0.00     0.242 C 
ATOM      5  O   UNL     1      -3.204  -0.630   3.699  1.00  0.00    -0.273 OA
ATOM      6  H   UNL     1      -1.955  -1.959   5.113  1.00  0.00     0.163 HD
BRANCH   4   7
ATOM      7  C   UNL     1      -3.249  -2.338   1.973  1.00  0.00     0.175 C 
ATOM      8  N   UNL     1      -2.036  -6.393  -1.460  1.00  0.00    -0.331 N 
ATOM      9  C   UNL     1      -2.859  -6.733  -0.313  1.00  0.00     0.263 C 
ATOM     10  C   UNL     1      -2.419  -5.116  -2.040  1.00  0.00     0.263 C 
ATOM     11  H   UNL     1      -2.269  -7.070  -2.187  1.00  0.00     0.348 HD
ATOM     12  C   UNL     1      -2.761  -5.703   0.794  1.00  0.00     0.070 C 
ATOM     13  C   UNL     1      -2.470  -3.929  -1.072  1.00  0.00     0.070 C 
ATOM     14  C   UNL     1      -2.988  -4.232   0.349  1.00  0.00     0.001 C 
ATOM     15  C   UNL     1      -2.276  -3.347   1.393  1.00  0.00     0.044 C 
ATOM     16  C   UNL     1      -4.454  -3.830   0.536  1.00  0.00     0.127 C 
ATOM     17  N   UNL     1      -4.518  -3.082   1.796  1.00  0.00    -0.330 N 
BRANCH   8  18
ATOM     18  C   UNL     1      -0.608  -6.739  -1.387  1.00  0.00     0.299 C 
BRANCH  18  19
ATOM     19  C   UNL     1       0.302  -5.959  -0.454  1.00  0.00     0.008 A 
ATOM     20  N   UNL     1       1.670  -2.538   0.240  1.00  0.00    -0.348 N 
ATOM     21  C   UNL     1       2.523  -2.297   1.284  1.00  0.00     0.087 A 
ATOM     22  C   UNL     1       1.407  -3.897   0.165  1.00  0.00     0.048 A 
ATOM     23  C   UNL     1       2.751  -3.492   1.931  1.00  0.00     0.028 A 
ATOM     24  C   UNL     1       1.952  -4.484   1.305  1.00  0.00    -0.000 A 
ATOM     25  C   UNL     1       0.689  -4.649  -0.778  1.00  0.00     0.036 A 
ATOM     26  C   UNL     1       1.649  -5.829   1.589  1.00  0.00     0.011 A 
ATOM     27  C   UNL     1       0.793  -6.536   0.727  1.00  0.00     0.010 A 
BRANCH  20  28
ATOM     28  C   UNL     1       1.004  -1.543  -0.589  1.00  0.00     0.119 C 
ATOM     29  C   UNL     1       1.121  -0.093  -0.143  1.00  0.00     0.027 C 
ENDBRANCH  20  28
ENDBRANCH  18  19
ENDBRANCH   8  18
BRANCH  17  30
ATOM     30  C   UNL     1      -5.779  -2.864   2.307  1.00  0.00     0.220 C 
ATOM     31  C   UNL     1      -5.964  -2.158   3.616  1.00  0.00     0.114 C 
ATOM     32  O   UNL     1      -6.777  -3.350   1.763  1.00  0.00    -0.275 OA
ENDBRANCH  17  30
ENDBRANCH   4   7
ENDBRANCH   2   3
ENDBRANCH   1   2
BRANCH   1  33
ATOM     33  C   UNL     1       0.865  -2.692   6.004  1.00  0.00     0.023 C 
BRANCH  33  34
ATOM     34  C   UNL     1       0.850  -4.110   6.589  1.00  0.00     0.116 C 
BRANCH  34  35
ATOM     35  N   UNL     1       1.569  -5.107   5.817  1.00  0.00    -0.352 N 
ATOM     36  C   UNL     1       2.821  -5.662   5.884  1.00  0.00     0.251 C 
ATOM     37  H   UNL     1       1.034  -5.470   5.075  1.00  0.00     0.163 HD
ATOM     38  O   UNL     1       2.992  -6.696   5.250  1.00  0.00    -0.269 OA
BRANCH  36  39
ATOM     39  C   UNL     1       3.987  -5.047   6.576  1.00  0.00     0.039 A 
ATOM     40  C   UNL     1       3.985  -3.797   7.188  1.00  0.00     0.014 A 
ATOM     41  C   UNL     1       5.209  -5.740   6.461  1.00  0.00     0.014 A 
ATOM     42  C   UNL     1       5.183  -3.186   7.534  1.00  0.00     0.010 A 
ATOM     43  C   UNL     1       6.409  -5.148   6.833  1.00  0.00     0.010 A 
ATOM     44  C   UNL     1       6.396  -3.843   7.308  1.00  0.00    -0.014 A 
BRANCH  44  45
ATOM     45  C   UNL     1       7.621  -3.171   7.723  1.00  0.00     0.031 A 
ATOM     46  C   UNL     1       7.659  -2.849   9.176  1.00  0.00     0.074 A 
ATOM     47  C   UNL     1       8.659  -2.917   6.900  1.00  0.00     0.049 A 
ATOM     48  N   UNL     1       7.652  -1.675   9.717  1.00  0.00    -0.248 NA
ATOM     49  C   UNL     1       7.517  -3.951  10.140  1.00  0.00     0.031 C 
ATOM     50  C   UNL     1       8.859  -3.342   5.515  1.00  0.00     0.029 A 
ATOM     51  N   UNL     1       9.818  -2.255   7.180  1.00  0.00    -0.354 N 
ATOM     52  C   UNL     1       7.687  -1.882  11.094  1.00  0.00     0.074 A 
ATOM     53  C   UNL     1       7.454  -3.288  11.296  1.00  0.00     0.031 C 
ATOM     54  C   UNL     1      10.149  -3.127   5.160  1.00  0.00     0.029 A 
ATOM     55  C   UNL     1      10.829  -2.434   6.241  1.00  0.00     0.049 A 
ATOM     56  H   UNL     1       9.931  -1.695   7.982  1.00  0.00     0.167 HD
ATOM     57  C   UNL     1       8.112  -0.905  11.941  1.00  0.00     0.037 A 
ATOM     58  C   UNL     1      12.133  -2.074   6.380  1.00  0.00     0.037 A 
ATOM     59  C   UNL     1       8.091   0.384  11.296  1.00  0.00     0.049 A 
ATOM     60  C   UNL     1      12.192  -1.034   7.439  1.00  0.00     0.074 A 
ATOM     61  C   UNL     1       7.104   1.177  10.743  1.00  0.00     0.029 A 
ATOM     62  N   UNL     1       9.280   0.877  10.819  1.00  0.00    -0.354 N 
ATOM     63  N   UNL     1      11.733   0.176   7.276  1.00  0.00    -0.248 NA
ATOM     64  C   UNL     1      12.309  -1.478   8.822  1.00  0.00     0.031 C 
ATOM     65  C   UNL     1       7.709   1.762   9.592  1.00  0.00     0.029 A 
ATOM     66  C   UNL     1       9.042   1.355   9.558  1.00  0.00     0.049 A 
ATOM     67  H   UNL     1      10.142   0.887  11.295  1.00  0.00     0.167 HD
ATOM     68  C   UNL     1      11.086   0.466   8.467  1.00  0.00     0.074 A 
ATOM     69  C   UNL     1      11.539  -0.557   9.410  1.00  0.00     0.031 C 
ATOM     70  C   UNL     1      10.020   1.317   8.500  1.00  0.00     0.037 A 
BRANCH  57  71
ATOM     71  C   UNL     1       8.917  -1.148  13.195  1.00  0.00     0.057 A 
ATOM     72  C   UNL     1       9.646  -2.326  13.448  1.00  0.00     0.134 A 
ATOM     73  C   UNL     1       9.253  -0.050  14.010  1.00  0.00     0.134 A 
ATOM     74  F   UNL     1       9.473  -3.447  12.739  1.00  0.00    -0.206 F 
ATOM     75  C   UNL     1      10.679  -2.388  14.386  1.00  0.00     0.040 A 
ATOM     76  C   UNL     1      10.317  -0.088  14.918  1.00  0.00     0.040 A 
ATOM     77  F   UNL     1       8.620   1.127  13.879  1.00  0.00    -0.206 F 
ATOM     78  C   UNL     1      11.047  -1.255  15.094  1.00  0.00     0.006 A 
ENDBRANCH  57  71
BRANCH  58  79
ATOM     79  C   UNL     1      13.356  -2.724   5.849  1.00  0.00     0.057 A 
ATOM     80  C   UNL     1      13.387  -4.098   5.553  1.00  0.00     0.134 A 
ATOM     81  C   UNL     1      14.604  -2.079   5.879  1.00  0.00     0.134 A 
ATOM     82  F   UNL     1      12.268  -4.835   5.568  1.00  0.00    -0.206 F 
ATOM     83  C   UNL     1      14.581  -4.793   5.322  1.00  0.00     0.040 A 
ATOM     84  C   UNL     1      15.808  -2.764   5.654  1.00  0.00     0.040 A 
ATOM     85  F   UNL     1      14.693  -0.779   6.192  1.00  0.00    -0.206 F 
ATOM     86  C   UNL     1      15.799  -4.129   5.386  1.00  0.00     0.006 A 
ENDBRANCH  58  79
BRANCH  70  87
ATOM     87  C   UNL     1       9.702   2.095   7.255  1.00  0.00     0.057 A 
ATOM     88  C   UNL     1       9.633   3.490   7.334  1.00  0.00     0.134 A 
ATOM     89  C   UNL     1       9.321   1.509   6.038  1.00  0.00     0.134 A 
ATOM     90  F   UNL     1       9.920   4.116   8.486  1.00  0.00    -0.206 F 
ATOM     91  C   UNL     1       9.221   4.269   6.252  1.00  0.00     0.040 A 
ATOM     92  C   UNL     1       8.940   2.280   4.936  1.00  0.00     0.040 A 
ATOM     93  F   UNL     1       9.248   0.179   5.901  1.00  0.00    -0.206 F 
ATOM     94  C   UNL     1       8.885   3.666   5.043  1.00  0.00     0.006 A 
ENDBRANCH  70  87
ENDBRANCH  44  45
ENDBRANCH  36  39
ENDBRANCH  34  35
ENDBRANCH  33  34
ENDBRANCH   1  33
TORSDOF 15
