REMARK SMILES CCOc1cc(N2CCOCC2)ccc1[C@H]([NH3+])C(=O)NCCCCNC(=O)c1ccc(-c2c3nc(c(-c4c(F)cccc4F)c4ccc([nH]4)c(-c4c(F)cccc4F)c4nc(c(-c5c(F)cccc5F)c5ccc2[nH]5)C=C4)C=C3)cc1
REMARK SMILES IDX 22 1 21 2 20 3 18 4 19 5 16 7 15 8 4 9 5 10 6 11 14 12 13 13
REMARK SMILES IDX 3 14 2 15 1 16 7 17 8 18 12 19 9 20 11 21 10 22 17 23 23 27
REMARK SMILES IDX 24 28 25 29 26 30 27 32 28 33 29 34 81 35 30 36 80 37 31 38
REMARK SMILES IDX 32 39 33 40 74 41 34 42 79 43 73 44 75 45 35 46 78 47 72 48
REMARK SMILES IDX 71 49 36 51 62 52 45 53 61 54 46 55 49 56 60 57 76 58 47 59
REMARK SMILES IDX 48 60 59 62 77 63 50 64 37 65 38 66 43 67 39 68 40 69 42 70
REMARK SMILES IDX 44 71 41 72 63 73 64 74 69 75 65 76 66 77 68 78 70 79 67 80
REMARK SMILES IDX 51 81 52 82 57 83 53 84 54 85 56 86 58 87 55 88
REMARK H PARENT 20 6 17 24 17 25 17 26 25 31 75 50 49 61
REMARK Flexibility Score: inf
ROOT
ATOM      1  C   UNL     1       6.372   0.554   0.152  1.00  0.00     0.023 C 
ENDROOT
BRANCH   1   2
ATOM      2  C   UNL     1       5.353  -0.286  -0.610  1.00  0.00     0.116 C 
BRANCH   2   3
ATOM      3  N   UNL     1       4.646  -1.241   0.217  1.00  0.00    -0.351 N 
ATOM      4  C   UNL     1       3.311  -1.549   0.266  1.00  0.00     0.283 C 
ATOM      5  O   UNL     1       3.003  -2.563   0.903  1.00  0.00    -0.268 OA
ATOM      6  H   UNL     1       5.213  -1.748   0.843  1.00  0.00     0.163 HD
BRANCH   4   7
ATOM      7  C   UNL     1       2.220  -0.642  -0.379  1.00  0.00     0.306 C 
BRANCH   7   8
ATOM      8  C   UNL     1       2.446  -0.365  -1.861  1.00  0.00     0.061 A 
ATOM      9  C   UNL     1       2.603   0.902  -2.461  1.00  0.00     0.131 A 
ATOM     10  C   UNL     1       2.810   1.016  -3.851  1.00  0.00     0.072 A 
ATOM     11  C   UNL     1       2.809  -0.121  -4.680  1.00  0.00     0.040 A 
ATOM     12  C   UNL     1       2.496  -1.494  -2.696  1.00  0.00     0.016 A 
ATOM     13  C   UNL     1       2.668  -1.370  -4.072  1.00  0.00     0.027 A 
BRANCH   9  14
ATOM     14  O   UNL     1       2.378   2.016  -1.692  1.00  0.00    -0.493 OA
BRANCH  14  15
ATOM     15  C   UNL     1       3.474   2.926  -1.544  1.00  0.00     0.226 C 
ATOM     16  C   UNL     1       3.446   3.453  -0.110  1.00  0.00     0.049 C 
ENDBRANCH  14  15
ENDBRANCH   9  14
BRANCH  11  17
ATOM     17  N   UNL     1       2.856  -0.035  -6.054  1.00  0.00    -0.367 N 
ATOM     18  C   UNL     1       1.820  -0.675  -6.879  1.00  0.00     0.145 C 
ATOM     19  C   UNL     1       4.006   0.502  -6.783  1.00  0.00     0.145 C 
ATOM     20  C   UNL     1       2.454  -1.673  -7.859  1.00  0.00     0.181 C 
ATOM     21  C   UNL     1       4.531  -0.556  -7.777  1.00  0.00     0.181 C 
ATOM     22  O   UNL     1       3.490  -1.054  -8.639  1.00  0.00    -0.378 OA
ENDBRANCH  11  17
ENDBRANCH   7   8
BRANCH   7  23
ATOM     23  N   UNL     1       2.002   0.514   0.504  1.00  0.00    -0.343 N 
ATOM     24  H   UNL     1       2.869   1.044   0.591  1.00  0.00     0.345 HD
ATOM     25  H   UNL     1       1.708   0.189   1.425  1.00  0.00     0.345 HD
ATOM     26  H   UNL     1       1.276   1.112   0.108  1.00  0.00     0.345 HD
ENDBRANCH   7  23
ENDBRANCH   4   7
ENDBRANCH   2   3
ENDBRANCH   1   2
BRANCH   1  27
ATOM     27  C   UNL     1       7.510  -0.228   0.802  1.00  0.00     0.023 C 
BRANCH  27  28
ATOM     28  C   UNL     1       8.314  -1.118  -0.139  1.00  0.00     0.116 C 
BRANCH  28  29
ATOM     29  N   UNL     1       9.000  -0.377  -1.185  1.00  0.00    -0.352 N 
ATOM     30  C   UNL     1      10.294  -0.499  -1.631  1.00  0.00     0.251 C 
ATOM     31  H   UNL     1       8.460   0.310  -1.639  1.00  0.00     0.163 HD
ATOM     32  O   UNL     1      10.737   0.309  -2.446  1.00  0.00    -0.269 OA
BRANCH  30  33
ATOM     33  C   UNL     1      11.170  -1.572  -1.109  1.00  0.00     0.039 A 
ATOM     34  C   UNL     1      12.488  -1.256  -0.773  1.00  0.00     0.014 A 
ATOM     35  C   UNL     1      10.703  -2.879  -0.942  1.00  0.00     0.014 A 
ATOM     36  C   UNL     1      13.312  -2.229  -0.204  1.00  0.00     0.010 A 
ATOM     37  C   UNL     1      11.499  -3.827  -0.299  1.00  0.00     0.010 A 
ATOM     38  C   UNL     1      12.812  -3.512   0.080  1.00  0.00    -0.014 A 
BRANCH  38  39
ATOM     39  C   UNL     1      13.648  -4.508   0.800  1.00  0.00     0.031 A 
ATOM     40  C   UNL     1      14.050  -5.800   0.142  1.00  0.00     0.074 A 
ATOM     41  C   UNL     1      14.018  -4.260   2.072  1.00  0.00     0.049 A 
ATOM     42  N   UNL     1      14.793  -6.770   0.615  1.00  0.00    -0.248 NA
ATOM     43  C   UNL     1      13.535  -6.047  -1.213  1.00  0.00     0.031 C 
ATOM     44  C   UNL     1      13.642  -3.073   2.845  1.00  0.00     0.029 A 
ATOM     45  N   UNL     1      14.795  -4.986   2.939  1.00  0.00    -0.354 N 
ATOM     46  C   UNL     1      14.831  -7.739  -0.380  1.00  0.00     0.074 A 
ATOM     47  C   UNL     1      13.989  -7.267  -1.458  1.00  0.00     0.031 C 
ATOM     48  C   UNL     1      14.224  -3.132   4.053  1.00  0.00     0.029 A 
ATOM     49  C   UNL     1      14.980  -4.375   4.157  1.00  0.00     0.049 A 
ATOM     50  H   UNL     1      15.184  -5.861   2.711  1.00  0.00     0.167 HD
ATOM     51  C   UNL     1      15.522  -8.904  -0.403  1.00  0.00     0.037 A 
ATOM     52  C   UNL     1      15.680  -4.771   5.236  1.00  0.00     0.037 A 
ATOM     53  C   UNL     1      16.367  -9.367   0.668  1.00  0.00     0.049 A 
ATOM     54  C   UNL     1      16.428  -6.074   5.187  1.00  0.00     0.074 A 
ATOM     55  C   UNL     1      17.159 -10.502   0.712  1.00  0.00     0.029 A 
ATOM     56  N   UNL     1      16.523  -8.726   1.888  1.00  0.00    -0.354 N 
ATOM     57  N   UNL     1      16.527  -6.936   4.205  1.00  0.00    -0.248 NA
ATOM     58  C   UNL     1      17.170  -6.455   6.397  1.00  0.00     0.031 C 
ATOM     59  C   UNL     1      17.746 -10.578   1.980  1.00  0.00     0.029 A 
ATOM     60  C   UNL     1      17.371  -9.458   2.704  1.00  0.00     0.049 A 
ATOM     61  H   UNL     1      16.094  -7.875   2.138  1.00  0.00     0.167 HD
ATOM     62  C   UNL     1      17.360  -7.947   4.668  1.00  0.00     0.074 A 
ATOM     63  C   UNL     1      17.760  -7.576   6.010  1.00  0.00     0.031 C 
ATOM     64  C   UNL     1      17.756  -9.082   4.041  1.00  0.00     0.037 A 
BRANCH  51  65
ATOM     65  C   UNL     1      15.394  -9.764  -1.629  1.00  0.00     0.057 A 
ATOM     66  C   UNL     1      15.937  -9.382  -2.864  1.00  0.00     0.134 A 
ATOM     67  C   UNL     1      14.760 -11.012  -1.565  1.00  0.00     0.134 A 
ATOM     68  F   UNL     1      16.549  -8.195  -2.999  1.00  0.00    -0.206 F 
ATOM     69  C   UNL     1      15.830 -10.194  -3.994  1.00  0.00     0.040 A 
ATOM     70  C   UNL     1      14.673 -11.847  -2.681  1.00  0.00     0.040 A 
ATOM     71  F   UNL     1      14.224 -11.446  -0.414  1.00  0.00    -0.206 F 
ATOM     72  C   UNL     1      15.203 -11.435  -3.902  1.00  0.00     0.006 A 
ENDBRANCH  51  65
BRANCH  52  73
ATOM     73  C   UNL     1      15.730  -3.915   6.450  1.00  0.00     0.057 A 
ATOM     74  C   UNL     1      16.920  -3.291   6.846  1.00  0.00     0.134 A 
ATOM     75  C   UNL     1      14.601  -3.714   7.252  1.00  0.00     0.134 A 
ATOM     76  F   UNL     1      18.041  -3.460   6.131  1.00  0.00    -0.206 F 
ATOM     77  C   UNL     1      16.991  -2.521   8.008  1.00  0.00     0.040 A 
ATOM     78  C   UNL     1      14.649  -2.922   8.400  1.00  0.00     0.040 A 
ATOM     79  F   UNL     1      13.428  -4.277   6.923  1.00  0.00    -0.206 F 
ATOM     80  C   UNL     1      15.850  -2.331   8.786  1.00  0.00     0.006 A 
ENDBRANCH  52  73
BRANCH  64  81
ATOM     81  C   UNL     1      18.688  -9.989   4.795  1.00  0.00     0.057 A 
ATOM     82  C   UNL     1      18.270 -10.713   5.920  1.00  0.00     0.134 A 
ATOM     83  C   UNL     1      20.019 -10.145   4.386  1.00  0.00     0.134 A 
ATOM     84  F   UNL     1      17.012 -10.600   6.373  1.00  0.00    -0.206 F 
ATOM     85  C   UNL     1      19.151 -11.528   6.632  1.00  0.00     0.040 A 
ATOM     86  C   UNL     1      20.900 -10.983   5.071  1.00  0.00     0.040 A 
ATOM     87  F   UNL     1      20.483  -9.490   3.311  1.00  0.00    -0.206 F 
ATOM     88  C   UNL     1      20.470 -11.669   6.204  1.00  0.00     0.006 A 
ENDBRANCH  64  81
ENDBRANCH  38  39
ENDBRANCH  30  33
ENDBRANCH  28  29
ENDBRANCH  27  28
ENDBRANCH   1  27
TORSDOF 16
