REMARK SMILES CC(=O)Nc1cnc(N2CC=C(c3ccccc3C)CC2)c(C(=O)NCCCCNC(=O)c2ccc(-c3c4nc(c(-c5c(F)cccc5F)c5ccc([nH]5)c(-c5c(F)cccc5F)c5nc(c(-c6c(F)cccc6F)c6ccc3[nH]6)C=C5)C=C4)cc2)c1
REMARK SMILES IDX 27 1 26 2 25 3 23 4 24 5 22 7 5 8 6 9 87 10 7 11 8 12 4 13
REMARK SMILES IDX 1 14 2 15 3 16 9 18 10 19 21 20 11 21 20 22 12 23 13 24
REMARK SMILES IDX 14 25 18 26 15 27 17 28 19 29 16 30 28 31 29 32 30 33 31 34
REMARK SMILES IDX 32 36 33 37 34 38 86 39 35 40 85 41 36 42 37 43 38 44 79 45
REMARK SMILES IDX 39 46 84 47 78 48 80 49 40 50 83 51 77 52 76 53 41 55 67 56
REMARK SMILES IDX 50 57 66 58 51 59 54 60 65 61 81 62 52 63 53 64 64 66 82 67
REMARK SMILES IDX 55 68 42 69 43 70 48 71 44 72 45 73 47 74 49 75 46 76 68 77
REMARK SMILES IDX 69 78 74 79 70 80 71 81 73 82 75 83 72 84 56 85 57 86 62 87
REMARK SMILES IDX 58 88 59 89 61 90 63 91 60 92
REMARK H PARENT 25 6 4 17 30 35 80 54 54 65
REMARK Flexibility Score: inf
ROOT
ATOM      1  C   UNL     1       5.258  -1.417   0.268  1.00  0.00     0.023 C 
ENDROOT
BRANCH   1   2
ATOM      2  C   UNL     1       4.701   0.008   0.151  1.00  0.00     0.116 C 
BRANCH   2   3
ATOM      3  N   UNL     1       5.180   0.717  -1.023  1.00  0.00    -0.352 N 
ATOM      4  C   UNL     1       4.776   0.924  -2.323  1.00  0.00     0.255 C 
ATOM      5  O   UNL     1       5.467   1.769  -2.895  1.00  0.00    -0.269 OA
ATOM      6  H   UNL     1       6.030   1.178  -0.838  1.00  0.00     0.163 HD
BRANCH   4   7
ATOM      7  C   UNL     1       3.613   0.265  -3.019  1.00  0.00     0.084 A 
ATOM      8  C   UNL     1       1.538  -1.028  -2.893  1.00  0.00     0.060 A 
ATOM      9  C   UNL     1       1.350  -0.773  -4.231  1.00  0.00     0.139 A 
ATOM     10  C   UNL     1       2.711  -0.549  -2.315  1.00  0.00     0.045 A 
ATOM     11  N   UNL     1       2.194  -0.022  -4.962  1.00  0.00    -0.236 NA
ATOM     12  C   UNL     1       3.314   0.505  -4.383  1.00  0.00     0.141 A 
BRANCH   8  13
ATOM     13  N   UNL     1       0.589  -1.778  -2.181  1.00  0.00    -0.325 N 
ATOM     14  C   UNL     1       0.547  -0.421  -0.096  1.00  0.00     0.114 C 
ATOM     15  C   UNL     1       0.211  -1.673  -0.869  1.00  0.00     0.221 C 
ATOM     16  O   UNL     1      -0.458  -2.571  -0.359  1.00  0.00    -0.275 OA
ATOM     17  H   UNL     1       0.130  -2.478  -2.698  1.00  0.00     0.169 HD
ENDBRANCH   8  13
BRANCH  12  18
ATOM     18  N   UNL     1       4.067   1.234  -5.267  1.00  0.00    -0.352 N 
ATOM     19  C   UNL     1       3.444   2.378  -5.915  1.00  0.00     0.146 C 
ATOM     20  C   UNL     1       5.467   0.945  -5.544  1.00  0.00     0.123 C 
ATOM     21  C   UNL     1       4.040   2.636  -7.273  1.00  0.00    -0.002 C 
ATOM     22  C   UNL     1       5.676   0.787  -7.056  1.00  0.00     0.057 C 
ATOM     23  C   UNL     1       5.042   1.923  -7.820  1.00  0.00    -0.041 C 
BRANCH  23  24
ATOM     24  C   UNL     1       5.556   2.258  -9.163  1.00  0.00    -0.020 A 
ATOM     25  C   UNL     1       6.111   3.537  -9.357  1.00  0.00     0.008 A 
ATOM     26  C   UNL     1       5.505   1.365 -10.253  1.00  0.00    -0.044 A 
ATOM     27  C   UNL     1       6.612   3.926 -10.600  1.00  0.00     0.001 A 
ATOM     28  C   UNL     1       6.029   1.767 -11.495  1.00  0.00     0.004 A 
ATOM     29  C   UNL     1       4.921  -0.017 -10.139  1.00  0.00     0.045 C 
ATOM     30  C   UNL     1       6.573   3.039 -11.668  1.00  0.00     0.000 A 
ENDBRANCH  23  24
ENDBRANCH  12  18
ENDBRANCH   4   7
ENDBRANCH   2   3
ENDBRANCH   1   2
BRANCH   1  31
ATOM     31  C   UNL     1       6.760  -1.495   0.584  1.00  0.00     0.023 C 
BRANCH  31  32
ATOM     32  C   UNL     1       7.151  -0.911   1.938  1.00  0.00     0.116 C 
BRANCH  32  33
ATOM     33  N   UNL     1       6.958  -1.790   3.082  1.00  0.00    -0.352 N 
ATOM     34  C   UNL     1       6.881  -1.490   4.437  1.00  0.00     0.251 C 
ATOM     35  H   UNL     1       6.870  -2.746   2.862  1.00  0.00     0.163 HD
ATOM     36  O   UNL     1       6.824  -2.391   5.253  1.00  0.00    -0.269 OA
BRANCH  34  37
ATOM     37  C   UNL     1       6.716  -0.077   4.881  1.00  0.00     0.039 A 
ATOM     38  C   UNL     1       5.776   0.180   5.888  1.00  0.00     0.014 A 
ATOM     39  C   UNL     1       7.293   0.983   4.190  1.00  0.00     0.014 A 
ATOM     40  C   UNL     1       5.214   1.452   5.994  1.00  0.00     0.010 A 
ATOM     41  C   UNL     1       6.665   2.215   4.215  1.00  0.00     0.010 A 
ATOM     42  C   UNL     1       5.576   2.425   5.064  1.00  0.00    -0.014 A 
BRANCH  42  43
ATOM     43  C   UNL     1       4.771   3.614   4.811  1.00  0.00     0.031 A 
ATOM     44  C   UNL     1       5.210   4.945   5.270  1.00  0.00     0.074 A 
ATOM     45  C   UNL     1       3.629   3.504   4.096  1.00  0.00     0.049 A 
ATOM     46  N   UNL     1       4.399   5.898   5.589  1.00  0.00    -0.248 NA
ATOM     47  C   UNL     1       6.615   5.300   5.426  1.00  0.00     0.031 C 
ATOM     48  C   UNL     1       2.827   4.587   3.535  1.00  0.00     0.029 A 
ATOM     49  N   UNL     1       2.853   2.356   3.896  1.00  0.00    -0.354 N 
ATOM     50  C   UNL     1       5.145   7.046   5.720  1.00  0.00     0.074 A 
ATOM     51  C   UNL     1       6.523   6.610   5.677  1.00  0.00     0.031 C 
ATOM     52  C   UNL     1       1.585   4.133   3.305  1.00  0.00     0.029 A 
ATOM     53  C   UNL     1       1.511   2.786   3.841  1.00  0.00     0.049 A 
ATOM     54  H   UNL     1       3.179   1.431   3.811  1.00  0.00     0.167 HD
ATOM     55  C   UNL     1       4.535   8.265   5.700  1.00  0.00     0.037 A 
ATOM     56  C   UNL     1       0.586   2.354   4.746  1.00  0.00     0.037 A 
ATOM     57  C   UNL     1       3.092   8.145   5.522  1.00  0.00     0.049 A 
ATOM     58  C   UNL     1      -0.050   3.461   5.552  1.00  0.00     0.074 A 
ATOM     59  C   UNL     1       2.291   8.220   4.394  1.00  0.00     0.029 A 
ATOM     60  N   UNL     1       2.306   7.593   6.527  1.00  0.00    -0.354 N 
ATOM     61  N   UNL     1       0.455   4.658   5.665  1.00  0.00    -0.248 NA
ATOM     62  C   UNL     1      -1.277   3.299   6.328  1.00  0.00     0.031 C 
ATOM     63  C   UNL     1       1.027   7.674   4.711  1.00  0.00     0.029 A 
ATOM     64  C   UNL     1       1.053   7.277   6.036  1.00  0.00     0.049 A 
ATOM     65  H   UNL     1       2.599   7.449   7.456  1.00  0.00     0.167 HD
ATOM     66  C   UNL     1      -0.309   5.397   6.531  1.00  0.00     0.074 A 
ATOM     67  C   UNL     1      -1.399   4.512   6.895  1.00  0.00     0.031 C 
ATOM     68  C   UNL     1       0.039   6.670   6.885  1.00  0.00     0.037 A 
BRANCH  55  69
ATOM     69  C   UNL     1       5.310   9.544   5.504  1.00  0.00     0.057 A 
ATOM     70  C   UNL     1       4.822  10.584   4.690  1.00  0.00     0.134 A 
ATOM     71  C   UNL     1       6.580   9.779   6.056  1.00  0.00     0.134 A 
ATOM     72  F   UNL     1       3.585  10.562   4.179  1.00  0.00    -0.206 F 
ATOM     73  C   UNL     1       5.590  11.702   4.345  1.00  0.00     0.040 A 
ATOM     74  C   UNL     1       7.380  10.868   5.681  1.00  0.00     0.040 A 
ATOM     75  F   UNL     1       7.087   8.968   6.997  1.00  0.00    -0.206 F 
ATOM     76  C   UNL     1       6.891  11.828   4.806  1.00  0.00     0.006 A 
ENDBRANCH  55  69
BRANCH  56  77
ATOM     77  C   UNL     1       0.858   0.986   5.257  1.00  0.00     0.057 A 
ATOM     78  C   UNL     1       0.778  -0.095   4.363  1.00  0.00     0.134 A 
ATOM     79  C   UNL     1       1.544   0.775   6.456  1.00  0.00     0.134 A 
ATOM     80  F   UNL     1       0.141   0.048   3.189  1.00  0.00    -0.206 F 
ATOM     81  C   UNL     1       1.445  -1.299   4.598  1.00  0.00     0.040 A 
ATOM     82  C   UNL     1       2.210  -0.430   6.706  1.00  0.00     0.040 A 
ATOM     83  F   UNL     1       1.683   1.766   7.347  1.00  0.00    -0.206 F 
ATOM     84  C   UNL     1       2.195  -1.455   5.760  1.00  0.00     0.006 A 
ENDBRANCH  56  77
BRANCH  68  85
ATOM     85  C   UNL     1      -0.587   7.498   7.980  1.00  0.00     0.057 A 
ATOM     86  C   UNL     1      -1.190   6.966   9.129  1.00  0.00     0.134 A 
ATOM     87  C   UNL     1      -0.464   8.907   7.969  1.00  0.00     0.134 A 
ATOM     88  F   UNL     1      -1.275   5.645   9.329  1.00  0.00    -0.206 F 
ATOM     89  C   UNL     1      -1.685   7.775  10.162  1.00  0.00     0.040 A 
ATOM     90  C   UNL     1      -0.906   9.720   9.017  1.00  0.00     0.040 A 
ATOM     91  F   UNL     1       0.114   9.557   6.947  1.00  0.00    -0.206 F 
ATOM     92  C   UNL     1      -1.534   9.155  10.115  1.00  0.00     0.006 A 
ENDBRANCH  68  85
ENDBRANCH  42  43
ENDBRANCH  34  37
ENDBRANCH  32  33
ENDBRANCH  31  32
ENDBRANCH   1  31
TORSDOF 14
