REMARK SMILES Cc1ccccc1OC1(C(=O)NCCCCNC(=O)c2ccc(-c3c4nc(c(-c5c(F)cccc5F)c5ccc([nH]5)c(-c5c(F)cccc5F)c5nc(c(-c6c(F)cccc6F)c6ccc3[nH]6)C=C5)C=C4)cc2)CCN(C(=O)[C@H]2CCCCO2)CC1
REMARK SMILES IDX 14 1 13 2 12 3 10 4 11 5 9 7 74 8 86 9 75 10 85 11 76 12
REMARK SMILES IDX 77 13 78 14 8 15 7 16 1 17 2 18 3 19 4 20 6 21 5 22 79 23
REMARK SMILES IDX 80 24 84 25 81 26 83 27 82 28 15 29 16 30 17 31 18 32 19 34
REMARK SMILES IDX 20 35 21 36 73 37 22 38 72 39 23 40 24 41 25 42 66 43 26 44
REMARK SMILES IDX 71 45 65 46 67 47 27 48 70 49 64 50 63 51 28 53 54 54 37 55
REMARK SMILES IDX 53 56 38 57 41 58 52 59 68 60 39 61 40 62 51 64 69 65 42 66
REMARK SMILES IDX 29 67 30 68 35 69 31 70 32 71 34 72 36 73 33 74 55 75 56 76
REMARK SMILES IDX 61 77 57 78 58 79 60 80 62 81 59 82 43 83 44 84 49 85 45 86
REMARK SMILES IDX 46 87 48 88 50 89 47 90
REMARK H PARENT 12 6 17 33 67 52 41 63
REMARK Flexibility Score: inf
ROOT
ATOM      1  C   UNL     1       9.132  -4.412  -2.415  1.00  0.00     0.023 C 
ENDROOT
BRANCH   1   2
ATOM      2  C   UNL     1       7.746  -4.308  -3.069  1.00  0.00     0.116 C 
BRANCH   2   3
ATOM      3  N   UNL     1       7.151  -5.597  -3.368  1.00  0.00    -0.353 N 
ATOM      4  C   UNL     1       6.169  -6.346  -2.779  1.00  0.00     0.264 C 
ATOM      5  O   UNL     1       5.880  -7.372  -3.410  1.00  0.00    -0.270 OA
ATOM      6  H   UNL     1       7.538  -6.026  -4.165  1.00  0.00     0.163 HD
BRANCH   4   7
ATOM      7  C   UNL     1       5.450  -5.963  -1.421  1.00  0.00     0.190 C 
ATOM      8  C   UNL     1       6.505  -5.956  -0.324  1.00  0.00     0.080 C 
ATOM      9  C   UNL     1       4.606  -4.710  -1.669  1.00  0.00     0.080 C 
ATOM     10  C   UNL     1       6.907  -4.593   0.203  1.00  0.00     0.124 C 
ATOM     11  C   UNL     1       4.958  -3.444  -0.893  1.00  0.00     0.124 C 
ATOM     12  N   UNL     1       5.862  -3.585   0.243  1.00  0.00    -0.340 N 
ATOM     13  C   UNL     1       6.003  -2.605   1.237  1.00  0.00     0.251 C 
ATOM     14  O   UNL     1       6.971  -2.627   2.004  1.00  0.00    -0.272 OA
BRANCH   7  15
ATOM     15  O   UNL     1       4.571  -7.112  -1.243  1.00  0.00    -0.477 OA
BRANCH  15  16
ATOM     16  C   UNL     1       3.645  -7.452  -0.303  1.00  0.00     0.123 A 
ATOM     17  C   UNL     1       3.969  -5.784   1.657  1.00  0.00     0.048 C 
ATOM     18  C   UNL     1       3.322  -6.930   0.959  1.00  0.00    -0.009 A 
ATOM     19  C   UNL     1       2.319  -7.559   1.740  1.00  0.00     0.007 A 
ATOM     20  C   UNL     1       1.620  -8.669   1.286  1.00  0.00     0.001 A 
ATOM     21  C   UNL     1       2.918  -8.580  -0.736  1.00  0.00     0.047 A 
ATOM     22  C   UNL     1       1.919  -9.181   0.038  1.00  0.00     0.004 A 
ENDBRANCH  15  16
ENDBRANCH   7  15
BRANCH  13  23
ATOM     23  C   UNL     1       4.898  -1.532   1.384  1.00  0.00     0.207 C 
ATOM     24  C   UNL     1       3.712  -2.157   2.132  1.00  0.00     0.042 C 
ATOM     25  O   UNL     1       5.444  -0.428   2.115  1.00  0.00    -0.368 OA
ATOM     26  C   UNL     1       2.696  -1.117   2.584  1.00  0.00     0.006 C 
ATOM     27  C   UNL     1       4.496   0.587   2.413  1.00  0.00     0.161 C 
ATOM     28  C   UNL     1       3.392   0.031   3.296  1.00  0.00     0.029 C 
ENDBRANCH  13  23
ENDBRANCH   4   7
ENDBRANCH   2   3
ENDBRANCH   1   2
BRANCH   1  29
ATOM     29  C   UNL     1      10.273  -4.793  -3.352  1.00  0.00     0.023 C 
BRANCH  29  30
ATOM     30  C   UNL     1      10.699  -3.679  -4.296  1.00  0.00     0.116 C 
BRANCH  30  31
ATOM     31  N   UNL     1      11.649  -2.722  -3.742  1.00  0.00    -0.352 N 
ATOM     32  C   UNL     1      12.179  -1.568  -4.308  1.00  0.00     0.251 C 
ATOM     33  H   UNL     1      11.963  -2.924  -2.831  1.00  0.00     0.163 HD
ATOM     34  O   UNL     1      13.020  -0.924  -3.705  1.00  0.00    -0.269 OA
BRANCH  32  35
ATOM     35  C   UNL     1      11.595  -1.027  -5.567  1.00  0.00     0.039 A 
ATOM     36  C   UNL     1      11.325   0.347  -5.610  1.00  0.00     0.014 A 
ATOM     37  C   UNL     1      11.064  -1.867  -6.537  1.00  0.00     0.014 A 
ATOM     38  C   UNL     1      10.280   0.809  -6.403  1.00  0.00     0.010 A 
ATOM     39  C   UNL     1       9.948  -1.443  -7.226  1.00  0.00     0.010 A 
ATOM     40  C   UNL     1       9.505  -0.125  -7.082  1.00  0.00    -0.014 A 
BRANCH  40  41
ATOM     41  C   UNL     1       8.143   0.139  -7.528  1.00  0.00     0.031 A 
ATOM     42  C   UNL     1       7.827   0.205  -8.965  1.00  0.00     0.074 A 
ATOM     43  C   UNL     1       7.157   0.184  -6.603  1.00  0.00     0.049 A 
ATOM     44  N   UNL     1       6.751   0.720  -9.454  1.00  0.00    -0.248 NA
ATOM     45  C   UNL     1       8.758  -0.253  -9.987  1.00  0.00     0.031 C 
ATOM     46  C   UNL     1       5.718   0.101  -6.829  1.00  0.00     0.029 A 
ATOM     47  N   UNL     1       7.277   0.528  -5.250  1.00  0.00    -0.354 N 
ATOM     48  C   UNL     1       6.705   0.409 -10.796  1.00  0.00     0.074 A 
ATOM     49  C   UNL     1       8.022  -0.099 -11.090  1.00  0.00     0.031 C 
ATOM     50  C   UNL     1       5.082   0.634  -5.774  1.00  0.00     0.029 A 
ATOM     51  C   UNL     1       6.095   1.217  -4.911  1.00  0.00     0.049 A 
ATOM     52  H   UNL     1       8.036   0.328  -4.655  1.00  0.00     0.167 HD
ATOM     53  C   UNL     1       5.506   0.493 -11.445  1.00  0.00     0.037 A 
ATOM     54  C   UNL     1       6.132   2.530  -4.539  1.00  0.00     0.037 A 
ATOM     55  C   UNL     1       4.510   1.157 -10.595  1.00  0.00     0.049 A 
ATOM     56  C   UNL     1       5.374   3.453  -5.467  1.00  0.00     0.074 A 
ATOM     57  C   UNL     1       3.466   0.686  -9.815  1.00  0.00     0.029 A 
ATOM     58  N   UNL     1       4.707   2.485 -10.221  1.00  0.00    -0.354 N 
ATOM     59  N   UNL     1       4.993   3.125  -6.671  1.00  0.00    -0.248 NA
ATOM     60  C   UNL     1       5.005   4.824  -5.123  1.00  0.00     0.031 C 
ATOM     61  C   UNL     1       3.095   1.714  -8.909  1.00  0.00     0.029 A 
ATOM     62  C   UNL     1       3.890   2.819  -9.158  1.00  0.00     0.049 A 
ATOM     63  H   UNL     1       5.341   3.100 -10.655  1.00  0.00     0.167 HD
ATOM     64  C   UNL     1       4.386   4.197  -7.271  1.00  0.00     0.074 A 
ATOM     65  C   UNL     1       4.391   5.228  -6.250  1.00  0.00     0.031 C 
ATOM     66  C   UNL     1       3.948   4.149  -8.564  1.00  0.00     0.037 A 
BRANCH  53  67
ATOM     67  C   UNL     1       5.146  -0.277 -12.710  1.00  0.00     0.057 A 
ATOM     68  C   UNL     1       3.793  -0.512 -13.041  1.00  0.00     0.134 A 
ATOM     69  C   UNL     1       6.050  -0.899 -13.591  1.00  0.00     0.134 A 
ATOM     70  F   UNL     1       2.792   0.081 -12.378  1.00  0.00    -0.206 F 
ATOM     71  C   UNL     1       3.388  -1.375 -14.072  1.00  0.00     0.040 A 
ATOM     72  C   UNL     1       5.662  -1.787 -14.607  1.00  0.00     0.040 A 
ATOM     73  F   UNL     1       7.359  -0.653 -13.567  1.00  0.00    -0.206 F 
ATOM     74  C   UNL     1       4.324  -2.044 -14.841  1.00  0.00     0.006 A 
ENDBRANCH  53  67
BRANCH  54  75
ATOM     75  C   UNL     1       7.361   2.887  -3.783  1.00  0.00     0.057 A 
ATOM     76  C   UNL     1       7.550   2.316  -2.511  1.00  0.00     0.134 A 
ATOM     77  C   UNL     1       8.487   3.424  -4.414  1.00  0.00     0.134 A 
ATOM     78  F   UNL     1       6.508   1.780  -1.855  1.00  0.00    -0.206 F 
ATOM     79  C   UNL     1       8.819   2.178  -1.944  1.00  0.00     0.040 A 
ATOM     80  C   UNL     1       9.763   3.299  -3.850  1.00  0.00     0.040 A 
ATOM     81  F   UNL     1       8.392   3.959  -5.639  1.00  0.00    -0.206 F 
ATOM     82  C   UNL     1       9.936   2.640  -2.633  1.00  0.00     0.006 A 
ENDBRANCH  54  75
BRANCH  66  83
ATOM     83  C   UNL     1       3.468   5.328  -9.374  1.00  0.00     0.057 A 
ATOM     84  C   UNL     1       3.935   6.640  -9.211  1.00  0.00     0.134 A 
ATOM     85  C   UNL     1       2.606   5.131 -10.476  1.00  0.00     0.134 A 
ATOM     86  F   UNL     1       4.840   6.952  -8.274  1.00  0.00    -0.206 F 
ATOM     87  C   UNL     1       3.534   7.690 -10.050  1.00  0.00     0.040 A 
ATOM     88  C   UNL     1       2.242   6.159 -11.351  1.00  0.00     0.040 A 
ATOM     89  F   UNL     1       2.098   3.923 -10.764  1.00  0.00    -0.206 F 
ATOM     90  C   UNL     1       2.696   7.449 -11.131  1.00  0.00     0.006 A 
ENDBRANCH  66  83
ENDBRANCH  40  41
ENDBRANCH  32  35
ENDBRANCH  30  31
ENDBRANCH  29  30
ENDBRANCH   1  29
TORSDOF 14
