REMARK SMILES Cc1ccnc(C(=O)c2[nH]c3ccc(F)cc3c2CC(=O)NCCCCNC(=O)c2ccc(-c3c4nc(c(-c5c(F)cccc5F)c5ccc([nH]5)c(-c5c(F)cccc5F)c5nc(c(-c6c(F)cccc6F)c6ccc3[nH]6)C=C5)C=C4)cc2)c1
REMARK SMILES IDX 24 1 23 2 22 3 20 4 21 5 19 7 18 8 9 9 10 10 11 11 17 13
REMARK SMILES IDX 12 14 16 15 13 16 14 17 15 18 7 19 8 20 6 21 1 22 2 23 3 24
REMARK SMILES IDX 84 25 4 26 5 27 25 28 26 29 27 30 28 31 29 33 30 34 31 35
REMARK SMILES IDX 83 36 32 37 82 38 33 39 34 40 35 41 76 42 36 43 81 44 75 45
REMARK SMILES IDX 77 46 37 47 80 48 74 49 73 50 38 52 64 53 47 54 63 55 48 56
REMARK SMILES IDX 51 57 62 58 78 59 49 60 50 61 61 63 79 64 52 65 39 66 40 67
REMARK SMILES IDX 45 68 41 69 42 70 44 71 46 72 43 73 65 74 66 75 71 76 67 77
REMARK SMILES IDX 68 78 70 79 72 80 69 81 53 82 54 83 59 84 55 85 56 86 58 87
REMARK SMILES IDX 60 88 57 89
REMARK H PARENT 22 6 10 12 27 32 77 51 51 62
REMARK Flexibility Score: inf
ROOT
ATOM      1  C   UNL     1      -2.837  -3.899   0.693  1.00  0.00     0.023 C 
ENDROOT
BRANCH   1   2
ATOM      2  C   UNL     1      -3.073  -3.745  -0.812  1.00  0.00     0.116 C 
BRANCH   2   3
ATOM      3  N   UNL     1      -2.470  -2.568  -1.401  1.00  0.00    -0.356 N 
ATOM      4  C   UNL     1      -1.296  -2.409  -2.075  1.00  0.00     0.224 C 
ATOM      5  O   UNL     1      -1.133  -1.328  -2.651  1.00  0.00    -0.275 OA
ATOM      6  H   UNL     1      -2.998  -1.743  -1.297  1.00  0.00     0.163 HD
BRANCH   4   7
ATOM      7  C   UNL     1      -0.249  -3.502  -2.191  1.00  0.00     0.138 C 
BRANCH   7   8
ATOM      8  C   UNL     1       0.231  -4.127  -0.910  1.00  0.00    -0.002 A 
ATOM      9  C   UNL     1       1.095  -3.616   0.064  1.00  0.00     0.093 A 
ATOM     10  N   UNL     1       1.305  -4.632   0.978  1.00  0.00    -0.352 N 
ATOM     11  C   UNL     1       0.555  -5.740   0.690  1.00  0.00     0.046 A 
ATOM     12  H   UNL     1       1.920  -4.566   1.744  1.00  0.00     0.167 HD
ATOM     13  C   UNL     1      -0.066  -5.492  -0.530  1.00  0.00     0.007 A 
ATOM     14  C   UNL     1       0.407  -6.938   1.401  1.00  0.00     0.030 A 
ATOM     15  C   UNL     1      -0.834  -6.531  -1.102  1.00  0.00     0.049 A 
ATOM     16  C   UNL     1      -0.407  -7.925   0.840  1.00  0.00     0.041 A 
ATOM     17  C   UNL     1      -1.004  -7.721  -0.395  1.00  0.00     0.123 A 
ATOM     18  F   UNL     1      -1.778  -8.682  -0.916  1.00  0.00    -0.207 F 
BRANCH   9  19
ATOM     19  C   UNL     1       1.845  -2.375   0.244  1.00  0.00     0.227 C 
ATOM     20  O   UNL     1       3.001  -2.431   0.666  1.00  0.00    -0.285 OA
BRANCH  19  21
ATOM     21  C   UNL     1       1.219  -1.021   0.085  1.00  0.00     0.113 A 
ATOM     22  C   UNL     1      -2.122   0.766   0.331  1.00  0.00     0.044 C 
ATOM     23  C   UNL     1      -0.657   0.485   0.181  1.00  0.00    -0.047 A 
ATOM     24  C   UNL     1       0.223   1.530  -0.092  1.00  0.00     0.023 A 
ATOM     25  C   UNL     1      -0.134  -0.806   0.323  1.00  0.00     0.036 A 
ATOM     26  C   UNL     1       1.566   1.240  -0.257  1.00  0.00     0.112 A 
ATOM     27  N   UNL     1       2.081  -0.005  -0.184  1.00  0.00    -0.253 NA
ENDBRANCH  19  21
ENDBRANCH   9  19
ENDBRANCH   7   8
ENDBRANCH   4   7
ENDBRANCH   2   3
ENDBRANCH   1   2
BRANCH   1  28
ATOM     28  C   UNL     1      -3.409  -2.814   1.606  1.00  0.00     0.023 C 
BRANCH  28  29
ATOM     29  C   UNL     1      -4.868  -2.452   1.384  1.00  0.00     0.116 C 
BRANCH  29  30
ATOM     30  N   UNL     1      -5.755  -3.581   1.582  1.00  0.00    -0.352 N 
ATOM     31  C   UNL     1      -6.982  -3.621   2.197  1.00  0.00     0.251 C 
ATOM     32  H   UNL     1      -5.433  -4.441   1.226  1.00  0.00     0.163 HD
ATOM     33  O   UNL     1      -7.525  -4.702   2.401  1.00  0.00    -0.269 OA
BRANCH  31  34
ATOM     34  C   UNL     1      -7.638  -2.372   2.644  1.00  0.00     0.039 A 
ATOM     35  C   UNL     1      -8.250  -2.358   3.901  1.00  0.00     0.014 A 
ATOM     36  C   UNL     1      -7.679  -1.232   1.834  1.00  0.00     0.014 A 
ATOM     37  C   UNL     1      -8.860  -1.191   4.365  1.00  0.00     0.010 A 
ATOM     38  C   UNL     1      -8.238  -0.051   2.321  1.00  0.00     0.010 A 
ATOM     39  C   UNL     1      -8.837  -0.021   3.589  1.00  0.00    -0.014 A 
BRANCH  39  40
ATOM     40  C   UNL     1      -9.426   1.240   4.106  1.00  0.00     0.031 A 
ATOM     41  C   UNL     1     -10.653   1.829   3.470  1.00  0.00     0.074 A 
ATOM     42  C   UNL     1      -8.827   1.877   5.130  1.00  0.00     0.049 A 
ATOM     43  N   UNL     1     -11.298   2.926   3.781  1.00  0.00    -0.248 NA
ATOM     44  C   UNL     1     -11.218   1.104   2.322  1.00  0.00     0.031 C 
ATOM     45  C   UNL     1      -7.603   1.435   5.801  1.00  0.00     0.029 A 
ATOM     46  N   UNL     1      -9.165   3.035   5.783  1.00  0.00    -0.354 N 
ATOM     47  C   UNL     1     -12.338   3.026   2.866  1.00  0.00     0.074 A 
ATOM     48  C   UNL     1     -12.211   1.905   1.959  1.00  0.00     0.031 C 
ATOM     49  C   UNL     1      -7.306   2.298   6.785  1.00  0.00     0.029 A 
ATOM     50  C   UNL     1      -8.301   3.365   6.799  1.00  0.00     0.049 A 
ATOM     51  H   UNL     1      -9.951   3.577   5.547  1.00  0.00     0.167 HD
ATOM     52  C   UNL     1     -13.321   3.955   2.800  1.00  0.00     0.037 A 
ATOM     53  C   UNL     1      -8.312   4.410   7.648  1.00  0.00     0.037 A 
ATOM     54  C   UNL     1     -13.461   5.059   3.714  1.00  0.00     0.049 A 
ATOM     55  C   UNL     1      -9.419   5.421   7.559  1.00  0.00     0.074 A 
ATOM     56  C   UNL     1     -14.460   6.017   3.765  1.00  0.00     0.029 A 
ATOM     57  N   UNL     1     -12.573   5.354   4.737  1.00  0.00    -0.354 N 
ATOM     58  N   UNL     1     -10.434   5.465   6.732  1.00  0.00    -0.248 NA
ATOM     59  C   UNL     1      -9.384   6.525   8.529  1.00  0.00     0.031 C 
ATOM     60  C   UNL     1     -14.156   6.913   4.797  1.00  0.00     0.029 A 
ATOM     61  C   UNL     1     -12.989   6.491   5.412  1.00  0.00     0.049 A 
ATOM     62  H   UNL     1     -11.765   4.834   4.952  1.00  0.00     0.167 HD
ATOM     63  C   UNL     1     -11.169   6.586   7.092  1.00  0.00     0.074 A 
ATOM     64  C   UNL     1     -10.493   7.184   8.225  1.00  0.00     0.031 C 
ATOM     65  C   UNL     1     -12.302   7.078   6.533  1.00  0.00     0.037 A 
BRANCH  52  66
ATOM     66  C   UNL     1     -14.332   3.814   1.700  1.00  0.00     0.057 A 
ATOM     67  C   UNL     1     -15.305   2.806   1.720  1.00  0.00     0.134 A 
ATOM     68  C   UNL     1     -14.357   4.716   0.629  1.00  0.00     0.134 A 
ATOM     69  F   UNL     1     -15.327   1.902   2.711  1.00  0.00    -0.206 F 
ATOM     70  C   UNL     1     -16.253   2.686   0.702  1.00  0.00     0.040 A 
ATOM     71  C   UNL     1     -15.315   4.621  -0.382  1.00  0.00     0.040 A 
ATOM     72  F   UNL     1     -13.457   5.708   0.553  1.00  0.00    -0.206 F 
ATOM     73  C   UNL     1     -16.263   3.601  -0.350  1.00  0.00     0.006 A 
ENDBRANCH  52  66
BRANCH  53  74
ATOM     74  C   UNL     1      -7.252   4.536   8.678  1.00  0.00     0.057 A 
ATOM     75  C   UNL     1      -7.532   4.310  10.030  1.00  0.00     0.134 A 
ATOM     76  C   UNL     1      -5.941   4.887   8.337  1.00  0.00     0.134 A 
ATOM     77  F   UNL     1      -8.775   3.989  10.417  1.00  0.00    -0.206 F 
ATOM     78  C   UNL     1      -6.549   4.446  11.011  1.00  0.00     0.040 A 
ATOM     79  C   UNL     1      -4.943   5.005   9.305  1.00  0.00     0.040 A 
ATOM     80  F   UNL     1      -5.610   5.109   7.057  1.00  0.00    -0.206 F 
ATOM     81  C   UNL     1      -5.248   4.790  10.648  1.00  0.00     0.006 A 
ENDBRANCH  53  74
BRANCH  65  82
ATOM     82  C   UNL     1     -12.883   8.315   7.152  1.00  0.00     0.057 A 
ATOM     83  C   UNL     1     -12.286   9.571   6.987  1.00  0.00     0.134 A 
ATOM     84  C   UNL     1     -14.059   8.250   7.910  1.00  0.00     0.134 A 
ATOM     85  F   UNL     1     -11.149   9.696   6.285  1.00  0.00    -0.206 F 
ATOM     86  C   UNL     1     -12.824  10.716   7.576  1.00  0.00     0.040 A 
ATOM     87  C   UNL     1     -14.620   9.392   8.484  1.00  0.00     0.040 A 
ATOM     88  F   UNL     1     -14.684   7.079   8.100  1.00  0.00    -0.206 F 
ATOM     89  C   UNL     1     -13.997  10.629   8.324  1.00  0.00     0.006 A 
ENDBRANCH  65  82
ENDBRANCH  39  40
ENDBRANCH  31  34
ENDBRANCH  29  30
ENDBRANCH  28  29
ENDBRANCH   1  28
TORSDOF 14
