REMARK SMILES CC[N@H+](C[C@H]1CCCO1)[C@@H](C)c1ccc(C(=O)NCCCCNC(=O)c2ccc(-c3c4nc(c(-c5c(F)cccc5F)c5ccc([nH]5)c(-c5c(F)cccc5F)c5nc(c(-c6c(F)cccc6F)c6ccc3[nH]6)C=C5)C=C4)cc2)o1
REMARK SMILES IDX 19 1 18 2 16 3 17 4 15 6 12 7 13 8 80 9 14 10 10 11 11 12
REMARK SMILES IDX 3 13 2 15 1 16 4 17 5 18 6 19 9 20 7 21 8 22 20 23 21 24
REMARK SMILES IDX 22 25 23 26 24 27 25 29 26 30 27 31 79 32 28 33 78 34 29 35
REMARK SMILES IDX 30 36 31 37 72 38 32 39 77 40 71 41 73 42 33 43 76 44 70 45
REMARK SMILES IDX 69 46 34 48 60 49 43 50 59 51 44 52 47 53 58 54 74 55 45 56
REMARK SMILES IDX 46 57 57 59 75 60 48 61 35 62 36 63 41 64 37 65 38 66 40 67
REMARK SMILES IDX 42 68 39 69 61 70 62 71 67 72 63 73 64 74 66 75 68 76 65 77
REMARK SMILES IDX 49 78 50 79 55 80 51 81 52 82 54 83 56 84 53 85
REMARK H PARENT 18 5 3 14 23 28 73 47 47 58
REMARK Flexibility Score: inf
ROOT
ATOM      1  C   UNL     1      -4.843   9.064   1.225  1.00  0.00     0.116 C 
ENDROOT
BRANCH   1   2
ATOM      2  N   UNL     1      -3.949   8.482   2.195  1.00  0.00    -0.349 N 
ATOM      3  C   UNL     1      -2.895   7.617   2.017  1.00  0.00     0.287 C 
ATOM      4  O   UNL     1      -2.327   7.255   3.050  1.00  0.00    -0.266 OA
ATOM      5  H   UNL     1      -4.119   8.745   3.128  1.00  0.00     0.163 HD
BRANCH   3   6
ATOM      6  C   UNL     1      -2.487   7.187   0.691  1.00  0.00     0.191 A 
ATOM      7  C   UNL     1      -1.094   6.142  -0.670  1.00  0.00     0.161 A 
ATOM      8  C   UNL     1      -2.061   6.699  -1.474  1.00  0.00     0.053 A 
ATOM      9  O   UNL     1      -1.323   6.461   0.630  1.00  0.00    -0.450 OA
ATOM     10  C   UNL     1      -2.987   7.302  -0.598  1.00  0.00     0.057 A 
BRANCH   7  11
ATOM     11  C   UNL     1       0.111   5.311  -0.952  1.00  0.00     0.248 C 
ATOM     12  C   UNL     1       0.987   6.198  -1.881  1.00  0.00     0.084 C 
BRANCH  11  13
ATOM     13  N   UNL     1      -0.187   4.034  -1.626  1.00  0.00    -0.324 N 
ATOM     14  H   UNL     1      -0.633   4.469  -2.434  1.00  0.00     0.348 HD
BRANCH  13  15
ATOM     15  C   UNL     1      -1.283   3.126  -1.255  1.00  0.00     0.259 C 
ATOM     16  C   UNL     1      -2.561   3.591  -0.569  1.00  0.00     0.071 C 
ENDBRANCH  13  15
BRANCH  13  17
ATOM     17  C   UNL     1       1.036   3.257  -1.914  1.00  0.00     0.295 C 
BRANCH  17  18
ATOM     18  C   UNL     1       1.098   2.741  -3.366  1.00  0.00     0.173 C 
ATOM     19  C   UNL     1       0.388   3.589  -4.418  1.00  0.00     0.040 C 
ATOM     20  O   UNL     1       2.485   2.677  -3.762  1.00  0.00    -0.372 OA
ATOM     21  C   UNL     1       1.486   4.407  -5.039  1.00  0.00     0.031 C 
ATOM     22  C   UNL     1       2.683   3.498  -4.919  1.00  0.00     0.161 C 
ENDBRANCH  17  18
ENDBRANCH  13  17
ENDBRANCH  11  13
ENDBRANCH   7  11
ENDBRANCH   3   6
ENDBRANCH   1   2
BRANCH   1  23
ATOM     23  C   UNL     1      -6.034   8.140   0.971  1.00  0.00     0.023 C 
BRANCH  23  24
ATOM     24  C   UNL     1      -7.138   8.275   2.022  1.00  0.00     0.023 C 
BRANCH  24  25
ATOM     25  C   UNL     1      -7.688   9.688   2.173  1.00  0.00     0.116 C 
BRANCH  25  26
ATOM     26  N   UNL     1      -8.133  10.268   0.915  1.00  0.00    -0.352 N 
ATOM     27  C   UNL     1      -9.082  11.248   0.728  1.00  0.00     0.251 C 
ATOM     28  H   UNL     1      -7.706   9.918   0.100  1.00  0.00     0.163 HD
ATOM     29  O   UNL     1      -9.453  11.566  -0.384  1.00  0.00    -0.269 OA
BRANCH  27  30
ATOM     30  C   UNL     1      -9.667  11.871   1.931  1.00  0.00     0.039 A 
ATOM     31  C   UNL     1     -11.052  11.845   2.093  1.00  0.00     0.014 A 
ATOM     32  C   UNL     1      -8.835  12.393   2.924  1.00  0.00     0.014 A 
ATOM     33  C   UNL     1     -11.603  12.300   3.289  1.00  0.00     0.010 A 
ATOM     34  C   UNL     1      -9.380  12.765   4.145  1.00  0.00     0.010 A 
ATOM     35  C   UNL     1     -10.769  12.731   4.335  1.00  0.00    -0.014 A 
BRANCH  35  36
ATOM     36  C   UNL     1     -11.341  13.163   5.632  1.00  0.00     0.031 A 
ATOM     37  C   UNL     1     -11.169  14.584   6.091  1.00  0.00     0.074 A 
ATOM     38  C   UNL     1     -11.973  12.266   6.413  1.00  0.00     0.049 A 
ATOM     39  N   UNL     1     -11.577  15.149   7.197  1.00  0.00    -0.248 NA
ATOM     40  C   UNL     1     -10.412  15.481   5.202  1.00  0.00     0.031 C 
ATOM     41  C   UNL     1     -12.150  10.846   6.102  1.00  0.00     0.029 A 
ATOM     42  N   UNL     1     -12.584  12.417   7.632  1.00  0.00    -0.354 N 
ATOM     43  C   UNL     1     -11.122  16.460   7.140  1.00  0.00     0.074 A 
ATOM     44  C   UNL     1     -10.349  16.588   5.925  1.00  0.00     0.031 C 
ATOM     45  C   UNL     1     -12.854  10.265   7.086  1.00  0.00     0.029 A 
ATOM     46  C   UNL     1     -13.146  11.259   8.113  1.00  0.00     0.049 A 
ATOM     47  H   UNL     1     -12.616  13.273   8.116  1.00  0.00     0.167 HD
ATOM     48  C   UNL     1     -11.354  17.474   8.006  1.00  0.00     0.037 A 
ATOM     49  C   UNL     1     -13.822  11.030   9.254  1.00  0.00     0.037 A 
ATOM     50  C   UNL     1     -12.143  17.345   9.202  1.00  0.00     0.049 A 
ATOM     51  C   UNL     1     -14.060  12.172  10.203  1.00  0.00     0.074 A 
ATOM     52  C   UNL     1     -12.489  18.324  10.115  1.00  0.00     0.029 A 
ATOM     53  N   UNL     1     -12.703  16.159   9.652  1.00  0.00    -0.354 N 
ATOM     54  N   UNL     1     -13.696  13.427  10.096  1.00  0.00    -0.248 NA
ATOM     55  C   UNL     1     -14.812  11.867  11.429  1.00  0.00     0.031 C 
ATOM     56  C   UNL     1     -13.216  17.720  11.146  1.00  0.00     0.029 A 
ATOM     57  C   UNL     1     -13.371  16.376  10.846  1.00  0.00     0.049 A 
ATOM     58  H   UNL     1     -12.636  15.291   9.192  1.00  0.00     0.167 HD
ATOM     59  C   UNL     1     -14.195  14.066  11.224  1.00  0.00     0.074 A 
ATOM     60  C   UNL     1     -14.905  13.064  11.991  1.00  0.00     0.031 C 
ATOM     61  C   UNL     1     -14.076  15.365  11.593  1.00  0.00     0.037 A 
BRANCH  48  62
ATOM     62  C   UNL     1     -10.751  18.810   7.683  1.00  0.00     0.057 A 
ATOM     63  C   UNL     1     -11.195  19.581   6.599  1.00  0.00     0.134 A 
ATOM     64  C   UNL     1      -9.730  19.346   8.478  1.00  0.00     0.134 A 
ATOM     65  F   UNL     1     -12.160  19.120   5.788  1.00  0.00    -0.206 F 
ATOM     66  C   UNL     1     -10.627  20.820   6.301  1.00  0.00     0.040 A 
ATOM     67  C   UNL     1      -9.175  20.598   8.208  1.00  0.00     0.040 A 
ATOM     68  F   UNL     1      -9.259  18.664   9.533  1.00  0.00    -0.206 F 
ATOM     69  C   UNL     1      -9.619  21.336   7.112  1.00  0.00     0.006 A 
ENDBRANCH  48  62
BRANCH  49  70
ATOM     70  C   UNL     1     -14.346   9.672   9.552  1.00  0.00     0.057 A 
ATOM     71  C   UNL     1     -15.722   9.412   9.556  1.00  0.00     0.134 A 
ATOM     72  C   UNL     1     -13.489   8.607   9.852  1.00  0.00     0.134 A 
ATOM     73  F   UNL     1     -16.595  10.395   9.292  1.00  0.00    -0.206 F 
ATOM     74  C   UNL     1     -16.227   8.150   9.872  1.00  0.00     0.040 A 
ATOM     75  C   UNL     1     -13.979   7.333  10.144  1.00  0.00     0.040 A 
ATOM     76  F   UNL     1     -12.160   8.787   9.856  1.00  0.00    -0.206 F 
ATOM     77  C   UNL     1     -15.354   7.104  10.163  1.00  0.00     0.006 A 
ENDBRANCH  49  70
BRANCH  61  78
ATOM     78  C   UNL     1     -14.754  15.782  12.866  1.00  0.00     0.057 A 
ATOM     79  C   UNL     1     -14.282  15.380  14.122  1.00  0.00     0.134 A 
ATOM     80  C   UNL     1     -15.872  16.625  12.834  1.00  0.00     0.134 A 
ATOM     81  F   UNL     1     -13.223  14.563  14.222  1.00  0.00    -0.206 F 
ATOM     82  C   UNL     1     -14.914  15.781  15.300  1.00  0.00     0.040 A 
ATOM     83  C   UNL     1     -16.494  17.058  14.006  1.00  0.00     0.040 A 
ATOM     84  F   UNL     1     -16.369  17.055  11.664  1.00  0.00    -0.206 F 
ATOM     85  C   UNL     1     -16.019  16.629  15.244  1.00  0.00     0.006 A 
ENDBRANCH  61  78
ENDBRANCH  35  36
ENDBRANCH  27  30
ENDBRANCH  25  26
ENDBRANCH  24  25
ENDBRANCH  23  24
ENDBRANCH   1  23
TORSDOF 16
