REMARK SMILES COc1cc(C(=O)NCCCCNC(=O)c2ccc(-c3c4nc(c(-c5c(F)cccc5F)c5ccc([nH]5)c(-c5c(F)cccc5F)c5nc(c(-c6c(F)cccc6F)c6ccc3[nH]6)C=C5)C=C4)cc2)ccc1OCC(=O)N[C@H]1CCCC[C@H]1C
REMARK SMILES IDX 9 1 8 2 6 3 7 4 5 6 3 7 4 8 72 9 71 10 70 11 2 12 1 13 73 14
REMARK SMILES IDX 74 15 75 16 76 17 77 18 78 20 79 21 83 22 80 23 82 24 84 25
REMARK SMILES IDX 81 26 10 27 11 28 12 29 13 30 14 31 15 33 16 34 17 35 69 36
REMARK SMILES IDX 18 37 68 38 19 39 20 40 21 41 62 42 22 43 67 44 61 45 63 46
REMARK SMILES IDX 23 47 66 48 60 49 59 50 24 52 50 53 33 54 49 55 34 56 37 57
REMARK SMILES IDX 48 58 64 59 35 60 36 61 47 63 65 64 38 65 25 66 26 67 31 68
REMARK SMILES IDX 27 69 28 70 30 71 32 72 29 73 51 74 52 75 57 76 53 77 54 78
REMARK SMILES IDX 56 79 58 80 55 81 39 82 40 83 45 84 41 85 42 86 44 87 46 88
REMARK SMILES IDX 43 89
REMARK H PARENT 8 5 77 19 13 32 63 51 37 62
REMARK Flexibility Score: inf
ROOT
ATOM      1  C   UNL     1       1.674   6.543  -3.316  1.00  0.00     0.116 C 
ENDROOT
BRANCH   1   2
ATOM      2  N   UNL     1       0.287   6.125  -3.196  1.00  0.00    -0.352 N 
ATOM      3  C   UNL     1      -0.266   5.009  -2.608  1.00  0.00     0.251 C 
ATOM      4  O   UNL     1      -1.481   4.838  -2.668  1.00  0.00    -0.269 OA
ATOM      5  H   UNL     1      -0.365   6.742  -3.601  1.00  0.00     0.163 HD
BRANCH   3   6
ATOM      6  C   UNL     1       0.580   3.985  -1.946  1.00  0.00     0.043 A 
ATOM      7  C   UNL     1       1.110   1.633  -1.630  1.00  0.00     0.161 A 
ATOM      8  C   UNL     1       0.277   2.634  -2.153  1.00  0.00     0.064 A 
ATOM      9  C   UNL     1       2.282   1.985  -0.953  1.00  0.00     0.161 A 
ATOM     10  C   UNL     1       2.541   3.337  -0.704  1.00  0.00     0.051 A 
ATOM     11  C   UNL     1       1.663   4.328  -1.138  1.00  0.00     0.018 A 
BRANCH   7  12
ATOM     12  O   UNL     1       0.823   0.320  -1.887  1.00  0.00    -0.493 OA
ATOM     13  C   UNL     1      -0.422  -0.075  -1.300  1.00  0.00     0.278 C 
ENDBRANCH   7  12
BRANCH   9  14
ATOM     14  O   UNL     1       3.279   1.155  -0.524  1.00  0.00    -0.480 OA
BRANCH  14  15
ATOM     15  C   UNL     1       2.919  -0.105   0.022  1.00  0.00     0.329 C 
BRANCH  15  16
ATOM     16  C   UNL     1       1.926  -0.101   1.191  1.00  0.00     0.258 C 
ATOM     17  O   UNL     1       0.974  -0.881   1.244  1.00  0.00    -0.271 OA
ATOM     18  N   UNL     1       2.108   0.769   2.229  1.00  0.00    -0.350 N 
ATOM     19  H   UNL     1       1.316   0.959   2.781  1.00  0.00     0.163 HD
BRANCH  18  20
ATOM     20  C   UNL     1       3.336   1.450   2.615  1.00  0.00     0.085 C 
ATOM     21  C   UNL     1       3.081   2.920   2.962  1.00  0.00     0.025 C 
ATOM     22  C   UNL     1       4.030   0.695   3.772  1.00  0.00     0.008 C 
ATOM     23  C   UNL     1       4.387   3.622   3.333  1.00  0.00     0.002 C 
ATOM     24  C   UNL     1       5.332   1.418   4.155  1.00  0.00     0.005 C 
ATOM     25  C   UNL     1       3.126   0.504   5.000  1.00  0.00     0.010 C 
ATOM     26  C   UNL     1       5.122   2.901   4.460  1.00  0.00     0.000 C 
ENDBRANCH  18  20
ENDBRANCH  15  16
ENDBRANCH  14  15
ENDBRANCH   9  14
ENDBRANCH   3   6
ENDBRANCH   1   2
BRANCH   1  27
ATOM     27  C   UNL     1       2.102   6.886  -4.739  1.00  0.00     0.023 C 
BRANCH  27  28
ATOM     28  C   UNL     1       1.363   8.039  -5.410  1.00  0.00     0.023 C 
BRANCH  28  29
ATOM     29  C   UNL     1       1.266   9.332  -4.608  1.00  0.00     0.116 C 
BRANCH  29  30
ATOM     30  N   UNL     1       2.557   9.887  -4.223  1.00  0.00    -0.352 N 
ATOM     31  C   UNL     1       3.103  11.124  -4.472  1.00  0.00     0.251 C 
ATOM     32  H   UNL     1       3.129   9.279  -3.702  1.00  0.00     0.163 HD
ATOM     33  O   UNL     1       4.254  11.368  -4.118  1.00  0.00    -0.269 OA
BRANCH  31  34
ATOM     34  C   UNL     1       2.331  12.148  -5.209  1.00  0.00     0.039 A 
ATOM     35  C   UNL     1       2.950  12.820  -6.268  1.00  0.00     0.014 A 
ATOM     36  C   UNL     1       1.001  12.423  -4.889  1.00  0.00     0.014 A 
ATOM     37  C   UNL     1       2.202  13.679  -7.076  1.00  0.00     0.010 A 
ATOM     38  C   UNL     1       0.237  13.219  -5.739  1.00  0.00     0.010 A 
ATOM     39  C   UNL     1       0.824  13.834  -6.855  1.00  0.00    -0.014 A 
BRANCH  39  40
ATOM     40  C   UNL     1      -0.034  14.579  -7.812  1.00  0.00     0.031 A 
ATOM     41  C   UNL     1      -0.766  15.817  -7.380  1.00  0.00     0.074 A 
ATOM     42  C   UNL     1      -0.231  14.079  -9.048  1.00  0.00     0.049 A 
ATOM     43  N   UNL     1      -1.631  16.539  -8.046  1.00  0.00    -0.248 NA
ATOM     44  C   UNL     1      -0.514  16.288  -6.011  1.00  0.00     0.031 C 
ATOM     45  C   UNL     1       0.384  12.860  -9.577  1.00  0.00     0.029 A 
ATOM     46  N   UNL     1      -1.016  14.528 -10.081  1.00  0.00    -0.354 N 
ATOM     47  C   UNL     1      -2.042  17.536  -7.172  1.00  0.00     0.074 A 
ATOM     48  C   UNL     1      -1.363  17.301  -5.915  1.00  0.00     0.031 C 
ATOM     49  C   UNL     1      -0.023  12.674 -10.842  1.00  0.00     0.029 A 
ATOM     50  C   UNL     1      -0.962  13.733 -11.199  1.00  0.00     0.049 A 
ATOM     51  H   UNL     1      -1.566  15.343 -10.025  1.00  0.00     0.167 HD
ATOM     52  C   UNL     1      -2.895  18.564  -7.401  1.00  0.00     0.037 A 
ATOM     53  C   UNL     1      -1.603  13.837 -12.379  1.00  0.00     0.037 A 
ATOM     54  C   UNL     1      -3.549  18.812  -8.659  1.00  0.00     0.049 A 
ATOM     55  C   UNL     1      -2.564  14.969 -12.598  1.00  0.00     0.074 A 
ATOM     56  C   UNL     1      -4.354  19.879  -9.017  1.00  0.00     0.029 A 
ATOM     57  N   UNL     1      -3.481  17.975  -9.763  1.00  0.00    -0.354 N 
ATOM     58  N   UNL     1      -2.884  15.949 -11.790  1.00  0.00    -0.248 NA
ATOM     59  C   UNL     1      -3.261  15.003 -13.892  1.00  0.00     0.031 C 
ATOM     60  C   UNL     1      -4.812  19.663 -10.322  1.00  0.00     0.029 A 
ATOM     61  C   UNL     1      -4.260  18.482 -10.790  1.00  0.00     0.049 A 
ATOM     62  H   UNL     1      -2.957  17.142  -9.809  1.00  0.00     0.167 HD
ATOM     63  C   UNL     1      -3.801  16.729 -12.482  1.00  0.00     0.074 A 
ATOM     64  C   UNL     1      -3.980  16.112 -13.780  1.00  0.00     0.031 C 
ATOM     65  C   UNL     1      -4.436  17.855 -12.076  1.00  0.00     0.037 A 
BRANCH  52  66
ATOM     66  C   UNL     1      -3.174  19.493  -6.255  1.00  0.00     0.057 A 
ATOM     67  C   UNL     1      -2.208  20.387  -5.775  1.00  0.00     0.134 A 
ATOM     68  C   UNL     1      -4.429  19.502  -5.634  1.00  0.00     0.134 A 
ATOM     69  F   UNL     1      -0.982  20.420  -6.319  1.00  0.00    -0.206 F 
ATOM     70  C   UNL     1      -2.468  21.232  -4.695  1.00  0.00     0.040 A 
ATOM     71  C   UNL     1      -4.710  20.361  -4.570  1.00  0.00     0.040 A 
ATOM     72  F   UNL     1      -5.401  18.677  -6.048  1.00  0.00    -0.206 F 
ATOM     73  C   UNL     1      -3.724  21.223  -4.092  1.00  0.00     0.006 A 
ENDBRANCH  52  66
BRANCH  53  74
ATOM     74  C   UNL     1      -1.332  12.852 -13.454  1.00  0.00     0.057 A 
ATOM     75  C   UNL     1      -0.586  13.215 -14.581  1.00  0.00     0.134 A 
ATOM     76  C   UNL     1      -1.791  11.532 -13.379  1.00  0.00     0.134 A 
ATOM     77  F   UNL     1      -0.137  14.471 -14.716  1.00  0.00    -0.206 F 
ATOM     78  C   UNL     1      -0.310  12.302 -15.599  1.00  0.00     0.040 A 
ATOM     79  C   UNL     1      -1.506  10.603 -14.380  1.00  0.00     0.040 A 
ATOM     80  F   UNL     1      -2.507  11.123 -12.321  1.00  0.00    -0.206 F 
ATOM     81  C   UNL     1      -0.766  10.989 -15.497  1.00  0.00     0.006 A 
ENDBRANCH  53  74
BRANCH  65  82
ATOM     82  C   UNL     1      -5.373  18.502 -13.052  1.00  0.00     0.057 A 
ATOM     83  C   UNL     1      -6.630  17.956 -13.337  1.00  0.00     0.134 A 
ATOM     84  C   UNL     1      -5.029  19.703 -13.685  1.00  0.00     0.134 A 
ATOM     85  F   UNL     1      -7.012  16.799 -12.776  1.00  0.00    -0.206 F 
ATOM     86  C   UNL     1      -7.507  18.575 -14.229  1.00  0.00     0.040 A 
ATOM     87  C   UNL     1      -5.906  20.343 -14.561  1.00  0.00     0.040 A 
ATOM     88  F   UNL     1      -3.840  20.280 -13.451  1.00  0.00    -0.206 F 
ATOM     89  C   UNL     1      -7.149  19.776 -14.839  1.00  0.00     0.006 A 
ENDBRANCH  65  82
ENDBRANCH  39  40
ENDBRANCH  31  34
ENDBRANCH  29  30
ENDBRANCH  28  29
ENDBRANCH  27  28
ENDBRANCH   1  27
TORSDOF 16
