REMARK SMILES CC[C@H](Oc1c(C)cc(Br)cc1N)C(=O)NCCCCNC(=O)c1ccc(-c2c3nc(c(-c4c(F)cccc4F)c4ccc([nH]4)c(-c4c(F)cccc4F)c4nc(c(-c5c(F)cccc5F)c5ccc2[nH]5)C=C4)C=C3)cc1
REMARK SMILES IDX 18 1 17 2 16 3 14 4 15 5 3 7 2 8 1 9 4 10 5 11 6 12 12 13
REMARK SMILES IDX 7 14 8 15 11 16 9 17 10 18 13 19 19 22 20 23 21 24 22 25
REMARK SMILES IDX 23 27 24 28 25 29 77 30 26 31 76 32 27 33 28 34 29 35 70 36
REMARK SMILES IDX 30 37 75 38 69 39 71 40 31 41 74 42 68 43 67 44 32 46 58 47
REMARK SMILES IDX 41 48 57 49 42 50 45 51 56 52 72 53 43 54 44 55 55 57 73 58
REMARK SMILES IDX 46 59 33 60 34 61 39 62 35 63 36 64 38 65 40 66 37 67 59 68
REMARK SMILES IDX 60 69 65 70 61 71 62 72 64 73 66 74 63 75 47 76 48 77 53 78
REMARK SMILES IDX 49 79 50 80 52 81 54 82 51 83
REMARK H PARENT 16 6 13 20 13 21 21 26 71 45 45 56
REMARK Flexibility Score: inf
ROOT
ATOM      1  C   UNL     1      -2.793   1.518  -2.604  1.00  0.00     0.023 C 
ENDROOT
BRANCH   1   2
ATOM      2  C   UNL     1      -2.066   0.296  -3.151  1.00  0.00     0.116 C 
BRANCH   2   3
ATOM      3  N   UNL     1      -0.906   0.637  -3.944  1.00  0.00    -0.353 N 
ATOM      4  C   UNL     1       0.415   0.371  -3.719  1.00  0.00     0.261 C 
ATOM      5  O   UNL     1       1.212   0.744  -4.588  1.00  0.00    -0.271 OA
ATOM      6  H   UNL     1      -1.097   1.135  -4.771  1.00  0.00     0.163 HD
BRANCH   4   7
ATOM      7  C   UNL     1       0.921  -0.358  -2.446  1.00  0.00     0.261 C 
BRANCH   7   8
ATOM      8  C   UNL     1       0.306  -1.768  -2.306  1.00  0.00     0.052 C 
ATOM      9  C   UNL     1      -0.424  -2.100  -1.008  1.00  0.00     0.008 C 
ENDBRANCH   7   8
BRANCH   7  10
ATOM     10  O   UNL     1       0.720   0.541  -1.366  1.00  0.00    -0.478 OA
BRANCH  10  11
ATOM     11  C   UNL     1       1.285   0.391  -0.123  1.00  0.00     0.146 A 
ATOM     12  C   UNL     1       2.381  -0.401   0.272  1.00  0.00    -0.006 A 
ATOM     13  C   UNL     1       0.612   1.182   0.852  1.00  0.00     0.076 A 
ATOM     14  C   UNL     1       3.280  -1.196  -0.630  1.00  0.00     0.048 C 
ATOM     15  C   UNL     1       2.679  -0.491   1.651  1.00  0.00     0.023 A 
ATOM     16  C   UNL     1       0.923   1.058   2.208  1.00  0.00     0.045 A 
ATOM     17  C   UNL     1       1.951   0.218   2.602  1.00  0.00     0.020 A 
ATOM     18  Br  UNL     1       2.372   0.036   4.436  1.00  0.00    -0.051 Br
BRANCH  13  19
ATOM     19  N   UNL     1      -0.484   1.976   0.482  1.00  0.00    -0.396 N 
ATOM     20  H   UNL     1      -0.720   2.077  -0.468  1.00  0.00     0.156 HD
ATOM     21  H   UNL     1      -1.016   2.433   1.173  1.00  0.00     0.156 HD
ENDBRANCH  13  19
ENDBRANCH  10  11
ENDBRANCH   7  10
ENDBRANCH   4   7
ENDBRANCH   2   3
ENDBRANCH   1   2
BRANCH   1  22
ATOM     22  C   UNL     1      -3.647   2.274  -3.619  1.00  0.00     0.023 C 
BRANCH  22  23
ATOM     23  C   UNL     1      -4.684   1.438  -4.364  1.00  0.00     0.116 C 
BRANCH  23  24
ATOM     24  N   UNL     1      -5.573   0.684  -3.494  1.00  0.00    -0.352 N 
ATOM     25  C   UNL     1      -6.892   0.353  -3.708  1.00  0.00     0.251 C 
ATOM     26  H   UNL     1      -5.183   0.371  -2.646  1.00  0.00     0.163 HD
ATOM     27  O   UNL     1      -7.541  -0.233  -2.854  1.00  0.00    -0.269 OA
BRANCH  25  28
ATOM     28  C   UNL     1      -7.528   0.759  -4.977  1.00  0.00     0.039 A 
ATOM     29  C   UNL     1      -8.700   1.516  -4.929  1.00  0.00     0.014 A 
ATOM     30  C   UNL     1      -6.932   0.442  -6.201  1.00  0.00     0.014 A 
ATOM     31  C   UNL     1      -9.239   2.022  -6.112  1.00  0.00     0.010 A 
ATOM     32  C   UNL     1      -7.438   0.993  -7.372  1.00  0.00     0.010 A 
ATOM     33  C   UNL     1      -8.591   1.793  -7.337  1.00  0.00    -0.014 A 
BRANCH  33  34
ATOM     34  C   UNL     1      -9.104   2.375  -8.599  1.00  0.00     0.031 A 
ATOM     35  C   UNL     1      -9.656   1.475  -9.664  1.00  0.00     0.074 A 
ATOM     36  C   UNL     1      -9.019   3.702  -8.806  1.00  0.00     0.049 A 
ATOM     37  N   UNL     1     -10.067   1.775 -10.869  1.00  0.00    -0.248 NA
ATOM     38  C   UNL     1      -9.736   0.043  -9.336  1.00  0.00     0.031 C 
ATOM     39  C   UNL     1      -8.487   4.676  -7.852  1.00  0.00     0.029 A 
ATOM     40  N   UNL     1      -9.380   4.460  -9.891  1.00  0.00    -0.354 N 
ATOM     41  C   UNL     1     -10.451   0.571 -11.444  1.00  0.00     0.074 A 
ATOM     42  C   UNL     1     -10.172  -0.469 -10.478  1.00  0.00     0.031 C 
ATOM     43  C   UNL     1      -8.587   5.907  -8.382  1.00  0.00     0.029 A 
ATOM     44  C   UNL     1      -9.153   5.803  -9.723  1.00  0.00     0.049 A 
ATOM     45  H   UNL     1      -9.765   4.077 -10.712  1.00  0.00     0.167 HD
ATOM     46  C   UNL     1     -11.009   0.355 -12.658  1.00  0.00     0.037 A 
ATOM     47  C   UNL     1      -9.377   6.834 -10.559  1.00  0.00     0.037 A 
ATOM     48  C   UNL     1     -11.291   1.392 -13.615  1.00  0.00     0.049 A 
ATOM     49  C   UNL     1      -9.963   6.567 -11.916  1.00  0.00     0.074 A 
ATOM     50  C   UNL     1     -11.855   1.276 -14.873  1.00  0.00     0.029 A 
ATOM     51  N   UNL     1     -11.033   2.740 -13.413  1.00  0.00    -0.354 N 
ATOM     52  N   UNL     1     -10.325   5.425 -12.448  1.00  0.00    -0.248 NA
ATOM     53  C   UNL     1     -10.168   7.730 -12.790  1.00  0.00     0.031 C 
ATOM     54  C   UNL     1     -11.916   2.553 -15.443  1.00  0.00     0.029 A 
ATOM     55  C   UNL     1     -11.424   3.467 -14.525  1.00  0.00     0.049 A 
ATOM     56  H   UNL     1     -10.632   3.123 -12.600  1.00  0.00     0.167 HD
ATOM     57  C   UNL     1     -10.823   5.732 -13.707  1.00  0.00     0.074 A 
ATOM     58  C   UNL     1     -10.724   7.170 -13.856  1.00  0.00     0.031 C 
ATOM     59  C   UNL     1     -11.320   4.899 -14.653  1.00  0.00     0.037 A 
BRANCH  46  60
ATOM     60  C   UNL     1     -11.355  -1.062 -13.006  1.00  0.00     0.057 A 
ATOM     61  C   UNL     1     -12.421  -1.728 -12.386  1.00  0.00     0.134 A 
ATOM     62  C   UNL     1     -10.627  -1.766 -13.972  1.00  0.00     0.134 A 
ATOM     63  F   UNL     1     -13.146  -1.113 -11.439  1.00  0.00    -0.206 F 
ATOM     64  C   UNL     1     -12.733  -3.052 -12.694  1.00  0.00     0.040 A 
ATOM     65  C   UNL     1     -10.946  -3.083 -14.307  1.00  0.00     0.040 A 
ATOM     66  F   UNL     1      -9.595  -1.187 -14.605  1.00  0.00    -0.206 F 
ATOM     67  C   UNL     1     -11.997  -3.732 -13.662  1.00  0.00     0.006 A 
ENDBRANCH  46  60
BRANCH  47  68
ATOM     68  C   UNL     1      -9.092   8.219 -10.112  1.00  0.00     0.057 A 
ATOM     69  C   UNL     1     -10.137   9.091  -9.786  1.00  0.00     0.134 A 
ATOM     70  C   UNL     1      -7.784   8.696  -9.972  1.00  0.00     0.134 A 
ATOM     71  F   UNL     1     -11.411   8.694  -9.917  1.00  0.00    -0.206 F 
ATOM     72  C   UNL     1      -9.893  10.391  -9.341  1.00  0.00     0.040 A 
ATOM     73  C   UNL     1      -7.524   9.987  -9.510  1.00  0.00     0.040 A 
ATOM     74  F   UNL     1      -6.740   7.905 -10.263  1.00  0.00    -0.206 F 
ATOM     75  C   UNL     1      -8.581  10.839  -9.195  1.00  0.00     0.006 A 
ENDBRANCH  47  68
BRANCH  59  76
ATOM     76  C   UNL     1     -11.821   5.521 -15.922  1.00  0.00     0.057 A 
ATOM     77  C   UNL     1     -10.945   6.007 -16.900  1.00  0.00     0.134 A 
ATOM     78  C   UNL     1     -13.194   5.588 -16.188  1.00  0.00     0.134 A 
ATOM     79  F   UNL     1      -9.619   5.982 -16.698  1.00  0.00    -0.206 F 
ATOM     80  C   UNL     1     -11.418   6.553 -18.094  1.00  0.00     0.040 A 
ATOM     81  C   UNL     1     -13.679   6.110 -17.388  1.00  0.00     0.040 A 
ATOM     82  F   UNL     1     -14.084   5.132 -15.295  1.00  0.00    -0.206 F 
ATOM     83  C   UNL     1     -12.789   6.598 -18.343  1.00  0.00     0.006 A 
ENDBRANCH  59  76
ENDBRANCH  33  34
ENDBRANCH  25  28
ENDBRANCH  23  24
ENDBRANCH  22  23
ENDBRANCH   1  22
TORSDOF 15
