REMARK SMILES O=C(NCCCCNC(=O)c1ccc2c(c1)[C@@H]1C=CC[C@@H]1[C@H](c1ccncc1)N2)c1ccc(-c2c3nc(c(-c4c(F)cccc4F)c4ccc([nH]4)c(-c4c(F)cccc4F)c4nc(c(-c5c(F)cccc5F)c5ccc2[nH]5)C=C4)C=C3)cc1
REMARK SMILES IDX 5 1 4 2 3 3 1 4 2 5 30 7 31 8 83 9 32 10 82 11 33 12 34 13
REMARK SMILES IDX 35 14 76 15 36 16 81 17 75 18 77 19 37 20 80 21 74 22 73 23
REMARK SMILES IDX 38 25 64 26 47 27 63 28 48 29 51 30 62 31 78 32 49 33 50 34
REMARK SMILES IDX 61 36 79 37 52 38 39 39 40 40 45 41 41 42 42 43 44 44 46 45
REMARK SMILES IDX 43 46 65 47 66 48 71 49 67 50 68 51 70 52 72 53 69 54 53 55
REMARK SMILES IDX 54 56 59 57 55 58 56 59 58 60 60 61 57 62 6 63 7 64 8 65
REMARK SMILES IDX 9 66 10 68 11 69 12 70 16 71 13 72 15 73 14 74 17 75 29 76
REMARK SMILES IDX 18 77 21 78 22 79 19 81 20 82 23 83 24 84 28 85 25 86 27 87
REMARK SMILES IDX 26 88
REMARK H PARENT 3 6 77 24 51 35 8 67 29 80
REMARK Flexibility Score: inf
ROOT
ATOM      1  C   UNL     1       4.912  -1.308   2.210  1.00  0.00     0.023 C 
ENDROOT
BRANCH   1   2
ATOM      2  C   UNL     1       4.589  -0.995   0.754  1.00  0.00     0.116 C 
BRANCH   2   3
ATOM      3  N   UNL     1       3.160  -0.972   0.481  1.00  0.00    -0.352 N 
ATOM      4  O   UNL     1       1.157  -0.083  -0.051  1.00  0.00    -0.269 OA
ATOM      5  C   UNL     1       2.378   0.043  -0.015  1.00  0.00     0.251 C 
ATOM      6  H   UNL     1       2.683  -1.809   0.681  1.00  0.00     0.163 HD
BRANCH   5   7
ATOM      7  C   UNL     1       3.001   1.302  -0.476  1.00  0.00     0.039 A 
ATOM      8  C   UNL     1       4.129   1.288  -1.299  1.00  0.00     0.014 A 
ATOM      9  C   UNL     1       2.438   2.519  -0.078  1.00  0.00     0.014 A 
ATOM     10  C   UNL     1       4.780   2.480  -1.601  1.00  0.00     0.010 A 
ATOM     11  C   UNL     1       3.049   3.720  -0.446  1.00  0.00     0.010 A 
ATOM     12  C   UNL     1       4.246   3.708  -1.179  1.00  0.00    -0.014 A 
BRANCH  12  13
ATOM     13  C   UNL     1       4.931   4.973  -1.542  1.00  0.00     0.031 A 
ATOM     14  C   UNL     1       5.546   5.849  -0.487  1.00  0.00     0.074 A 
ATOM     15  C   UNL     1       5.006   5.326  -2.839  1.00  0.00     0.049 A 
ATOM     16  N   UNL     1       6.159   6.998  -0.624  1.00  0.00    -0.248 NA
ATOM     17  C   UNL     1       5.454   5.379   0.904  1.00  0.00     0.031 C 
ATOM     18  C   UNL     1       4.444   4.560  -3.954  1.00  0.00     0.029 A 
ATOM     19  N   UNL     1       5.588   6.412  -3.440  1.00  0.00    -0.354 N 
ATOM     20  C   UNL     1       6.506   7.399   0.660  1.00  0.00     0.074 A 
ATOM     21  C   UNL     1       6.018   6.381   1.566  1.00  0.00     0.031 C 
ATOM     22  C   UNL     1       4.734   5.185  -5.105  1.00  0.00     0.029 A 
ATOM     23  C   UNL     1       5.453   6.418  -4.806  1.00  0.00     0.049 A 
ATOM     24  H   UNL     1       6.058   7.118  -2.940  1.00  0.00     0.167 HD
ATOM     25  C   UNL     1       7.177   8.512   1.045  1.00  0.00     0.037 A 
ATOM     26  C   UNL     1       5.847   7.326  -5.718  1.00  0.00     0.037 A 
ATOM     27  C   UNL     1       7.679   9.514   0.140  1.00  0.00     0.049 A 
ATOM     28  C   UNL     1       6.571   8.558  -5.264  1.00  0.00     0.074 A 
ATOM     29  C   UNL     1       8.402  10.657   0.433  1.00  0.00     0.029 A 
ATOM     30  N   UNL     1       7.508   9.492  -1.236  1.00  0.00    -0.354 N 
ATOM     31  N   UNL     1       6.913   8.912  -4.049  1.00  0.00    -0.248 NA
ATOM     32  C   UNL     1       6.960   9.518  -6.305  1.00  0.00     0.031 C 
ATOM     33  C   UNL     1       8.637  11.346  -0.762  1.00  0.00     0.029 A 
ATOM     34  C   UNL     1       8.095  10.611  -1.804  1.00  0.00     0.049 A 
ATOM     35  H   UNL     1       7.038   8.785  -1.736  1.00  0.00     0.167 HD
ATOM     36  C   UNL     1       7.571  10.127  -4.179  1.00  0.00     0.074 A 
ATOM     37  C   UNL     1       7.592  10.441  -5.593  1.00  0.00     0.031 C 
ATOM     38  C   UNL     1       8.108  10.910  -3.213  1.00  0.00     0.037 A 
BRANCH  25  39
ATOM     39  C   UNL     1       7.391   8.715   2.517  1.00  0.00     0.057 A 
ATOM     40  C   UNL     1       8.319   7.957   3.242  1.00  0.00     0.134 A 
ATOM     41  C   UNL     1       6.686   9.708   3.209  1.00  0.00     0.134 A 
ATOM     42  F   UNL     1       9.018   6.982   2.641  1.00  0.00    -0.206 F 
ATOM     43  C   UNL     1       8.522   8.164   4.608  1.00  0.00     0.040 A 
ATOM     44  C   UNL     1       6.896   9.939   4.570  1.00  0.00     0.040 A 
ATOM     45  F   UNL     1       5.788  10.475   2.573  1.00  0.00    -0.206 F 
ATOM     46  C   UNL     1       7.813   9.162   5.274  1.00  0.00     0.006 A 
ENDBRANCH  25  39
BRANCH  26  47
ATOM     47  C   UNL     1       5.556   7.091  -7.152  1.00  0.00     0.057 A 
ATOM     48  C   UNL     1       6.572   6.747  -8.048  1.00  0.00     0.134 A 
ATOM     49  C   UNL     1       4.250   7.172  -7.651  1.00  0.00     0.134 A 
ATOM     50  F   UNL     1       7.844   6.669  -7.630  1.00  0.00    -0.206 F 
ATOM     51  C   UNL     1       6.302   6.495  -9.394  1.00  0.00     0.040 A 
ATOM     52  C   UNL     1       3.963   6.901  -8.989  1.00  0.00     0.040 A 
ATOM     53  F   UNL     1       3.233   7.489  -6.837  1.00  0.00    -0.206 F 
ATOM     54  C   UNL     1       4.992   6.565  -9.866  1.00  0.00     0.006 A 
ENDBRANCH  26  47
BRANCH  38  55
ATOM     55  C   UNL     1       8.786  12.170  -3.658  1.00  0.00     0.057 A 
ATOM     56  C   UNL     1       8.057  13.291  -4.073  1.00  0.00     0.134 A 
ATOM     57  C   UNL     1      10.182  12.273  -3.640  1.00  0.00     0.134 A 
ATOM     58  F   UNL     1       6.717  13.249  -4.126  1.00  0.00    -0.206 F 
ATOM     59  C   UNL     1       8.695  14.466  -4.473  1.00  0.00     0.040 A 
ATOM     60  C   UNL     1      10.830  13.449  -4.018  1.00  0.00     0.040 A 
ATOM     61  F   UNL     1      10.936  11.235  -3.248  1.00  0.00    -0.206 F 
ATOM     62  C   UNL     1      10.086  14.548  -4.441  1.00  0.00     0.006 A 
ENDBRANCH  38  55
ENDBRANCH  12  13
ENDBRANCH   5   7
ENDBRANCH   2   3
ENDBRANCH   1   2
BRANCH   1  63
ATOM     63  C   UNL     1       4.436  -2.670   2.707  1.00  0.00     0.023 C 
BRANCH  63  64
ATOM     64  C   UNL     1       4.842  -3.861   1.847  1.00  0.00     0.116 C 
BRANCH  64  65
ATOM     65  N   UNL     1       6.285  -4.002   1.712  1.00  0.00    -0.352 N 
ATOM     66  C   UNL     1       7.063  -5.117   1.916  1.00  0.00     0.251 C 
ATOM     67  H   UNL     1       6.768  -3.189   1.437  1.00  0.00     0.163 HD
ATOM     68  O   UNL     1       8.286  -5.041   1.869  1.00  0.00    -0.269 OA
BRANCH  66  69
ATOM     69  C   UNL     1       6.412  -6.406   2.222  1.00  0.00     0.040 A 
ATOM     70  C   UNL     1       6.781  -7.096   3.373  1.00  0.00     0.016 A 
ATOM     71  C   UNL     1       5.391  -6.894   1.405  1.00  0.00     0.020 A 
ATOM     72  C   UNL     1       6.087  -8.255   3.727  1.00  0.00     0.027 A 
ATOM     73  C   UNL     1       4.640  -8.011   1.803  1.00  0.00    -0.017 A 
ATOM     74  C   UNL     1       5.024  -8.732   2.945  1.00  0.00     0.038 A 
ATOM     75  C   UNL     1       3.408  -8.395   1.015  1.00  0.00     0.049 C 
ATOM     76  N   UNL     1       4.314  -9.845   3.375  1.00  0.00    -0.378 N 
ATOM     77  C   UNL     1       2.418  -7.258   0.900  1.00  0.00    -0.023 C 
ATOM     78  C   UNL     1       2.534  -9.453   1.711  1.00  0.00     0.031 C 
ATOM     79  C   UNL     1       3.367 -10.485   2.473  1.00  0.00     0.114 C 
ATOM     80  H   UNL     1       4.449 -10.199   4.284  1.00  0.00     0.161 HD
ATOM     81  C   UNL     1       1.389  -7.399   1.744  1.00  0.00    -0.030 C 
ATOM     82  C   UNL     1       1.513  -8.656   2.543  1.00  0.00     0.034 C 
BRANCH  79  83
ATOM     83  C   UNL     1       2.491 -11.499   3.191  1.00  0.00    -0.022 A 
ATOM     84  C   UNL     1       1.776 -12.442   2.438  1.00  0.00     0.026 A 
ATOM     85  C   UNL     1       2.329 -11.523   4.582  1.00  0.00     0.026 A 
ATOM     86  C   UNL     1       0.957 -13.349   3.093  1.00  0.00     0.111 A 
ATOM     87  C   UNL     1       1.498 -12.479   5.146  1.00  0.00     0.111 A 
ATOM     88  N   UNL     1       0.808 -13.392   4.432  1.00  0.00    -0.265 NA
ENDBRANCH  79  83
ENDBRANCH  66  69
ENDBRANCH  64  65
ENDBRANCH  63  64
ENDBRANCH   1  63
TORSDOF 12
