REMARK SMILES O=C(COc1ccc(Br)cc1/C=C1\NC(=O)N(Cc2ccc(F)cc2)C1=O)NCCCCNC(=O)c1ccc(-c2c3nc(c(-c4c(F)cccc4F)c4ccc([nH]4)c(-c4c(F)cccc4F)c4nc(c(-c5c(F)cccc5F)c5ccc2[nH]5)C=C4)C=C3)cc1
REMARK SMILES IDX 29 1 28 2 1 3 2 4 3 6 4 7 5 8 6 9 11 10 7 11 10 12 8 13 9 14
REMARK SMILES IDX 12 15 13 16 14 17 26 18 15 19 17 21 27 22 16 23 18 24 19 25
REMARK SMILES IDX 20 26 25 27 21 28 24 29 22 30 23 31 30 32 31 33 32 34 33 35
REMARK SMILES IDX 34 36 35 38 36 39 37 40 89 41 38 42 88 43 39 44 40 45 41 46
REMARK SMILES IDX 82 47 42 48 87 49 81 50 83 51 43 52 86 53 80 54 79 55 44 57
REMARK SMILES IDX 70 58 53 59 69 60 54 61 57 62 68 63 84 64 55 65 56 66 67 68
REMARK SMILES IDX 85 69 58 70 45 71 46 72 51 73 47 74 48 75 50 76 52 77 49 78
REMARK SMILES IDX 71 79 72 80 77 81 73 82 74 83 76 84 78 85 75 86 59 87 60 88
REMARK SMILES IDX 65 89 61 90 62 91 64 92 66 93 63 94
REMARK H PARENT 28 5 14 20 33 37 83 56 57 67
REMARK Flexibility Score: inf
ROOT
ATOM      1  C   UNL     1       2.033  -2.045  -1.303  1.00  0.00     0.116 C 
ENDROOT
BRANCH   1   2
ATOM      2  N   UNL     1       2.702  -0.938  -0.655  1.00  0.00    -0.353 N 
ATOM      3  O   UNL     1       0.906   0.499  -0.702  1.00  0.00    -0.271 OA
ATOM      4  C   UNL     1       2.036   0.223  -0.313  1.00  0.00     0.257 C 
ATOM      5  H   UNL     1       3.662  -1.015  -0.451  1.00  0.00     0.163 HD
BRANCH   4   6
ATOM      6  C   UNL     1       2.820   1.136   0.631  1.00  0.00     0.329 C 
BRANCH   6   7
ATOM      7  O   UNL     1       3.695   0.468   1.539  1.00  0.00    -0.483 OA
BRANCH   7   8
ATOM      8  C   UNL     1       3.093  -0.015   2.676  1.00  0.00     0.127 A 
ATOM      9  C   UNL     1       2.095  -0.994   2.620  1.00  0.00     0.048 A 
ATOM     10  C   UNL     1       3.618   0.368   3.922  1.00  0.00     0.020 A 
ATOM     11  C   UNL     1       1.627  -1.598   3.788  1.00  0.00     0.019 A 
ATOM     12  C   UNL     1       3.147  -0.247   5.093  1.00  0.00     0.027 A 
ATOM     13  C   UNL     1       2.162  -1.231   5.018  1.00  0.00     0.018 A 
ATOM     14  Br  UNL     1       1.567  -2.095   6.589  1.00  0.00    -0.051 Br
BRANCH  10  15
ATOM     15  C   UNL     1       4.660   1.390   4.053  1.00  0.00     0.044 C 
ATOM     16  C   UNL     1       4.456   2.700   3.896  1.00  0.00     0.109 C 
ATOM     17  N   UNL     1       3.303   3.359   3.592  1.00  0.00    -0.303 N 
ATOM     18  C   UNL     1       5.510   3.740   4.076  1.00  0.00     0.278 C 
ATOM     19  C   UNL     1       3.526   4.729   3.607  1.00  0.00     0.329 C 
ATOM     20  H   UNL     1       2.441   2.928   3.392  1.00  0.00     0.172 HD
ATOM     21  N   UNL     1       4.847   4.933   3.942  1.00  0.00    -0.254 N 
ATOM     22  O   UNL     1       6.693   3.529   4.285  1.00  0.00    -0.267 OA
ATOM     23  O   UNL     1       2.682   5.572   3.353  1.00  0.00    -0.248 OA
BRANCH  21  24
ATOM     24  C   UNL     1       5.457   6.231   4.122  1.00  0.00     0.166 C 
BRANCH  24  25
ATOM     25  C   UNL     1       5.582   6.591   5.590  1.00  0.00    -0.028 A 
ATOM     26  C   UNL     1       6.566   5.980   6.387  1.00  0.00     0.008 A 
ATOM     27  C   UNL     1       4.703   7.509   6.185  1.00  0.00     0.008 A 
ATOM     28  C   UNL     1       6.657   6.262   7.750  1.00  0.00     0.039 A 
ATOM     29  C   UNL     1       4.809   7.804   7.548  1.00  0.00     0.039 A 
ATOM     30  C   UNL     1       5.779   7.173   8.318  1.00  0.00     0.123 A 
ATOM     31  F   UNL     1       5.866   7.445   9.626  1.00  0.00    -0.207 F 
ENDBRANCH  24  25
ENDBRANCH  21  24
ENDBRANCH  10  15
ENDBRANCH   7   8
ENDBRANCH   6   7
ENDBRANCH   4   6
ENDBRANCH   1   2
BRANCH   1  32
ATOM     32  C   UNL     1       2.446  -2.229  -2.758  1.00  0.00     0.023 C 
BRANCH  32  33
ATOM     33  C   UNL     1       3.933  -2.520  -2.972  1.00  0.00     0.023 C 
BRANCH  33  34
ATOM     34  C   UNL     1       4.481  -3.733  -2.226  1.00  0.00     0.116 C 
BRANCH  34  35
ATOM     35  N   UNL     1       3.868  -4.984  -2.642  1.00  0.00    -0.352 N 
ATOM     36  C   UNL     1       4.459  -6.151  -3.067  1.00  0.00     0.251 C 
ATOM     37  H   UNL     1       2.884  -4.998  -2.614  1.00  0.00     0.163 HD
ATOM     38  O   UNL     1       3.766  -7.062  -3.511  1.00  0.00    -0.269 OA
BRANCH  36  39
ATOM     39  C   UNL     1       5.930  -6.304  -3.022  1.00  0.00     0.039 A 
ATOM     40  C   UNL     1       6.583  -6.855  -4.129  1.00  0.00     0.014 A 
ATOM     41  C   UNL     1       6.667  -5.911  -1.902  1.00  0.00     0.014 A 
ATOM     42  C   UNL     1       7.978  -6.940  -4.141  1.00  0.00     0.010 A 
ATOM     43  C   UNL     1       8.060  -5.923  -1.947  1.00  0.00     0.010 A 
ATOM     44  C   UNL     1       8.731  -6.434  -3.068  1.00  0.00    -0.014 A 
BRANCH  44  45
ATOM     45  C   UNL     1      10.217  -6.415  -3.111  1.00  0.00     0.031 A 
ATOM     46  C   UNL     1      11.020  -7.200  -2.111  1.00  0.00     0.074 A 
ATOM     47  C   UNL     1      10.848  -5.642  -4.018  1.00  0.00     0.049 A 
ATOM     48  N   UNL     1      12.319  -7.251  -1.952  1.00  0.00    -0.248 NA
ATOM     49  C   UNL     1      10.266  -8.017  -1.147  1.00  0.00     0.031 C 
ATOM     50  C   UNL     1      10.186  -4.804  -5.019  1.00  0.00     0.029 A 
ATOM     51  N   UNL     1      12.187  -5.430  -4.241  1.00  0.00    -0.354 N 
ATOM     52  C   UNL     1      12.535  -8.097  -0.873  1.00  0.00     0.074 A 
ATOM     53  C   UNL     1      11.234  -8.491  -0.377  1.00  0.00     0.031 C 
ATOM     54  C   UNL     1      11.119  -4.193  -5.767  1.00  0.00     0.029 A 
ATOM     55  C   UNL     1      12.443  -4.558  -5.271  1.00  0.00     0.049 A 
ATOM     56  H   UNL     1      12.896  -5.862  -3.712  1.00  0.00     0.167 HD
ATOM     57  C   UNL     1      13.711  -8.529  -0.358  1.00  0.00     0.037 A 
ATOM     58  C   UNL     1      13.610  -4.095  -5.761  1.00  0.00     0.037 A 
ATOM     59  C   UNL     1      15.005  -8.151  -0.865  1.00  0.00     0.049 A 
ATOM     60  C   UNL     1      14.903  -4.565  -5.154  1.00  0.00     0.074 A 
ATOM     61  C   UNL     1      16.251  -8.575  -0.438  1.00  0.00     0.029 A 
ATOM     62  N   UNL     1      15.220  -7.260  -1.906  1.00  0.00    -0.354 N 
ATOM     63  N   UNL     1      15.092  -5.405  -4.166  1.00  0.00    -0.248 NA
ATOM     64  C   UNL     1      16.143  -4.026  -5.730  1.00  0.00     0.031 C 
ATOM     65  C   UNL     1      17.221  -7.901  -1.183  1.00  0.00     0.029 A 
ATOM     66  C   UNL     1      16.580  -7.103  -2.117  1.00  0.00     0.049 A 
ATOM     67  H   UNL     1      14.512  -6.808  -2.419  1.00  0.00     0.167 HD
ATOM     68  C   UNL     1      16.468  -5.515  -4.017  1.00  0.00     0.074 A 
ATOM     69  C   UNL     1      17.068  -4.664  -5.024  1.00  0.00     0.031 C 
ATOM     70  C   UNL     1      17.169  -6.256  -3.125  1.00  0.00     0.037 A 
BRANCH  57  71
ATOM     71  C   UNL     1      13.660  -9.473   0.808  1.00  0.00     0.057 A 
ATOM     72  C   UNL     1      14.123  -9.079   2.071  1.00  0.00     0.134 A 
ATOM     73  C   UNL     1      13.220 -10.796   0.667  1.00  0.00     0.134 A 
ATOM     74  F   UNL     1      14.567  -7.829   2.275  1.00  0.00    -0.206 F 
ATOM     75  C   UNL     1      14.162  -9.970   3.145  1.00  0.00     0.040 A 
ATOM     76  C   UNL     1      13.226 -11.687   1.741  1.00  0.00     0.040 A 
ATOM     77  F   UNL     1      12.755 -11.235  -0.512  1.00  0.00    -0.206 F 
ATOM     78  C   UNL     1      13.709 -11.277   2.982  1.00  0.00     0.006 A 
ENDBRANCH  57  71
BRANCH  58  79
ATOM     79  C   UNL     1      13.600  -3.153  -6.909  1.00  0.00     0.057 A 
ATOM     80  C   UNL     1      13.127  -1.841  -6.779  1.00  0.00     0.134 A 
ATOM     81  C   UNL     1      14.031  -3.559  -8.177  1.00  0.00     0.134 A 
ATOM     82  F   UNL     1      12.692  -1.393  -5.591  1.00  0.00    -0.206 F 
ATOM     83  C   UNL     1      13.062  -0.975  -7.871  1.00  0.00     0.040 A 
ATOM     84  C   UNL     1      13.995  -2.695  -9.273  1.00  0.00     0.040 A 
ATOM     85  F   UNL     1      14.512  -4.797  -8.362  1.00  0.00    -0.206 F 
ATOM     86  C   UNL     1      13.500  -1.401  -9.123  1.00  0.00     0.006 A 
ENDBRANCH  58  79
BRANCH  70  87
ATOM     87  C   UNL     1      18.668  -6.209  -3.198  1.00  0.00     0.057 A 
ATOM     88  C   UNL     1      19.397  -7.335  -3.606  1.00  0.00     0.134 A 
ATOM     89  C   UNL     1      19.393  -5.087  -2.780  1.00  0.00     0.134 A 
ATOM     90  F   UNL     1      18.765  -8.448  -4.007  1.00  0.00    -0.206 F 
ATOM     91  C   UNL     1      20.792  -7.352  -3.575  1.00  0.00     0.040 A 
ATOM     92  C   UNL     1      20.789  -5.082  -2.773  1.00  0.00     0.040 A 
ATOM     93  F   UNL     1      18.756  -3.973  -2.388  1.00  0.00    -0.206 F 
ATOM     94  C   UNL     1      21.492  -6.222  -3.160  1.00  0.00     0.006 A 
ENDBRANCH  70  87
ENDBRANCH  44  45
ENDBRANCH  36  39
ENDBRANCH  34  35
ENDBRANCH  33  34
ENDBRANCH  32  33
ENDBRANCH   1  32
TORSDOF 16
