REMARK SMILES Cc1nc(N2CCCC[C@H]2C(=O)NCCCCNC(=O)c2ccc(-c3c4nc(c(-c5c(F)cccc5F)c5ccc([nH]5)c(-c5c(F)cccc5F)c5nc(c(-c6c(F)cccc6F)c6ccc3[nH]6)C=C5)C=C4)cc2)c2oc3ccccc3c2n1
REMARK SMILES IDX 16 1 15 2 14 3 13 4 11 5 12 6 10 8 5 9 6 10 7 11 9 12 8 13
REMARK SMILES IDX 4 14 1 15 2 16 3 17 84 18 83 19 75 20 82 21 76 22 77 23
REMARK SMILES IDX 81 24 78 25 80 26 79 27 17 28 18 29 19 30 20 32 21 33 22 34
REMARK SMILES IDX 74 35 23 36 73 37 24 38 25 39 26 40 67 41 27 42 72 43 66 44
REMARK SMILES IDX 68 45 28 46 71 47 65 48 64 49 29 51 55 52 38 53 54 54 39 55
REMARK SMILES IDX 42 56 53 57 69 58 40 59 41 60 52 62 70 63 43 64 30 65 31 66
REMARK SMILES IDX 36 67 32 68 33 69 35 70 37 71 34 72 56 73 57 74 62 75 58 76
REMARK SMILES IDX 59 77 61 78 63 79 60 80 44 81 45 82 50 83 46 84 47 85 49 86
REMARK SMILES IDX 51 87 48 88
REMARK H PARENT 13 7 18 31 68 50 42 61
REMARK Flexibility Score: inf
ROOT
ATOM      1  C   UNL     1       1.157  -7.915   5.969  1.00  0.00     0.023 C 
ENDROOT
BRANCH   1   2
ATOM      2  C   UNL     1       1.683  -6.510   6.277  1.00  0.00     0.023 C 
BRANCH   2   3
ATOM      3  C   UNL     1       2.107  -5.713   5.034  1.00  0.00     0.116 C 
BRANCH   3   4
ATOM      4  N   UNL     1       1.016  -5.590   4.090  1.00  0.00    -0.354 N 
ATOM      5  C   UNL     1       0.163  -4.559   3.825  1.00  0.00     0.242 C 
ATOM      6  O   UNL     1      -0.722  -4.809   3.000  1.00  0.00    -0.273 OA
ATOM      7  H   UNL     1       0.862  -6.394   3.543  1.00  0.00     0.163 HD
BRANCH   5   8
ATOM      8  C   UNL     1       0.352  -3.161   4.484  1.00  0.00     0.173 C 
ATOM      9  N   UNL     1      -0.719  -2.239   4.076  1.00  0.00    -0.341 N 
ATOM     10  C   UNL     1      -2.074  -2.459   4.568  1.00  0.00     0.119 C 
ATOM     11  C   UNL     1      -2.091  -2.595   6.089  1.00  0.00     0.022 C 
ATOM     12  C   UNL     1       0.350  -3.152   6.024  1.00  0.00     0.035 C 
ATOM     13  C   UNL     1      -1.012  -3.551   6.588  1.00  0.00     0.004 C 
BRANCH   9  14
ATOM     14  C   UNL     1      -0.374  -1.049   3.485  1.00  0.00     0.176 A 
ATOM     15  C   UNL     1       1.060   0.046   0.266  1.00  0.00     0.090 C 
ATOM     16  C   UNL     1       0.491   0.130   1.651  1.00  0.00     0.128 A 
ATOM     17  N   UNL     1       0.232  -1.046   2.272  1.00  0.00    -0.212 NA
ATOM     18  N   UNL     1       0.303   1.366   2.154  1.00  0.00    -0.229 NA
ATOM     19  C   UNL     1      -0.233   1.363   3.396  1.00  0.00     0.123 A 
ATOM     20  C   UNL     1      -0.585   0.200   4.057  1.00  0.00     0.196 A 
ATOM     21  C   UNL     1      -0.536   2.433   4.279  1.00  0.00     0.047 A 
ATOM     22  O   UNL     1      -1.087   0.483   5.292  1.00  0.00    -0.450 OA
ATOM     23  C   UNL     1      -1.041   1.836   5.430  1.00  0.00     0.137 A 
ATOM     24  C   UNL     1      -0.427   3.835   4.245  1.00  0.00     0.014 A 
ATOM     25  C   UNL     1      -1.435   2.537   6.568  1.00  0.00     0.048 A 
ATOM     26  C   UNL     1      -0.819   4.569   5.374  1.00  0.00     0.001 A 
ATOM     27  C   UNL     1      -1.309   3.929   6.516  1.00  0.00     0.004 A 
ENDBRANCH   9  14
ENDBRANCH   5   8
ENDBRANCH   3   4
ENDBRANCH   2   3
ENDBRANCH   1   2
BRANCH   1  28
ATOM     28  C   UNL     1       2.166  -8.794   5.240  1.00  0.00     0.116 C 
BRANCH  28  29
ATOM     29  N   UNL     1       3.140  -9.385   6.143  1.00  0.00    -0.352 N 
ATOM     30  C   UNL     1       3.110 -10.634   6.727  1.00  0.00     0.251 C 
ATOM     31  H   UNL     1       3.917  -8.824   6.365  1.00  0.00     0.163 HD
ATOM     32  O   UNL     1       3.928 -10.966   7.565  1.00  0.00    -0.269 OA
BRANCH  30  33
ATOM     33  C   UNL     1       2.020 -11.544   6.329  1.00  0.00     0.039 A 
ATOM     34  C   UNL     1       1.875 -11.904   4.984  1.00  0.00     0.014 A 
ATOM     35  C   UNL     1       1.088 -11.935   7.289  1.00  0.00     0.014 A 
ATOM     36  C   UNL     1       0.714 -12.540   4.569  1.00  0.00     0.010 A 
ATOM     37  C   UNL     1      -0.054 -12.614   6.877  1.00  0.00     0.010 A 
ATOM     38  C   UNL     1      -0.258 -12.882   5.513  1.00  0.00    -0.014 A 
BRANCH  38  39
ATOM     39  C   UNL     1      -1.415 -13.661   5.055  1.00  0.00     0.031 A 
ATOM     40  C   UNL     1      -1.325 -15.091   5.421  1.00  0.00     0.074 A 
ATOM     41  C   UNL     1      -2.634 -13.136   4.823  1.00  0.00     0.049 A 
ATOM     42  N   UNL     1      -1.640 -15.481   6.617  1.00  0.00    -0.248 NA
ATOM     43  C   UNL     1      -0.639 -16.100   4.621  1.00  0.00     0.031 C 
ATOM     44  C   UNL     1      -3.064 -11.796   5.233  1.00  0.00     0.029 A 
ATOM     45  N   UNL     1      -3.780 -13.739   4.361  1.00  0.00    -0.354 N 
ATOM     46  C   UNL     1      -1.100 -16.734   6.784  1.00  0.00     0.074 A 
ATOM     47  C   UNL     1      -0.533 -17.105   5.507  1.00  0.00     0.031 C 
ATOM     48  C   UNL     1      -4.409 -11.733   5.151  1.00  0.00     0.029 A 
ATOM     49  C   UNL     1      -4.917 -12.961   4.542  1.00  0.00     0.049 A 
ATOM     50  H   UNL     1      -3.794 -14.630   3.944  1.00  0.00     0.167 HD
ATOM     51  C   UNL     1      -1.151 -17.368   7.983  1.00  0.00     0.037 A 
ATOM     52  C   UNL     1      -6.176 -13.422   4.749  1.00  0.00     0.037 A 
ATOM     53  C   UNL     1      -1.841 -16.668   9.033  1.00  0.00     0.049 A 
ATOM     54  C   UNL     1      -6.049 -14.265   5.982  1.00  0.00     0.074 A 
ATOM     55  C   UNL     1      -1.569 -16.091  10.251  1.00  0.00     0.029 A 
ATOM     56  N   UNL     1      -3.156 -16.401   8.764  1.00  0.00    -0.354 N 
ATOM     57  N   UNL     1      -6.011 -13.802   7.202  1.00  0.00    -0.248 NA
ATOM     58  C   UNL     1      -5.762 -15.701   5.868  1.00  0.00     0.031 C 
ATOM     59  C   UNL     1      -2.716 -15.296  10.590  1.00  0.00     0.029 A 
ATOM     60  C   UNL     1      -3.643 -15.397   9.555  1.00  0.00     0.049 A 
ATOM     61  H   UNL     1      -3.687 -16.875   8.083  1.00  0.00     0.167 HD
ATOM     62  C   UNL     1      -5.449 -14.823   7.960  1.00  0.00     0.074 A 
ATOM     63  C   UNL     1      -5.509 -16.009   7.135  1.00  0.00     0.031 C 
ATOM     64  C   UNL     1      -4.755 -14.584   9.108  1.00  0.00     0.037 A 
BRANCH  51  65
ATOM     65  C   UNL     1      -0.794 -18.782   8.151  1.00  0.00     0.057 A 
ATOM     66  C   UNL     1       0.481 -19.209   8.511  1.00  0.00     0.134 A 
ATOM     67  C   UNL     1      -1.823 -19.732   8.099  1.00  0.00     0.134 A 
ATOM     68  F   UNL     1       1.499 -18.340   8.576  1.00  0.00    -0.206 F 
ATOM     69  C   UNL     1       0.718 -20.544   8.847  1.00  0.00     0.040 A 
ATOM     70  C   UNL     1      -1.602 -21.063   8.437  1.00  0.00     0.040 A 
ATOM     71  F   UNL     1      -3.066 -19.364   7.746  1.00  0.00    -0.206 F 
ATOM     72  C   UNL     1      -0.328 -21.470   8.824  1.00  0.00     0.006 A 
ENDBRANCH  51  65
BRANCH  52  73
ATOM     73  C   UNL     1      -6.956 -13.841   3.545  1.00  0.00     0.057 A 
ATOM     74  C   UNL     1      -7.795 -14.963   3.487  1.00  0.00     0.134 A 
ATOM     75  C   UNL     1      -6.926 -13.050   2.380  1.00  0.00     0.134 A 
ATOM     76  F   UNL     1      -8.029 -15.717   4.569  1.00  0.00    -0.206 F 
ATOM     77  C   UNL     1      -8.441 -15.358   2.310  1.00  0.00     0.040 A 
ATOM     78  C   UNL     1      -7.592 -13.414   1.204  1.00  0.00     0.040 A 
ATOM     79  F   UNL     1      -6.259 -11.885   2.361  1.00  0.00    -0.206 F 
ATOM     80  C   UNL     1      -8.330 -14.590   1.159  1.00  0.00     0.006 A 
ENDBRANCH  52  73
BRANCH  64  81
ATOM     81  C   UNL     1      -5.056 -13.267   9.735  1.00  0.00     0.057 A 
ATOM     82  C   UNL     1      -4.117 -12.235   9.821  1.00  0.00     0.134 A 
ATOM     83  C   UNL     1      -6.343 -13.018  10.235  1.00  0.00     0.134 A 
ATOM     84  F   UNL     1      -2.869 -12.395   9.354  1.00  0.00    -0.206 F 
ATOM     85  C   UNL     1      -4.446 -11.002  10.388  1.00  0.00     0.040 A 
ATOM     86  C   UNL     1      -6.688 -11.784  10.783  1.00  0.00     0.040 A 
ATOM     87  F   UNL     1      -7.285 -13.975  10.198  1.00  0.00    -0.206 F 
ATOM     88  C   UNL     1      -5.737 -10.771  10.864  1.00  0.00     0.006 A 
ENDBRANCH  64  81
ENDBRANCH  38  39
ENDBRANCH  30  33
ENDBRANCH  28  29
ENDBRANCH   1  28
TORSDOF 12
