REMARK SMILES O=C(NCCCCNC(=O)c1cccc(S(=O)(=O)Nc2ccccc2N2CCOCC2)c1)c1ccc(-c2c3nc(c(-c4c(F)cccc4F)c4ccc([nH]4)c(-c4c(F)cccc4F)c4nc(c(-c5c(F)cccc5F)c5ccc2[nH]5)C=C4)C=C3)cc1
REMARK SMILES IDX 6 1 5 2 4 3 3 4 1 5 2 6 33 8 34 9 86 10 35 11 85 12 36 13
REMARK SMILES IDX 37 14 38 15 79 16 39 17 84 18 78 19 80 20 40 21 83 22 77 23
REMARK SMILES IDX 76 24 41 26 67 27 50 28 66 29 51 30 54 31 65 32 81 33 52 34
REMARK SMILES IDX 53 35 64 37 82 38 55 39 42 40 43 41 48 42 44 43 45 44 47 45
REMARK SMILES IDX 49 46 46 47 68 48 69 49 74 50 70 51 71 52 73 53 75 54 72 55
REMARK SMILES IDX 56 56 57 57 62 58 58 59 59 60 61 61 63 62 60 63 7 64 8 65
REMARK SMILES IDX 9 66 10 68 11 69 12 70 32 71 13 72 15 73 14 74 16 75 17 76
REMARK SMILES IDX 18 77 19 78 20 80 21 81 25 82 22 83 24 84 23 85 26 86 27 87
REMARK SMILES IDX 31 88 28 89 30 90 29 91
REMARK H PARENT 3 7 80 25 54 36 8 67 19 79
REMARK Flexibility Score: inf
ROOT
ATOM      1  C   UNL     1       4.207  -0.785  -3.763  1.00  0.00     0.023 C 
ENDROOT
BRANCH   1   2
ATOM      2  C   UNL     1       4.815  -1.074  -2.397  1.00  0.00     0.023 C 
BRANCH   2   3
ATOM      3  C   UNL     1       4.545  -0.009  -1.344  1.00  0.00     0.116 C 
BRANCH   3   4
ATOM      4  N   UNL     1       3.123   0.231  -1.122  1.00  0.00    -0.352 N 
ATOM      5  O   UNL     1       1.136   0.093  -0.045  1.00  0.00    -0.269 OA
ATOM      6  C   UNL     1       2.354  -0.036  -0.013  1.00  0.00     0.251 C 
ATOM      7  H   UNL     1       2.644   0.644  -1.876  1.00  0.00     0.163 HD
BRANCH   6   8
ATOM      8  C   UNL     1       3.020  -0.507   1.216  1.00  0.00     0.039 A 
ATOM      9  C   UNL     1       4.152   0.159   1.681  1.00  0.00     0.014 A 
ATOM     10  C   UNL     1       2.548  -1.649   1.867  1.00  0.00     0.014 A 
ATOM     11  C   UNL     1       4.926  -0.427   2.669  1.00  0.00     0.010 A 
ATOM     12  C   UNL     1       3.269  -2.174   2.943  1.00  0.00     0.010 A 
ATOM     13  C   UNL     1       4.487  -1.591   3.324  1.00  0.00    -0.014 A 
BRANCH  13  14
ATOM     14  C   UNL     1       5.309  -2.124   4.438  1.00  0.00     0.031 A 
ATOM     15  C   UNL     1       5.956  -3.478   4.363  1.00  0.00     0.074 A 
ATOM     16  C   UNL     1       5.525  -1.324   5.500  1.00  0.00     0.049 A 
ATOM     17  N   UNL     1       6.751  -4.056   5.229  1.00  0.00    -0.248 NA
ATOM     18  C   UNL     1       5.676  -4.295   3.172  1.00  0.00     0.031 C 
ATOM     19  C   UNL     1       4.933   0.005   5.684  1.00  0.00     0.029 A 
ATOM     20  N   UNL     1       6.322  -1.486   6.601  1.00  0.00    -0.354 N 
ATOM     21  C   UNL     1       7.054  -5.303   4.698  1.00  0.00     0.074 A 
ATOM     22  C   UNL     1       6.337  -5.413   3.446  1.00  0.00     0.031 C 
ATOM     23  C   UNL     1       5.439   0.563   6.791  1.00  0.00     0.029 A 
ATOM     24  C   UNL     1       6.330  -0.393   7.434  1.00  0.00     0.049 A 
ATOM     25  H   UNL     1       6.839  -2.305   6.779  1.00  0.00     0.167 HD
ATOM     26  C   UNL     1       7.865  -6.263   5.208  1.00  0.00     0.037 A 
ATOM     27  C   UNL     1       6.971  -0.187   8.597  1.00  0.00     0.037 A 
ATOM     28  C   UNL     1       8.583  -6.141   6.452  1.00  0.00     0.049 A 
ATOM     29  C   UNL     1       7.856  -1.269   9.136  1.00  0.00     0.074 A 
ATOM     30  C   UNL     1       9.428  -7.058   7.055  1.00  0.00     0.029 A 
ATOM     31  N   UNL     1       8.544  -5.030   7.282  1.00  0.00    -0.354 N 
ATOM     32  N   UNL     1       8.135  -2.440   8.618  1.00  0.00    -0.248 NA
ATOM     33  C   UNL     1       8.512  -1.004  10.422  1.00  0.00     0.031 C 
ATOM     34  C   UNL     1       9.874  -6.514   8.265  1.00  0.00     0.029 A 
ATOM     35  C   UNL     1       9.342  -5.242   8.395  1.00  0.00     0.049 A 
ATOM     36  H   UNL     1       8.026  -4.212   7.106  1.00  0.00     0.167 HD
ATOM     37  C   UNL     1       9.000  -3.052   9.512  1.00  0.00     0.074 A 
ATOM     38  C   UNL     1       9.227  -2.107  10.587  1.00  0.00     0.031 C 
ATOM     39  C   UNL     1       9.549  -4.290   9.456  1.00  0.00     0.037 A 
BRANCH  26  40
ATOM     40  C   UNL     1       8.015  -7.537   4.427  1.00  0.00     0.057 A 
ATOM     41  C   UNL     1       8.760  -7.593   3.242  1.00  0.00     0.134 A 
ATOM     42  C   UNL     1       7.458  -8.734   4.895  1.00  0.00     0.134 A 
ATOM     43  F   UNL     1       9.311  -6.480   2.733  1.00  0.00    -0.206 F 
ATOM     44  C   UNL     1       8.935  -8.790   2.544  1.00  0.00     0.040 A 
ATOM     45  C   UNL     1       7.644  -9.941   4.218  1.00  0.00     0.040 A 
ATOM     46  F   UNL     1       6.738  -8.754   6.027  1.00  0.00    -0.206 F 
ATOM     47  C   UNL     1       8.383  -9.971   3.037  1.00  0.00     0.006 A 
ENDBRANCH  26  40
BRANCH  27  48
ATOM     48  C   UNL     1       6.777   1.089   9.329  1.00  0.00     0.057 A 
ATOM     49  C   UNL     1       7.811   2.021   9.457  1.00  0.00     0.134 A 
ATOM     50  C   UNL     1       5.541   1.411   9.904  1.00  0.00     0.134 A 
ATOM     51  F   UNL     1       9.021   1.763   8.939  1.00  0.00    -0.206 F 
ATOM     52  C   UNL     1       7.630   3.221  10.146  1.00  0.00     0.040 A 
ATOM     53  C   UNL     1       5.336   2.620  10.568  1.00  0.00     0.040 A 
ATOM     54  F   UNL     1       4.505   0.565   9.803  1.00  0.00    -0.206 F 
ATOM     55  C   UNL     1       6.387   3.526  10.697  1.00  0.00     0.006 A 
ENDBRANCH  27  48
BRANCH  39  56
ATOM     56  C   UNL     1      10.457  -4.673  10.586  1.00  0.00     0.057 A 
ATOM     57  C   UNL     1       9.959  -4.963  11.863  1.00  0.00     0.134 A 
ATOM     58  C   UNL     1      11.841  -4.750  10.395  1.00  0.00     0.134 A 
ATOM     59  F   UNL     1       8.642  -4.889  12.112  1.00  0.00    -0.206 F 
ATOM     60  C   UNL     1      10.810  -5.287  12.919  1.00  0.00     0.040 A 
ATOM     61  C   UNL     1      12.700  -5.098  11.438  1.00  0.00     0.040 A 
ATOM     62  F   UNL     1      12.380  -4.489   9.194  1.00  0.00    -0.206 F 
ATOM     63  C   UNL     1      12.186  -5.359  12.706  1.00  0.00     0.006 A 
ENDBRANCH  39  56
ENDBRANCH  13  14
ENDBRANCH   6   8
ENDBRANCH   3   4
ENDBRANCH   2   3
ENDBRANCH   1   2
BRANCH   1  64
ATOM     64  C   UNL     1       4.536   0.590  -4.321  1.00  0.00     0.116 C 
BRANCH  64  65
ATOM     65  N   UNL     1       5.954   0.751  -4.604  1.00  0.00    -0.352 N 
ATOM     66  C   UNL     1       6.546   1.229  -5.748  1.00  0.00     0.251 C 
ATOM     67  H   UNL     1       6.569   0.484  -3.882  1.00  0.00     0.163 HD
ATOM     68  O   UNL     1       7.763   1.160  -5.896  1.00  0.00    -0.269 OA
BRANCH  66  69
ATOM     69  C   UNL     1       5.720   1.875  -6.791  1.00  0.00     0.041 A 
ATOM     70  C   UNL     1       5.978   1.656  -8.143  1.00  0.00     0.014 A 
ATOM     71  C   UNL     1       4.725   2.773  -6.414  1.00  0.00     0.036 A 
ATOM     72  C   UNL     1       5.214   2.325  -9.108  1.00  0.00     0.002 A 
ATOM     73  C   UNL     1       3.988   3.467  -7.365  1.00  0.00     0.088 A 
ATOM     74  C   UNL     1       4.218   3.234  -8.722  1.00  0.00     0.022 A 
BRANCH  73  75
ATOM     75  S   UNL     1       2.659   4.494  -6.797  1.00  0.00     0.261 S 
ATOM     76  O   UNL     1       2.107   5.172  -7.957  1.00  0.00    -0.201 OA
ATOM     77  O   UNL     1       1.813   3.672  -5.963  1.00  0.00    -0.201 OA
BRANCH  75  78
ATOM     78  N   UNL     1       3.309   5.728  -5.834  1.00  0.00    -0.278 N 
ATOM     79  H   UNL     1       3.165   6.672  -6.073  1.00  0.00     0.180 HD
BRANCH  78  80
ATOM     80  C   UNL     1       4.075   5.386  -4.661  1.00  0.00     0.072 A 
ATOM     81  C   UNL     1       3.402   4.949  -3.511  1.00  0.00     0.029 A 
ATOM     82  C   UNL     1       5.496   5.379  -4.726  1.00  0.00     0.061 A 
ATOM     83  C   UNL     1       4.121   4.495  -2.406  1.00  0.00     0.002 A 
ATOM     84  C   UNL     1       6.186   4.911  -3.594  1.00  0.00     0.028 A 
ATOM     85  C   UNL     1       5.511   4.476  -2.448  1.00  0.00     0.002 A 
BRANCH  82  86
ATOM     86  N   UNL     1       6.177   5.745  -5.880  1.00  0.00    -0.365 N 
ATOM     87  C   UNL     1       5.924   7.060  -6.493  1.00  0.00     0.145 C 
ATOM     88  C   UNL     1       7.492   5.180  -6.229  1.00  0.00     0.145 C 
ATOM     89  C   UNL     1       6.118   6.949  -8.011  1.00  0.00     0.181 C 
ATOM     90  C   UNL     1       7.671   5.190  -7.758  1.00  0.00     0.181 C 
ATOM     91  O   UNL     1       7.445   6.492  -8.326  1.00  0.00    -0.378 OA
ENDBRANCH  82  86
ENDBRANCH  78  80
ENDBRANCH  75  78
ENDBRANCH  73  75
ENDBRANCH  66  69
ENDBRANCH  64  65
ENDBRANCH   1  64
TORSDOF 15
