REMARK SMILES C[C@H](c1ccncc1)[N@H+]1[C@@H]2CC[C@H]1C[C@H](CC(=O)NCCCCNC(=O)c1ccc(-c3c4nc(c(-c5c(F)cccc5F)c5ccc([nH]5)c(-c5c(F)cccc5F)c5nc(c(-c6c(F)cccc6F)c6ccc3[nH]6)C=C5)C=C4)cc1)C2
REMARK SMILES IDX 21 1 20 2 19 3 17 4 18 5 16 7 15 8 9 9 10 10 13 11 11 13
REMARK SMILES IDX 81 14 12 15 14 16 2 17 1 18 3 19 4 20 8 21 5 22 7 23 6 24
REMARK SMILES IDX 22 25 23 26 24 27 25 28 26 30 27 31 28 32 80 33 29 34 79 35
REMARK SMILES IDX 30 36 31 37 32 38 73 39 33 40 78 41 72 42 74 43 34 44 77 45
REMARK SMILES IDX 71 46 70 47 35 49 61 50 44 51 60 52 45 53 48 54 59 55 75 56
REMARK SMILES IDX 46 57 47 58 58 60 76 61 49 62 36 63 37 64 42 65 38 66 39 67
REMARK SMILES IDX 41 68 43 69 40 70 62 71 63 72 68 73 64 74 65 75 67 76 69 77
REMARK SMILES IDX 66 78 50 79 51 80 56 81 52 82 53 83 55 84 57 85 54 86
REMARK H PARENT 19 6 9 12 24 29 74 48 48 59
REMARK Flexibility Score: inf
ROOT
ATOM      1  C   UNL     1      -0.967  -1.821  -3.377  1.00  0.00     0.023 C 
ENDROOT
BRANCH   1   2
ATOM      2  C   UNL     1       0.075  -0.999  -4.153  1.00  0.00     0.116 C 
BRANCH   2   3
ATOM      3  N   UNL     1      -0.568   0.021  -4.971  1.00  0.00    -0.356 N 
ATOM      4  C   UNL     1      -0.813   1.347  -4.770  1.00  0.00     0.220 C 
ATOM      5  O   UNL     1      -1.470   1.940  -5.630  1.00  0.00    -0.275 OA
ATOM      6  H   UNL     1      -0.888  -0.313  -5.840  1.00  0.00     0.163 HD
BRANCH   4   7
ATOM      7  C   UNL     1      -0.298   2.098  -3.551  1.00  0.00     0.104 C 
BRANCH   7   8
ATOM      8  C   UNL     1      -1.301   2.158  -2.369  1.00  0.00     0.010 C 
ATOM      9  N   UNL     1      -0.710   1.688   0.504  1.00  0.00    -0.324 N 
ATOM     10  C   UNL     1      -1.242   2.990   0.096  1.00  0.00     0.185 C 
ATOM     11  C   UNL     1      -1.547   0.728  -0.177  1.00  0.00     0.185 C 
ATOM     12  H   UNL     1      -0.754   1.445   1.494  1.00  0.00     0.349 HD
ATOM     13  C   UNL     1      -2.748   2.767   0.310  1.00  0.00     0.071 C 
ATOM     14  C   UNL     1      -0.949   3.299  -1.390  1.00  0.00     0.069 C 
ATOM     15  C   UNL     1      -2.943   1.258   0.167  1.00  0.00     0.071 C 
ATOM     16  C   UNL     1      -1.355   0.789  -1.689  1.00  0.00     0.069 C 
BRANCH   9  17
ATOM     17  C   UNL     1       0.708   1.544   0.852  1.00  0.00     0.212 C 
ATOM     18  C   UNL     1       1.699   2.465   0.124  1.00  0.00     0.081 C 
BRANCH  17  19
ATOM     19  C   UNL     1       1.374   0.165   0.959  1.00  0.00     0.012 A 
ATOM     20  C   UNL     1       1.446  -0.763  -0.082  1.00  0.00     0.030 A 
ATOM     21  C   UNL     1       2.185  -0.102   2.077  1.00  0.00     0.030 A 
ATOM     22  C   UNL     1       2.274  -1.875   0.026  1.00  0.00     0.111 A 
ATOM     23  C   UNL     1       3.003  -1.226   2.088  1.00  0.00     0.111 A 
ATOM     24  N   UNL     1       3.066  -2.119   1.084  1.00  0.00    -0.265 NA
ENDBRANCH  17  19
ENDBRANCH   9  17
ENDBRANCH   7   8
ENDBRANCH   4   7
ENDBRANCH   2   3
ENDBRANCH   1   2
BRANCH   1  25
ATOM     25  C   UNL     1      -1.103  -3.278  -3.789  1.00  0.00     0.023 C 
BRANCH  25  26
ATOM     26  C   UNL     1       0.090  -4.145  -3.421  1.00  0.00     0.116 C 
BRANCH  26  27
ATOM     27  N   UNL     1       0.238  -4.398  -1.991  1.00  0.00    -0.352 N 
ATOM     28  C   UNL     1       0.587  -5.580  -1.367  1.00  0.00     0.251 C 
ATOM     29  H   UNL     1       0.069  -3.631  -1.398  1.00  0.00     0.163 HD
ATOM     30  O   UNL     1       0.630  -5.660  -0.144  1.00  0.00    -0.269 OA
BRANCH  28  31
ATOM     31  C   UNL     1       0.813  -6.780  -2.200  1.00  0.00     0.039 A 
ATOM     32  C   UNL     1       0.049  -7.922  -1.944  1.00  0.00     0.014 A 
ATOM     33  C   UNL     1       1.629  -6.708  -3.329  1.00  0.00     0.014 A 
ATOM     34  C   UNL     1      -0.015  -8.931  -2.906  1.00  0.00     0.010 A 
ATOM     35  C   UNL     1       1.484  -7.664  -4.327  1.00  0.00     0.010 A 
ATOM     36  C   UNL     1       0.633  -8.767  -4.140  1.00  0.00    -0.014 A 
BRANCH  36  37
ATOM     37  C   UNL     1       0.404  -9.696  -5.277  1.00  0.00     0.031 A 
ATOM     38  C   UNL     1       1.567 -10.417  -5.895  1.00  0.00     0.074 A 
ATOM     39  C   UNL     1      -0.821  -9.791  -5.833  1.00  0.00     0.049 A 
ATOM     40  N   UNL     1       1.616 -11.113  -7.001  1.00  0.00    -0.248 NA
ATOM     41  C   UNL     1       2.858 -10.300  -5.197  1.00  0.00     0.031 C 
ATOM     42  C   UNL     1      -2.026  -9.098  -5.369  1.00  0.00     0.029 A 
ATOM     43  N   UNL     1      -1.252 -10.499  -6.928  1.00  0.00    -0.354 N 
ATOM     44  C   UNL     1       2.947 -11.478  -7.154  1.00  0.00     0.074 A 
ATOM     45  C   UNL     1       3.678 -10.894  -6.050  1.00  0.00     0.031 C 
ATOM     46  C   UNL     1      -3.061  -9.434  -6.157  1.00  0.00     0.029 A 
ATOM     47  C   UNL     1      -2.587 -10.328  -7.208  1.00  0.00     0.049 A 
ATOM     48  H   UNL     1      -0.660 -11.075  -7.464  1.00  0.00     0.167 HD
ATOM     49  C   UNL     1       3.507 -12.245  -8.118  1.00  0.00     0.037 A 
ATOM     50  C   UNL     1      -3.342 -10.827  -8.205  1.00  0.00     0.037 A 
ATOM     51  C   UNL     1       2.771 -12.875  -9.181  1.00  0.00     0.049 A 
ATOM     52  C   UNL     1      -2.707 -11.720  -9.233  1.00  0.00     0.074 A 
ATOM     53  C   UNL     1       3.238 -13.728 -10.165  1.00  0.00     0.029 A 
ATOM     54  N   UNL     1       1.408 -12.730  -9.386  1.00  0.00    -0.354 N 
ATOM     55  N   UNL     1      -1.455 -12.091  -9.341  1.00  0.00    -0.248 NA
ATOM     56  C   UNL     1      -3.588 -12.263 -10.277  1.00  0.00     0.031 C 
ATOM     57  C   UNL     1       2.158 -14.086 -10.979  1.00  0.00     0.029 A 
ATOM     58  C   UNL     1       1.016 -13.478 -10.483  1.00  0.00     0.049 A 
ATOM     59  H   UNL     1       0.808 -12.178  -8.835  1.00  0.00     0.167 HD
ATOM     60  C   UNL     1      -1.403 -12.932 -10.445  1.00  0.00     0.074 A 
ATOM     61  C   UNL     1      -2.749 -13.020 -10.970  1.00  0.00     0.031 C 
ATOM     62  C   UNL     1      -0.333 -13.572 -10.975  1.00  0.00     0.037 A 
BRANCH  49  63
ATOM     63  C   UNL     1       4.990 -12.451  -8.053  1.00  0.00     0.057 A 
ATOM     64  C   UNL     1       5.579 -13.263  -7.074  1.00  0.00     0.134 A 
ATOM     65  C   UNL     1       5.838 -11.840  -8.984  1.00  0.00     0.134 A 
ATOM     66  F   UNL     1       4.821 -13.862  -6.143  1.00  0.00    -0.206 F 
ATOM     67  C   UNL     1       6.961 -13.435  -7.006  1.00  0.00     0.040 A 
ATOM     68  C   UNL     1       7.220 -12.025  -8.942  1.00  0.00     0.040 A 
ATOM     69  F   UNL     1       5.337 -11.053  -9.948  1.00  0.00    -0.206 F 
ATOM     70  C   UNL     1       7.786 -12.819  -7.945  1.00  0.00     0.006 A 
ENDBRANCH  49  63
BRANCH  50  71
ATOM     71  C   UNL     1      -4.793 -10.518  -8.268  1.00  0.00     0.057 A 
ATOM     72  C   UNL     1      -5.746 -11.491  -7.949  1.00  0.00     0.134 A 
ATOM     73  C   UNL     1      -5.261  -9.256  -8.652  1.00  0.00     0.134 A 
ATOM     74  F   UNL     1      -5.357 -12.724  -7.593  1.00  0.00    -0.206 F 
ATOM     75  C   UNL     1      -7.115 -11.228  -8.026  1.00  0.00     0.040 A 
ATOM     76  C   UNL     1      -6.626  -8.973  -8.714  1.00  0.00     0.040 A 
ATOM     77  F   UNL     1      -4.396  -8.279  -8.964  1.00  0.00    -0.206 F 
ATOM     78  C   UNL     1      -7.558  -9.963  -8.406  1.00  0.00     0.006 A 
ENDBRANCH  50  71
BRANCH  62  79
ATOM     79  C   UNL     1      -0.581 -14.462 -12.153  1.00  0.00     0.057 A 
ATOM     80  C   UNL     1      -0.774 -13.945 -13.439  1.00  0.00     0.134 A 
ATOM     81  C   UNL     1      -0.565 -15.855 -12.006  1.00  0.00     0.134 A 
ATOM     82  F   UNL     1      -0.811 -12.619 -13.640  1.00  0.00    -0.206 F 
ATOM     83  C   UNL     1      -0.952 -14.784 -14.540  1.00  0.00     0.040 A 
ATOM     84  C   UNL     1      -0.724 -16.704 -13.101  1.00  0.00     0.040 A 
ATOM     85  F   UNL     1      -0.378 -16.410 -10.799  1.00  0.00    -0.206 F 
ATOM     86  C   UNL     1      -0.919 -16.168 -14.373  1.00  0.00     0.006 A 
ENDBRANCH  62  79
ENDBRANCH  36  37
ENDBRANCH  28  31
ENDBRANCH  26  27
ENDBRANCH  25  26
ENDBRANCH   1  25
TORSDOF 14
