REMARK SMILES O=C(NCCCCNC(=O)[C@@H](NC(=O)[C@H]1CC[C@@H]2CCCC[C@H]2[NH2+]1)C1CC1)c1ccc(-c2c3nc(c(-c4c(F)cccc4F)c4ccc([nH]4)c(-c4c(F)cccc4F)c4nc(c(-c5c(F)cccc5F)c5ccc2[nH]5)C=C4)C=C3)cc1
REMARK SMILES IDX 5 1 4 2 3 3 1 4 2 5 28 7 29 8 81 9 30 10 80 11 31 12 32 13
REMARK SMILES IDX 33 14 74 15 34 16 79 17 73 18 75 19 35 20 78 21 72 22 71 23
REMARK SMILES IDX 36 25 62 26 45 27 61 28 46 29 49 30 60 31 76 32 47 33 48 34
REMARK SMILES IDX 59 36 77 37 50 38 37 39 38 40 43 41 39 42 40 43 42 44 44 45
REMARK SMILES IDX 41 46 63 47 64 48 69 49 65 50 66 51 68 52 70 53 67 54 51 55
REMARK SMILES IDX 52 56 57 57 53 58 54 59 56 60 58 61 55 62 6 63 7 64 8 65
REMARK SMILES IDX 9 66 10 68 11 69 12 70 13 71 14 73 15 74 16 75 24 76 17 77
REMARK SMILES IDX 23 78 18 81 22 82 19 83 21 84 20 85 25 86 26 87 27 88
REMARK H PARENT 3 6 75 24 49 35 8 67 12 72 24 79 24 80
REMARK Flexibility Score: inf
ROOT
ATOM      1  C   UNL     1      -0.226   7.167  -0.370  1.00  0.00     0.023 C 
ENDROOT
BRANCH   1   2
ATOM      2  C   UNL     1       0.453   8.467   0.038  1.00  0.00     0.116 C 
BRANCH   2   3
ATOM      3  N   UNL     1       1.804   8.597  -0.488  1.00  0.00    -0.352 N 
ATOM      4  O   UNL     1       3.406   9.374  -1.889  1.00  0.00    -0.269 OA
ATOM      5  C   UNL     1       2.272   9.464  -1.450  1.00  0.00     0.251 C 
ATOM      6  H   UNL     1       2.472   7.983  -0.106  1.00  0.00     0.163 HD
BRANCH   5   7
ATOM      7  C   UNL     1       1.350  10.498  -1.957  1.00  0.00     0.039 A 
ATOM      8  C   UNL     1       0.704  11.344  -1.054  1.00  0.00     0.014 A 
ATOM      9  C   UNL     1       1.082  10.569  -3.325  1.00  0.00     0.014 A 
ATOM     10  C   UNL     1      -0.325  12.158  -1.502  1.00  0.00     0.010 A 
ATOM     11  C   UNL     1       0.112  11.462  -3.786  1.00  0.00     0.010 A 
ATOM     12  C   UNL     1      -0.614  12.245  -2.874  1.00  0.00    -0.014 A 
BRANCH  12  13
ATOM     13  C   UNL     1      -1.597  13.252  -3.337  1.00  0.00     0.031 A 
ATOM     14  C   UNL     1      -2.882  12.857  -4.004  1.00  0.00     0.074 A 
ATOM     15  C   UNL     1      -1.301  14.550  -3.132  1.00  0.00     0.049 A 
ATOM     16  N   UNL     1      -3.825  13.627  -4.485  1.00  0.00    -0.248 NA
ATOM     17  C   UNL     1      -3.147  11.418  -4.161  1.00  0.00     0.031 C 
ATOM     18  C   UNL     1      -0.068  15.042  -2.508  1.00  0.00     0.029 A 
ATOM     19  N   UNL     1      -2.006  15.690  -3.413  1.00  0.00    -0.354 N 
ATOM     20  C   UNL     1      -4.780  12.774  -5.023  1.00  0.00     0.074 A 
ATOM     21  C   UNL     1      -4.302  11.424  -4.817  1.00  0.00     0.031 C 
ATOM     22  C   UNL     1      -0.119  16.378  -2.422  1.00  0.00     0.029 A 
ATOM     23  C   UNL     1      -1.348  16.840  -3.051  1.00  0.00     0.049 A 
ATOM     24  H   UNL     1      -2.896  15.686  -3.833  1.00  0.00     0.167 HD
ATOM     25  C   UNL     1      -5.945  13.099  -5.632  1.00  0.00     0.037 A 
ATOM     26  C   UNL     1      -1.677  18.130  -3.238  1.00  0.00     0.037 A 
ATOM     27  C   UNL     1      -6.420  14.450  -5.805  1.00  0.00     0.049 A 
ATOM     28  C   UNL     1      -2.962  18.451  -3.936  1.00  0.00     0.074 A 
ATOM     29  C   UNL     1      -7.622  14.877  -6.342  1.00  0.00     0.029 A 
ATOM     30  N   UNL     1      -5.713  15.589  -5.452  1.00  0.00    -0.354 N 
ATOM     31  N   UNL     1      -3.878  17.633  -4.394  1.00  0.00    -0.248 NA
ATOM     32  C   UNL     1      -3.255  19.873  -4.157  1.00  0.00     0.031 C 
ATOM     33  C   UNL     1      -7.621  16.276  -6.360  1.00  0.00     0.029 A 
ATOM     34  C   UNL     1      -6.437  16.720  -5.795  1.00  0.00     0.049 A 
ATOM     35  H   UNL     1      -4.827  15.594  -5.022  1.00  0.00     0.167 HD
ATOM     36  C   UNL     1      -4.856  18.438  -4.956  1.00  0.00     0.074 A 
ATOM     37  C   UNL     1      -4.437  19.810  -4.752  1.00  0.00     0.031 C 
ATOM     38  C   UNL     1      -5.994  18.075  -5.595  1.00  0.00     0.037 A 
BRANCH  25  39
ATOM     39  C   UNL     1      -6.796  11.991  -6.180  1.00  0.00     0.057 A 
ATOM     40  C   UNL     1      -7.573  11.174  -5.351  1.00  0.00     0.134 A 
ATOM     41  C   UNL     1      -6.920  11.812  -7.564  1.00  0.00     0.134 A 
ATOM     42  F   UNL     1      -7.497  11.291  -4.017  1.00  0.00    -0.206 F 
ATOM     43  C   UNL     1      -8.443  10.217  -5.879  1.00  0.00     0.040 A 
ATOM     44  C   UNL     1      -7.798  10.871  -8.104  1.00  0.00     0.040 A 
ATOM     45  F   UNL     1      -6.209  12.568  -8.414  1.00  0.00    -0.206 F 
ATOM     46  C   UNL     1      -8.565  10.071  -7.260  1.00  0.00     0.006 A 
ENDBRANCH  25  39
BRANCH  26  47
ATOM     47  C   UNL     1      -0.748  19.199  -2.800  1.00  0.00     0.057 A 
ATOM     48  C   UNL     1      -1.073  20.059  -1.747  1.00  0.00     0.134 A 
ATOM     49  C   UNL     1       0.493  19.381  -3.425  1.00  0.00     0.134 A 
ATOM     50  F   UNL     1      -2.254  19.944  -1.121  1.00  0.00    -0.206 F 
ATOM     51  C   UNL     1      -0.205  21.074  -1.341  1.00  0.00     0.040 A 
ATOM     52  C   UNL     1       1.383  20.370  -3.009  1.00  0.00     0.040 A 
ATOM     53  F   UNL     1       0.868  18.581  -4.434  1.00  0.00    -0.206 F 
ATOM     54  C   UNL     1       1.030  21.227  -1.968  1.00  0.00     0.006 A 
ENDBRANCH  26  47
BRANCH  38  55
ATOM     55  C   UNL     1      -6.856  19.184  -6.113  1.00  0.00     0.057 A 
ATOM     56  C   UNL     1      -6.489  19.928  -7.242  1.00  0.00     0.134 A 
ATOM     57  C   UNL     1      -8.067  19.505  -5.488  1.00  0.00     0.134 A 
ATOM     58  F   UNL     1      -5.331  19.681  -7.872  1.00  0.00    -0.206 F 
ATOM     59  C   UNL     1      -7.287  20.969  -7.717  1.00  0.00     0.040 A 
ATOM     60  C   UNL     1      -8.885  20.526  -5.969  1.00  0.00     0.040 A 
ATOM     61  F   UNL     1      -8.475  18.826  -4.405  1.00  0.00    -0.206 F 
ATOM     62  C   UNL     1      -8.492  21.266  -7.083  1.00  0.00     0.006 A 
ENDBRANCH  38  55
ENDBRANCH  12  13
ENDBRANCH   5   7
ENDBRANCH   2   3
ENDBRANCH   1   2
BRANCH   1  63
ATOM     63  C   UNL     1       0.449   5.896   0.138  1.00  0.00     0.023 C 
BRANCH  63  64
ATOM     64  C   UNL     1       0.763   5.880   1.628  1.00  0.00     0.116 C 
BRANCH  64  65
ATOM     65  N   UNL     1      -0.407   6.016   2.473  1.00  0.00    -0.354 N 
ATOM     66  C   UNL     1      -0.467   6.176   3.833  1.00  0.00     0.242 C 
ATOM     67  H   UNL     1      -1.274   5.990   2.009  1.00  0.00     0.163 HD
ATOM     68  O   UNL     1      -1.548   6.528   4.315  1.00  0.00    -0.273 OA
BRANCH  66  69
ATOM     69  C   UNL     1       0.807   6.071   4.718  1.00  0.00     0.174 C 
BRANCH  69  70
ATOM     70  N   UNL     1       1.661   4.948   4.299  1.00  0.00    -0.339 N 
ATOM     71  C   UNL     1       2.834   4.415   4.752  1.00  0.00     0.278 C 
ATOM     72  H   UNL     1       1.305   4.472   3.514  1.00  0.00     0.164 HD
ATOM     73  O   UNL     1       3.152   3.311   4.301  1.00  0.00    -0.268 OA
BRANCH  71  74
ATOM     74  C   UNL     1       3.769   5.246   5.631  1.00  0.00     0.272 C 
ATOM     75  C   UNL     1       3.189   5.623   6.986  1.00  0.00     0.076 C 
ATOM     76  N   UNL     1       5.068   4.583   5.921  1.00  0.00    -0.333 N 
ATOM     77  C   UNL     1       3.999   6.809   7.491  1.00  0.00     0.016 C 
ATOM     78  C   UNL     1       6.014   5.578   6.456  1.00  0.00     0.186 C 
ATOM     79  H   UNL     1       5.445   4.182   5.062  1.00  0.00     0.347 HD
ATOM     80  H   UNL     1       4.928   3.841   6.607  1.00  0.00     0.347 HD
ATOM     81  C   UNL     1       5.441   6.348   7.676  1.00  0.00     0.048 C 
ATOM     82  C   UNL     1       7.331   4.927   6.906  1.00  0.00     0.065 C 
ATOM     83  C   UNL     1       6.375   7.514   7.995  1.00  0.00     0.010 C 
ATOM     84  C   UNL     1       8.324   5.976   7.432  1.00  0.00     0.006 C 
ATOM     85  C   UNL     1       7.724   6.962   8.441  1.00  0.00     0.001 C 
ENDBRANCH  71  74
ENDBRANCH  69  70
BRANCH  69  86
ATOM     86  C   UNL     1       1.497   7.404   4.952  1.00  0.00     0.021 C 
ATOM     87  C   UNL     1       2.565   7.998   4.059  1.00  0.00     0.006 C 
ATOM     88  C   UNL     1       1.219   8.650   4.139  1.00  0.00     0.006 C 
ENDBRANCH  69  86
ENDBRANCH  66  69
ENDBRANCH  64  65
ENDBRANCH  63  64
ENDBRANCH   1  63
TORSDOF 14
