REMARK SMILES COc1ccc(N[C@]2(Br)C(=O)NC(=O)N[C@@H]2C(=O)NCCCCNC(=O)c2ccc(-c3c4nc(c(-c5c(F)cccc5F)c5ccc([nH]5)c(-c5c(F)cccc5F)c5nc(c(-c6c(F)cccc6F)c6ccc3[nH]6)C=C5)C=C4)cc2)cc1
REMARK SMILES IDX 21 1 20 2 19 3 17 4 18 5 16 7 8 8 10 9 9 10 11 11 12 12
REMARK SMILES IDX 15 13 13 14 14 17 7 18 6 20 3 21 4 22 82 23 5 24 81 25 2 26
REMARK SMILES IDX 1 27 22 28 23 29 24 30 25 31 26 33 27 34 28 35 80 36 29 37
REMARK SMILES IDX 79 38 30 39 31 40 32 41 73 42 33 43 78 44 72 45 74 46 34 47
REMARK SMILES IDX 77 48 71 49 70 50 35 52 61 53 44 54 60 55 45 56 48 57 59 58
REMARK SMILES IDX 75 59 46 60 47 61 58 63 76 64 49 65 36 66 37 67 42 68 38 69
REMARK SMILES IDX 39 70 41 71 43 72 40 73 62 74 63 75 68 76 64 77 65 78 67 79
REMARK SMILES IDX 69 80 66 81 50 82 51 83 56 84 52 85 53 86 55 87 57 88 54 89
REMARK H PARENT 19 6 12 15 15 16 7 19 24 32 74 51 48 62
REMARK Flexibility Score: inf
ROOT
ATOM      1  C   UNL     1      -4.682  -2.408  -5.859  1.00  0.00     0.023 C 
ENDROOT
BRANCH   1   2
ATOM      2  C   UNL     1      -3.532  -3.353  -5.501  1.00  0.00     0.116 C 
BRANCH   2   3
ATOM      3  N   UNL     1      -2.700  -3.635  -6.659  1.00  0.00    -0.354 N 
ATOM      4  C   UNL     1      -1.384  -3.377  -6.900  1.00  0.00     0.246 C 
ATOM      5  O   UNL     1      -1.099  -3.160  -8.083  1.00  0.00    -0.273 OA
ATOM      6  H   UNL     1      -3.167  -4.091  -7.396  1.00  0.00     0.163 HD
BRANCH   4   7
ATOM      7  C   UNL     1      -0.267  -3.452  -5.831  1.00  0.00     0.219 C 
ATOM      8  C   UNL     1       0.620  -4.714  -5.962  1.00  0.00     0.202 C 
ATOM      9  C   UNL     1       0.154  -5.855  -5.036  1.00  0.00     0.267 C 
ATOM     10  Br  UNL     1       2.397  -4.218  -5.097  1.00  0.00    -0.048 Br
ATOM     11  O   UNL     1       0.533  -7.026  -5.120  1.00  0.00    -0.271 OA
ATOM     12  N   UNL     1      -0.683  -5.513  -4.001  1.00  0.00    -0.275 N 
ATOM     13  N   UNL     1      -0.712  -3.251  -4.455  1.00  0.00    -0.322 N 
ATOM     14  C   UNL     1      -1.028  -4.261  -3.610  1.00  0.00     0.322 C 
ATOM     15  H   UNL     1      -1.075  -6.257  -3.490  1.00  0.00     0.174 HD
ATOM     16  H   UNL     1      -0.786  -2.328  -4.122  1.00  0.00     0.166 HD
ATOM     17  O   UNL     1      -1.591  -4.042  -2.545  1.00  0.00    -0.248 OA
BRANCH   8  18
ATOM     18  N   UNL     1       1.028  -5.133  -7.298  1.00  0.00    -0.360 N 
ATOM     19  H   UNL     1       1.920  -4.827  -7.583  1.00  0.00     0.162 HD
BRANCH  18  20
ATOM     20  C   UNL     1       0.344  -5.897  -8.218  1.00  0.00     0.036 A 
ATOM     21  C   UNL     1      -0.992  -7.334 -10.254  1.00  0.00     0.119 A 
ATOM     22  C   UNL     1      -1.601  -7.133  -9.023  1.00  0.00     0.048 A 
ATOM     23  C   UNL     1       0.270  -6.806 -10.494  1.00  0.00     0.048 A 
ATOM     24  C   UNL     1      -0.933  -6.431  -8.014  1.00  0.00     0.029 A 
ATOM     25  C   UNL     1       0.926  -6.097  -9.481  1.00  0.00     0.029 A 
BRANCH  21  26
ATOM     26  O   UNL     1      -1.717  -7.983 -11.214  1.00  0.00    -0.497 OA
ATOM     27  C   UNL     1      -1.050  -9.151 -11.688  1.00  0.00     0.278 C 
ENDBRANCH  21  26
ENDBRANCH  18  20
ENDBRANCH   8  18
ENDBRANCH   4   7
ENDBRANCH   2   3
ENDBRANCH   1   2
BRANCH   1  28
ATOM     28  C   UNL     1      -5.780  -3.012  -6.732  1.00  0.00     0.023 C 
BRANCH  28  29
ATOM     29  C   UNL     1      -6.474  -4.236  -6.146  1.00  0.00     0.116 C 
BRANCH  29  30
ATOM     30  N   UNL     1      -7.087  -3.982  -4.852  1.00  0.00    -0.352 N 
ATOM     31  C   UNL     1      -8.373  -4.250  -4.431  1.00  0.00     0.251 C 
ATOM     32  H   UNL     1      -6.502  -3.559  -4.183  1.00  0.00     0.163 HD
ATOM     33  O   UNL     1      -8.767  -3.857  -3.342  1.00  0.00    -0.269 OA
BRANCH  31  34
ATOM     34  C   UNL     1      -9.280  -4.993  -5.327  1.00  0.00     0.039 A 
ATOM     35  C   UNL     1     -10.553  -4.477  -5.586  1.00  0.00     0.014 A 
ATOM     36  C   UNL     1      -8.855  -6.174  -5.937  1.00  0.00     0.014 A 
ATOM     37  C   UNL     1     -11.373  -5.104  -6.527  1.00  0.00     0.010 A 
ATOM     38  C   UNL     1      -9.641  -6.755  -6.924  1.00  0.00     0.010 A 
ATOM     39  C   UNL     1     -10.904  -6.224  -7.232  1.00  0.00    -0.014 A 
BRANCH  39  40
ATOM     40  C   UNL     1     -11.708  -6.884  -8.289  1.00  0.00     0.031 A 
ATOM     41  C   UNL     1     -12.142  -8.309  -8.101  1.00  0.00     0.074 A 
ATOM     42  C   UNL     1     -11.949  -6.249  -9.451  1.00  0.00     0.049 A 
ATOM     43  N   UNL     1     -12.671  -9.136  -8.965  1.00  0.00    -0.248 NA
ATOM     44  C   UNL     1     -11.914  -8.890  -6.769  1.00  0.00     0.031 C 
ATOM     45  C   UNL     1     -11.562  -4.873  -9.765  1.00  0.00     0.029 A 
ATOM     46  N   UNL     1     -12.561  -6.692 -10.597  1.00  0.00    -0.354 N 
ATOM     47  C   UNL     1     -12.803 -10.344  -8.294  1.00  0.00     0.074 A 
ATOM     48  C   UNL     1     -12.265 -10.152  -6.964  1.00  0.00     0.031 C 
ATOM     49  C   UNL     1     -11.958  -4.580 -11.015  1.00  0.00     0.029 A 
ATOM     50  C   UNL     1     -12.583  -5.759 -11.605  1.00  0.00     0.049 A 
ATOM     51  H   UNL     1     -12.948  -7.593 -10.688  1.00  0.00     0.167 HD
ATOM     52  C   UNL     1     -13.340 -11.504  -8.739  1.00  0.00     0.037 A 
ATOM     53  C   UNL     1     -13.041  -5.853 -12.868  1.00  0.00     0.037 A 
ATOM     54  C   UNL     1     -13.909 -11.679 -10.049  1.00  0.00     0.049 A 
ATOM     55  C   UNL     1     -13.631  -7.151 -13.343  1.00  0.00     0.074 A 
ATOM     56  C   UNL     1     -14.520 -12.800 -10.582  1.00  0.00     0.029 A 
ATOM     57  N   UNL     1     -13.943 -10.697 -11.028  1.00  0.00    -0.354 N 
ATOM     58  N   UNL     1     -13.775  -8.280 -12.692  1.00  0.00    -0.248 NA
ATOM     59  C   UNL     1     -14.119  -7.191 -14.729  1.00  0.00     0.031 C 
ATOM     60  C   UNL     1     -14.901 -12.504 -11.896  1.00  0.00     0.029 A 
ATOM     61  C   UNL     1     -14.559 -11.189 -12.166  1.00  0.00     0.049 A 
ATOM     62  H   UNL     1     -13.582  -9.787 -10.929  1.00  0.00     0.167 HD
ATOM     63  C   UNL     1     -14.402  -9.151 -13.573  1.00  0.00     0.074 A 
ATOM     64  C   UNL     1     -14.607  -8.421 -14.808  1.00  0.00     0.031 C 
ATOM     65  C   UNL     1     -14.778 -10.437 -13.376  1.00  0.00     0.037 A 
BRANCH  52  66
ATOM     66  C   UNL     1     -13.328 -12.669  -7.795  1.00  0.00     0.057 A 
ATOM     67  C   UNL     1     -14.147 -12.708  -6.659  1.00  0.00     0.134 A 
ATOM     68  C   UNL     1     -12.485 -13.764  -8.022  1.00  0.00     0.134 A 
ATOM     69  F   UNL     1     -14.966 -11.683  -6.377  1.00  0.00    -0.206 F 
ATOM     70  C   UNL     1     -14.102 -13.776  -5.763  1.00  0.00     0.040 A 
ATOM     71  C   UNL     1     -12.451 -14.851  -7.147  1.00  0.00     0.040 A 
ATOM     72  F   UNL     1     -11.679 -13.794  -9.094  1.00  0.00    -0.206 F 
ATOM     73  C   UNL     1     -13.254 -14.854  -6.008  1.00  0.00     0.006 A 
ENDBRANCH  52  66
BRANCH  53  74
ATOM     74  C   UNL     1     -12.988  -4.672 -13.763  1.00  0.00     0.057 A 
ATOM     75  C   UNL     1     -14.155  -3.973 -14.092  1.00  0.00     0.134 A 
ATOM     76  C   UNL     1     -11.783  -4.208 -14.303  1.00  0.00     0.134 A 
ATOM     77  F   UNL     1     -15.342  -4.383 -13.619  1.00  0.00    -0.206 F 
ATOM     78  C   UNL     1     -14.130  -2.861 -14.934  1.00  0.00     0.040 A 
ATOM     79  C   UNL     1     -11.740  -3.085 -15.131  1.00  0.00     0.040 A 
ATOM     80  F   UNL     1     -10.630  -4.831 -14.020  1.00  0.00    -0.206 F 
ATOM     81  C   UNL     1     -12.917  -2.411 -15.452  1.00  0.00     0.006 A 
ENDBRANCH  53  74
BRANCH  65  82
ATOM     82  C   UNL     1     -15.503 -11.123 -14.493  1.00  0.00     0.057 A 
ATOM     83  C   UNL     1     -14.836 -11.598 -15.628  1.00  0.00     0.134 A 
ATOM     84  C   UNL     1     -16.879 -11.368 -14.397  1.00  0.00     0.134 A 
ATOM     85  F   UNL     1     -13.521 -11.383 -15.783  1.00  0.00    -0.206 F 
ATOM     86  C   UNL     1     -15.515 -12.286 -16.634  1.00  0.00     0.040 A 
ATOM     87  C   UNL     1     -17.565 -12.072 -15.386  1.00  0.00     0.040 A 
ATOM     88  F   UNL     1     -17.573 -10.943 -13.330  1.00  0.00    -0.206 F 
ATOM     89  C   UNL     1     -16.882 -12.532 -16.510  1.00  0.00     0.006 A 
ENDBRANCH  65  82
ENDBRANCH  39  40
ENDBRANCH  31  34
ENDBRANCH  29  30
ENDBRANCH  28  29
ENDBRANCH   1  28
TORSDOF 14
