REMARK SMILES O=C(NCCCCNC(=O)c1ccc(NC(=O)c2ccc([N+](=O)[O-])cc2Cl)cc1Cl)c1ccc(-c2c3nc(c(-c4c(F)cccc4F)c4ccc([nH]4)c(-c4c(F)cccc4F)c4nc(c(-c5c(F)cccc5F)c5ccc2[nH]5)C=C4)C=C3)cc1
REMARK SMILES IDX 6 1 5 2 4 3 3 4 1 5 2 6 31 8 32 9 84 10 33 11 83 12 34 13
REMARK SMILES IDX 35 14 36 15 77 16 37 17 82 18 76 19 78 20 38 21 81 22 75 23
REMARK SMILES IDX 74 24 39 26 65 27 48 28 64 29 49 30 52 31 63 32 79 33 50 34
REMARK SMILES IDX 51 35 62 37 80 38 53 39 40 40 41 41 46 42 42 43 43 44 45 45
REMARK SMILES IDX 47 46 44 47 66 48 67 49 72 50 68 51 69 52 71 53 73 54 70 55
REMARK SMILES IDX 54 56 55 57 60 58 56 59 57 60 59 61 61 62 58 63 7 64 8 65
REMARK SMILES IDX 9 66 10 68 11 69 12 70 29 71 13 72 28 73 30 74 14 75 15 76
REMARK SMILES IDX 16 77 17 79 18 80 19 81 26 82 20 83 25 84 27 85 21 86 22 87
REMARK SMILES IDX 23 88 24 89
REMARK H PARENT 3 7 78 25 52 36 8 67 15 78
REMARK Flexibility Score: inf
ROOT
ATOM      1  C   UNL     1       4.572   0.329   3.848  1.00  0.00     0.023 C 
ENDROOT
BRANCH   1   2
ATOM      2  C   UNL     1       5.024   0.749   2.451  1.00  0.00     0.023 C 
BRANCH   2   3
ATOM      3  C   UNL     1       4.656  -0.204   1.320  1.00  0.00     0.116 C 
BRANCH   3   4
ATOM      4  N   UNL     1       3.221  -0.344   1.135  1.00  0.00    -0.352 N 
ATOM      5  O   UNL     1       1.230  -0.154   0.092  1.00  0.00    -0.269 OA
ATOM      6  C   UNL     1       2.454  -0.096   0.021  1.00  0.00     0.251 C 
ATOM      7  H   UNL     1       2.725  -0.664   1.923  1.00  0.00     0.163 HD
BRANCH   6   8
ATOM      8  C   UNL     1       3.099   0.273  -1.257  1.00  0.00     0.039 A 
ATOM      9  C   UNL     1       4.205  -0.435  -1.736  1.00  0.00     0.014 A 
ATOM     10  C   UNL     1       2.579   1.341  -1.994  1.00  0.00     0.014 A 
ATOM     11  C   UNL     1       4.876   0.013  -2.869  1.00  0.00     0.010 A 
ATOM     12  C   UNL     1       3.206   1.739  -3.177  1.00  0.00     0.010 A 
ATOM     13  C   UNL     1       4.378   1.098  -3.608  1.00  0.00    -0.014 A 
BRANCH  13  14
ATOM     14  C   UNL     1       5.057   1.508  -4.862  1.00  0.00     0.031 A 
ATOM     15  C   UNL     1       5.710   2.855  -4.989  1.00  0.00     0.074 A 
ATOM     16  C   UNL     1       5.073   0.650  -5.899  1.00  0.00     0.049 A 
ATOM     17  N   UNL     1       6.320   3.380  -6.021  1.00  0.00    -0.248 NA
ATOM     18  C   UNL     1       5.664   3.731  -3.809  1.00  0.00     0.031 C 
ATOM     19  C   UNL     1       4.455  -0.678  -5.900  1.00  0.00     0.029 A 
ATOM     20  N   UNL     1       5.625   0.762  -7.148  1.00  0.00    -0.354 N 
ATOM     21  C   UNL     1       6.712   4.653  -5.626  1.00  0.00     0.074 A 
ATOM     22  C   UNL     1       6.250   4.830  -4.265  1.00  0.00     0.031 C 
ATOM     23  C   UNL     1       4.676  -1.264  -7.085  1.00  0.00     0.029 A 
ATOM     24  C   UNL     1       5.402  -0.334  -7.944  1.00  0.00     0.049 A 
ATOM     25  H   UNL     1       6.132   1.552  -7.446  1.00  0.00     0.167 HD
ATOM     26  C   UNL     1       7.398   5.583  -6.333  1.00  0.00     0.037 A 
ATOM     27  C   UNL     1       5.718  -0.560  -9.231  1.00  0.00     0.037 A 
ATOM     28  C   UNL     1       7.867   5.394  -7.682  1.00  0.00     0.049 A 
ATOM     29  C   UNL     1       6.463   0.491  -9.998  1.00  0.00     0.074 A 
ATOM     30  C   UNL     1       8.622   6.254  -8.462  1.00  0.00     0.029 A 
ATOM     31  N   UNL     1       7.615   4.271  -8.457  1.00  0.00    -0.354 N 
ATOM     32  N   UNL     1       6.873   1.668  -9.594  1.00  0.00    -0.248 NA
ATOM     33  C   UNL     1       6.790   0.184 -11.397  1.00  0.00     0.031 C 
ATOM     34  C   UNL     1       8.786   5.672  -9.724  1.00  0.00     0.029 A 
ATOM     35  C   UNL     1       8.174   4.429  -9.716  1.00  0.00     0.049 A 
ATOM     36  H   UNL     1       7.114   3.479  -8.157  1.00  0.00     0.167 HD
ATOM     37  C   UNL     1       7.514   2.241 -10.683  1.00  0.00     0.074 A 
ATOM     38  C   UNL     1       7.455   1.273 -11.760  1.00  0.00     0.031 C 
ATOM     39  C   UNL     1       8.099   3.460 -10.780  1.00  0.00     0.037 A 
BRANCH  26  40
ATOM     40  C   UNL     1       7.664   6.903  -5.667  1.00  0.00     0.057 A 
ATOM     41  C   UNL     1       8.588   7.037  -4.623  1.00  0.00     0.134 A 
ATOM     42  C   UNL     1       7.008   8.063  -6.100  1.00  0.00     0.134 A 
ATOM     43  F   UNL     1       9.244   5.965  -4.154  1.00  0.00    -0.206 F 
ATOM     44  C   UNL     1       8.829   8.271  -4.015  1.00  0.00     0.040 A 
ATOM     45  C   UNL     1       7.259   9.306  -5.517  1.00  0.00     0.040 A 
ATOM     46  F   UNL     1       6.117   8.008  -7.101  1.00  0.00    -0.206 F 
ATOM     47  C   UNL     1       8.167   9.412  -4.466  1.00  0.00     0.006 A 
ENDBRANCH  26  40
BRANCH  27  48
ATOM     48  C   UNL     1       5.308  -1.836  -9.864  1.00  0.00     0.057 A 
ATOM     49  C   UNL     1       6.242  -2.832 -10.165  1.00  0.00     0.134 A 
ATOM     50  C   UNL     1       3.960  -2.108 -10.134  1.00  0.00     0.134 A 
ATOM     51  F   UNL     1       7.547  -2.623  -9.941  1.00  0.00    -0.206 F 
ATOM     52  C   UNL     1       5.852  -4.054 -10.715  1.00  0.00     0.040 A 
ATOM     53  C   UNL     1       3.553  -3.334 -10.660  1.00  0.00     0.040 A 
ATOM     54  F   UNL     1       3.017  -1.196  -9.856  1.00  0.00    -0.206 F 
ATOM     55  C   UNL     1       4.502  -4.311 -10.955  1.00  0.00     0.006 A 
ENDBRANCH  27  48
BRANCH  39  56
ATOM     56  C   UNL     1       8.734   3.809 -12.093  1.00  0.00     0.057 A 
ATOM     57  C   UNL     1       7.967   4.141 -13.216  1.00  0.00     0.134 A 
ATOM     58  C   UNL     1      10.128   3.851 -12.223  1.00  0.00     0.134 A 
ATOM     59  F   UNL     1       6.627   4.104 -13.160  1.00  0.00    -0.206 F 
ATOM     60  C   UNL     1       8.564   4.489 -14.429  1.00  0.00     0.040 A 
ATOM     61  C   UNL     1      10.736   4.219 -13.423  1.00  0.00     0.040 A 
ATOM     62  F   UNL     1      10.918   3.548 -11.183  1.00  0.00    -0.206 F 
ATOM     63  C   UNL     1       9.953   4.536 -14.532  1.00  0.00     0.006 A 
ENDBRANCH  39  56
ENDBRANCH  13  14
ENDBRANCH   6   8
ENDBRANCH   3   4
ENDBRANCH   2   3
ENDBRANCH   1   2
BRANCH   1  64
ATOM     64  C   UNL     1       4.878  -1.112   4.242  1.00  0.00     0.116 C 
BRANCH  64  65
ATOM     65  N   UNL     1       6.279  -1.478   4.109  1.00  0.00    -0.352 N 
ATOM     66  C   UNL     1       7.049  -2.274   4.921  1.00  0.00     0.252 C 
ATOM     67  H   UNL     1       6.740  -1.102   3.325  1.00  0.00     0.163 HD
ATOM     68  O   UNL     1       8.223  -2.495   4.639  1.00  0.00    -0.269 OA
BRANCH  66  69
ATOM     69  C   UNL     1       6.511  -2.761   6.204  1.00  0.00     0.058 A 
ATOM     70  C   UNL     1       7.182  -2.337   7.352  1.00  0.00     0.017 A 
ATOM     71  C   UNL     1       5.394  -3.586   6.330  1.00  0.00     0.055 A 
ATOM     72  C   UNL     1       6.661  -2.626   8.614  1.00  0.00     0.027 A 
ATOM     73  C   UNL     1       4.843  -3.814   7.598  1.00  0.00     0.047 A 
ATOM     74  Cl  UNL     1       4.653  -4.365   4.979  1.00  0.00    -0.083 Cl
ATOM     75  C   UNL     1       5.433  -3.273   8.748  1.00  0.00     0.043 A 
BRANCH  75  76
ATOM     76  N   UNL     1       4.719  -3.413   9.956  1.00  0.00    -0.322 N 
ATOM     77  C   UNL     1       4.845  -2.829  11.199  1.00  0.00     0.257 C 
ATOM     78  H   UNL     1       3.979  -4.060   9.901  1.00  0.00     0.170 HD
ATOM     79  O   UNL     1       4.103  -3.162  12.120  1.00  0.00    -0.269 OA
BRANCH  77  80
ATOM     80  C   UNL     1       5.877  -1.822  11.480  1.00  0.00     0.059 A 
ATOM     81  C   UNL     1       6.946  -2.231  12.291  1.00  0.00     0.022 A 
ATOM     82  C   UNL     1       5.854  -0.536  10.922  1.00  0.00     0.060 A 
ATOM     83  C   UNL     1       8.050  -1.394  12.457  1.00  0.00     0.086 A 
ATOM     84  C   UNL     1       6.963   0.301  11.076  1.00  0.00     0.107 A 
ATOM     85  Cl  UNL     1       4.526   0.041   9.983  1.00  0.00    -0.083 Cl
ATOM     86  C   UNL     1       8.068  -0.146  11.819  1.00  0.00     0.270 A 
BRANCH  86  87
ATOM     87  N   UNL     1       9.278   0.681  11.885  1.00  0.00     0.062 N 
ATOM     88  O   UNL     1      10.153   0.354  12.698  1.00  0.00    -0.258 OA
ATOM     89  O   UNL     1       9.359   1.638  11.102  1.00  0.00    -0.258 OA
ENDBRANCH  86  87
ENDBRANCH  77  80
ENDBRANCH  75  76
ENDBRANCH  66  69
ENDBRANCH  64  65
ENDBRANCH   1  64
TORSDOF 14
