REMARK SMILES CN(C(=O)N1CCC(C(=O)NCCCCNC(=O)c2ccc(-c3c4nc(c(-c5c(F)cccc5F)c5ccc([nH]5)c(-c5c(F)cccc5F)c5nc(c(-c6c(F)cccc6F)c6ccc3[nH]6)C=C5)C=C4)cc2)CC1)[C@H]1CCSC1
REMARK SMILES IDX 13 1 12 2 11 3 9 4 10 5 8 7 3 8 4 9 5 10 6 11 74 12 7 13
REMARK SMILES IDX 73 14 2 15 1 16 75 17 76 18 79 19 77 20 78 21 14 22 15 23
REMARK SMILES IDX 16 24 17 25 18 27 19 28 20 29 72 30 21 31 71 32 22 33 23 34
REMARK SMILES IDX 24 35 65 36 25 37 70 38 64 39 66 40 26 41 69 42 63 43 62 44
REMARK SMILES IDX 27 46 53 47 36 48 52 49 37 50 40 51 51 52 67 53 38 54 39 55
REMARK SMILES IDX 50 57 68 58 41 59 28 60 29 61 34 62 30 63 31 64 33 65 35 66
REMARK SMILES IDX 32 67 54 68 55 69 60 70 56 71 57 72 59 73 61 74 58 75 42 76
REMARK SMILES IDX 43 77 48 78 44 79 45 80 47 81 49 82 46 83
REMARK H PARENT 11 6 16 26 66 45 40 56
REMARK Flexibility Score: inf
ROOT
ATOM      1  C   UNL     1       1.647   1.214  -9.343  1.00  0.00     0.023 C 
ENDROOT
BRANCH   1   2
ATOM      2  C   UNL     1       0.313   1.697  -8.782  1.00  0.00     0.116 C 
BRANCH   2   3
ATOM      3  N   UNL     1      -0.789   1.417  -9.688  1.00  0.00    -0.356 N 
ATOM      4  C   UNL     1      -1.870   0.602  -9.547  1.00  0.00     0.223 C 
ATOM      5  O   UNL     1      -2.664   0.529 -10.488  1.00  0.00    -0.275 OA
ATOM      6  H   UNL     1      -0.748   1.898 -10.546  1.00  0.00     0.163 HD
BRANCH   4   7
ATOM      7  C   UNL     1      -2.119  -0.184  -8.267  1.00  0.00     0.082 C 
ATOM      8  C   UNL     1      -0.091  -0.452  -4.906  1.00  0.00     0.320 C 
ATOM      9  O   UNL     1       0.989  -0.400  -5.490  1.00  0.00    -0.248 OA
ATOM     10  N   UNL     1      -1.229  -0.816  -5.604  1.00  0.00    -0.325 N 
ATOM     11  C   UNL     1      -1.117  -1.838  -6.632  1.00  0.00     0.122 C 
ATOM     12  C   UNL     1      -2.383   0.064  -5.732  1.00  0.00     0.122 C 
ATOM     13  C   UNL     1      -1.024  -1.232  -8.022  1.00  0.00     0.035 C 
ATOM     14  C   UNL     1      -2.406   0.761  -7.088  1.00  0.00     0.035 C 
BRANCH   8  15
ATOM     15  N   UNL     1      -0.232  -0.252  -3.536  1.00  0.00    -0.324 N 
ATOM     16  C   UNL     1      -1.494  -0.425  -2.821  1.00  0.00     0.149 C 
BRANCH  15  17
ATOM     17  C   UNL     1       0.904   0.160  -2.685  1.00  0.00     0.097 C 
ATOM     18  C   UNL     1       2.292  -0.409  -3.003  1.00  0.00     0.037 C 
ATOM     19  C   UNL     1       1.093   1.673  -2.593  1.00  0.00     0.094 C 
ATOM     20  C   UNL     1       3.221   0.159  -1.940  1.00  0.00     0.072 C 
ATOM     21  S   UNL     1       2.683   1.884  -1.726  1.00  0.00    -0.160 SA
ENDBRANCH  15  17
ENDBRANCH   8  15
ENDBRANCH   4   7
ENDBRANCH   2   3
ENDBRANCH   1   2
BRANCH   1  22
ATOM     22  C   UNL     1       2.134   1.980 -10.572  1.00  0.00     0.023 C 
BRANCH  22  23
ATOM     23  C   UNL     1       2.222   3.491 -10.399  1.00  0.00     0.116 C 
BRANCH  23  24
ATOM     24  N   UNL     1       3.074   3.894  -9.290  1.00  0.00    -0.352 N 
ATOM     25  C   UNL     1       4.032   4.878  -9.253  1.00  0.00     0.251 C 
ATOM     26  H   UNL     1       2.947   3.393  -8.453  1.00  0.00     0.163 HD
ATOM     27  O   UNL     1       4.748   5.016  -8.266  1.00  0.00    -0.269 OA
BRANCH  25  28
ATOM     28  C   UNL     1       4.221   5.750 -10.430  1.00  0.00     0.039 A 
ATOM     29  C   UNL     1       5.512   5.944 -10.924  1.00  0.00     0.014 A 
ATOM     30  C   UNL     1       3.124   6.341 -11.063  1.00  0.00     0.014 A 
ATOM     31  C   UNL     1       5.697   6.672 -12.100  1.00  0.00     0.010 A 
ATOM     32  C   UNL     1       3.302   6.999 -12.275  1.00  0.00     0.010 A 
ATOM     33  C   UNL     1       4.590   7.170 -12.806  1.00  0.00    -0.014 A 
BRANCH  33  34
ATOM     34  C   UNL     1       4.756   7.872 -14.103  1.00  0.00     0.031 A 
ATOM     35  C   UNL     1       4.363   9.316 -14.233  1.00  0.00     0.074 A 
ATOM     36  C   UNL     1       5.198   7.191 -15.178  1.00  0.00     0.049 A 
ATOM     37  N   UNL     1       4.369  10.083 -15.294  1.00  0.00    -0.248 NA
ATOM     38  C   UNL     1       3.870   9.979 -13.015  1.00  0.00     0.031 C 
ATOM     39  C   UNL     1       5.570   5.775 -15.191  1.00  0.00     0.029 A 
ATOM     40  N   UNL     1       5.402   7.600 -16.472  1.00  0.00    -0.354 N 
ATOM     41  C   UNL     1       3.870  11.309 -14.875  1.00  0.00     0.074 A 
ATOM     42  C   UNL     1       3.517  11.168 -13.479  1.00  0.00     0.031 C 
ATOM     43  C   UNL     1       5.986   5.441 -16.424  1.00  0.00     0.029 A 
ATOM     44  C   UNL     1       5.872   6.606 -17.296  1.00  0.00     0.049 A 
ATOM     45  H   UNL     1       5.227   8.518 -16.781  1.00  0.00     0.167 HD
ATOM     46  C   UNL     1       3.742  12.457 -15.582  1.00  0.00     0.037 A 
ATOM     47  C   UNL     1       6.175   6.632 -18.607  1.00  0.00     0.037 A 
ATOM     48  C   UNL     1       4.115  12.601 -16.964  1.00  0.00     0.049 A 
ATOM     49  C   UNL     1       6.006   7.914 -19.375  1.00  0.00     0.074 A 
ATOM     50  C   UNL     1       4.078  13.737 -17.754  1.00  0.00     0.029 A 
ATOM     51  N   UNL     1       4.592  11.573 -17.763  1.00  0.00    -0.354 N 
ATOM     52  N   UNL     1       5.596   9.085 -18.950  1.00  0.00    -0.248 NA
ATOM     53  C   UNL     1       6.344   7.877 -20.804  1.00  0.00     0.031 C 
ATOM     54  C   UNL     1       4.492  13.386 -19.044  1.00  0.00     0.029 A 
ATOM     55  C   UNL     1       4.832  12.042 -19.044  1.00  0.00     0.049 A 
ATOM     56  H   UNL     1       4.739  10.646 -17.464  1.00  0.00     0.167 HD
ATOM     57  C   UNL     1       5.658   9.931 -20.050  1.00  0.00     0.074 A 
ATOM     58  C   UNL     1       6.154   9.141 -21.158  1.00  0.00     0.031 C 
ATOM     59  C   UNL     1       5.334  11.244 -20.134  1.00  0.00     0.037 A 
BRANCH  46  60
ATOM     60  C   UNL     1       3.174  13.647 -14.863  1.00  0.00     0.057 A 
ATOM     61  C   UNL     1       3.886  14.309 -13.853  1.00  0.00     0.134 A 
ATOM     62  C   UNL     1       1.908  14.146 -15.192  1.00  0.00     0.134 A 
ATOM     63  F   UNL     1       5.099  13.875 -13.480  1.00  0.00    -0.206 F 
ATOM     64  C   UNL     1       3.346  15.402 -13.175  1.00  0.00     0.040 A 
ATOM     65  C   UNL     1       1.369  15.257 -14.540  1.00  0.00     0.040 A 
ATOM     66  F   UNL     1       1.174  13.564 -16.153  1.00  0.00    -0.206 F 
ATOM     67  C   UNL     1       2.085  15.883 -13.522  1.00  0.00     0.006 A 
ENDBRANCH  46  60
BRANCH  47  68
ATOM     68  C   UNL     1       6.703   5.415 -19.274  1.00  0.00     0.057 A 
ATOM     69  C   UNL     1       8.037   5.349 -19.693  1.00  0.00     0.134 A 
ATOM     70  C   UNL     1       5.894   4.299 -19.516  1.00  0.00     0.134 A 
ATOM     71  F   UNL     1       8.856   6.395 -19.506  1.00  0.00    -0.206 F 
ATOM     72  C   UNL     1       8.544   4.225 -20.346  1.00  0.00     0.040 A 
ATOM     73  C   UNL     1       6.394   3.158 -20.147  1.00  0.00     0.040 A 
ATOM     74  F   UNL     1       4.609   4.298 -19.134  1.00  0.00    -0.206 F 
ATOM     75  C   UNL     1       7.722   3.122 -20.570  1.00  0.00     0.006 A 
ENDBRANCH  47  68
BRANCH  59  76
ATOM     76  C   UNL     1       5.545  11.919 -21.458  1.00  0.00     0.057 A 
ATOM     77  C   UNL     1       4.713  11.670 -22.557  1.00  0.00     0.134 A 
ATOM     78  C   UNL     1       6.572  12.857 -21.623  1.00  0.00     0.134 A 
ATOM     79  F   UNL     1       3.720  10.772 -22.468  1.00  0.00    -0.206 F 
ATOM     80  C   UNL     1       4.910  12.313 -23.780  1.00  0.00     0.040 A 
ATOM     81  C   UNL     1       6.762  13.526 -22.832  1.00  0.00     0.040 A 
ATOM     82  F   UNL     1       7.399  13.147 -20.608  1.00  0.00    -0.206 F 
ATOM     83  C   UNL     1       5.933  13.250 -23.917  1.00  0.00     0.006 A 
ENDBRANCH  59  76
ENDBRANCH  33  34
ENDBRANCH  25  28
ENDBRANCH  23  24
ENDBRANCH  22  23
ENDBRANCH   1  22
TORSDOF 13
