REMARK SMILES C[C@@H](C(=O)NCCCCNC(=O)c1ccc(-c2c3nc(c(-c4c(F)cccc4F)c4ccc([nH]4)c(-c4c(F)cccc4F)c4nc(c(-c5c(F)cccc5F)c5ccc2[nH]5)C=C4)C=C3)cc1)c1ccc(Cc2ccoc2)cc1F
REMARK SMILES IDX 7 1 6 2 5 3 3 4 4 5 2 7 1 8 67 9 68 10 78 11 69 12 77 13
REMARK SMILES IDX 79 14 70 15 71 16 72 17 73 18 76 19 74 20 75 21 8 22 9 23
REMARK SMILES IDX 10 24 11 25 12 27 13 28 14 29 66 30 15 31 65 32 16 33 17 34
REMARK SMILES IDX 18 35 59 36 19 37 64 38 58 39 60 40 20 41 63 42 57 43 56 44
REMARK SMILES IDX 21 46 47 47 30 48 46 49 31 50 34 51 45 52 61 53 32 54 33 55
REMARK SMILES IDX 44 57 62 58 35 59 22 60 23 61 28 62 24 63 25 64 27 65 29 66
REMARK SMILES IDX 26 67 48 68 49 69 54 70 50 71 51 72 53 73 55 74 52 75 36 76
REMARK SMILES IDX 37 77 42 78 38 79 39 80 41 81 43 82 40 83
REMARK H PARENT 5 6 10 26 60 45 34 56
REMARK Flexibility Score: inf
ROOT
ATOM      1  C   UNL     1       4.204  -1.128  -0.091  1.00  0.00     0.023 C 
ENDROOT
BRANCH   1   2
ATOM      2  C   UNL     1       3.408  -0.847  -1.367  1.00  0.00     0.116 C 
BRANCH   2   3
ATOM      3  N   UNL     1       2.409  -1.861  -1.639  1.00  0.00    -0.356 N 
ATOM      4  C   UNL     1       1.042  -1.789  -1.631  1.00  0.00     0.227 C 
ATOM      5  O   UNL     1       0.457  -2.733  -2.166  1.00  0.00    -0.274 OA
ATOM      6  H   UNL     1       2.773  -2.747  -1.868  1.00  0.00     0.163 HD
BRANCH   4   7
ATOM      7  C   UNL     1       0.330  -0.542  -1.073  1.00  0.00     0.108 C 
ATOM      8  C   UNL     1       0.669  -0.233   0.387  1.00  0.00     0.023 C 
BRANCH   7   9
ATOM      9  C   UNL     1      -1.192  -0.557  -1.178  1.00  0.00    -0.000 A 
ATOM     10  C   UNL     1      -1.862   0.615  -1.565  1.00  0.00     0.008 A 
ATOM     11  C   UNL     1      -1.970  -1.648  -0.773  1.00  0.00     0.127 A 
ATOM     12  C   UNL     1      -3.259   0.676  -1.569  1.00  0.00     0.004 A 
ATOM     13  C   UNL     1      -3.365  -1.601  -0.796  1.00  0.00     0.043 A 
ATOM     14  F   UNL     1      -1.388  -2.756  -0.292  1.00  0.00    -0.207 F 
ATOM     15  C   UNL     1      -4.030  -0.433  -1.190  1.00  0.00    -0.041 A 
BRANCH  15  16
ATOM     16  C   UNL     1      -5.537  -0.368  -1.212  1.00  0.00     0.074 C 
BRANCH  16  17
ATOM     17  C   UNL     1      -5.983   0.177   0.103  1.00  0.00    -0.005 A 
ATOM     18  C   UNL     1      -5.832   1.503   0.610  1.00  0.00     0.046 A 
ATOM     19  C   UNL     1      -6.706  -0.493   1.072  1.00  0.00     0.198 A 
ATOM     20  C   UNL     1      -6.458   1.534   1.833  1.00  0.00     0.195 A 
ATOM     21  O   UNL     1      -6.994   0.322   2.119  1.00  0.00    -0.472 OA
ENDBRANCH  16  17
ENDBRANCH  15  16
ENDBRANCH   7   9
ENDBRANCH   4   7
ENDBRANCH   2   3
ENDBRANCH   1   2
BRANCH   1  22
ATOM     22  C   UNL     1       4.984  -2.443  -0.078  1.00  0.00     0.023 C 
BRANCH  22  23
ATOM     23  C   UNL     1       5.940  -2.654  -1.245  1.00  0.00     0.116 C 
BRANCH  23  24
ATOM     24  N   UNL     1       6.948  -1.611  -1.351  1.00  0.00    -0.352 N 
ATOM     25  C   UNL     1       8.301  -1.729  -1.559  1.00  0.00     0.251 C 
ATOM     26  H   UNL     1       6.614  -0.690  -1.262  1.00  0.00     0.163 HD
ATOM     27  O   UNL     1       9.022  -0.737  -1.500  1.00  0.00    -0.269 OA
BRANCH  25  28
ATOM     28  C   UNL     1       8.895  -3.058  -1.818  1.00  0.00     0.039 A 
ATOM     29  C   UNL     1      10.049  -3.426  -1.121  1.00  0.00     0.014 A 
ATOM     30  C   UNL     1       8.313  -3.943  -2.730  1.00  0.00     0.014 A 
ATOM     31  C   UNL     1      10.577  -4.709  -1.284  1.00  0.00     0.010 A 
ATOM     32  C   UNL     1       8.798  -5.244  -2.837  1.00  0.00     0.010 A 
ATOM     33  C   UNL     1       9.932  -5.642  -2.112  1.00  0.00    -0.014 A 
BRANCH  33  34
ATOM     34  C   UNL     1      10.419  -7.041  -2.218  1.00  0.00     0.031 A 
ATOM     35  C   UNL     1      10.929  -7.570  -3.529  1.00  0.00     0.074 A 
ATOM     36  C   UNL     1      10.338  -7.855  -1.147  1.00  0.00     0.049 A 
ATOM     37  N   UNL     1      11.331  -8.779  -3.832  1.00  0.00    -0.248 NA
ATOM     38  C   UNL     1      10.972  -6.624  -4.655  1.00  0.00     0.031 C 
ATOM     39  C   UNL     1       9.816  -7.476   0.168  1.00  0.00     0.029 A 
ATOM     40  N   UNL     1      10.683  -9.176  -0.998  1.00  0.00    -0.354 N 
ATOM     41  C   UNL     1      11.659  -8.741  -5.181  1.00  0.00     0.074 A 
ATOM     42  C   UNL     1      11.365  -7.405  -5.651  1.00  0.00     0.031 C 
ATOM     43  C   UNL     1       9.894  -8.533   0.993  1.00  0.00     0.029 A 
ATOM     44  C   UNL     1      10.434  -9.672   0.259  1.00  0.00     0.049 A 
ATOM     45  H   UNL     1      11.072  -9.716  -1.723  1.00  0.00     0.167 HD
ATOM     46  C   UNL     1      12.180  -9.725  -5.953  1.00  0.00     0.037 A 
ATOM     47  C   UNL     1      10.610 -10.910   0.760  1.00  0.00     0.037 A 
ATOM     48  C   UNL     1      12.494 -11.047  -5.479  1.00  0.00     0.049 A 
ATOM     49  C   UNL     1      11.183 -11.985  -0.122  1.00  0.00     0.074 A 
ATOM     50  C   UNL     1      13.081 -12.093  -6.169  1.00  0.00     0.029 A 
ATOM     51  N   UNL     1      12.245 -11.506  -4.194  1.00  0.00    -0.354 N 
ATOM     52  N   UNL     1      11.556 -11.914  -1.376  1.00  0.00    -0.248 NA
ATOM     53  C   UNL     1      11.364 -13.312   0.484  1.00  0.00     0.031 C 
ATOM     54  C   UNL     1      13.146 -13.199  -5.316  1.00  0.00     0.029 A 
ATOM     55  C   UNL     1      12.646 -12.826  -4.079  1.00  0.00     0.049 A 
ATOM     56  H   UNL     1      11.842 -10.972  -3.471  1.00  0.00     0.167 HD
ATOM     57  C   UNL     1      12.044 -13.174  -1.700  1.00  0.00     0.074 A 
ATOM     58  C   UNL     1      11.932 -13.985  -0.506  1.00  0.00     0.031 C 
ATOM     59  C   UNL     1      12.540 -13.618  -2.880  1.00  0.00     0.037 A 
BRANCH  46  60
ATOM     60  C   UNL     1      12.450  -9.408  -7.395  1.00  0.00     0.057 A 
ATOM     61  C   UNL     1      13.490  -8.551  -7.780  1.00  0.00     0.134 A 
ATOM     62  C   UNL     1      11.695 -10.004  -8.413  1.00  0.00     0.134 A 
ATOM     63  F   UNL     1      14.244  -7.939  -6.855  1.00  0.00    -0.206 F 
ATOM     64  C   UNL     1      13.756  -8.283  -9.124  1.00  0.00     0.040 A 
ATOM     65  C   UNL     1      11.968  -9.765  -9.761  1.00  0.00     0.040 A 
ATOM     66  F   UNL     1      10.689 -10.840  -8.115  1.00  0.00    -0.206 F 
ATOM     67  C   UNL     1      12.999  -8.898 -10.119  1.00  0.00     0.006 A 
ENDBRANCH  46  60
BRANCH  47  68
ATOM     68  C   UNL     1      10.256 -11.201   2.172  1.00  0.00     0.057 A 
ATOM     69  C   UNL     1      11.246 -11.472   3.124  1.00  0.00     0.134 A 
ATOM     70  C   UNL     1       8.924 -11.236   2.601  1.00  0.00     0.134 A 
ATOM     71  F   UNL     1      12.540 -11.472   2.770  1.00  0.00    -0.206 F 
ATOM     72  C   UNL     1      10.925 -11.792   4.444  1.00  0.00     0.040 A 
ATOM     73  C   UNL     1       8.589 -11.529   3.924  1.00  0.00     0.040 A 
ATOM     74  F   UNL     1       7.928 -10.979   1.740  1.00  0.00    -0.206 F 
ATOM     75  C   UNL     1       9.592 -11.817   4.848  1.00  0.00     0.006 A 
ENDBRANCH  47  68
BRANCH  59  76
ATOM     76  C   UNL     1      13.037 -15.033  -2.928  1.00  0.00     0.057 A 
ATOM     77  C   UNL     1      12.163 -16.127  -2.907  1.00  0.00     0.134 A 
ATOM     78  C   UNL     1      14.408 -15.302  -3.034  1.00  0.00     0.134 A 
ATOM     79  F   UNL     1      10.839 -15.938  -2.793  1.00  0.00    -0.206 F 
ATOM     80  C   UNL     1      12.636 -17.439  -2.966  1.00  0.00     0.040 A 
ATOM     81  C   UNL     1      14.891 -16.608  -3.122  1.00  0.00     0.040 A 
ATOM     82  F   UNL     1      15.298 -14.299  -3.068  1.00  0.00    -0.206 F 
ATOM     83  C   UNL     1      14.003 -17.682  -3.082  1.00  0.00     0.006 A 
ENDBRANCH  59  76
ENDBRANCH  33  34
ENDBRANCH  25  28
ENDBRANCH  23  24
ENDBRANCH  22  23
ENDBRANCH   1  22
TORSDOF 14
