REMARK SMILES Cc1ccc(CNc2ccc(C(=O)NCCCCNC(=O)c3ccc(-c4c5nc(c(-c6c(F)cccc6F)c6ccc([nH]6)c(-c6c(F)cccc6F)c6nc(c(-c7c(F)cccc7F)c7ccc4[nH]7)C=C6)C=C5)cc3)cc2Br)cc1
REMARK SMILES IDX 16 1 15 2 14 3 12 4 13 5 11 7 8 8 9 9 77 10 10 11 76 12
REMARK SMILES IDX 78 13 7 14 6 16 5 17 1 18 2 19 3 20 80 21 4 22 79 23 17 24
REMARK SMILES IDX 18 25 19 26 20 27 21 29 22 30 23 31 75 32 24 33 74 34 25 35
REMARK SMILES IDX 26 36 27 37 68 38 28 39 73 40 67 41 69 42 29 43 72 44 66 45
REMARK SMILES IDX 65 46 30 48 56 49 39 50 55 51 40 52 43 53 54 54 70 55 41 56
REMARK SMILES IDX 42 57 53 59 71 60 44 61 31 62 32 63 37 64 33 65 34 66 36 67
REMARK SMILES IDX 38 68 35 69 57 70 58 71 63 72 59 73 60 74 62 75 64 76 61 77
REMARK SMILES IDX 45 78 46 79 51 80 47 81 48 82 50 83 52 84 49 85
REMARK H PARENT 14 6 7 15 19 28 69 47 43 58
REMARK Flexibility Score: inf
ROOT
ATOM      1  C   UNL     1     -10.135  -3.515   0.221  1.00  0.00     0.023 C 
ENDROOT
BRANCH   1   2
ATOM      2  C   UNL     1      -8.905  -4.053   0.953  1.00  0.00     0.116 C 
BRANCH   2   3
ATOM      3  N   UNL     1      -8.183  -5.085   0.222  1.00  0.00    -0.352 N 
ATOM      4  C   UNL     1      -7.022  -5.098  -0.516  1.00  0.00     0.251 C 
ATOM      5  O   UNL     1      -6.720  -6.151  -1.081  1.00  0.00    -0.269 OA
ATOM      6  H   UNL     1      -8.621  -5.965   0.265  1.00  0.00     0.163 HD
BRANCH   4   7
ATOM      7  C   UNL     1      -6.136  -3.918  -0.693  1.00  0.00     0.041 A 
ATOM      8  C   UNL     1      -4.402  -1.699  -1.137  1.00  0.00     0.049 A 
ATOM      9  C   UNL     1      -5.172  -1.810   0.022  1.00  0.00     0.028 A 
ATOM     10  C   UNL     1      -4.503  -2.751  -2.069  1.00  0.00     0.041 A 
ATOM     11  C   UNL     1      -5.971  -2.929   0.270  1.00  0.00     0.016 A 
ATOM     12  C   UNL     1      -5.362  -3.839  -1.859  1.00  0.00     0.031 A 
ATOM     13  Br  UNL     1      -3.426  -2.764  -3.640  1.00  0.00    -0.049 Br
BRANCH   8  14
ATOM     14  N   UNL     1      -3.558  -0.624  -1.352  1.00  0.00    -0.380 N 
ATOM     15  H   UNL     1      -3.270  -0.451  -2.278  1.00  0.00     0.160 HD
BRANCH  14  16
ATOM     16  C   UNL     1      -3.063   0.268  -0.320  1.00  0.00     0.148 C 
BRANCH  16  17
ATOM     17  C   UNL     1      -1.558   0.199  -0.245  1.00  0.00    -0.029 A 
ATOM     18  C   UNL     1       2.742   0.003   0.059  1.00  0.00     0.044 C 
ATOM     19  C   UNL     1       1.247   0.081  -0.028  1.00  0.00    -0.051 A 
ATOM     20  C   UNL     1       0.490  -1.095  -0.046  1.00  0.00     0.004 A 
ATOM     21  C   UNL     1       0.593   1.315  -0.103  1.00  0.00     0.004 A 
ATOM     22  C   UNL     1      -0.900  -1.036  -0.145  1.00  0.00     0.006 A 
ATOM     23  C   UNL     1      -0.798   1.374  -0.207  1.00  0.00     0.006 A 
ENDBRANCH  16  17
ENDBRANCH  14  16
ENDBRANCH   8  14
ENDBRANCH   4   7
ENDBRANCH   2   3
ENDBRANCH   1   2
BRANCH   1  24
ATOM     24  C   UNL     1     -11.307  -4.486   0.095  1.00  0.00     0.023 C 
BRANCH  24  25
ATOM     25  C   UNL     1     -11.894  -4.962   1.419  1.00  0.00     0.116 C 
BRANCH  25  26
ATOM     26  N   UNL     1     -12.731  -4.000   2.122  1.00  0.00    -0.352 N 
ATOM     27  C   UNL     1     -13.261  -4.051   3.407  1.00  0.00     0.251 C 
ATOM     28  H   UNL     1     -12.957  -3.190   1.610  1.00  0.00     0.163 HD
ATOM     29  O   UNL     1     -14.015  -3.172   3.782  1.00  0.00    -0.269 OA
BRANCH  27  30
ATOM     30  C   UNL     1     -12.793  -5.087   4.373  1.00  0.00     0.039 A 
ATOM     31  C   UNL     1     -12.575  -4.688   5.700  1.00  0.00     0.014 A 
ATOM     32  C   UNL     1     -12.363  -6.340   3.956  1.00  0.00     0.014 A 
ATOM     33  C   UNL     1     -11.683  -5.405   6.495  1.00  0.00     0.010 A 
ATOM     34  C   UNL     1     -11.389  -6.987   4.689  1.00  0.00     0.010 A 
ATOM     35  C   UNL     1     -10.994  -6.473   5.926  1.00  0.00    -0.014 A 
BRANCH  35  36
ATOM     36  C   UNL     1      -9.753  -7.008   6.473  1.00  0.00     0.031 A 
ATOM     37  C   UNL     1      -9.711  -8.348   7.088  1.00  0.00     0.074 A 
ATOM     38  C   UNL     1      -8.611  -6.310   6.283  1.00  0.00     0.049 A 
ATOM     39  N   UNL     1      -8.809  -8.741   7.923  1.00  0.00    -0.248 NA
ATOM     40  C   UNL     1     -10.729  -9.357   6.826  1.00  0.00     0.031 C 
ATOM     41  C   UNL     1      -7.240  -6.780   6.451  1.00  0.00     0.029 A 
ATOM     42  N   UNL     1      -8.482  -4.930   6.068  1.00  0.00    -0.354 N 
ATOM     43  C   UNL     1      -8.953 -10.101   8.089  1.00  0.00     0.074 A 
ATOM     44  C   UNL     1     -10.201 -10.422   7.436  1.00  0.00     0.031 C 
ATOM     45  C   UNL     1      -6.434  -5.718   6.611  1.00  0.00     0.029 A 
ATOM     46  C   UNL     1      -7.286  -4.544   6.708  1.00  0.00     0.049 A 
ATOM     47  H   UNL     1      -9.101  -4.348   5.570  1.00  0.00     0.167 HD
ATOM     48  C   UNL     1      -7.930 -10.822   8.637  1.00  0.00     0.037 A 
ATOM     49  C   UNL     1      -7.299  -3.680   7.765  1.00  0.00     0.037 A 
ATOM     50  C   UNL     1      -6.831  -9.946   9.043  1.00  0.00     0.049 A 
ATOM     51  C   UNL     1      -6.751  -4.268   9.044  1.00  0.00     0.074 A 
ATOM     52  C   UNL     1      -5.647  -9.590   8.415  1.00  0.00     0.029 A 
ATOM     53  N   UNL     1      -7.006  -9.049  10.091  1.00  0.00    -0.354 N 
ATOM     54  N   UNL     1      -6.613  -5.547   9.255  1.00  0.00    -0.248 NA
ATOM     55  C   UNL     1      -6.352  -3.466  10.199  1.00  0.00     0.031 C 
ATOM     56  C   UNL     1      -5.146  -8.427   9.048  1.00  0.00     0.029 A 
ATOM     57  C   UNL     1      -6.011  -8.088  10.074  1.00  0.00     0.049 A 
ATOM     58  H   UNL     1      -7.735  -9.091  10.751  1.00  0.00     0.167 HD
ATOM     59  C   UNL     1      -6.168  -5.753  10.533  1.00  0.00     0.074 A 
ATOM     60  C   UNL     1      -5.994  -4.420  11.077  1.00  0.00     0.031 C 
ATOM     61  C   UNL     1      -5.998  -7.007  11.046  1.00  0.00     0.037 A 
BRANCH  48  62
ATOM     62  C   UNL     1      -7.792 -12.326   8.502  1.00  0.00     0.057 A 
ATOM     63  C   UNL     1      -6.521 -12.935   8.459  1.00  0.00     0.134 A 
ATOM     64  C   UNL     1      -8.861 -13.225   8.342  1.00  0.00     0.134 A 
ATOM     65  F   UNL     1      -5.401 -12.253   8.729  1.00  0.00    -0.206 F 
ATOM     66  C   UNL     1      -6.329 -14.287   8.139  1.00  0.00     0.040 A 
ATOM     67  C   UNL     1      -8.684 -14.566   7.967  1.00  0.00     0.040 A 
ATOM     68  F   UNL     1     -10.123 -12.866   8.604  1.00  0.00    -0.206 F 
ATOM     69  C   UNL     1      -7.411 -15.098   7.845  1.00  0.00     0.006 A 
ENDBRANCH  48  62
BRANCH  49  70
ATOM     70  C   UNL     1      -8.401  -2.684   7.695  1.00  0.00     0.057 A 
ATOM     71  C   UNL     1      -8.390  -1.738   6.655  1.00  0.00     0.134 A 
ATOM     72  C   UNL     1      -9.612  -2.882   8.364  1.00  0.00     0.134 A 
ATOM     73  F   UNL     1      -7.259  -1.503   5.970  1.00  0.00    -0.206 F 
ATOM     74  C   UNL     1      -9.556  -1.103   6.223  1.00  0.00     0.040 A 
ATOM     75  C   UNL     1     -10.785  -2.241   7.947  1.00  0.00     0.040 A 
ATOM     76  F   UNL     1      -9.709  -3.784   9.351  1.00  0.00    -0.206 F 
ATOM     77  C   UNL     1     -10.767  -1.382   6.849  1.00  0.00     0.006 A 
ENDBRANCH  49  70
BRANCH  61  78
ATOM     78  C   UNL     1      -5.721  -7.323  12.490  1.00  0.00     0.057 A 
ATOM     79  C   UNL     1      -6.234  -6.581  13.564  1.00  0.00     0.134 A 
ATOM     80  C   UNL     1      -5.034  -8.504  12.844  1.00  0.00     0.134 A 
ATOM     81  F   UNL     1      -6.993  -5.495  13.363  1.00  0.00    -0.206 F 
ATOM     82  C   UNL     1      -6.031  -6.956  14.898  1.00  0.00     0.040 A 
ATOM     83  C   UNL     1      -4.868  -8.914  14.169  1.00  0.00     0.040 A 
ATOM     84  F   UNL     1      -4.513  -9.318  11.913  1.00  0.00    -0.206 F 
ATOM     85  C   UNL     1      -5.356  -8.132  15.204  1.00  0.00     0.006 A 
ENDBRANCH  61  78
ENDBRANCH  35  36
ENDBRANCH  27  30
ENDBRANCH  25  26
ENDBRANCH  24  25
ENDBRANCH   1  24
TORSDOF 14
