REMARK SMILES O=C(NCCCCNC(=O)[C@H]1CC[C@@H](CNC(=O)[C@@H]2C[C@H]3CC[C@@H]2[NH2+]3)O1)c1ccc(-c2c3nc(c(-c4c(F)cccc4F)c4ccc([nH]4)c(-c4c(F)cccc4F)c4nc(c(-c5c(F)cccc5F)c5ccc2[nH]5)C=C4)C=C3)cc1
REMARK SMILES IDX 6 1 5 2 4 3 3 4 1 5 2 6 27 8 28 9 80 10 29 11 79 12 30 13
REMARK SMILES IDX 31 14 32 15 73 16 33 17 78 18 72 19 74 20 34 21 77 22 71 23
REMARK SMILES IDX 70 24 35 26 61 27 44 28 60 29 45 30 48 31 59 32 75 33 46 34
REMARK SMILES IDX 47 35 58 37 76 38 49 39 36 40 37 41 42 42 38 43 39 44 41 45
REMARK SMILES IDX 43 46 40 47 62 48 63 49 68 50 64 51 65 52 67 53 69 54 66 55
REMARK SMILES IDX 50 56 51 57 56 58 52 59 53 60 55 61 57 62 54 63 7 64 8 65
REMARK SMILES IDX 9 66 10 68 11 69 12 70 26 71 13 72 14 73 15 74 16 75 17 76
REMARK SMILES IDX 18 78 19 79 20 80 24 81 21 82 23 83 25 84 22 85
REMARK H PARENT 3 7 74 25 48 36 8 67 16 77 25 86 25 87
REMARK Flexibility Score: inf
ROOT
ATOM      1  C   UNL     1      10.005   5.339   5.994  1.00  0.00     0.023 C 
ENDROOT
BRANCH   1   2
ATOM      2  C   UNL     1      10.455   4.967   7.407  1.00  0.00     0.023 C 
BRANCH   2   3
ATOM      3  C   UNL     1      11.036   3.567   7.554  1.00  0.00     0.116 C 
BRANCH   3   4
ATOM      4  N   UNL     1      12.272   3.388   6.809  1.00  0.00    -0.352 N 
ATOM      5  O   UNL     1      14.473   2.963   6.534  1.00  0.00    -0.269 OA
ATOM      6  C   UNL     1      13.482   2.916   7.257  1.00  0.00     0.251 C 
ATOM      7  H   UNL     1      12.237   3.639   5.858  1.00  0.00     0.163 HD
BRANCH   6   8
ATOM      8  C   UNL     1      13.591   2.361   8.623  1.00  0.00     0.039 A 
ATOM      9  C   UNL     1      12.638   1.456   9.098  1.00  0.00     0.014 A 
ATOM     10  C   UNL     1      14.668   2.738   9.430  1.00  0.00     0.014 A 
ATOM     11  C   UNL     1      12.700   1.013  10.413  1.00  0.00     0.010 A 
ATOM     12  C   UNL     1      14.775   2.226  10.727  1.00  0.00     0.010 A 
ATOM     13  C   UNL     1      13.787   1.365  11.230  1.00  0.00    -0.014 A 
BRANCH  13  14
ATOM     14  C   UNL     1      13.940   0.709  12.552  1.00  0.00     0.031 A 
ATOM     15  C   UNL     1      13.868   1.488  13.832  1.00  0.00     0.074 A 
ATOM     16  C   UNL     1      14.157  -0.621  12.572  1.00  0.00     0.049 A 
ATOM     17  N   UNL     1      14.007   1.057  15.061  1.00  0.00    -0.248 NA
ATOM     18  C   UNL     1      13.615   2.933  13.729  1.00  0.00     0.031 C 
ATOM     19  C   UNL     1      14.268  -1.473  11.384  1.00  0.00     0.029 A 
ATOM     20  N   UNL     1      14.324  -1.491  13.618  1.00  0.00    -0.354 N 
ATOM     21  C   UNL     1      13.877   2.175  15.876  1.00  0.00     0.074 A 
ATOM     22  C   UNL     1      13.661   3.309  15.002  1.00  0.00     0.031 C 
ATOM     23  C   UNL     1      14.461  -2.743  11.767  1.00  0.00     0.029 A 
ATOM     24  C   UNL     1      14.557  -2.785  13.220  1.00  0.00     0.049 A 
ATOM     25  H   UNL     1      14.282  -1.215  14.562  1.00  0.00     0.167 HD
ATOM     26  C   UNL     1      13.935   2.238  17.227  1.00  0.00     0.037 A 
ATOM     27  C   UNL     1      14.855  -3.882  13.940  1.00  0.00     0.037 A 
ATOM     28  C   UNL     1      14.131   1.097  18.086  1.00  0.00     0.049 A 
ATOM     29  C   UNL     1      14.947  -3.765  15.433  1.00  0.00     0.074 A 
ATOM     30  C   UNL     1      14.123   1.052  19.470  1.00  0.00     0.029 A 
ATOM     31  N   UNL     1      14.388  -0.192  17.646  1.00  0.00    -0.354 N 
ATOM     32  N   UNL     1      14.744  -2.716  16.192  1.00  0.00    -0.248 NA
ATOM     33  C   UNL     1      15.319  -4.980  16.170  1.00  0.00     0.031 C 
ATOM     34  C   UNL     1      14.436  -0.251  19.867  1.00  0.00     0.029 A 
ATOM     35  C   UNL     1      14.587  -1.030  18.732  1.00  0.00     0.049 A 
ATOM     36  H   UNL     1      14.424  -0.471  16.703  1.00  0.00     0.167 HD
ATOM     37  C   UNL     1      14.956  -3.145  17.494  1.00  0.00     0.074 A 
ATOM     38  C   UNL     1      15.270  -4.557  17.425  1.00  0.00     0.031 C 
ATOM     39  C   UNL     1      14.906  -2.431  18.645  1.00  0.00     0.037 A 
BRANCH  26  40
ATOM     40  C   UNL     1      13.801   3.581  17.884  1.00  0.00     0.057 A 
ATOM     41  C   UNL     1      12.569   4.238  17.987  1.00  0.00     0.134 A 
ATOM     42  C   UNL     1      14.903   4.169  18.521  1.00  0.00     0.134 A 
ATOM     43  F   UNL     1      11.477   3.731  17.397  1.00  0.00    -0.206 F 
ATOM     44  C   UNL     1      12.438   5.432  18.700  1.00  0.00     0.040 A 
ATOM     45  C   UNL     1      14.779   5.351  19.253  1.00  0.00     0.040 A 
ATOM     46  F   UNL     1      16.110   3.586  18.470  1.00  0.00    -0.206 F 
ATOM     47  C   UNL     1      13.543   5.986  19.345  1.00  0.00     0.006 A 
ENDBRANCH  26  40
BRANCH  27  48
ATOM     48  C   UNL     1      15.139  -5.168  13.256  1.00  0.00     0.057 A 
ATOM     49  C   UNL     1      14.296  -6.274  13.405  1.00  0.00     0.134 A 
ATOM     50  C   UNL     1      16.276  -5.327  12.453  1.00  0.00     0.134 A 
ATOM     51  F   UNL     1      13.201  -6.191  14.175  1.00  0.00    -0.206 F 
ATOM     52  C   UNL     1      14.587  -7.500  12.803  1.00  0.00     0.040 A 
ATOM     53  C   UNL     1      16.562  -6.535  11.819  1.00  0.00     0.040 A 
ATOM     54  F   UNL     1      17.120  -4.302  12.263  1.00  0.00    -0.206 F 
ATOM     55  C   UNL     1      15.722  -7.631  12.004  1.00  0.00     0.006 A 
ENDBRANCH  27  48
BRANCH  39  56
ATOM     56  C   UNL     1      15.192  -3.172  19.916  1.00  0.00     0.057 A 
ATOM     57  C   UNL     1      16.487  -3.592  20.244  1.00  0.00     0.134 A 
ATOM     58  C   UNL     1      14.170  -3.442  20.835  1.00  0.00     0.134 A 
ATOM     59  F   UNL     1      17.506  -3.379  19.397  1.00  0.00    -0.206 F 
ATOM     60  C   UNL     1      16.752  -4.275  21.431  1.00  0.00     0.040 A 
ATOM     61  C   UNL     1      14.428  -4.099  22.038  1.00  0.00     0.040 A 
ATOM     62  F   UNL     1      12.909  -3.061  20.583  1.00  0.00    -0.206 F 
ATOM     63  C   UNL     1      15.722  -4.523  22.336  1.00  0.00     0.006 A 
ENDBRANCH  39  56
ENDBRANCH  13  14
ENDBRANCH   6   8
ENDBRANCH   3   4
ENDBRANCH   2   3
ENDBRANCH   1   2
BRANCH   1  64
ATOM     64  C   UNL     1       9.018   4.366   5.355  1.00  0.00     0.116 C 
BRANCH  64  65
ATOM     65  N   UNL     1       7.794   4.241   6.125  1.00  0.00    -0.354 N 
ATOM     66  C   UNL     1       6.516   4.541   5.740  1.00  0.00     0.249 C 
ATOM     67  H   UNL     1       7.897   3.896   7.042  1.00  0.00     0.163 HD
ATOM     68  O   UNL     1       5.606   4.373   6.552  1.00  0.00    -0.272 OA
BRANCH  66  69
ATOM     69  C   UNL     1       6.281   5.061   4.310  1.00  0.00     0.207 C 
ATOM     70  C   UNL     1       4.810   5.149   3.941  1.00  0.00     0.045 C 
ATOM     71  O   UNL     1       6.813   6.392   4.186  1.00  0.00    -0.363 OA
ATOM     72  C   UNL     1       4.447   6.544   4.382  1.00  0.00     0.037 C 
ATOM     73  C   UNL     1       5.715   7.322   4.074  1.00  0.00     0.138 C 
BRANCH  73  74
ATOM     74  C   UNL     1       5.924   8.505   5.027  1.00  0.00     0.147 C 
BRANCH  74  75
ATOM     75  N   UNL     1       6.967   9.394   4.537  1.00  0.00    -0.353 N 
ATOM     76  C   UNL     1       6.871  10.664   4.041  1.00  0.00     0.229 C 
ATOM     77  H   UNL     1       7.879   9.025   4.568  1.00  0.00     0.163 HD
ATOM     78  O   UNL     1       7.875  11.161   3.534  1.00  0.00    -0.275 OA
BRANCH  76  79
ATOM     79  C   UNL     1       5.520  11.368   4.100  1.00  0.00     0.142 C 
ATOM     80  C   UNL     1       5.458  12.703   3.334  1.00  0.00     0.084 C 
ATOM     81  C   UNL     1       5.167  11.807   5.534  1.00  0.00     0.195 C 
ATOM     82  C   UNL     1       4.987  13.690   4.407  1.00  0.00     0.183 C 
ATOM     83  C   UNL     1       3.666  12.106   5.623  1.00  0.00     0.072 C 
ATOM     84  N   UNL     1       5.719  13.175   5.574  1.00  0.00    -0.341 N 
ATOM     85  C   UNL     1       3.537  13.402   4.811  1.00  0.00     0.071 C 
ATOM     86  H   UNL     1       5.480  13.669   6.434  1.00  0.00     0.346 HD
ATOM     87  H   UNL     1       6.735  13.262   5.553  1.00  0.00     0.346 HD
ENDBRANCH  76  79
ENDBRANCH  74  75
ENDBRANCH  73  74
ENDBRANCH  66  69
ENDBRANCH  64  65
ENDBRANCH   1  64
TORSDOF 14
