REMARK SMILES NS(=O)(=O)c1ccc(-n2nc(NC(=O)NCCCCCCCCCCC(=O)NCCCCNC(=O)c3ccc(-c4c5nc(c(-c6c(F)cccc6F)c6ccc([nH]6)c(-c6c(F)cccc6F)c6nc(c(-c7c(F)cccc7F)c7ccc4[nH]7)C=C6)C=C5)cc3)cc2-c2ccccc2)cc1
REMARK SMILES IDX 22 1 21 2 20 3 19 4 18 5 17 6 16 7 15 8 12 9 13 10 14 12
REMARK SMILES IDX 11 14 9 15 10 16 91 17 90 18 8 19 5 20 6 21 99 22 7 23 98 24
REMARK SMILES IDX 2 25 3 26 4 27 1 28 92 31 93 32 97 33 94 34 96 35 95 36
REMARK SMILES IDX 23 37 24 38 25 39 26 40 27 41 28 42 29 44 30 45 31 46 32 47
REMARK SMILES IDX 33 48 34 49 35 51 36 52 37 53 89 54 38 55 88 56 39 57 40 58
REMARK SMILES IDX 41 59 82 60 42 61 87 62 81 63 83 64 43 65 86 66 80 67 79 68
REMARK SMILES IDX 44 70 70 71 53 72 69 73 54 74 57 75 68 76 84 77 55 78 56 79
REMARK SMILES IDX 67 81 85 82 58 83 45 84 46 85 51 86 47 87 48 88 50 89 52 90
REMARK SMILES IDX 49 91 71 92 72 93 77 94 73 95 74 96 76 97 78 98 75 99 59 100
REMARK SMILES IDX 60 101 65 102 61 103 62 104 64 105 66 106 63 107
REMARK H PARENT 12 11 15 13 1 29 1 30 28 43 33 50 83 69 57 80
REMARK Flexibility Score: inf
ROOT
ATOM      1  C   UNL     1       5.887  -3.276   0.210  1.00  0.00     0.000 C 
ENDROOT
BRANCH   1   2
ATOM      2  C   UNL     1       4.884  -3.639  -0.866  1.00  0.00     0.000 C 
BRANCH   2   3
ATOM      3  C   UNL     1       5.151  -2.954  -2.201  1.00  0.00     0.000 C 
BRANCH   3   4
ATOM      4  C   UNL     1       6.536  -3.178  -2.822  1.00  0.00     0.000 C 
BRANCH   4   5
ATOM      5  C   UNL     1       6.949  -4.636  -3.055  1.00  0.00     0.002 C 
BRANCH   5   6
ATOM      6  C   UNL     1       5.907  -5.534  -3.717  1.00  0.00     0.021 C 
BRANCH   6   7
ATOM      7  C   UNL     1       5.197  -4.947  -4.926  1.00  0.00     0.117 C 
BRANCH   7   8
ATOM      8  N   UNL     1       5.939  -4.931  -6.160  1.00  0.00    -0.338 N 
ATOM      9  N   UNL     1       4.146  -5.083  -7.721  1.00  0.00    -0.291 N 
ATOM     10  C   UNL     1       5.467  -5.008  -7.427  1.00  0.00     0.320 C 
ATOM     11  H   UNL     1       3.950  -5.502  -8.591  1.00  0.00     0.173 HD
ATOM     12  O   UNL     1       6.287  -5.144  -8.341  1.00  0.00    -0.248 OA
ATOM     13  H   UNL     1       6.916  -4.855  -6.071  1.00  0.00     0.165 HD
BRANCH   9  14
ATOM     14  C   UNL     1       3.028  -4.680  -7.024  1.00  0.00     0.157 A 
ATOM     15  N   UNL     1       1.829  -3.914  -5.453  1.00  0.00    -0.231 N 
ATOM     16  N   UNL     1       2.991  -3.709  -6.108  1.00  0.00    -0.149 NA
ATOM     17  C   UNL     1       0.952  -4.686  -6.206  1.00  0.00     0.076 A 
ATOM     18  C   UNL     1       1.735  -5.223  -7.213  1.00  0.00     0.078 A 
BRANCH  15  19
ATOM     19  C   UNL     1       1.645  -3.413  -4.135  1.00  0.00     0.065 A 
ATOM     20  C   UNL     1       1.113  -2.361  -1.611  1.00  0.00     0.082 A 
ATOM     21  C   UNL     1       0.724  -3.670  -1.907  1.00  0.00     0.024 A 
ATOM     22  C   UNL     1       1.809  -1.593  -2.550  1.00  0.00     0.024 A 
ATOM     23  C   UNL     1       0.985  -4.195  -3.172  1.00  0.00     0.030 A 
ATOM     24  C   UNL     1       2.096  -2.129  -3.811  1.00  0.00     0.030 A 
BRANCH  20  25
ATOM     25  S   UNL     1       0.678  -1.725  -0.020  1.00  0.00     0.238 S 
ATOM     26  O   UNL     1       1.409  -2.459   0.980  1.00  0.00    -0.207 OA
ATOM     27  O   UNL     1      -0.761  -1.564   0.018  1.00  0.00    -0.207 OA
BRANCH  25  28
ATOM     28  N   UNL     1       1.302  -0.166   0.013  1.00  0.00    -0.225 NA
ATOM     29  H   UNL     1       1.086   0.268   0.911  1.00  0.00     0.137 HD
ATOM     30  H   UNL     1       0.884   0.383  -0.738  1.00  0.00     0.137 HD
ENDBRANCH  25  28
ENDBRANCH  20  25
ENDBRANCH  15  19
BRANCH  17  31
ATOM     31  C   UNL     1      -0.474  -4.810  -5.910  1.00  0.00     0.000 A 
ATOM     32  C   UNL     1      -1.215  -3.662  -5.580  1.00  0.00     0.010 A 
ATOM     33  C   UNL     1      -1.106  -6.056  -5.878  1.00  0.00     0.010 A 
ATOM     34  C   UNL     1      -2.541  -3.760  -5.166  1.00  0.00     0.001 A 
ATOM     35  C   UNL     1      -2.443  -6.151  -5.479  1.00  0.00     0.001 A 
ATOM     36  C   UNL     1      -3.154  -5.008  -5.113  1.00  0.00     0.000 A 
ENDBRANCH  17  31
ENDBRANCH   9  14
ENDBRANCH   7   8
ENDBRANCH   6   7
ENDBRANCH   5   6
ENDBRANCH   4   5
ENDBRANCH   3   4
ENDBRANCH   2   3
ENDBRANCH   1   2
BRANCH   1  37
ATOM     37  C   UNL     1       5.802  -1.806   0.628  1.00  0.00     0.001 C 
BRANCH  37  38
ATOM     38  C   UNL     1       5.243  -1.571   2.026  1.00  0.00     0.010 C 
BRANCH  38  39
ATOM     39  C   UNL     1       5.936  -2.320   3.165  1.00  0.00     0.100 C 
BRANCH  39  40
ATOM     40  C   UNL     1       7.185  -1.657   3.718  1.00  0.00     0.219 C 
ATOM     41  O   UNL     1       7.112  -0.935   4.716  1.00  0.00    -0.275 OA
ATOM     42  N   UNL     1       8.419  -1.853   3.175  1.00  0.00    -0.356 N 
ATOM     43  H   UNL     1       9.148  -1.405   3.661  1.00  0.00     0.163 HD
BRANCH  42  44
ATOM     44  C   UNL     1       8.856  -2.603   2.009  1.00  0.00     0.116 C 
BRANCH  44  45
ATOM     45  C   UNL     1       9.261  -1.677   0.845  1.00  0.00     0.023 C 
BRANCH  45  46
ATOM     46  C   UNL     1      10.697  -1.141   0.846  1.00  0.00     0.023 C 
BRANCH  46  47
ATOM     47  C   UNL     1      11.755  -2.176   0.511  1.00  0.00     0.116 C 
BRANCH  47  48
ATOM     48  N   UNL     1      11.710  -2.659  -0.877  1.00  0.00    -0.352 N 
ATOM     49  C   UNL     1      12.481  -3.678  -1.424  1.00  0.00     0.251 C 
ATOM     50  H   UNL     1      11.069  -2.217  -1.479  1.00  0.00     0.163 HD
ATOM     51  O   UNL     1      12.670  -3.790  -2.627  1.00  0.00    -0.269 OA
BRANCH  49  52
ATOM     52  C   UNL     1      13.023  -4.667  -0.483  1.00  0.00     0.039 A 
ATOM     53  C   UNL     1      14.370  -5.043  -0.437  1.00  0.00     0.014 A 
ATOM     54  C   UNL     1      12.115  -5.087   0.479  1.00  0.00     0.014 A 
ATOM     55  C   UNL     1      14.808  -5.793   0.654  1.00  0.00     0.010 A 
ATOM     56  C   UNL     1      12.601  -5.575   1.650  1.00  0.00     0.010 A 
ATOM     57  C   UNL     1      13.910  -6.039   1.700  1.00  0.00    -0.014 A 
BRANCH  57  58
ATOM     58  C   UNL     1      14.270  -6.723   2.931  1.00  0.00     0.031 A 
ATOM     59  C   UNL     1      15.317  -6.047   3.744  1.00  0.00     0.074 A 
ATOM     60  C   UNL     1      13.464  -7.698   3.413  1.00  0.00     0.049 A 
ATOM     61  N   UNL     1      16.494  -6.484   4.046  1.00  0.00    -0.248 NA
ATOM     62  C   UNL     1      15.082  -4.652   4.159  1.00  0.00     0.031 C 
ATOM     63  C   UNL     1      12.205  -8.214   2.845  1.00  0.00     0.029 A 
ATOM     64  N   UNL     1      13.539  -8.363   4.594  1.00  0.00    -0.354 N 
ATOM     65  C   UNL     1      17.062  -5.517   4.876  1.00  0.00     0.074 A 
ATOM     66  C   UNL     1      16.246  -4.341   4.733  1.00  0.00     0.031 C 
ATOM     67  C   UNL     1      11.533  -8.921   3.778  1.00  0.00     0.029 A 
ATOM     68  C   UNL     1      12.388  -9.071   4.936  1.00  0.00     0.049 A 
ATOM     69  H   UNL     1      14.342  -8.346   5.164  1.00  0.00     0.167 HD
ATOM     70  C   UNL     1      18.000  -5.851   5.807  1.00  0.00     0.037 A 
ATOM     71  C   UNL     1      12.164  -9.720   6.105  1.00  0.00     0.037 A 
ATOM     72  C   UNL     1      18.535  -7.165   5.540  1.00  0.00     0.049 A 
ATOM     73  C   UNL     1      13.492  -9.930   6.736  1.00  0.00     0.074 A 
ATOM     74  C   UNL     1      19.234  -7.737   4.495  1.00  0.00     0.029 A 
ATOM     75  N   UNL     1      18.020  -8.215   6.261  1.00  0.00    -0.354 N 
ATOM     76  N   UNL     1      14.415 -10.698   6.222  1.00  0.00    -0.248 NA
ATOM     77  C   UNL     1      13.971  -8.894   7.638  1.00  0.00     0.031 C 
ATOM     78  C   UNL     1      18.686  -9.048   4.363  1.00  0.00     0.029 A 
ATOM     79  C   UNL     1      17.749  -9.232   5.381  1.00  0.00     0.049 A 
ATOM     80  H   UNL     1      17.872  -8.235   7.234  1.00  0.00     0.167 HD
ATOM     81  C   UNL     1      15.601  -9.997   6.394  1.00  0.00     0.074 A 
ATOM     82  C   UNL     1      15.271  -8.919   7.328  1.00  0.00     0.031 C 
ATOM     83  C   UNL     1      16.655 -10.165   5.539  1.00  0.00     0.037 A 
BRANCH  70  84
ATOM     84  C   UNL     1      18.156  -5.191   7.160  1.00  0.00     0.057 A 
ATOM     85  C   UNL     1      19.216  -5.596   7.995  1.00  0.00     0.134 A 
ATOM     86  C   UNL     1      17.171  -4.407   7.795  1.00  0.00     0.134 A 
ATOM     87  F   UNL     1      20.225  -6.340   7.517  1.00  0.00    -0.206 F 
ATOM     88  C   UNL     1      19.239  -5.329   9.370  1.00  0.00     0.040 A 
ATOM     89  C   UNL     1      17.211  -4.092   9.157  1.00  0.00     0.040 A 
ATOM     90  F   UNL     1      16.068  -3.983   7.170  1.00  0.00    -0.206 F 
ATOM     91  C   UNL     1      18.226  -4.585   9.958  1.00  0.00     0.006 A 
ENDBRANCH  70  84
BRANCH  71  92
ATOM     92  C   UNL     1      10.888  -9.861   6.841  1.00  0.00     0.057 A 
ATOM     93  C   UNL     1      10.718 -10.833   7.836  1.00  0.00     0.134 A 
ATOM     94  C   UNL     1       9.893  -8.868   6.773  1.00  0.00     0.134 A 
ATOM     95  F   UNL     1      11.636 -11.794   8.010  1.00  0.00    -0.206 F 
ATOM     96  C   UNL     1       9.629 -10.812   8.721  1.00  0.00     0.040 A 
ATOM     97  C   UNL     1       8.801  -8.836   7.649  1.00  0.00     0.040 A 
ATOM     98  F   UNL     1       9.995  -7.847   5.910  1.00  0.00    -0.206 F 
ATOM     99  C   UNL     1       8.672  -9.805   8.636  1.00  0.00     0.006 A 
ENDBRANCH  71  92
BRANCH  83 100
ATOM    100  C   UNL     1      16.565 -11.271   4.517  1.00  0.00     0.057 A 
ATOM    101  C   UNL     1      15.657 -11.282   3.446  1.00  0.00     0.134 A 
ATOM    102  C   UNL     1      17.548 -12.264   4.510  1.00  0.00     0.134 A 
ATOM    103  F   UNL     1      14.740 -10.321   3.306  1.00  0.00    -0.206 F 
ATOM    104  C   UNL     1      15.704 -12.249   2.436  1.00  0.00     0.040 A 
ATOM    105  C   UNL     1      17.626 -13.220   3.492  1.00  0.00     0.040 A 
ATOM    106  F   UNL     1      18.489 -12.287   5.466  1.00  0.00    -0.206 F 
ATOM    107  C   UNL     1      16.698 -13.220   2.454  1.00  0.00     0.006 A 
ENDBRANCH  83 100
ENDBRANCH  57  58
ENDBRANCH  49  52
ENDBRANCH  47  48
ENDBRANCH  46  47
ENDBRANCH  45  46
ENDBRANCH  44  45
ENDBRANCH  42  44
ENDBRANCH  39  40
ENDBRANCH  38  39
ENDBRANCH  37  38
ENDBRANCH   1  37
TORSDOF 26
