REMARK SMILES CC1(C)Cc2c(-c3ccccc3)c(-c3ccc(Cl)cc3)c(CC(=O)NCCCCNC(=O)c3ccc(-c4c5nc(c(-c6c(F)cccc6F)c6ccc([nH]6)c(-c6c(F)cccc6F)c6nc(c(-c7c(F)cccc7F)c7ccc4[nH]7)C=C6)C=C5)cc3)n2C1
REMARK SMILES IDX 27 1 26 2 25 3 23 4 24 5 22 7 21 8 1 9 2 10 3 11 4 12 88 13
REMARK SMILES IDX 5 14 87 15 6 16 13 17 7 18 8 19 12 20 9 21 11 22 10 23 14 24
REMARK SMILES IDX 15 25 20 26 16 27 19 28 17 29 18 30 28 31 29 32 30 33 31 34
REMARK SMILES IDX 32 36 33 37 34 38 86 39 35 40 85 41 36 42 37 43 38 44 79 45
REMARK SMILES IDX 39 46 84 47 78 48 80 49 40 50 83 51 77 52 76 53 41 55 67 56
REMARK SMILES IDX 50 57 66 58 51 59 54 60 65 61 81 62 52 63 53 64 64 66 82 67
REMARK SMILES IDX 55 68 42 69 43 70 48 71 44 72 45 73 47 74 49 75 46 76 68 77
REMARK SMILES IDX 69 78 74 79 70 80 71 81 73 82 75 83 72 84 56 85 57 86 62 87
REMARK SMILES IDX 58 88 59 89 61 90 63 91 60 92
REMARK H PARENT 25 6 30 35 80 54 54 65
REMARK Flexibility Score: inf
ROOT
ATOM      1  C   UNL     1      -1.978   1.089   4.903  1.00  0.00     0.023 C 
ENDROOT
BRANCH   1   2
ATOM      2  C   UNL     1      -1.517   2.523   4.632  1.00  0.00     0.116 C 
BRANCH   2   3
ATOM      3  N   UNL     1      -0.896   3.165   5.770  1.00  0.00    -0.356 N 
ATOM      4  C   UNL     1       0.430   3.395   6.014  1.00  0.00     0.225 C 
ATOM      5  O   UNL     1       0.709   4.073   7.008  1.00  0.00    -0.275 OA
ATOM      6  H   UNL     1      -1.516   3.481   6.467  1.00  0.00     0.163 HD
BRANCH   4   7
ATOM      7  C   UNL     1       1.517   2.907   5.063  1.00  0.00     0.154 C 
BRANCH   7   8
ATOM      8  C   UNL     1       1.518   1.422   4.844  1.00  0.00     0.036 A 
ATOM      9  C   UNL     1       1.328   0.090   0.038  1.00  0.00     0.013 C 
ATOM     10  C   UNL     1       0.755   0.121   1.455  1.00  0.00    -0.012 C 
ATOM     11  C   UNL     1      -0.780   0.102   1.351  1.00  0.00     0.013 C 
ATOM     12  C   UNL     1       1.240  -1.096   2.308  1.00  0.00     0.063 C 
ATOM     13  C   UNL     1       1.261   1.367   2.241  1.00  0.00     0.129 C 
ATOM     14  C   UNL     1       1.419  -0.496   3.653  1.00  0.00     0.027 A 
ATOM     15  N   UNL     1       1.416   0.866   3.602  1.00  0.00    -0.346 N 
ATOM     16  C   UNL     1       1.567  -0.875   4.961  1.00  0.00     0.011 A 
ATOM     17  C   UNL     1       1.661   0.343   5.727  1.00  0.00     0.011 A 
BRANCH  16  18
ATOM     18  C   UNL     1       1.560  -2.253   5.409  1.00  0.00    -0.016 A 
ATOM     19  C   UNL     1       2.468  -3.180   4.889  1.00  0.00     0.009 A 
ATOM     20  C   UNL     1       0.646  -2.659   6.390  1.00  0.00     0.009 A 
ATOM     21  C   UNL     1       2.460  -4.500   5.344  1.00  0.00     0.001 A 
ATOM     22  C   UNL     1       0.639  -3.977   6.844  1.00  0.00     0.001 A 
ATOM     23  C   UNL     1       1.546  -4.897   6.321  1.00  0.00     0.000 A 
ENDBRANCH  16  18
BRANCH  17  24
ATOM     24  C   UNL     1       1.866   0.443   7.168  1.00  0.00    -0.016 A 
ATOM     25  C   UNL     1       3.042  -0.069   7.736  1.00  0.00     0.010 A 
ATOM     26  C   UNL     1       0.859   0.920   8.014  1.00  0.00     0.010 A 
ATOM     27  C   UNL     1       3.211  -0.089   9.124  1.00  0.00     0.021 A 
ATOM     28  C   UNL     1       1.035   0.923   9.401  1.00  0.00     0.021 A 
ATOM     29  C   UNL     1       2.208   0.413   9.950  1.00  0.00     0.041 A 
ATOM     30  Cl  UNL     1       2.405   0.376  11.659  1.00  0.00    -0.084 Cl
ENDBRANCH  17  24
ENDBRANCH   7   8
ENDBRANCH   4   7
ENDBRANCH   2   3
ENDBRANCH   1   2
BRANCH   1  31
ATOM     31  C   UNL     1      -3.215   0.901   5.783  1.00  0.00     0.023 C 
BRANCH  31  32
ATOM     32  C   UNL     1      -4.479   1.544   5.234  1.00  0.00     0.116 C 
BRANCH  32  33
ATOM     33  N   UNL     1      -4.888   1.034   3.918  1.00  0.00    -0.352 N 
ATOM     34  C   UNL     1      -5.917   1.501   3.106  1.00  0.00     0.251 C 
ATOM     35  H   UNL     1      -4.373   0.270   3.570  1.00  0.00     0.163 HD
ATOM     36  O   UNL     1      -6.412   0.818   2.230  1.00  0.00    -0.269 OA
BRANCH  34  37
ATOM     37  C   UNL     1      -6.364   2.889   3.318  1.00  0.00     0.039 A 
ATOM     38  C   UNL     1      -7.708   3.268   3.370  1.00  0.00     0.014 A 
ATOM     39  C   UNL     1      -5.351   3.805   3.558  1.00  0.00     0.014 A 
ATOM     40  C   UNL     1      -8.014   4.575   3.751  1.00  0.00     0.010 A 
ATOM     41  C   UNL     1      -5.657   4.979   4.173  1.00  0.00     0.010 A 
ATOM     42  C   UNL     1      -6.972   5.418   4.165  1.00  0.00    -0.014 A 
BRANCH  42  43
ATOM     43  C   UNL     1      -7.188   6.758   4.688  1.00  0.00     0.031 A 
ATOM     44  C   UNL     1      -8.027   6.809   5.914  1.00  0.00     0.074 A 
ATOM     45  C   UNL     1      -6.430   7.796   4.262  1.00  0.00     0.049 A 
ATOM     46  N   UNL     1      -9.198   7.335   6.049  1.00  0.00    -0.248 NA
ATOM     47  C   UNL     1      -7.580   6.050   7.096  1.00  0.00     0.031 C 
ATOM     48  C   UNL     1      -5.328   7.784   3.285  1.00  0.00     0.029 A 
ATOM     49  N   UNL     1      -6.403   9.080   4.707  1.00  0.00    -0.354 N 
ATOM     50  C   UNL     1      -9.531   7.181   7.394  1.00  0.00     0.074 A 
ATOM     51  C   UNL     1      -8.618   6.203   7.920  1.00  0.00     0.031 C 
ATOM     52  C   UNL     1      -4.604   8.919   3.391  1.00  0.00     0.029 A 
ATOM     53  C   UNL     1      -5.287   9.812   4.303  1.00  0.00     0.049 A 
ATOM     54  H   UNL     1      -7.114   9.462   5.269  1.00  0.00     0.167 HD
ATOM     55  C   UNL     1     -10.342   8.081   8.018  1.00  0.00     0.037 A 
ATOM     56  C   UNL     1      -4.951  11.060   4.717  1.00  0.00     0.037 A 
ATOM     57  C   UNL     1     -11.031   8.900   7.049  1.00  0.00     0.049 A 
ATOM     58  C   UNL     1      -6.179  11.666   5.291  1.00  0.00     0.074 A 
ATOM     59  C   UNL     1     -11.914   8.659   6.015  1.00  0.00     0.029 A 
ATOM     60  N   UNL     1     -10.528  10.159   6.824  1.00  0.00    -0.354 N 
ATOM     61  N   UNL     1      -7.236  11.957   4.583  1.00  0.00    -0.248 NA
ATOM     62  C   UNL     1      -6.410  11.480   6.715  1.00  0.00     0.031 C 
ATOM     63  C   UNL     1     -11.524   9.563   4.982  1.00  0.00     0.029 A 
ATOM     64  C   UNL     1     -10.486  10.358   5.470  1.00  0.00     0.049 A 
ATOM     65  H   UNL     1     -10.247  10.803   7.514  1.00  0.00     0.167 HD
ATOM     66  C   UNL     1      -8.308  11.567   5.372  1.00  0.00     0.074 A 
ATOM     67  C   UNL     1      -7.739  11.346   6.702  1.00  0.00     0.031 C 
ATOM     68  C   UNL     1      -9.487  11.168   4.809  1.00  0.00     0.037 A 
BRANCH  55  69
ATOM     69  C   UNL     1     -10.203   8.517   9.462  1.00  0.00     0.057 A 
ATOM     70  C   UNL     1     -11.145   9.427   9.982  1.00  0.00     0.134 A 
ATOM     71  C   UNL     1      -9.049   8.346  10.252  1.00  0.00     0.134 A 
ATOM     72  F   UNL     1     -12.295   9.674   9.336  1.00  0.00    -0.206 F 
ATOM     73  C   UNL     1     -10.903  10.189  11.132  1.00  0.00     0.040 A 
ATOM     74  C   UNL     1      -8.821   9.065  11.429  1.00  0.00     0.040 A 
ATOM     75  F   UNL     1      -8.033   7.555   9.893  1.00  0.00    -0.206 F 
ATOM     76  C   UNL     1      -9.729  10.020  11.852  1.00  0.00     0.006 A 
ENDBRANCH  55  69
BRANCH  56  77
ATOM     77  C   UNL     1      -3.603  11.630   4.952  1.00  0.00     0.057 A 
ATOM     78  C   UNL     1      -3.409  13.012   5.082  1.00  0.00     0.134 A 
ATOM     79  C   UNL     1      -2.523  10.817   5.341  1.00  0.00     0.134 A 
ATOM     80  F   UNL     1      -4.394  13.868   4.776  1.00  0.00    -0.206 F 
ATOM     81  C   UNL     1      -2.221  13.555   5.595  1.00  0.00     0.040 A 
ATOM     82  C   UNL     1      -1.332  11.346   5.852  1.00  0.00     0.040 A 
ATOM     83  F   UNL     1      -2.624   9.480   5.324  1.00  0.00    -0.206 F 
ATOM     84  C   UNL     1      -1.183  12.720   5.994  1.00  0.00     0.006 A 
ENDBRANCH  56  77
BRANCH  68  85
ATOM     85  C   UNL     1      -9.672  11.383   3.330  1.00  0.00     0.057 A 
ATOM     86  C   UNL     1      -8.932  10.725   2.336  1.00  0.00     0.134 A 
ATOM     87  C   UNL     1     -10.754  12.155   2.899  1.00  0.00     0.134 A 
ATOM     88  F   UNL     1      -7.935   9.890   2.650  1.00  0.00    -0.206 F 
ATOM     89  C   UNL     1      -9.236  10.853   0.976  1.00  0.00     0.040 A 
ATOM     90  C   UNL     1     -11.089  12.268   1.547  1.00  0.00     0.040 A 
ATOM     91  F   UNL     1     -11.542  12.771   3.795  1.00  0.00    -0.206 F 
ATOM     92  C   UNL     1     -10.325  11.621   0.580  1.00  0.00     0.006 A 
ENDBRANCH  68  85
ENDBRANCH  42  43
ENDBRANCH  34  37
ENDBRANCH  32  33
ENDBRANCH  31  32
ENDBRANCH   1  31
TORSDOF 14
