REMARK SMILES Cn1c(=O)c(=O)n(C)c2cc(S(=O)(=O)N3CCC[C@H]3C(=O)NCCCCNC(=O)c3ccc(-c4c5nc(c(-c6c(F)cccc6F)c6ccc([nH]6)c(-c6c(F)cccc6F)c6nc(c(-c7c(F)cccc7F)c7ccc4[nH]7)C=C6)C=C5)cc3)ccc21
REMARK SMILES IDX 24 1 23 2 22 3 20 4 21 5 19 7 15 8 16 9 17 10 18 11 12 12
REMARK SMILES IDX 13 13 14 14 11 15 1 16 2 17 3 18 86 19 4 20 5 21 9 22 85 23
REMARK SMILES IDX 6 24 7 25 10 26 84 27 8 28 25 29 26 30 27 31 28 32 29 34
REMARK SMILES IDX 30 35 31 36 83 37 32 38 82 39 33 40 34 41 35 42 76 43 36 44
REMARK SMILES IDX 81 45 75 46 77 47 37 48 80 49 74 50 73 51 38 53 64 54 47 55
REMARK SMILES IDX 63 56 48 57 51 58 62 59 78 60 49 61 50 62 61 64 79 65 52 66
REMARK SMILES IDX 39 67 40 68 45 69 41 70 42 71 44 72 46 73 43 74 65 75 66 76
REMARK SMILES IDX 71 77 67 78 68 79 70 80 72 81 69 82 53 83 54 84 59 85 55 86
REMARK SMILES IDX 56 87 58 88 60 89 57 90
REMARK H PARENT 22 6 27 33 77 52 51 63
REMARK Flexibility Score: inf
ROOT
ATOM      1  C   UNL     1       6.035   8.719   3.663  1.00  0.00     0.023 C 
ENDROOT
BRANCH   1   2
ATOM      2  C   UNL     1       6.173   7.203   3.735  1.00  0.00     0.116 C 
BRANCH   2   3
ATOM      3  N   UNL     1       5.400   6.649   4.825  1.00  0.00    -0.355 N 
ATOM      4  C   UNL     1       4.461   5.668   4.843  1.00  0.00     0.238 C 
ATOM      5  O   UNL     1       3.954   5.411   5.942  1.00  0.00    -0.273 OA
ATOM      6  H   UNL     1       5.588   7.051   5.704  1.00  0.00     0.163 HD
BRANCH   4   7
ATOM      7  C   UNL     1       4.139   4.790   3.643  1.00  0.00     0.162 C 
ATOM      8  N   UNL     1       4.103   5.387   2.288  1.00  0.00    -0.185 NA
ATOM      9  C   UNL     1       5.036   4.685   1.383  1.00  0.00     0.103 C 
ATOM     10  C   UNL     1       5.297   3.354   2.061  1.00  0.00     0.019 C 
ATOM     11  C   UNL     1       5.161   3.652   3.544  1.00  0.00     0.032 C 
BRANCH   8  12
ATOM     12  S   UNL     1       2.654   5.988   1.675  1.00  0.00     0.243 S 
ATOM     13  O   UNL     1       3.006   6.801   0.529  1.00  0.00    -0.207 OA
ATOM     14  O   UNL     1       1.873   6.517   2.769  1.00  0.00    -0.207 OA
BRANCH  12  15
ATOM     15  C   UNL     1       1.769   4.572   1.030  1.00  0.00     0.084 A 
ATOM     16  C   UNL     1       0.450  -0.170  -0.300  1.00  0.00     0.154 C 
ATOM     17  N   UNL     1       0.115   1.149  -0.820  1.00  0.00    -0.305 N 
ATOM     18  C   UNL     1      -0.635   1.220  -1.989  1.00  0.00     0.316 A 
ATOM     19  C   UNL     1       0.604   2.315  -0.178  1.00  0.00     0.068 A 
ATOM     20  O   UNL     1      -1.038   0.232  -2.597  1.00  0.00    -0.263 OA
ATOM     21  C   UNL     1      -0.974   2.614  -2.534  1.00  0.00     0.316 A 
ATOM     22  C   UNL     1       0.431   3.583  -0.761  1.00  0.00     0.069 A 
ATOM     23  C   UNL     1       1.282   2.214   1.043  1.00  0.00     0.030 A 
ATOM     24  O   UNL     1      -1.745   2.697  -3.487  1.00  0.00    -0.263 OA
ATOM     25  N   UNL     1      -0.374   3.718  -1.925  1.00  0.00    -0.305 N 
ATOM     26  C   UNL     1       1.053   4.702  -0.167  1.00  0.00     0.050 A 
ATOM     27  C   UNL     1       1.832   3.334   1.654  1.00  0.00     0.024 A 
ATOM     28  C   UNL     1      -0.667   5.035  -2.470  1.00  0.00     0.154 C 
ENDBRANCH  12  15
ENDBRANCH   8  12
ENDBRANCH   4   7
ENDBRANCH   2   3
ENDBRANCH   1   2
BRANCH   1  29
ATOM     29  C   UNL     1       6.647   9.470   4.843  1.00  0.00     0.023 C 
BRANCH  29  30
ATOM     30  C   UNL     1       8.095   9.116   5.155  1.00  0.00     0.116 C 
BRANCH  30  31
ATOM     31  N   UNL     1       9.000   9.297   4.027  1.00  0.00    -0.352 N 
ATOM     32  C   UNL     1      10.257   9.858   4.021  1.00  0.00     0.251 C 
ATOM     33  H   UNL     1       8.669   8.977   3.157  1.00  0.00     0.163 HD
ATOM     34  O   UNL     1      10.875  10.014   2.975  1.00  0.00    -0.269 OA
BRANCH  32  35
ATOM     35  C   UNL     1      10.824  10.320   5.303  1.00  0.00     0.039 A 
ATOM     36  C   UNL     1      10.833   9.465   6.405  1.00  0.00     0.014 A 
ATOM     37  C   UNL     1      11.222  11.653   5.427  1.00  0.00     0.014 A 
ATOM     38  C   UNL     1      11.047   9.995   7.670  1.00  0.00     0.010 A 
ATOM     39  C   UNL     1      11.527  12.160   6.692  1.00  0.00     0.010 A 
ATOM     40  C   UNL     1      11.376  11.352   7.830  1.00  0.00    -0.014 A 
BRANCH  40  41
ATOM     41  C   UNL     1      11.514  11.909   9.201  1.00  0.00     0.031 A 
ATOM     42  C   UNL     1      10.560  12.960   9.706  1.00  0.00     0.074 A 
ATOM     43  C   UNL     1      12.460  11.411  10.018  1.00  0.00     0.049 A 
ATOM     44  N   UNL     1      10.514  13.538  10.881  1.00  0.00    -0.248 NA
ATOM     45  C   UNL     1       9.524  13.426   8.772  1.00  0.00     0.031 C 
ATOM     46  C   UNL     1      13.427  10.373   9.655  1.00  0.00     0.029 A 
ATOM     47  N   UNL     1      12.743  11.685  11.331  1.00  0.00    -0.354 N 
ATOM     48  C   UNL     1       9.470  14.454  10.817  1.00  0.00     0.074 A 
ATOM     49  C   UNL     1       8.922  14.372   9.480  1.00  0.00     0.031 C 
ATOM     50  C   UNL     1      14.149  10.048  10.738  1.00  0.00     0.029 A 
ATOM     51  C   UNL     1      13.746  10.903  11.848  1.00  0.00     0.049 A 
ATOM     52  H   UNL     1      12.273  12.375  11.852  1.00  0.00     0.167 HD
ATOM     53  C   UNL     1       9.005  15.281  11.784  1.00  0.00     0.037 A 
ATOM     54  C   UNL     1      14.289  10.884  13.078  1.00  0.00     0.037 A 
ATOM     55  C   UNL     1       9.531  15.341  13.124  1.00  0.00     0.049 A 
ATOM     56  C   UNL     1      13.794  11.853  14.111  1.00  0.00     0.074 A 
ATOM     57  C   UNL     1       9.102  16.115  14.188  1.00  0.00     0.029 A 
ATOM     58  N   UNL     1      10.606  14.594  13.583  1.00  0.00    -0.354 N 
ATOM     59  N   UNL     1      12.803  12.707  14.037  1.00  0.00    -0.248 NA
ATOM     60  C   UNL     1      14.511  11.866  15.393  1.00  0.00     0.031 C 
ATOM     61  C   UNL     1       9.945  15.869  15.279  1.00  0.00     0.029 A 
ATOM     62  C   UNL     1      10.874  14.911  14.905  1.00  0.00     0.049 A 
ATOM     63  H   UNL     1      11.105  13.936  13.048  1.00  0.00     0.167 HD
ATOM     64  C   UNL     1      12.765  13.349  15.267  1.00  0.00     0.074 A 
ATOM     65  C   UNL     1      13.822  12.771  16.073  1.00  0.00     0.031 C 
ATOM     66  C   UNL     1      11.933  14.331  15.691  1.00  0.00     0.037 A 
BRANCH  53  67
ATOM     67  C   UNL     1       7.885  16.212  11.416  1.00  0.00     0.057 A 
ATOM     68  C   UNL     1       8.119  17.587  11.283  1.00  0.00     0.134 A 
ATOM     69  C   UNL     1       6.577  15.757  11.204  1.00  0.00     0.134 A 
ATOM     70  F   UNL     1       9.346  18.091  11.479  1.00  0.00    -0.206 F 
ATOM     71  C   UNL     1       7.095  18.474  10.947  1.00  0.00     0.040 A 
ATOM     72  C   UNL     1       5.549  16.632  10.844  1.00  0.00     0.040 A 
ATOM     73  F   UNL     1       6.287  14.451  11.302  1.00  0.00    -0.206 F 
ATOM     74  C   UNL     1       5.806  17.996  10.718  1.00  0.00     0.006 A 
ENDBRANCH  53  67
BRANCH  54  75
ATOM     75  C   UNL     1      15.366   9.917  13.399  1.00  0.00     0.057 A 
ATOM     76  C   UNL     1      16.642  10.027  12.835  1.00  0.00     0.134 A 
ATOM     77  C   UNL     1      15.139   8.860  14.287  1.00  0.00     0.134 A 
ATOM     78  F   UNL     1      16.920  11.017  11.974  1.00  0.00    -0.206 F 
ATOM     79  C   UNL     1      17.651   9.111  13.131  1.00  0.00     0.040 A 
ATOM     80  C   UNL     1      16.146   7.951  14.612  1.00  0.00     0.040 A 
ATOM     81  F   UNL     1      13.941   8.716  14.873  1.00  0.00    -0.206 F 
ATOM     82  C   UNL     1      17.406   8.072  14.027  1.00  0.00     0.006 A 
ENDBRANCH  54  75
BRANCH  66  83
ATOM     83  C   UNL     1      12.127  14.818  17.095  1.00  0.00     0.057 A 
ATOM     84  C   UNL     1      11.216  14.477  18.102  1.00  0.00     0.134 A 
ATOM     85  C   UNL     1      13.219  15.620  17.452  1.00  0.00     0.134 A 
ATOM     86  F   UNL     1      10.148  13.714  17.825  1.00  0.00    -0.206 F 
ATOM     87  C   UNL     1      11.386  14.913  19.417  1.00  0.00     0.040 A 
ATOM     88  C   UNL     1      13.412  16.042  18.768  1.00  0.00     0.040 A 
ATOM     89  F   UNL     1      14.137  15.965  16.537  1.00  0.00    -0.206 F 
ATOM     90  C   UNL     1      12.492  15.691  19.754  1.00  0.00     0.006 A 
ENDBRANCH  66  83
ENDBRANCH  40  41
ENDBRANCH  32  35
ENDBRANCH  30  31
ENDBRANCH  29  30
ENDBRANCH   1  29
TORSDOF 13
