REMARK SMILES Cc1[nH]c2ccccc2c1[C@@H](C(=O)NCCCCNC(=O)c1ccc(-c2c3nc(c(-c4c(F)cccc4F)c4ccc([nH]4)c(-c4c(F)cccc4F)c4nc(c(-c5c(F)cccc5F)c5ccc2[nH]5)C=C4)C=C3)cc1)[NH+]1CCCC1
REMARK SMILES IDX 17 1 16 2 15 3 14 4 12 5 13 6 11 8 10 9 1 10 2 11 3 12 4 13
REMARK SMILES IDX 9 15 5 16 8 17 6 18 7 19 76 20 77 21 80 22 78 24 79 25 18 26
REMARK SMILES IDX 19 27 20 28 21 30 22 31 23 32 75 33 24 34 74 35 25 36 26 37
REMARK SMILES IDX 27 38 68 39 28 40 73 41 67 42 69 43 29 44 72 45 66 46 65 47
REMARK SMILES IDX 30 49 56 50 39 51 55 52 40 53 43 54 54 55 70 56 41 57 42 58
REMARK SMILES IDX 53 60 71 61 44 62 31 63 32 64 37 65 33 66 34 67 36 68 38 69
REMARK SMILES IDX 35 70 57 71 58 72 63 73 59 74 60 75 62 76 64 77 61 78 45 79
REMARK SMILES IDX 46 80 51 81 47 82 48 83 50 84 52 85 49 86
REMARK H PARENT 14 7 3 14 76 23 19 29 69 48 43 59
REMARK Flexibility Score: inf
ROOT
ATOM      1  C   UNL     1      -1.173  -1.073  -4.739  1.00  0.00     0.023 C 
ENDROOT
BRANCH   1   2
ATOM      2  C   UNL     1      -1.786  -0.801  -3.365  1.00  0.00     0.023 C 
BRANCH   2   3
ATOM      3  C   UNL     1      -2.495  -1.998  -2.733  1.00  0.00     0.116 C 
BRANCH   3   4
ATOM      4  N   UNL     1      -1.566  -3.039  -2.340  1.00  0.00    -0.351 N 
ATOM      5  C   UNL     1      -1.028  -3.298  -1.100  1.00  0.00     0.283 C 
ATOM      6  O   UNL     1      -0.206  -4.218  -1.047  1.00  0.00    -0.268 OA
ATOM      7  H   UNL     1      -1.280  -3.646  -3.061  1.00  0.00     0.163 HD
BRANCH   5   8
ATOM      8  C   UNL     1      -1.510  -2.467   0.131  1.00  0.00     0.307 C 
BRANCH   8   9
ATOM      9  C   UNL     1      -1.042  -1.024   0.089  1.00  0.00     0.047 A 
ATOM     10  C   UNL     1      -3.327   0.260   0.382  1.00  0.00     0.065 C 
ATOM     11  C   UNL     1      -1.856   0.102   0.223  1.00  0.00     0.022 A 
ATOM     12  N   UNL     1      -1.050   1.211   0.188  1.00  0.00    -0.358 N 
ATOM     13  C   UNL     1       0.258   0.856  -0.017  1.00  0.00     0.046 A 
ATOM     14  H   UNL     1      -1.368   2.137   0.295  1.00  0.00     0.166 HD
ATOM     15  C   UNL     1       0.294  -0.532  -0.140  1.00  0.00     0.009 A 
ATOM     16  C   UNL     1       1.398   1.664  -0.107  1.00  0.00     0.027 A 
ATOM     17  C   UNL     1       1.540  -1.130  -0.432  1.00  0.00     0.011 A 
ATOM     18  C   UNL     1       2.622   1.036  -0.347  1.00  0.00     0.002 A 
ATOM     19  C   UNL     1       2.693  -0.341  -0.519  1.00  0.00     0.001 A 
ENDBRANCH   8   9
BRANCH   8  20
ATOM     20  N   UNL     1      -1.276  -3.155   1.429  1.00  0.00    -0.321 N 
ATOM     21  C   UNL     1      -1.897  -2.516   2.590  1.00  0.00     0.263 C 
ATOM     22  C   UNL     1       0.106  -3.426   1.818  1.00  0.00     0.263 C 
ATOM     23  H   UNL     1      -1.729  -4.039   1.197  1.00  0.00     0.349 HD
ATOM     24  C   UNL     1      -0.802  -1.707   3.265  1.00  0.00     0.067 C 
ATOM     25  C   UNL     1       0.491  -2.404   2.881  1.00  0.00     0.067 C 
ENDBRANCH   8  20
ENDBRANCH   5   8
ENDBRANCH   3   4
ENDBRANCH   2   3
ENDBRANCH   1   2
BRANCH   1  26
ATOM     26  C   UNL     1      -2.158  -1.523  -5.811  1.00  0.00     0.116 C 
BRANCH  26  27
ATOM     27  N   UNL     1      -3.230  -0.567  -6.047  1.00  0.00    -0.352 N 
ATOM     28  C   UNL     1      -3.789  -0.177  -7.245  1.00  0.00     0.251 C 
ATOM     29  H   UNL     1      -3.606  -0.141  -5.243  1.00  0.00     0.163 HD
ATOM     30  O   UNL     1      -4.620   0.715  -7.286  1.00  0.00    -0.269 OA
BRANCH  28  31
ATOM     31  C   UNL     1      -3.330  -0.828  -8.490  1.00  0.00     0.039 A 
ATOM     32  C   UNL     1      -2.883  -0.025  -9.542  1.00  0.00     0.014 A 
ATOM     33  C   UNL     1      -3.278  -2.220  -8.587  1.00  0.00     0.014 A 
ATOM     34  C   UNL     1      -2.291  -0.620 -10.657  1.00  0.00     0.010 A 
ATOM     35  C   UNL     1      -2.633  -2.808  -9.670  1.00  0.00     0.010 A 
ATOM     36  C   UNL     1      -2.114  -2.012 -10.703  1.00  0.00    -0.014 A 
BRANCH  36  37
ATOM     37  C   UNL     1      -1.339  -2.658 -11.791  1.00  0.00     0.031 A 
ATOM     38  C   UNL     1      -2.009  -3.610 -12.736  1.00  0.00     0.074 A 
ATOM     39  C   UNL     1      -0.007  -2.461 -11.857  1.00  0.00     0.049 A 
ATOM     40  N   UNL     1      -1.476  -4.360 -13.667  1.00  0.00    -0.248 NA
ATOM     41  C   UNL     1      -3.466  -3.759 -12.601  1.00  0.00     0.031 C 
ATOM     42  C   UNL     1       0.768  -1.599 -10.963  1.00  0.00     0.029 A 
ATOM     43  N   UNL     1       0.934  -2.994 -12.702  1.00  0.00    -0.354 N 
ATOM     44  C   UNL     1      -2.527  -5.083 -14.215  1.00  0.00     0.074 A 
ATOM     45  C   UNL     1      -3.722  -4.709 -13.489  1.00  0.00     0.031 C 
ATOM     46  C   UNL     1       2.064  -1.655 -11.311  1.00  0.00     0.029 A 
ATOM     47  C   UNL     1       2.216  -2.586 -12.424  1.00  0.00     0.049 A 
ATOM     48  H   UNL     1       0.712  -3.610 -13.437  1.00  0.00     0.167 HD
ATOM     49  C   UNL     1      -2.498  -5.965 -15.242  1.00  0.00     0.037 A 
ATOM     50  C   UNL     1       3.387  -2.937 -12.990  1.00  0.00     0.037 A 
ATOM     51  C   UNL     1      -1.313  -6.312 -15.981  1.00  0.00     0.049 A 
ATOM     52  C   UNL     1       3.391  -3.928 -14.119  1.00  0.00     0.074 A 
ATOM     53  C   UNL     1      -1.200  -7.128 -17.093  1.00  0.00     0.029 A 
ATOM     54  N   UNL     1      -0.036  -5.868 -15.678  1.00  0.00    -0.354 N 
ATOM     55  N   UNL     1       2.380  -4.546 -14.677  1.00  0.00    -0.248 NA
ATOM     56  C   UNL     1       4.700  -4.273 -14.694  1.00  0.00     0.031 C 
ATOM     57  C   UNL     1       0.152  -7.210 -17.439  1.00  0.00     0.029 A 
ATOM     58  C   UNL     1       0.876  -6.417 -16.564  1.00  0.00     0.049 A 
ATOM     59  H   UNL     1       0.190  -5.254 -14.942  1.00  0.00     0.167 HD
ATOM     60  C   UNL     1       2.926  -5.341 -15.676  1.00  0.00     0.074 A 
ATOM     61  C   UNL     1       4.356  -5.114 -15.659  1.00  0.00     0.031 C 
ATOM     62  C   UNL     1       2.297  -6.184 -16.530  1.00  0.00     0.037 A 
BRANCH  49  63
ATOM     63  C   UNL     1      -3.792  -6.614 -15.632  1.00  0.00     0.057 A 
ATOM     64  C   UNL     1      -4.798  -5.906 -16.302  1.00  0.00     0.134 A 
ATOM     65  C   UNL     1      -4.017  -7.971 -15.371  1.00  0.00     0.134 A 
ATOM     66  F   UNL     1      -4.647  -4.601 -16.570  1.00  0.00    -0.206 F 
ATOM     67  C   UNL     1      -5.992  -6.521 -16.682  1.00  0.00     0.040 A 
ATOM     68  C   UNL     1      -5.198  -8.602 -15.766  1.00  0.00     0.040 A 
ATOM     69  F   UNL     1      -3.092  -8.706 -14.737  1.00  0.00    -0.206 F 
ATOM     70  C   UNL     1      -6.191  -7.875 -16.420  1.00  0.00     0.006 A 
ENDBRANCH  49  63
BRANCH  50  71
ATOM     71  C   UNL     1       4.655  -2.346 -12.497  1.00  0.00     0.057 A 
ATOM     72  C   UNL     1       5.356  -1.407 -13.260  1.00  0.00     0.134 A 
ATOM     73  C   UNL     1       5.197  -2.708 -11.258  1.00  0.00     0.134 A 
ATOM     74  F   UNL     1       4.895  -1.037 -14.464  1.00  0.00    -0.206 F 
ATOM     75  C   UNL     1       6.559  -0.856 -12.816  1.00  0.00     0.040 A 
ATOM     76  C   UNL     1       6.388  -2.150 -10.792  1.00  0.00     0.040 A 
ATOM     77  F   UNL     1       4.569  -3.600 -10.478  1.00  0.00    -0.206 F 
ATOM     78  C   UNL     1       7.076  -1.224 -11.575  1.00  0.00     0.006 A 
ENDBRANCH  50  71
BRANCH  62  79
ATOM     79  C   UNL     1       3.150  -6.915 -17.522  1.00  0.00     0.057 A 
ATOM     80  C   UNL     1       3.947  -8.002 -17.142  1.00  0.00     0.134 A 
ATOM     81  C   UNL     1       3.139  -6.559 -18.876  1.00  0.00     0.134 A 
ATOM     82  F   UNL     1       4.012  -8.381 -15.857  1.00  0.00    -0.206 F 
ATOM     83  C   UNL     1       4.714  -8.702 -18.074  1.00  0.00     0.040 A 
ATOM     84  C   UNL     1       3.885  -7.265 -19.821  1.00  0.00     0.040 A 
ATOM     85  F   UNL     1       2.391  -5.531 -19.304  1.00  0.00    -0.206 F 
ATOM     86  C   UNL     1       4.678  -8.338 -19.419  1.00  0.00     0.006 A 
ENDBRANCH  62  79
ENDBRANCH  36  37
ENDBRANCH  28  31
ENDBRANCH  26  27
ENDBRANCH   1  26
TORSDOF 13
