REMARK SMILES Nc1cnc(Cl)c(C(=O)NCCCCNC(=O)c2ccc(-c3c4nc(c(-c5c(F)cccc5F)c5ccc([nH]5)c(-c5c(F)cccc5F)c5nc(c(-c6c(F)cccc6F)c6ccc3[nH]6)C=C5)C=C4)cc2)c1
REMARK SMILES IDX 13 1 12 2 11 3 10 4 8 5 9 6 7 8 2 9 3 10 72 11 4 12 5 13
REMARK SMILES IDX 6 14 1 15 14 18 15 19 16 20 17 22 18 23 19 24 71 25 20 26
REMARK SMILES IDX 70 27 21 28 22 29 23 30 64 31 24 32 69 33 63 34 65 35 25 36
REMARK SMILES IDX 68 37 62 38 61 39 26 41 52 42 35 43 51 44 36 45 39 46 50 47
REMARK SMILES IDX 66 48 37 49 38 50 49 52 67 53 40 54 27 55 28 56 33 57 29 58
REMARK SMILES IDX 30 59 32 60 34 61 31 62 53 63 54 64 59 65 55 66 56 67 58 68
REMARK SMILES IDX 60 69 57 70 41 71 42 72 47 73 43 74 44 75 46 76 48 77 45 78
REMARK H PARENT 10 7 1 16 1 17 15 21 65 40 39 51
REMARK Flexibility Score: inf
ROOT
ATOM      1  C   UNL     1       2.556   5.334   2.847  1.00  0.00     0.023 C 
ENDROOT
BRANCH   1   2
ATOM      2  C   UNL     1       2.292   3.937   2.273  1.00  0.00     0.023 C 
BRANCH   2   3
ATOM      3  C   UNL     1       2.442   2.790   3.280  1.00  0.00     0.116 C 
BRANCH   3   4
ATOM      4  N   UNL     1       1.310   2.758   4.186  1.00  0.00    -0.352 N 
ATOM      5  C   UNL     1       0.117   2.074   4.185  1.00  0.00     0.254 C 
ATOM      6  O   UNL     1      -0.681   2.392   5.065  1.00  0.00    -0.269 OA
ATOM      7  H   UNL     1       1.417   3.351   4.964  1.00  0.00     0.163 HD
BRANCH   5   8
ATOM      8  C   UNL     1      -0.234   1.012   3.204  1.00  0.00     0.079 A 
ATOM      9  C   UNL     1      -0.090  -0.009   0.989  1.00  0.00     0.051 A 
ATOM     10  C   UNL     1      -0.991  -0.964   1.438  1.00  0.00     0.138 A 
ATOM     11  C   UNL     1       0.225   1.020   1.879  1.00  0.00     0.044 A 
ATOM     12  N   UNL     1      -1.493  -1.006   2.689  1.00  0.00    -0.242 NA
ATOM     13  C   UNL     1      -1.099  -0.028   3.547  1.00  0.00     0.141 A 
ATOM     14  Cl  UNL     1      -1.768  -0.297   5.113  1.00  0.00    -0.061 Cl
BRANCH   9  15
ATOM     15  N   UNL     1       0.375   0.017  -0.315  1.00  0.00    -0.397 N 
ATOM     16  H   UNL     1       0.147  -0.714  -0.933  1.00  0.00     0.156 HD
ATOM     17  H   UNL     1       0.934   0.767  -0.624  1.00  0.00     0.156 HD
ENDBRANCH   9  15
ENDBRANCH   5   8
ENDBRANCH   3   4
ENDBRANCH   2   3
ENDBRANCH   1   2
BRANCH   1  18
ATOM     18  C   UNL     1       3.985   5.573   3.319  1.00  0.00     0.116 C 
BRANCH  18  19
ATOM     19  N   UNL     1       4.984   5.408   2.274  1.00  0.00    -0.352 N 
ATOM     20  C   UNL     1       6.252   5.945   2.209  1.00  0.00     0.251 C 
ATOM     21  H   UNL     1       4.719   4.840   1.514  1.00  0.00     0.163 HD
ATOM     22  O   UNL     1       6.941   5.791   1.214  1.00  0.00    -0.269 OA
BRANCH  20  23
ATOM     23  C   UNL     1       6.743   6.764   3.342  1.00  0.00     0.039 A 
ATOM     24  C   UNL     1       6.594   6.322   4.655  1.00  0.00     0.014 A 
ATOM     25  C   UNL     1       7.305   8.017   3.080  1.00  0.00     0.014 A 
ATOM     26  C   UNL     1       6.831   7.201   5.705  1.00  0.00     0.010 A 
ATOM     27  C   UNL     1       7.626   8.868   4.142  1.00  0.00     0.010 A 
ATOM     28  C   UNL     1       7.334   8.490   5.462  1.00  0.00    -0.014 A 
BRANCH  28  29
ATOM     29  C   UNL     1       7.506   9.420   6.608  1.00  0.00     0.031 A 
ATOM     30  C   UNL     1       6.660  10.661   6.727  1.00  0.00     0.074 A 
ATOM     31  C   UNL     1       8.355   9.089   7.600  1.00  0.00     0.049 A 
ATOM     32  N   UNL     1       6.605  11.531   7.705  1.00  0.00    -0.248 NA
ATOM     33  C   UNL     1       5.762  10.969   5.604  1.00  0.00     0.031 C 
ATOM     34  C   UNL     1       9.224   7.909   7.606  1.00  0.00     0.029 A 
ATOM     35  N   UNL     1       8.596   9.686   8.810  1.00  0.00    -0.354 N 
ATOM     36  C   UNL     1       5.678  12.489   7.313  1.00  0.00     0.074 A 
ATOM     37  C   UNL     1       5.222  12.117   5.991  1.00  0.00     0.031 C 
ATOM     38  C   UNL     1       9.846   7.830   8.792  1.00  0.00     0.029 A 
ATOM     39  C   UNL     1       9.464   8.979   9.606  1.00  0.00     0.049 A 
ATOM     40  H   UNL     1       8.187  10.539   9.083  1.00  0.00     0.167 HD
ATOM     41  C   UNL     1       5.232  13.572   7.996  1.00  0.00     0.037 A 
ATOM     42  C   UNL     1       9.903   9.226  10.853  1.00  0.00     0.037 A 
ATOM     43  C   UNL     1       5.670  13.938   9.317  1.00  0.00     0.049 A 
ATOM     44  C   UNL     1       9.423  10.456  11.569  1.00  0.00     0.074 A 
ATOM     45  C   UNL     1       5.271  15.012  10.094  1.00  0.00     0.029 A 
ATOM     46  N   UNL     1       6.606  13.235  10.060  1.00  0.00    -0.354 N 
ATOM     47  N   UNL     1       8.541  11.346  11.185  1.00  0.00    -0.248 NA
ATOM     48  C   UNL     1      10.012  10.720  12.889  1.00  0.00     0.031 C 
ATOM     49  C   UNL     1       5.991  14.978  11.295  1.00  0.00     0.029 A 
ATOM     50  C   UNL     1       6.811  13.862  11.279  1.00  0.00     0.049 A 
ATOM     51  H   UNL     1       7.059  12.412   9.765  1.00  0.00     0.167 HD
ATOM     52  C   UNL     1       8.462  12.269  12.218  1.00  0.00     0.074 A 
ATOM     53  C   UNL     1       9.364  11.815  13.257  1.00  0.00     0.031 C 
ATOM     54  C   UNL     1       7.718  13.399  12.297  1.00  0.00     0.037 A 
BRANCH  41  55
ATOM     55  C   UNL     1       4.217  14.445   7.316  1.00  0.00     0.057 A 
ATOM     56  C   UNL     1       4.568  15.715   6.843  1.00  0.00     0.134 A 
ATOM     57  C   UNL     1       2.886  14.040   7.155  1.00  0.00     0.134 A 
ATOM     58  F   UNL     1       5.825  16.167   6.969  1.00  0.00    -0.206 F 
ATOM     59  C   UNL     1       3.631  16.552   6.233  1.00  0.00     0.040 A 
ATOM     60  C   UNL     1       1.944  14.858   6.528  1.00  0.00     0.040 A 
ATOM     61  F   UNL     1       2.489  12.829   7.574  1.00  0.00    -0.206 F 
ATOM     62  C   UNL     1       2.316  16.121   6.069  1.00  0.00     0.006 A 
ENDBRANCH  41  55
BRANCH  42  63
ATOM     63  C   UNL     1      10.850   8.294  11.511  1.00  0.00     0.057 A 
ATOM     64  C   UNL     1      12.174   8.170  11.073  1.00  0.00     0.134 A 
ATOM     65  C   UNL     1      10.458   7.523  12.611  1.00  0.00     0.134 A 
ATOM     66  F   UNL     1      12.609   8.880  10.022  1.00  0.00    -0.206 F 
ATOM     67  C   UNL     1      13.073   7.308  11.702  1.00  0.00     0.040 A 
ATOM     68  C   UNL     1      11.354   6.676  13.266  1.00  0.00     0.040 A 
ATOM     69  F   UNL     1       9.208   7.615  13.088  1.00  0.00    -0.206 F 
ATOM     70  C   UNL     1      12.665   6.565  12.808  1.00  0.00     0.006 A 
ENDBRANCH  42  63
BRANCH  54  71
ATOM     71  C   UNL     1       7.850  14.205  13.554  1.00  0.00     0.057 A 
ATOM     72  C   UNL     1       6.827  14.216  14.509  1.00  0.00     0.134 A 
ATOM     73  C   UNL     1       8.995  14.966  13.820  1.00  0.00     0.134 A 
ATOM     74  F   UNL     1       5.702  13.511  14.312  1.00  0.00    -0.206 F 
ATOM     75  C   UNL     1       6.941  14.951  15.690  1.00  0.00     0.040 A 
ATOM     76  C   UNL     1       9.131  15.687  15.007  1.00  0.00     0.040 A 
ATOM     77  F   UNL     1      10.018  14.982  12.952  1.00  0.00    -0.206 F 
ATOM     78  C   UNL     1       8.100  15.683  15.945  1.00  0.00     0.006 A 
ENDBRANCH  54  71
ENDBRANCH  28  29
ENDBRANCH  20  23
ENDBRANCH  18  19
ENDBRANCH   1  18
TORSDOF 12
