REMARK SMILES CCS(=O)(=O)N1CCC[C@@H](C(=O)NCCCCNC(=O)c2ccc(-c3c4nc(c(-c5c(F)cccc5F)c5ccc([nH]5)c(-c5c(F)cccc5F)c5nc(c(-c6c(F)cccc6F)c6ccc3[nH]6)C=C5)C=C4)cc2)C1
REMARK SMILES IDX 15 1 14 2 13 3 11 4 12 5 10 7 6 8 7 9 75 10 8 11 9 12 3 13
REMARK SMILES IDX 4 14 5 15 2 16 1 17 16 18 17 19 18 20 19 21 20 23 21 24
REMARK SMILES IDX 22 25 74 26 23 27 73 28 24 29 25 30 26 31 67 32 27 33 72 34
REMARK SMILES IDX 66 35 68 36 28 37 71 38 65 39 64 40 29 42 55 43 38 44 54 45
REMARK SMILES IDX 39 46 42 47 53 48 69 49 40 50 41 51 52 53 70 54 43 55 30 56
REMARK SMILES IDX 31 57 36 58 32 59 33 60 35 61 37 62 34 63 56 64 57 65 62 66
REMARK SMILES IDX 58 67 59 68 61 69 63 70 60 71 44 72 45 73 50 74 46 75 47 76
REMARK SMILES IDX 49 77 51 78 48 79
REMARK H PARENT 13 6 18 22 68 41 42 52
REMARK Flexibility Score: inf
ROOT
ATOM      1  C   UNL     1       3.327   4.931  -5.442  1.00  0.00     0.023 C 
ENDROOT
BRANCH   1   2
ATOM      2  C   UNL     1       4.417   4.168  -4.696  1.00  0.00     0.116 C 
BRANCH   2   3
ATOM      3  N   UNL     1       5.139   5.021  -3.765  1.00  0.00    -0.356 N 
ATOM      4  C   UNL     1       5.379   4.889  -2.430  1.00  0.00     0.224 C 
ATOM      5  O   UNL     1       6.042   5.771  -1.880  1.00  0.00    -0.275 OA
ATOM      6  H   UNL     1       5.520   5.834  -4.169  1.00  0.00     0.163 HD
BRANCH   4   7
ATOM      7  C   UNL     1       4.871   3.693  -1.638  1.00  0.00     0.093 C 
ATOM      8  N   UNL     1       2.750   2.399  -1.132  1.00  0.00    -0.201 NA
ATOM      9  C   UNL     1       3.334   1.251  -1.881  1.00  0.00     0.102 C 
ATOM     10  C   UNL     1       3.340   3.708  -1.577  1.00  0.00     0.115 C 
ATOM     11  C   UNL     1       4.821   1.168  -1.578  1.00  0.00     0.018 C 
ATOM     12  C   UNL     1       5.532   2.397  -2.118  1.00  0.00     0.016 C 
BRANCH   8  13
ATOM     13  S   UNL     1       1.032   2.439  -1.127  1.00  0.00     0.213 S 
ATOM     14  O   UNL     1       0.576   1.856  -2.369  1.00  0.00    -0.212 OA
ATOM     15  O   UNL     1       0.632   3.784  -0.757  1.00  0.00    -0.212 OA
BRANCH  13  16
ATOM     16  C   UNL     1       0.574   1.385   0.244  1.00  0.00     0.151 C 
ATOM     17  C   UNL     1       0.902  -0.080   0.077  1.00  0.00     0.022 C 
ENDBRANCH  13  16
ENDBRANCH   8  13
ENDBRANCH   4   7
ENDBRANCH   2   3
ENDBRANCH   1   2
BRANCH   1  18
ATOM     18  C   UNL     1       3.847   5.992  -6.412  1.00  0.00     0.023 C 
BRANCH  18  19
ATOM     19  C   UNL     1       4.829   5.483  -7.460  1.00  0.00     0.116 C 
BRANCH  19  20
ATOM     20  N   UNL     1       4.266   4.447  -8.313  1.00  0.00    -0.352 N 
ATOM     21  C   UNL     1       4.287   4.348  -9.683  1.00  0.00     0.251 C 
ATOM     22  H   UNL     1       3.805   3.715  -7.842  1.00  0.00     0.163 HD
ATOM     23  O   UNL     1       3.640   3.474 -10.251  1.00  0.00    -0.269 OA
BRANCH  21  24
ATOM     24  C   UNL     1       5.067   5.323 -10.474  1.00  0.00     0.039 A 
ATOM     25  C   UNL     1       4.468   5.926 -11.582  1.00  0.00     0.014 A 
ATOM     26  C   UNL     1       6.372   5.660 -10.107  1.00  0.00     0.014 A 
ATOM     27  C   UNL     1       5.154   6.922 -12.279  1.00  0.00     0.010 A 
ATOM     28  C   UNL     1       7.021   6.708 -10.752  1.00  0.00     0.010 A 
ATOM     29  C   UNL     1       6.420   7.350 -11.845  1.00  0.00    -0.014 A 
BRANCH  29  30
ATOM     30  C   UNL     1       7.125   8.472 -12.517  1.00  0.00     0.031 A 
ATOM     31  C   UNL     1       8.447   8.239 -13.194  1.00  0.00     0.074 A 
ATOM     32  C   UNL     1       6.605   9.714 -12.464  1.00  0.00     0.049 A 
ATOM     33  N   UNL     1       9.239   9.100 -13.781  1.00  0.00    -0.248 NA
ATOM     34  C   UNL     1       8.960   6.860 -13.188  1.00  0.00     0.031 C 
ATOM     35  C   UNL     1       5.354  10.081 -11.798  1.00  0.00     0.029 A 
ATOM     36  N   UNL     1       7.069  10.901 -12.974  1.00  0.00    -0.354 N 
ATOM     37  C   UNL     1      10.344   8.371 -14.203  1.00  0.00     0.074 A 
ATOM     38  C   UNL     1      10.149   7.010 -13.752  1.00  0.00     0.031 C 
ATOM     39  C   UNL     1       5.136  11.395 -11.963  1.00  0.00     0.029 A 
ATOM     40  C   UNL     1       6.251  11.973 -12.707  1.00  0.00     0.049 A 
ATOM     41  H   UNL     1       7.909  10.978 -13.482  1.00  0.00     0.167 HD
ATOM     42  C   UNL     1      11.411   8.791 -14.923  1.00  0.00     0.037 A 
ATOM     43  C   UNL     1       6.388  13.276 -13.019  1.00  0.00     0.037 A 
ATOM     44  C   UNL     1      11.595  10.143 -15.383  1.00  0.00     0.049 A 
ATOM     45  C   UNL     1       7.595  13.721 -13.798  1.00  0.00     0.074 A 
ATOM     46  C   UNL     1      12.616  10.655 -16.164  1.00  0.00     0.029 A 
ATOM     47  N   UNL     1      10.742  11.198 -15.097  1.00  0.00    -0.354 N 
ATOM     48  N   UNL     1       8.597  13.007 -14.252  1.00  0.00    -0.248 NA
ATOM     49  C   UNL     1       7.688  15.154 -14.113  1.00  0.00     0.031 C 
ATOM     50  C   UNL     1      12.410  12.031 -16.305  1.00  0.00     0.029 A 
ATOM     51  C   UNL     1      11.228  12.365 -15.664  1.00  0.00     0.049 A 
ATOM     52  H   UNL     1       9.913  11.128 -14.570  1.00  0.00     0.167 HD
ATOM     53  C   UNL     1       9.420  13.896 -14.933  1.00  0.00     0.074 A 
ATOM     54  C   UNL     1       8.793  15.198 -14.844  1.00  0.00     0.031 C 
ATOM     55  C   UNL     1      10.590  13.655 -15.574  1.00  0.00     0.037 A 
BRANCH  42  56
ATOM     56  C   UNL     1      12.465   7.773 -15.257  1.00  0.00     0.057 A 
ATOM     57  C   UNL     1      12.223   6.723 -16.153  1.00  0.00     0.134 A 
ATOM     58  C   UNL     1      13.748   7.863 -14.701  1.00  0.00     0.134 A 
ATOM     59  F   UNL     1      11.013   6.571 -16.713  1.00  0.00    -0.206 F 
ATOM     60  C   UNL     1      13.208   5.782 -16.460  1.00  0.00     0.040 A 
ATOM     61  C   UNL     1      14.750   6.946 -15.025  1.00  0.00     0.040 A 
ATOM     62  F   UNL     1      14.052   8.847 -13.842  1.00  0.00    -0.206 F 
ATOM     63  C   UNL     1      14.479   5.897 -15.900  1.00  0.00     0.006 A 
ENDBRANCH  42  56
BRANCH  43  64
ATOM     64  C   UNL     1       5.346  14.254 -12.612  1.00  0.00     0.057 A 
ATOM     65  C   UNL     1       4.532  14.880 -13.563  1.00  0.00     0.134 A 
ATOM     66  C   UNL     1       5.148  14.596 -11.269  1.00  0.00     0.134 A 
ATOM     67  F   UNL     1       4.686  14.608 -14.867  1.00  0.00    -0.206 F 
ATOM     68  C   UNL     1       3.575  15.828 -13.197  1.00  0.00     0.040 A 
ATOM     69  C   UNL     1       4.175  15.521 -10.886  1.00  0.00     0.040 A 
ATOM     70  F   UNL     1       5.890  14.027 -10.308  1.00  0.00    -0.206 F 
ATOM     71  C   UNL     1       3.391  16.147 -11.853  1.00  0.00     0.006 A 
ENDBRANCH  43  64
BRANCH  55  72
ATOM     72  C   UNL     1      11.248  14.814 -16.267  1.00  0.00     0.057 A 
ATOM     73  C   UNL     1      11.851  15.860 -15.558  1.00  0.00     0.134 A 
ATOM     74  C   UNL     1      11.311  14.862 -17.666  1.00  0.00     0.134 A 
ATOM     75  F   UNL     1      11.816  15.882 -14.216  1.00  0.00    -0.206 F 
ATOM     76  C   UNL     1      12.470  16.925 -16.215  1.00  0.00     0.040 A 
ATOM     77  C   UNL     1      11.954  15.905 -18.333  1.00  0.00     0.040 A 
ATOM     78  F   UNL     1      10.763  13.887 -18.407  1.00  0.00    -0.206 F 
ATOM     79  C   UNL     1      12.529  16.945 -17.607  1.00  0.00     0.006 A 
ENDBRANCH  55  72
ENDBRANCH  29  30
ENDBRANCH  21  24
ENDBRANCH  19  20
ENDBRANCH  18  19
ENDBRANCH   1  18
TORSDOF 13
