REMARK SMILES C[NH2+][C@@]1(C(=O)NCCCCNC(=O)c2ccc(-c3c4nc(c(-c5c(F)cccc5F)c5ccc([nH]5)c(-c5c(F)cccc5F)c5nc(c(-c6c(F)cccc6F)c6ccc3[nH]6)C=C5)C=C4)cc2)CC[C@H](Sc2nccc(=O)[nH]2)C1
REMARK SMILES IDX 8 1 7 2 6 3 4 4 5 5 3 7 68 8 79 9 69 10 70 11 2 12 1 13
REMARK SMILES IDX 71 16 72 17 73 18 78 19 74 20 76 21 75 23 77 24 9 25 10 26
REMARK SMILES IDX 11 27 12 28 13 30 14 31 15 32 67 33 16 34 66 35 17 36 18 37
REMARK SMILES IDX 19 38 60 39 20 40 65 41 59 42 61 43 21 44 64 45 58 46 57 47
REMARK SMILES IDX 22 49 48 50 31 51 47 52 32 53 35 54 46 55 62 56 33 57 34 58
REMARK SMILES IDX 45 60 63 61 36 62 23 63 24 64 29 65 25 66 26 67 28 68 30 69
REMARK SMILES IDX 27 70 49 71 50 72 55 73 51 74 52 75 54 76 56 77 53 78 37 79
REMARK SMILES IDX 38 80 43 81 39 82 40 83 42 84 44 85 41 86
REMARK H PARENT 6 6 2 14 2 15 78 22 11 29 61 48 35 59
REMARK Flexibility Score: inf
ROOT
ATOM      1  C   UNL     1      -4.520  -1.757   3.357  1.00  0.00     0.023 C 
ENDROOT
BRANCH   1   2
ATOM      2  C   UNL     1      -3.813  -0.512   2.840  1.00  0.00     0.116 C 
BRANCH   2   3
ATOM      3  N   UNL     1      -2.487  -0.352   3.370  1.00  0.00    -0.351 N 
ATOM      4  C   UNL     1      -1.278  -0.308   2.745  1.00  0.00     0.281 C 
ATOM      5  O   UNL     1      -0.304  -0.292   3.512  1.00  0.00    -0.268 OA
ATOM      6  H   UNL     1      -2.445  -0.259   4.349  1.00  0.00     0.163 HD
BRANCH   4   7
ATOM      7  C   UNL     1      -1.083  -0.340   1.160  1.00  0.00     0.176 C 
ATOM      8  C   UNL     1      -1.820   0.809   0.445  1.00  0.00     0.080 C 
ATOM      9  C   UNL     1      -1.653  -1.652   0.582  1.00  0.00     0.094 C 
ATOM     10  C   UNL     1      -2.985   0.204  -0.342  1.00  0.00     0.022 C 
ATOM     11  C   UNL     1      -2.659  -1.276  -0.528  1.00  0.00     0.062 C 
BRANCH   7  12
ATOM     12  N   UNL     1       0.386  -0.217   0.974  1.00  0.00    -0.336 N 
ATOM     13  C   UNL     1       0.943  -0.248  -0.360  1.00  0.00     0.331 C 
ATOM     14  H   UNL     1       0.663   0.672   1.390  1.00  0.00     0.346 HD
ATOM     15  H   UNL     1       0.753  -1.065   1.406  1.00  0.00     0.346 HD
ENDBRANCH   7  12
BRANCH  11  16
ATOM     16  S   UNL     1      -3.972  -2.549  -0.572  1.00  0.00    -0.084 SA
BRANCH  16  17
ATOM     17  C   UNL     1      -5.510  -1.755  -0.516  1.00  0.00     0.168 A 
ATOM     18  N   UNL     1      -5.771  -0.624  -1.076  1.00  0.00    -0.233 NA
ATOM     19  N   UNL     1      -6.431  -2.498   0.162  1.00  0.00    -0.301 N 
ATOM     20  C   UNL     1      -7.064  -0.171  -0.953  1.00  0.00     0.120 A 
ATOM     21  C   UNL     1      -7.731  -2.110   0.294  1.00  0.00     0.251 A 
ATOM     22  H   UNL     1      -6.146  -3.346   0.572  1.00  0.00     0.172 HD
ATOM     23  C   UNL     1      -8.051  -0.817  -0.324  1.00  0.00     0.091 A 
ATOM     24  O   UNL     1      -8.569  -2.788   0.875  1.00  0.00    -0.269 OA
ENDBRANCH  16  17
ENDBRANCH  11  16
ENDBRANCH   4   7
ENDBRANCH   2   3
ENDBRANCH   1   2
BRANCH   1  25
ATOM     25  C   UNL     1      -5.268  -1.574   4.665  1.00  0.00     0.023 C 
BRANCH  25  26
ATOM     26  C   UNL     1      -6.203  -0.372   4.721  1.00  0.00     0.116 C 
BRANCH  26  27
ATOM     27  N   UNL     1      -7.084  -0.222   3.568  1.00  0.00    -0.352 N 
ATOM     28  C   UNL     1      -8.418   0.138   3.550  1.00  0.00     0.251 C 
ATOM     29  H   UNL     1      -6.676  -0.400   2.690  1.00  0.00     0.163 HD
ATOM     30  O   UNL     1      -9.030   0.271   2.510  1.00  0.00    -0.269 OA
BRANCH  28  31
ATOM     31  C   UNL     1      -9.087   0.339   4.849  1.00  0.00     0.039 A 
ATOM     32  C   UNL     1     -10.175  -0.468   5.187  1.00  0.00     0.014 A 
ATOM     33  C   UNL     1      -8.540   1.235   5.768  1.00  0.00     0.014 A 
ATOM     34  C   UNL     1     -10.664  -0.436   6.494  1.00  0.00     0.010 A 
ATOM     35  C   UNL     1      -8.963   1.191   7.087  1.00  0.00     0.010 A 
ATOM     36  C   UNL     1     -10.029   0.356   7.464  1.00  0.00    -0.014 A 
BRANCH  36  37
ATOM     37  C   UNL     1     -10.457   0.358   8.884  1.00  0.00     0.031 A 
ATOM     38  C   UNL     1     -10.924   1.644   9.508  1.00  0.00     0.074 A 
ATOM     39  C   UNL     1     -10.324  -0.753   9.636  1.00  0.00     0.049 A 
ATOM     40  N   UNL     1     -11.176   1.914  10.762  1.00  0.00    -0.248 NA
ATOM     41  C   UNL     1     -11.078   2.794   8.601  1.00  0.00     0.031 C 
ATOM     42  C   UNL     1      -9.830  -2.048   9.164  1.00  0.00     0.029 A 
ATOM     43  N   UNL     1     -10.576  -0.961  10.969  1.00  0.00    -0.354 N 
ATOM     44  C   UNL     1     -11.477   3.270  10.798  1.00  0.00     0.074 A 
ATOM     45  C   UNL     1     -11.323   3.777   9.453  1.00  0.00     0.031 C 
ATOM     46  C   UNL     1      -9.836  -2.920  10.185  1.00  0.00     0.029 A 
ATOM     47  C   UNL     1     -10.295  -2.238  11.391  1.00  0.00     0.049 A 
ATOM     48  H   UNL     1     -10.925  -0.261  11.566  1.00  0.00     0.167 HD
ATOM     49  C   UNL     1     -11.873   4.020  11.853  1.00  0.00     0.037 A 
ATOM     50  C   UNL     1     -10.391  -2.791  12.615  1.00  0.00     0.037 A 
ATOM     51  C   UNL     1     -12.083   3.498  13.176  1.00  0.00     0.049 A 
ATOM     52  C   UNL     1     -10.875  -1.948  13.763  1.00  0.00     0.074 A 
ATOM     53  C   UNL     1     -12.556   4.154  14.297  1.00  0.00     0.029 A 
ATOM     54  N   UNL     1     -11.843   2.184  13.549  1.00  0.00    -0.354 N 
ATOM     55  N   UNL     1     -11.208  -0.680  13.774  1.00  0.00    -0.248 NA
ATOM     56  C   UNL     1     -11.000  -2.614  15.067  1.00  0.00     0.031 C 
ATOM     57  C   UNL     1     -12.577   3.243  15.358  1.00  0.00     0.029 A 
ATOM     58  C   UNL     1     -12.152   2.011  14.887  1.00  0.00     0.049 A 
ATOM     59  H   UNL     1     -11.503   1.479  12.951  1.00  0.00     0.167 HD
ATOM     60  C   UNL     1     -11.608  -0.404  15.075  1.00  0.00     0.074 A 
ATOM     61  C   UNL     1     -11.487  -1.639  15.821  1.00  0.00     0.031 C 
ATOM     62  C   UNL     1     -12.036   0.768  15.605  1.00  0.00     0.037 A 
BRANCH  49  63
ATOM     63  C   UNL     1     -12.118   5.479  11.606  1.00  0.00     0.057 A 
ATOM     64  C   UNL     1     -13.205   5.927  10.843  1.00  0.00     0.134 A 
ATOM     65  C   UNL     1     -11.262   6.448  12.143  1.00  0.00     0.134 A 
ATOM     66  F   UNL     1     -14.053   5.049  10.286  1.00  0.00    -0.206 F 
ATOM     67  C   UNL     1     -13.413   7.285  10.596  1.00  0.00     0.040 A 
ATOM     68  C   UNL     1     -11.477   7.811  11.927  1.00  0.00     0.040 A 
ATOM     69  F   UNL     1     -10.204   6.088  12.885  1.00  0.00    -0.206 F 
ATOM     70  C   UNL     1     -12.550   8.232  11.144  1.00  0.00     0.006 A 
ENDBRANCH  49  63
BRANCH  50  71
ATOM     71  C   UNL     1     -10.055  -4.223  12.815  1.00  0.00     0.057 A 
ATOM     72  C   UNL     1     -11.059  -5.167  13.061  1.00  0.00     0.134 A 
ATOM     73  C   UNL     1      -8.734  -4.682  12.774  1.00  0.00     0.134 A 
ATOM     74  F   UNL     1     -12.343  -4.784  13.131  1.00  0.00    -0.206 F 
ATOM     75  C   UNL     1     -10.762  -6.513  13.278  1.00  0.00     0.040 A 
ATOM     76  C   UNL     1      -8.424  -6.030  12.968  1.00  0.00     0.040 A 
ATOM     77  F   UNL     1      -7.727  -3.829  12.536  1.00  0.00    -0.206 F 
ATOM     78  C   UNL     1      -9.439  -6.949  13.228  1.00  0.00     0.006 A 
ENDBRANCH  50  71
BRANCH  62  79
ATOM     79  C   UNL     1     -12.442   0.758  17.048  1.00  0.00     0.057 A 
ATOM     80  C   UNL     1     -11.497   0.698  18.079  1.00  0.00     0.134 A 
ATOM     81  C   UNL     1     -13.792   0.856  17.408  1.00  0.00     0.134 A 
ATOM     82  F   UNL     1     -10.190   0.591  17.799  1.00  0.00    -0.206 F 
ATOM     83  C   UNL     1     -11.883   0.716  19.420  1.00  0.00     0.040 A 
ATOM     84  C   UNL     1     -14.188   0.899  18.744  1.00  0.00     0.040 A 
ATOM     85  F   UNL     1     -14.744   0.925  16.465  1.00  0.00    -0.206 F 
ATOM     86  C   UNL     1     -13.232   0.824  19.755  1.00  0.00     0.006 A 
ENDBRANCH  62  79
ENDBRANCH  36  37
ENDBRANCH  28  31
ENDBRANCH  26  27
ENDBRANCH  25  26
ENDBRANCH   1  25
TORSDOF 14
