REMARK SMILES O=C(NCCCCNC(=O)[C@@H](NC(=O)c1ccc(C[NH+]2CCCCC2)cc1)c1ccccc1F)c1ccc(-c2c3nc(c(-c4c(F)cccc4F)c4ccc([nH]4)c(-c4c(F)cccc4F)c4nc(c(-c5c(F)cccc5F)c5ccc2[nH]5)C=C4)C=C3)cc1
REMARK SMILES IDX 6 1 5 2 4 3 3 4 1 5 2 6 35 8 36 9 88 10 37 11 87 12 38 13
REMARK SMILES IDX 39 14 40 15 81 16 41 17 86 18 80 19 82 20 42 21 85 22 79 23
REMARK SMILES IDX 78 24 43 26 69 27 52 28 68 29 53 30 56 31 67 32 83 33 54 34
REMARK SMILES IDX 55 35 66 37 84 38 57 39 44 40 45 41 50 42 46 43 47 44 49 45
REMARK SMILES IDX 51 46 48 47 70 48 71 49 76 50 72 51 73 52 75 53 77 54 74 55
REMARK SMILES IDX 58 56 59 57 64 58 60 59 61 60 63 61 65 62 62 63 7 64 8 65
REMARK SMILES IDX 9 66 10 68 11 69 12 70 13 71 14 73 15 74 16 75 27 76 17 77
REMARK SMILES IDX 26 78 18 79 19 80 20 81 21 82 25 83 22 85 24 86 23 87 28 88
REMARK SMILES IDX 29 89 33 90 30 91 32 92 34 93 31 94
REMARK H PARENT 3 7 82 25 56 36 8 67 12 72 20 84
REMARK Flexibility Score: inf
ROOT
ATOM      1  C   UNL     1       4.733  -0.683   3.540  1.00  0.00     0.023 C 
ENDROOT
BRANCH   1   2
ATOM      2  C   UNL     1       5.154   0.224   2.386  1.00  0.00     0.023 C 
BRANCH   2   3
ATOM      3  C   UNL     1       4.793  -0.281   0.991  1.00  0.00     0.116 C 
BRANCH   3   4
ATOM      4  N   UNL     1       3.370  -0.539   0.824  1.00  0.00    -0.352 N 
ATOM      5  O   UNL     1       1.297  -0.244  -0.026  1.00  0.00    -0.269 OA
ATOM      6  C   UNL     1       2.494  -0.007  -0.092  1.00  0.00     0.251 C 
ATOM      7  H   UNL     1       2.980  -1.186   1.456  1.00  0.00     0.163 HD
BRANCH   6   8
ATOM      8  C   UNL     1       3.020   0.888  -1.141  1.00  0.00     0.039 A 
ATOM      9  C   UNL     1       4.101   0.488  -1.932  1.00  0.00     0.014 A 
ATOM     10  C   UNL     1       2.452   2.153  -1.295  1.00  0.00     0.014 A 
ATOM     11  C   UNL     1       4.706   1.407  -2.780  1.00  0.00     0.010 A 
ATOM     12  C   UNL     1       3.016   3.050  -2.201  1.00  0.00     0.010 A 
ATOM     13  C   UNL     1       4.167   2.695  -2.924  1.00  0.00    -0.014 A 
BRANCH  13  14
ATOM     14  C   UNL     1       4.785   3.659  -3.863  1.00  0.00     0.031 A 
ATOM     15  C   UNL     1       5.417   4.924  -3.360  1.00  0.00     0.074 A 
ATOM     16  C   UNL     1       4.741   3.399  -5.182  1.00  0.00     0.049 A 
ATOM     17  N   UNL     1       5.907   5.928  -4.041  1.00  0.00    -0.248 NA
ATOM     18  C   UNL     1       5.500   5.088  -1.901  1.00  0.00     0.031 C 
ATOM     19  C   UNL     1       4.154   2.200  -5.783  1.00  0.00     0.029 A 
ATOM     20  N   UNL     1       5.182   4.130  -6.253  1.00  0.00    -0.354 N 
ATOM     21  C   UNL     1       6.330   6.856  -3.097  1.00  0.00     0.074 A 
ATOM     22  C   UNL     1       6.025   6.301  -1.795  1.00  0.00     0.031 C 
ATOM     23  C   UNL     1       4.271   2.277  -7.116  1.00  0.00     0.029 A 
ATOM     24  C   UNL     1       4.885   3.554  -7.463  1.00  0.00     0.049 A 
ATOM     25  H   UNL     1       5.664   4.984  -6.164  1.00  0.00     0.167 HD
ATOM     26  C   UNL     1       6.917   8.059  -3.304  1.00  0.00     0.037 A 
ATOM     27  C   UNL     1       5.048   4.018  -8.715  1.00  0.00     0.037 A 
ATOM     28  C   UNL     1       7.228   8.594  -4.605  1.00  0.00     0.049 A 
ATOM     29  C   UNL     1       5.671   5.365  -8.920  1.00  0.00     0.074 A 
ATOM     30  C   UNL     1       7.866   9.781  -4.920  1.00  0.00     0.029 A 
ATOM     31  N   UNL     1       6.914   7.978  -5.808  1.00  0.00    -0.354 N 
ATOM     32  N   UNL     1       6.094   6.221  -8.022  1.00  0.00    -0.248 NA
ATOM     33  C   UNL     1       5.838   5.814 -10.308  1.00  0.00     0.031 C 
ATOM     34  C   UNL     1       7.896   9.904  -6.313  1.00  0.00     0.029 A 
ATOM     35  C   UNL     1       7.321   8.772  -6.867  1.00  0.00     0.049 A 
ATOM     36  H   UNL     1       6.467   7.104  -5.895  1.00  0.00     0.167 HD
ATOM     37  C   UNL     1       6.596   7.301  -8.732  1.00  0.00     0.074 A 
ATOM     38  C   UNL     1       6.429   6.990 -10.138  1.00  0.00     0.031 C 
ATOM     39  C   UNL     1       7.150   8.444  -8.261  1.00  0.00     0.037 A 
BRANCH  26  40
ATOM     40  C   UNL     1       7.231   8.893  -2.095  1.00  0.00     0.057 A 
ATOM     41  C   UNL     1       8.261   8.558  -1.206  1.00  0.00     0.134 A 
ATOM     42  C   UNL     1       6.504  10.060  -1.829  1.00  0.00     0.134 A 
ATOM     43  F   UNL     1       8.989   7.447  -1.396  1.00  0.00    -0.206 F 
ATOM     44  C   UNL     1       8.536   9.338  -0.080  1.00  0.00     0.040 A 
ATOM     45  C   UNL     1       6.786  10.861  -0.721  1.00  0.00     0.040 A 
ATOM     46  F   UNL     1       5.510  10.444  -2.644  1.00  0.00    -0.206 F 
ATOM     47  C   UNL     1       7.800  10.496   0.162  1.00  0.00     0.006 A 
ENDBRANCH  26  40
BRANCH  27  48
ATOM     48  C   UNL     1       4.587   3.189  -9.853  1.00  0.00     0.057 A 
ATOM     49  C   UNL     1       5.497   2.519 -10.675  1.00  0.00     0.134 A 
ATOM     50  C   UNL     1       3.222   2.991 -10.099  1.00  0.00     0.134 A 
ATOM     51  F   UNL     1       6.816   2.680 -10.492  1.00  0.00    -0.206 F 
ATOM     52  C   UNL     1       5.068   1.678 -11.702  1.00  0.00     0.040 A 
ATOM     53  C   UNL     1       2.779   2.135 -11.106  1.00  0.00     0.040 A 
ATOM     54  F   UNL     1       2.302   3.597  -9.333  1.00  0.00    -0.206 F 
ATOM     55  C   UNL     1       3.704   1.476 -11.912  1.00  0.00     0.006 A 
ENDBRANCH  27  48
BRANCH  39  56
ATOM     56  C   UNL     1       7.649   9.432  -9.271  1.00  0.00     0.057 A 
ATOM     57  C   UNL     1       6.776  10.254  -9.993  1.00  0.00     0.134 A 
ATOM     58  C   UNL     1       9.024   9.604  -9.476  1.00  0.00     0.134 A 
ATOM     59  F   UNL     1       5.449  10.127  -9.851  1.00  0.00    -0.206 F 
ATOM     60  C   UNL     1       7.254  11.210 -10.891  1.00  0.00     0.040 A 
ATOM     61  C   UNL     1       9.514  10.570 -10.354  1.00  0.00     0.040 A 
ATOM     62  F   UNL     1       9.911   8.850  -8.809  1.00  0.00    -0.206 F 
ATOM     63  C   UNL     1       8.628  11.376 -11.066  1.00  0.00     0.006 A 
ENDBRANCH  39  56
ENDBRANCH  13  14
ENDBRANCH   6   8
ENDBRANCH   3   4
ENDBRANCH   2   3
ENDBRANCH   1   2
BRANCH   1  64
ATOM     64  C   UNL     1       5.154  -2.135   3.382  1.00  0.00     0.116 C 
BRANCH  64  65
ATOM     65  N   UNL     1       6.581  -2.346   3.494  1.00  0.00    -0.354 N 
ATOM     66  C   UNL     1       7.266  -3.438   3.954  1.00  0.00     0.247 C 
ATOM     67  H   UNL     1       7.141  -1.594   3.195  1.00  0.00     0.163 HD
ATOM     68  O   UNL     1       8.462  -3.503   3.648  1.00  0.00    -0.272 OA
BRANCH  66  69
ATOM     69  C   UNL     1       6.574  -4.607   4.719  1.00  0.00     0.205 C 
BRANCH  69  70
ATOM     70  N   UNL     1       5.659  -4.106   5.769  1.00  0.00    -0.336 N 
ATOM     71  C   UNL     1       4.338  -4.246   6.085  1.00  0.00     0.252 C 
ATOM     72  H   UNL     1       6.125  -3.518   6.406  1.00  0.00     0.165 HD
ATOM     73  O   UNL     1       3.824  -3.515   6.926  1.00  0.00    -0.269 OA
BRANCH  71  74
ATOM     74  C   UNL     1       3.509  -5.222   5.383  1.00  0.00     0.039 A 
ATOM     75  C   UNL     1       2.591  -4.768   4.434  1.00  0.00     0.014 A 
ATOM     76  C   UNL     1       3.694  -6.580   5.625  1.00  0.00     0.014 A 
ATOM     77  C   UNL     1       1.968  -5.694   3.602  1.00  0.00     0.010 A 
ATOM     78  C   UNL     1       3.053  -7.502   4.803  1.00  0.00     0.010 A 
ATOM     79  C   UNL     1       2.228  -7.066   3.751  1.00  0.00     0.006 A 
BRANCH  79  80
ATOM     80  C   UNL     1       1.675  -8.070   2.762  1.00  0.00     0.299 C 
BRANCH  80  81
ATOM     81  N   UNL     1       0.309  -8.545   3.002  1.00  0.00    -0.331 N 
ATOM     82  C   UNL     1       0.156  -9.176   4.317  1.00  0.00     0.262 C 
ATOM     83  C   UNL     1      -0.702  -7.514   2.752  1.00  0.00     0.262 C 
ATOM     84  H   UNL     1       0.139  -9.277   2.313  1.00  0.00     0.348 HD
ATOM     85  C   UNL     1      -1.238  -9.776   4.488  1.00  0.00     0.062 C 
ATOM     86  C   UNL     1      -2.114  -8.082   2.876  1.00  0.00     0.062 C 
ATOM     87  C   UNL     1      -2.317  -8.728   4.241  1.00  0.00     0.012 C 
ENDBRANCH  80  81
ENDBRANCH  79  80
ENDBRANCH  71  74
ENDBRANCH  69  70
BRANCH  69  88
ATOM     88  C   UNL     1       6.169  -5.732   3.784  1.00  0.00     0.020 A 
ATOM     89  C   UNL     1       5.397  -5.538   2.627  1.00  0.00     0.009 A 
ATOM     90  C   UNL     1       6.638  -7.032   4.018  1.00  0.00     0.129 A 
ATOM     91  C   UNL     1       5.100  -6.592   1.755  1.00  0.00     0.001 A 
ATOM     92  C   UNL     1       6.350  -8.091   3.154  1.00  0.00     0.039 A 
ATOM     93  F   UNL     1       7.384  -7.288   5.102  1.00  0.00    -0.207 F 
ATOM     94  C   UNL     1       5.577  -7.871   2.018  1.00  0.00     0.003 A 
ENDBRANCH  69  88
ENDBRANCH  66  69
ENDBRANCH  64  65
ENDBRANCH   1  64
TORSDOF 16
