REMARK SMILES NC(=O)C[C@H](NC(=O)[C@@H]1CC(=O)N(CC2CC2)C1)C(=O)NCCCCNC(=O)c1ccc(-c2c3nc(c(-c4c(F)cccc4F)c4ccc([nH]4)c(-c4c(F)cccc4F)c4nc(c(-c5c(F)cccc5F)c5ccc2[nH]5)C=C4)C=C3)cc1
REMARK SMILES IDX 22 1 21 2 19 3 20 4 5 6 4 7 2 8 1 9 3 12 6 13 7 14 8 16 9 17
REMARK SMILES IDX 10 18 18 19 11 20 13 21 12 22 14 23 15 24 16 25 17 26 23 27
REMARK SMILES IDX 24 28 25 29 26 30 27 31 28 33 29 34 30 35 82 36 31 37 81 38
REMARK SMILES IDX 32 39 33 40 34 41 75 42 35 43 80 44 74 45 76 46 36 47 79 48
REMARK SMILES IDX 73 49 72 50 37 52 63 53 46 54 62 55 47 56 50 57 61 58 77 59
REMARK SMILES IDX 48 60 49 61 60 63 78 64 51 65 38 66 39 67 44 68 40 69 41 70
REMARK SMILES IDX 43 71 45 72 42 73 64 74 65 75 70 76 66 77 67 78 69 79 71 80
REMARK SMILES IDX 68 81 52 82 53 83 58 84 54 85 55 86 57 87 59 88 56 89
REMARK H PARENT 21 5 1 10 1 11 6 15 26 32 76 51 50 62
REMARK Flexibility Score: inf
ROOT
ATOM      1  C   UNL     1       3.712   3.286  -1.887  1.00  0.00     0.116 C 
ENDROOT
BRANCH   1   2
ATOM      2  N   UNL     1       3.274   4.379  -1.026  1.00  0.00    -0.354 N 
ATOM      3  C   UNL     1       2.610   4.305   0.175  1.00  0.00     0.243 C 
ATOM      4  O   UNL     1       2.471   5.318   0.858  1.00  0.00    -0.273 OA
ATOM      5  H   UNL     1       3.479   5.287  -1.347  1.00  0.00     0.163 HD
BRANCH   3   6
ATOM      6  C   UNL     1       2.180   2.921   0.697  1.00  0.00     0.180 C 
BRANCH   6   7
ATOM      7  C   UNL     1       3.486   2.230   1.108  1.00  0.00     0.134 C 
BRANCH   7   8
ATOM      8  C   UNL     1       3.571   1.836   2.568  1.00  0.00     0.220 C 
ATOM      9  N   UNL     1       2.988   2.629   3.502  1.00  0.00    -0.370 N 
ATOM     10  H   UNL     1       3.035   2.385   4.454  1.00  0.00     0.159 HD
ATOM     11  H   UNL     1       2.517   3.449   3.227  1.00  0.00     0.159 HD
ATOM     12  O   UNL     1       4.197   0.840   2.918  1.00  0.00    -0.275 OA
ENDBRANCH   7   8
ENDBRANCH   6   7
BRANCH   6  13
ATOM     13  N   UNL     1       1.310   2.382  -0.374  1.00  0.00    -0.343 N 
ATOM     14  C   UNL     1       0.826   1.211  -0.832  1.00  0.00     0.226 C 
ATOM     15  H   UNL     1       0.978   3.121  -0.934  1.00  0.00     0.164 HD
ATOM     16  O   UNL     1      -0.022   1.332  -1.723  1.00  0.00    -0.275 OA
BRANCH  14  17
ATOM     17  C   UNL     1       1.383  -0.155  -0.482  1.00  0.00     0.107 C 
ATOM     18  C   UNL     1       0.386  -1.274  -0.832  1.00  0.00     0.115 C 
ATOM     19  C   UNL     1       1.683  -0.401   0.973  1.00  0.00     0.133 C 
ATOM     20  C   UNL     1      -0.256  -1.604   0.493  1.00  0.00     0.223 C 
ATOM     21  N   UNL     1       0.568  -1.129   1.490  1.00  0.00    -0.342 N 
ATOM     22  O   UNL     1      -1.302  -2.220   0.640  1.00  0.00    -0.275 OA
BRANCH  21  23
ATOM     23  C   UNL     1       0.334  -1.257   2.915  1.00  0.00     0.123 C 
BRANCH  23  24
ATOM     24  C   UNL     1       1.191  -2.267   3.622  1.00  0.00     0.008 C 
ATOM     25  C   UNL     1       2.046  -3.298   2.923  1.00  0.00     0.006 C 
ATOM     26  C   UNL     1       2.699  -2.173   3.679  1.00  0.00     0.006 C 
ENDBRANCH  23  24
ENDBRANCH  21  23
ENDBRANCH  14  17
ENDBRANCH   6  13
ENDBRANCH   3   6
ENDBRANCH   1   2
BRANCH   1  27
ATOM     27  C   UNL     1       3.244   3.463  -3.324  1.00  0.00     0.023 C 
BRANCH  27  28
ATOM     28  C   UNL     1       3.998   4.552  -4.080  1.00  0.00     0.023 C 
BRANCH  28  29
ATOM     29  C   UNL     1       5.508   4.353  -4.136  1.00  0.00     0.116 C 
BRANCH  29  30
ATOM     30  N   UNL     1       5.898   3.117  -4.798  1.00  0.00    -0.352 N 
ATOM     31  C   UNL     1       6.885   2.932  -5.737  1.00  0.00     0.251 C 
ATOM     32  H   UNL     1       5.392   2.312  -4.540  1.00  0.00     0.163 HD
ATOM     33  O   UNL     1       7.012   1.857  -6.311  1.00  0.00    -0.269 OA
BRANCH  31  34
ATOM     34  C   UNL     1       7.770   4.066  -6.068  1.00  0.00     0.039 A 
ATOM     35  C   UNL     1       7.941   4.425  -7.405  1.00  0.00     0.014 A 
ATOM     36  C   UNL     1       8.371   4.809  -5.048  1.00  0.00     0.014 A 
ATOM     37  C   UNL     1       8.666   5.576  -7.718  1.00  0.00     0.010 A 
ATOM     38  C   UNL     1       9.019   5.998  -5.357  1.00  0.00     0.010 A 
ATOM     39  C   UNL     1       9.178   6.392  -6.695  1.00  0.00    -0.014 A 
BRANCH  39  40
ATOM     40  C   UNL     1       9.895   7.655  -6.998  1.00  0.00     0.031 A 
ATOM     41  C   UNL     1      11.337   7.810  -6.601  1.00  0.00     0.074 A 
ATOM     42  C   UNL     1       9.235   8.684  -7.565  1.00  0.00     0.049 A 
ATOM     43  N   UNL     1      12.114   8.858  -6.698  1.00  0.00    -0.248 NA
ATOM     44  C   UNL     1      11.981   6.639  -5.985  1.00  0.00     0.031 C 
ATOM     45  C   UNL     1       7.825   8.674  -7.960  1.00  0.00     0.029 A 
ATOM     46  N   UNL     1       9.664   9.944  -7.899  1.00  0.00    -0.354 N 
ATOM     47  C   UNL     1      13.330   8.477  -6.145  1.00  0.00     0.074 A 
ATOM     48  C   UNL     1      13.168   7.125  -5.656  1.00  0.00     0.031 C 
ATOM     49  C   UNL     1       7.513   9.860  -8.506  1.00  0.00     0.029 A 
ATOM     50  C   UNL     1       8.685  10.728  -8.461  1.00  0.00     0.049 A 
ATOM     51  H   UNL     1      10.585  10.256  -7.751  1.00  0.00     0.167 HD
ATOM     52  C   UNL     1      14.486   9.178  -6.074  1.00  0.00     0.037 A 
ATOM     53  C   UNL     1       8.728  12.006  -8.883  1.00  0.00     0.037 A 
ATOM     54  C   UNL     1      14.649  10.516  -6.579  1.00  0.00     0.049 A 
ATOM     55  C   UNL     1      10.016  12.774  -8.771  1.00  0.00     0.074 A 
ATOM     56  C   UNL     1      15.792  11.296  -6.600  1.00  0.00     0.029 A 
ATOM     57  N   UNL     1      13.636  11.274  -7.149  1.00  0.00    -0.354 N 
ATOM     58  N   UNL     1      11.176  12.382  -8.302  1.00  0.00    -0.248 NA
ATOM     59  C   UNL     1      10.003  14.163  -9.252  1.00  0.00     0.031 C 
ATOM     60  C   UNL     1      15.459  12.544  -7.136  1.00  0.00     0.029 A 
ATOM     61  C   UNL     1      14.123  12.521  -7.503  1.00  0.00     0.049 A 
ATOM     62  H   UNL     1      12.709  10.970  -7.281  1.00  0.00     0.167 HD
ATOM     63  C   UNL     1      12.037  13.459  -8.463  1.00  0.00     0.074 A 
ATOM     64  C   UNL     1      11.269  14.519  -9.083  1.00  0.00     0.031 C 
ATOM     65  C   UNL     1      13.348  13.562  -8.131  1.00  0.00     0.037 A 
BRANCH  52  66
ATOM     66  C   UNL     1      15.662   8.507  -5.426  1.00  0.00     0.057 A 
ATOM     67  C   UNL     1      16.309   7.412  -6.018  1.00  0.00     0.134 A 
ATOM     68  C   UNL     1      16.169   8.970  -4.205  1.00  0.00     0.134 A 
ATOM     69  F   UNL     1      15.867   6.909  -7.180  1.00  0.00    -0.206 F 
ATOM     70  C   UNL     1      17.393   6.784  -5.404  1.00  0.00     0.040 A 
ATOM     71  C   UNL     1      17.273   8.370  -3.597  1.00  0.00     0.040 A 
ATOM     72  F   UNL     1      15.602  10.017  -3.585  1.00  0.00    -0.206 F 
ATOM     73  C   UNL     1      17.883   7.268  -4.192  1.00  0.00     0.006 A 
ENDBRANCH  52  66
BRANCH  53  74
ATOM     74  C   UNL     1       7.519  12.636  -9.474  1.00  0.00     0.057 A 
ATOM     75  C   UNL     1       7.468  12.960 -10.835  1.00  0.00     0.134 A 
ATOM     76  C   UNL     1       6.396  12.941  -8.697  1.00  0.00     0.134 A 
ATOM     77  F   UNL     1       8.520  12.709 -11.628  1.00  0.00    -0.206 F 
ATOM     78  C   UNL     1       6.353  13.583 -11.398  1.00  0.00     0.040 A 
ATOM     79  C   UNL     1       5.263  13.540  -9.252  1.00  0.00     0.040 A 
ATOM     80  F   UNL     1       6.377  12.650  -7.388  1.00  0.00    -0.206 F 
ATOM     81  C   UNL     1       5.244  13.870 -10.606  1.00  0.00     0.006 A 
ENDBRANCH  53  74
BRANCH  65  82
ATOM     82  C   UNL     1      14.049  14.845  -8.473  1.00  0.00     0.057 A 
ATOM     83  C   UNL     1      13.793  16.038  -7.787  1.00  0.00     0.134 A 
ATOM     84  C   UNL     1      15.026  14.873  -9.477  1.00  0.00     0.134 A 
ATOM     85  F   UNL     1      12.861  16.083  -6.823  1.00  0.00    -0.206 F 
ATOM     86  C   UNL     1      14.468  17.219  -8.102  1.00  0.00     0.040 A 
ATOM     87  C   UNL     1      15.729  16.040  -9.780  1.00  0.00     0.040 A 
ATOM     88  F   UNL     1      15.327  13.762 -10.167  1.00  0.00    -0.206 F 
ATOM     89  C   UNL     1      15.445  17.219  -9.096  1.00  0.00     0.006 A 
ENDBRANCH  65  82
ENDBRANCH  39  40
ENDBRANCH  31  34
ENDBRANCH  29  30
ENDBRANCH  28  29
ENDBRANCH  27  28
ENDBRANCH   1  27
TORSDOF 17
