REMARK SMILES CCC[NH2+][C@@H]1COC[C@@H]1C(=O)N[C@@](C)(CC)C(=O)NCCCCNC(=O)c1ccc(-c2c3nc(c(-c4c(F)cccc4F)c4ccc([nH]4)c(-c4c(F)cccc4F)c4nc(c(-c5c(F)cccc5F)c5ccc2[nH]5)C=C4)C=C3)cc1
REMARK SMILES IDX 20 1 19 2 17 3 18 4 13 6 14 7 12 8 10 9 11 10 9 12 5 13 6 14
REMARK SMILES IDX 7 15 8 16 4 17 3 20 2 21 1 22 15 23 16 24 21 25 22 26 23 27
REMARK SMILES IDX 24 28 25 29 26 31 27 32 28 33 80 34 29 35 79 36 30 37 31 38
REMARK SMILES IDX 32 39 73 40 33 41 78 42 72 43 74 44 34 45 77 46 71 47 70 48
REMARK SMILES IDX 35 50 61 51 44 52 60 53 45 54 48 55 59 56 75 57 46 58 47 59
REMARK SMILES IDX 58 61 76 62 49 63 36 64 37 65 42 66 38 67 39 68 41 69 43 70
REMARK SMILES IDX 40 71 62 72 63 73 68 74 64 75 65 76 67 77 69 78 66 79 50 80
REMARK SMILES IDX 51 81 56 82 52 83 53 84 55 85 57 86 54 87
REMARK H PARENT 19 5 12 11 4 18 4 19 24 30 74 49 48 60
REMARK Flexibility Score: inf
ROOT
ATOM      1  C   UNL     1       0.422   0.749   5.185  1.00  0.00     0.116 C 
ENDROOT
BRANCH   1   2
ATOM      2  N   UNL     1       0.872  -0.398   4.426  1.00  0.00    -0.354 N 
ATOM      3  C   UNL     1       0.283  -1.471   3.849  1.00  0.00     0.245 C 
ATOM      4  O   UNL     1       1.123  -2.256   3.404  1.00  0.00    -0.272 OA
ATOM      5  H   UNL     1       1.847  -0.398   4.297  1.00  0.00     0.163 HD
BRANCH   3   6
ATOM      6  C   UNL     1      -1.267  -1.690   3.712  1.00  0.00     0.116 C 
ATOM      7  C   UNL     1      -1.773  -0.488   2.869  1.00  0.00     0.045 C 
BRANCH   6   8
ATOM      8  N   UNL     1      -1.797  -2.865   2.933  1.00  0.00    -0.341 N 
ATOM      9  C   UNL     1      -1.467  -4.156   2.671  1.00  0.00     0.232 C 
ATOM     10  O   UNL     1      -2.411  -4.886   2.349  1.00  0.00    -0.274 OA
ATOM     11  H   UNL     1      -2.635  -2.624   2.476  1.00  0.00     0.164 HD
BRANCH   9  12
ATOM     12  C   UNL     1      -0.036  -4.664   2.683  1.00  0.00     0.164 C 
ATOM     13  C   UNL     1       0.753  -4.284   1.415  1.00  0.00     0.223 C 
ATOM     14  C   UNL     1       0.459  -5.460   0.493  1.00  0.00     0.225 C 
ATOM     15  O   UNL     1       0.413  -6.619   1.331  1.00  0.00    -0.374 OA
ATOM     16  C   UNL     1       0.030  -6.193   2.649  1.00  0.00     0.180 C 
BRANCH  13  17
ATOM     17  N   UNL     1       0.469  -2.949   0.875  1.00  0.00    -0.341 N 
ATOM     18  H   UNL     1      -0.541  -2.867   0.757  1.00  0.00     0.346 HD
ATOM     19  H   UNL     1       0.864  -2.289   1.545  1.00  0.00     0.346 HD
BRANCH  17  20
ATOM     20  C   UNL     1       1.094  -2.635  -0.402  1.00  0.00     0.260 C 
BRANCH  20  21
ATOM     21  C   UNL     1       0.621  -1.258  -0.889  1.00  0.00     0.058 C 
ATOM     22  C   UNL     1       1.158  -0.088  -0.073  1.00  0.00     0.010 C 
ENDBRANCH  20  21
ENDBRANCH  17  20
ENDBRANCH  13  17
ENDBRANCH   9  12
ENDBRANCH   6   8
BRANCH   6  23
ATOM     23  C   UNL     1      -1.977  -1.671   5.088  1.00  0.00     0.035 C 
ATOM     24  C   UNL     1      -1.659  -2.859   5.984  1.00  0.00     0.007 C 
ENDBRANCH   6  23
ENDBRANCH   3   6
ENDBRANCH   1   2
BRANCH   1  25
ATOM     25  C   UNL     1       0.748   0.596   6.669  1.00  0.00     0.023 C 
BRANCH  25  26
ATOM     26  C   UNL     1       2.201   0.228   6.993  1.00  0.00     0.023 C 
BRANCH  26  27
ATOM     27  C   UNL     1       3.279   1.068   6.316  1.00  0.00     0.116 C 
BRANCH  27  28
ATOM     28  N   UNL     1       3.155   2.488   6.585  1.00  0.00    -0.352 N 
ATOM     29  C   UNL     1       4.140   3.397   6.900  1.00  0.00     0.251 C 
ATOM     30  H   UNL     1       2.242   2.852   6.534  1.00  0.00     0.163 HD
ATOM     31  O   UNL     1       3.852   4.549   7.176  1.00  0.00    -0.269 OA
BRANCH  29  32
ATOM     32  C   UNL     1       5.550   2.952   6.944  1.00  0.00     0.039 A 
ATOM     33  C   UNL     1       6.300   3.224   8.091  1.00  0.00     0.014 A 
ATOM     34  C   UNL     1       6.119   2.255   5.875  1.00  0.00     0.014 A 
ATOM     35  C   UNL     1       7.603   2.733   8.199  1.00  0.00     0.010 A 
ATOM     36  C   UNL     1       7.399   1.722   6.005  1.00  0.00     0.010 A 
ATOM     37  C   UNL     1       8.149   1.948   7.171  1.00  0.00    -0.014 A 
BRANCH  37  38
ATOM     38  C   UNL     1       9.498   1.341   7.293  1.00  0.00     0.031 A 
ATOM     39  C   UNL     1      10.600   1.772   6.369  1.00  0.00     0.074 A 
ATOM     40  C   UNL     1       9.701   0.335   8.166  1.00  0.00     0.049 A 
ATOM     41  N   UNL     1      11.796   1.264   6.213  1.00  0.00    -0.248 NA
ATOM     42  C   UNL     1      10.309   2.909   5.480  1.00  0.00     0.031 C 
ATOM     43  C   UNL     1       8.699  -0.205   9.087  1.00  0.00     0.029 A 
ATOM     44  N   UNL     1      10.814  -0.434   8.400  1.00  0.00    -0.354 N 
ATOM     45  C   UNL     1      12.385   1.992   5.189  1.00  0.00     0.074 A 
ATOM     46  C   UNL     1      11.410   2.964   4.744  1.00  0.00     0.031 C 
ATOM     47  C   UNL     1       9.241  -1.219   9.781  1.00  0.00     0.029 A 
ATOM     48  C   UNL     1      10.613  -1.426   9.330  1.00  0.00     0.049 A 
ATOM     49  H   UNL     1      11.675  -0.289   7.944  1.00  0.00     0.167 HD
ATOM     50  C   UNL     1      13.631   1.867   4.675  1.00  0.00     0.037 A 
ATOM     51  C   UNL     1      11.435  -2.404   9.755  1.00  0.00     0.037 A 
ATOM     52  C   UNL     1      14.617   0.936   5.154  1.00  0.00     0.049 A 
ATOM     53  C   UNL     1      12.824  -2.500   9.187  1.00  0.00     0.074 A 
ATOM     54  C   UNL     1      15.935   0.797   4.756  1.00  0.00     0.029 A 
ATOM     55  N   UNL     1      14.392  -0.014   6.138  1.00  0.00    -0.354 N 
ATOM     56  N   UNL     1      13.392  -1.758   8.267  1.00  0.00    -0.248 NA
ATOM     57  C   UNL     1      13.688  -3.565   9.716  1.00  0.00     0.031 C 
ATOM     58  C   UNL     1      16.500  -0.259   5.478  1.00  0.00     0.029 A 
ATOM     59  C   UNL     1      15.543  -0.754   6.348  1.00  0.00     0.049 A 
ATOM     60  H   UNL     1      13.541  -0.143   6.616  1.00  0.00     0.167 HD
ATOM     61  C   UNL     1      14.683  -2.249   8.127  1.00  0.00     0.074 A 
ATOM     62  C   UNL     1      14.820  -3.345   9.062  1.00  0.00     0.031 C 
ATOM     63  C   UNL     1      15.668  -1.828   7.298  1.00  0.00     0.037 A 
BRANCH  50  64
ATOM     64  C   UNL     1      14.007   2.762   3.533  1.00  0.00     0.057 A 
ATOM     65  C   UNL     1      14.278   4.123   3.720  1.00  0.00     0.134 A 
ATOM     66  C   UNL     1      14.158   2.242   2.242  1.00  0.00     0.134 A 
ATOM     67  F   UNL     1      14.141   4.684   4.931  1.00  0.00    -0.206 F 
ATOM     68  C   UNL     1      14.672   4.939   2.658  1.00  0.00     0.040 A 
ATOM     69  C   UNL     1      14.572   3.043   1.177  1.00  0.00     0.040 A 
ATOM     70  F   UNL     1      13.918   0.945   1.998  1.00  0.00    -0.206 F 
ATOM     71  C   UNL     1      14.828   4.397   1.384  1.00  0.00     0.006 A 
ENDBRANCH  50  64
BRANCH  51  72
ATOM     72  C   UNL     1      10.970  -3.380  10.771  1.00  0.00     0.057 A 
ATOM     73  C   UNL     1      11.472  -3.359  12.077  1.00  0.00     0.134 A 
ATOM     74  C   UNL     1      10.031  -4.370  10.455  1.00  0.00     0.134 A 
ATOM     75  F   UNL     1      12.388  -2.446  12.432  1.00  0.00    -0.206 F 
ATOM     76  C   UNL     1      11.075  -4.300  13.028  1.00  0.00     0.040 A 
ATOM     77  C   UNL     1       9.609  -5.304  11.403  1.00  0.00     0.040 A 
ATOM     78  F   UNL     1       9.508  -4.439   9.223  1.00  0.00    -0.206 F 
ATOM     79  C   UNL     1      10.138  -5.275  12.692  1.00  0.00     0.006 A 
ENDBRANCH  51  72
BRANCH  63  80
ATOM     80  C   UNL     1      16.991  -2.526   7.389  1.00  0.00     0.057 A 
ATOM     81  C   UNL     1      17.191  -3.799   6.845  1.00  0.00     0.134 A 
ATOM     82  C   UNL     1      18.090  -1.889   7.978  1.00  0.00     0.134 A 
ATOM     83  F   UNL     1      16.172  -4.465   6.280  1.00  0.00    -0.206 F 
ATOM     84  C   UNL     1      18.439  -4.422   6.893  1.00  0.00     0.040 A 
ATOM     85  C   UNL     1      19.348  -2.492   8.013  1.00  0.00     0.040 A 
ATOM     86  F   UNL     1      17.964  -0.664   8.510  1.00  0.00    -0.206 F 
ATOM     87  C   UNL     1      19.523  -3.764   7.471  1.00  0.00     0.006 A 
ENDBRANCH  63  80
ENDBRANCH  37  38
ENDBRANCH  29  32
ENDBRANCH  27  28
ENDBRANCH  26  27
ENDBRANCH  25  26
ENDBRANCH   1  25
TORSDOF 17
