REMARK SMILES C[C@H](C(=O)NCCCCNC(=O)c1ccc(-c2c3nc(c(-c4c(F)cccc4F)c4ccc([nH]4)c(-c4c(F)cccc4F)c4nc(c(-c5c(F)cccc5F)c5ccc2[nH]5)C=C4)C=C3)cc1)c1ccc(-c2ccccc2)c(F)c1
REMARK SMILES IDX 7 1 6 2 5 3 3 4 4 5 2 7 1 8 67 9 68 10 79 11 69 12 77 13
REMARK SMILES IDX 70 14 78 15 71 16 72 17 76 18 73 19 75 20 74 21 8 22 9 23
REMARK SMILES IDX 10 24 11 25 12 27 13 28 14 29 66 30 15 31 65 32 16 33 17 34
REMARK SMILES IDX 18 35 59 36 19 37 64 38 58 39 60 40 20 41 63 42 57 43 56 44
REMARK SMILES IDX 21 46 47 47 30 48 46 49 31 50 34 51 45 52 61 53 32 54 33 55
REMARK SMILES IDX 44 57 62 58 35 59 22 60 23 61 28 62 24 63 25 64 27 65 29 66
REMARK SMILES IDX 26 67 48 68 49 69 54 70 50 71 51 72 53 73 55 74 52 75 36 76
REMARK SMILES IDX 37 77 42 78 38 79 39 80 41 81 43 82 40 83
REMARK H PARENT 5 6 10 26 60 45 34 56
REMARK Flexibility Score: inf
ROOT
ATOM      1  C   UNL     1      -1.093   1.906   2.358  1.00  0.00     0.023 C 
ENDROOT
BRANCH   1   2
ATOM      2  C   UNL     1      -0.905   1.053   1.106  1.00  0.00     0.116 C 
BRANCH   2   3
ATOM      3  N   UNL     1       0.465   0.909   0.652  1.00  0.00    -0.356 N 
ATOM      4  C   UNL     1       1.028  -0.016  -0.179  1.00  0.00     0.227 C 
ATOM      5  O   UNL     1       2.129   0.293  -0.655  1.00  0.00    -0.274 OA
ATOM      6  H   UNL     1       1.089   1.588   0.998  1.00  0.00     0.163 HD
BRANCH   4   7
ATOM      7  C   UNL     1       0.474  -1.433  -0.426  1.00  0.00     0.105 C 
ATOM      8  C   UNL     1       1.079  -2.317   0.678  1.00  0.00     0.023 C 
BRANCH   7   9
ATOM      9  C   UNL     1      -1.028  -1.595  -0.616  1.00  0.00    -0.033 A 
ATOM     10  C   UNL     1      -1.780  -0.637  -1.304  1.00  0.00     0.005 A 
ATOM     11  C   UNL     1      -1.722  -2.707  -0.119  1.00  0.00     0.044 A 
ATOM     12  C   UNL     1      -3.184  -0.657  -1.260  1.00  0.00     0.012 A 
ATOM     13  C   UNL     1      -3.117  -2.751  -0.132  1.00  0.00     0.131 A 
ATOM     14  C   UNL     1      -3.892  -1.690  -0.620  1.00  0.00     0.017 A 
ATOM     15  F   UNL     1      -3.696  -3.846   0.386  1.00  0.00    -0.206 F 
BRANCH  14  16
ATOM     16  C   UNL     1      -5.361  -1.619  -0.413  1.00  0.00    -0.015 A 
ATOM     17  C   UNL     1      -6.208  -0.937  -1.304  1.00  0.00     0.009 A 
ATOM     18  C   UNL     1      -5.965  -2.180   0.731  1.00  0.00     0.009 A 
ATOM     19  C   UNL     1      -7.581  -0.813  -1.061  1.00  0.00     0.001 A 
ATOM     20  C   UNL     1      -7.339  -2.075   0.969  1.00  0.00     0.001 A 
ATOM     21  C   UNL     1      -8.147  -1.385   0.074  1.00  0.00     0.000 A 
ENDBRANCH  14  16
ENDBRANCH   7   9
ENDBRANCH   4   7
ENDBRANCH   2   3
ENDBRANCH   1   2
BRANCH   1  22
ATOM     22  C   UNL     1      -0.501   3.315   2.337  1.00  0.00     0.023 C 
BRANCH  22  23
ATOM     23  C   UNL     1      -0.876   4.208   1.156  1.00  0.00     0.116 C 
BRANCH  23  24
ATOM     24  N   UNL     1      -2.296   4.507   1.072  1.00  0.00    -0.352 N 
ATOM     25  C   UNL     1      -2.979   5.700   1.127  1.00  0.00     0.251 C 
ATOM     26  H   UNL     1      -2.870   3.716   0.955  1.00  0.00     0.163 HD
ATOM     27  O   UNL     1      -4.207   5.682   1.121  1.00  0.00    -0.269 OA
BRANCH  25  28
ATOM     28  C   UNL     1      -2.276   7.005   1.232  1.00  0.00     0.039 A 
ATOM     29  C   UNL     1      -2.827   7.986   2.064  1.00  0.00     0.014 A 
ATOM     30  C   UNL     1      -1.117   7.296   0.511  1.00  0.00     0.014 A 
ATOM     31  C   UNL     1      -2.176   9.212   2.234  1.00  0.00     0.010 A 
ATOM     32  C   UNL     1      -0.420   8.485   0.748  1.00  0.00     0.010 A 
ATOM     33  C   UNL     1      -0.938   9.456   1.616  1.00  0.00    -0.014 A 
BRANCH  33  34
ATOM     34  C   UNL     1      -0.182  10.708   1.905  1.00  0.00     0.031 A 
ATOM     35  C   UNL     1       0.124  11.704   0.817  1.00  0.00     0.074 A 
ATOM     36  C   UNL     1       0.259  10.938   3.158  1.00  0.00     0.049 A 
ATOM     37  N   UNL     1       0.750  12.852   0.901  1.00  0.00    -0.248 NA
ATOM     38  C   UNL     1      -0.307  11.357  -0.546  1.00  0.00     0.031 C 
ATOM     39  C   UNL     1       0.097  10.025   4.292  1.00  0.00     0.029 A 
ATOM     40  N   UNL     1       0.931  12.010   3.693  1.00  0.00    -0.354 N 
ATOM     41  C   UNL     1       0.783  13.364  -0.391  1.00  0.00     0.074 A 
ATOM     42  C   UNL     1       0.176  12.371  -1.250  1.00  0.00     0.031 C 
ATOM     43  C   UNL     1       0.621  10.589   5.391  1.00  0.00     0.029 A 
ATOM     44  C   UNL     1       1.184  11.888   5.038  1.00  0.00     0.049 A 
ATOM     45  H   UNL     1       1.205  12.793   3.162  1.00  0.00     0.167 HD
ATOM     46  C   UNL     1       1.248  14.563  -0.820  1.00  0.00     0.037 A 
ATOM     47  C   UNL     1       1.798  12.726   5.895  1.00  0.00     0.037 A 
ATOM     48  C   UNL     1       1.849  15.557   0.033  1.00  0.00     0.049 A 
ATOM     49  C   UNL     1       2.295  14.054   5.396  1.00  0.00     0.074 A 
ATOM     50  C   UNL     1       2.315  16.817  -0.304  1.00  0.00     0.029 A 
ATOM     51  N   UNL     1       2.070  15.403   1.393  1.00  0.00    -0.354 N 
ATOM     52  N   UNL     1       2.249  14.553   4.184  1.00  0.00    -0.248 NA
ATOM     53  C   UNL     1       2.917  14.942   6.388  1.00  0.00     0.031 C 
ATOM     54  C   UNL     1       2.855  17.408   0.844  1.00  0.00     0.029 A 
ATOM     55  C   UNL     1       2.679  16.538   1.907  1.00  0.00     0.049 A 
ATOM     56  H   UNL     1       1.829  14.605   1.917  1.00  0.00     0.167 HD
ATOM     57  C   UNL     1       2.817  15.818   4.272  1.00  0.00     0.074 A 
ATOM     58  C   UNL     1       3.169  16.021   5.662  1.00  0.00     0.031 C 
ATOM     59  C   UNL     1       3.032  16.727   3.290  1.00  0.00     0.037 A 
BRANCH  46  60
ATOM     60  C   UNL     1       1.105  14.877  -2.283  1.00  0.00     0.057 A 
ATOM     61  C   UNL     1      -0.147  15.122  -2.862  1.00  0.00     0.134 A 
ATOM     62  C   UNL     1       2.229  14.982  -3.112  1.00  0.00     0.134 A 
ATOM     63  F   UNL     1      -1.266  15.028  -2.127  1.00  0.00    -0.206 F 
ATOM     64  C   UNL     1      -0.280  15.435  -4.216  1.00  0.00     0.040 A 
ATOM     65  C   UNL     1       2.112  15.323  -4.462  1.00  0.00     0.040 A 
ATOM     66  F   UNL     1       3.460  14.769  -2.623  1.00  0.00    -0.206 F 
ATOM     67  C   UNL     1       0.854  15.544  -5.018  1.00  0.00     0.006 A 
ENDBRANCH  46  60
BRANCH  47  68
ATOM     68  C   UNL     1       1.958  12.347   7.323  1.00  0.00     0.057 A 
ATOM     69  C   UNL     1       1.260  13.015   8.336  1.00  0.00     0.134 A 
ATOM     70  C   UNL     1       2.829  11.321   7.710  1.00  0.00     0.134 A 
ATOM     71  F   UNL     1       0.425  14.020   8.032  1.00  0.00    -0.206 F 
ATOM     72  C   UNL     1       1.442  12.697   9.684  1.00  0.00     0.040 A 
ATOM     73  C   UNL     1       2.999  10.973   9.051  1.00  0.00     0.040 A 
ATOM     74  F   UNL     1       3.521  10.636   6.788  1.00  0.00    -0.206 F 
ATOM     75  C   UNL     1       2.311  11.669  10.043  1.00  0.00     0.006 A 
ENDBRANCH  47  68
BRANCH  59  76
ATOM     76  C   UNL     1       3.661  18.029   3.696  1.00  0.00     0.057 A 
ATOM     77  C   UNL     1       4.999  18.110   4.106  1.00  0.00     0.134 A 
ATOM     78  C   UNL     1       2.921  19.218   3.676  1.00  0.00     0.134 A 
ATOM     79  F   UNL     1       5.761  17.006   4.160  1.00  0.00    -0.206 F 
ATOM     80  C   UNL     1       5.564  19.317   4.521  1.00  0.00     0.040 A 
ATOM     81  C   UNL     1       3.484  20.436   4.059  1.00  0.00     0.040 A 
ATOM     82  F   UNL     1       1.638  19.216   3.283  1.00  0.00    -0.206 F 
ATOM     83  C   UNL     1       4.806  20.485   4.495  1.00  0.00     0.006 A 
ENDBRANCH  59  76
ENDBRANCH  33  34
ENDBRANCH  25  28
ENDBRANCH  23  24
ENDBRANCH  22  23
ENDBRANCH   1  22
TORSDOF 13
