REMARK SMILES O=C(NCCCCNC(=O)C1([NH+]2CCOCC2)CCC1)c1ccc(-c2c3nc(c(-c4c(F)cccc4F)c4ccc([nH]4)c(-c4c(F)cccc4F)c4nc(c(-c5c(F)cccc5F)c5ccc2[nH]5)C=C4)C=C3)cc1
REMARK SMILES IDX 5 1 4 2 3 3 1 4 2 5 21 7 22 8 74 9 23 10 73 11 24 12 25 13
REMARK SMILES IDX 26 14 67 15 27 16 72 17 66 18 68 19 28 20 71 21 65 22 64 23
REMARK SMILES IDX 29 25 55 26 38 27 54 28 39 29 42 30 53 31 69 32 40 33 41 34
REMARK SMILES IDX 52 36 70 37 43 38 30 39 31 40 36 41 32 42 33 43 35 44 37 45
REMARK SMILES IDX 34 46 56 47 57 48 62 49 58 50 59 51 61 52 63 53 60 54 44 55
REMARK SMILES IDX 45 56 50 57 46 58 47 59 49 60 51 61 48 62 6 63 7 64 8 65
REMARK SMILES IDX 9 66 10 68 11 69 18 70 20 71 19 72 12 73 13 74 17 75 14 77
REMARK SMILES IDX 16 78 15 79
REMARK H PARENT 3 6 68 24 42 35 8 67 12 76
REMARK Flexibility Score: inf
ROOT
ATOM      1  C   UNL     1       5.046  -0.052  -2.639  1.00  0.00     0.023 C 
ENDROOT
BRANCH   1   2
ATOM      2  C   UNL     1       4.642   0.564  -1.307  1.00  0.00     0.116 C 
BRANCH   2   3
ATOM      3  N   UNL     1       3.209   0.524  -1.052  1.00  0.00    -0.352 N 
ATOM      4  O   UNL     1       1.270  -0.141  -0.108  1.00  0.00    -0.269 OA
ATOM      5  C   UNL     1       2.498  -0.165  -0.097  1.00  0.00     0.251 C 
ATOM      6  H   UNL     1       2.664   1.076  -1.658  1.00  0.00     0.163 HD
BRANCH   5   7
ATOM      7  C   UNL     1       3.206  -0.973   0.922  1.00  0.00     0.039 A 
ATOM      8  C   UNL     1       4.326  -0.467   1.579  1.00  0.00     0.014 A 
ATOM      9  C   UNL     1       2.754  -2.266   1.210  1.00  0.00     0.014 A 
ATOM     10  C   UNL     1       5.108  -1.314   2.354  1.00  0.00     0.010 A 
ATOM     11  C   UNL     1       3.482  -3.082   2.085  1.00  0.00     0.010 A 
ATOM     12  C   UNL     1       4.694  -2.630   2.626  1.00  0.00    -0.014 A 
BRANCH  12  13
ATOM     13  C   UNL     1       5.540  -3.471   3.514  1.00  0.00     0.031 A 
ATOM     14  C   UNL     1       6.205  -4.726   3.016  1.00  0.00     0.074 A 
ATOM     15  C   UNL     1       5.778  -3.035   4.767  1.00  0.00     0.049 A 
ATOM     16  N   UNL     1       7.046  -5.512   3.641  1.00  0.00    -0.248 NA
ATOM     17  C   UNL     1       5.883  -5.164   1.649  1.00  0.00     0.031 C 
ATOM     18  C   UNL     1       5.171  -1.846   5.372  1.00  0.00     0.029 A 
ATOM     19  N   UNL     1       6.622  -3.506   5.739  1.00  0.00    -0.354 N 
ATOM     20  C   UNL     1       7.339  -6.543   2.757  1.00  0.00     0.074 A 
ATOM     21  C   UNL     1       6.568  -6.297   1.557  1.00  0.00     0.031 C 
ATOM     22  C   UNL     1       5.721  -1.635   6.575  1.00  0.00     0.029 A 
ATOM     23  C   UNL     1       6.670  -2.706   6.854  1.00  0.00     0.049 A 
ATOM     24  H   UNL     1       7.144  -4.336   5.646  1.00  0.00     0.167 HD
ATOM     25  C   UNL     1       8.179  -7.593   2.928  1.00  0.00     0.037 A 
ATOM     26  C   UNL     1       7.395  -2.817   7.982  1.00  0.00     0.037 A 
ATOM     27  C   UNL     1       8.961  -7.826   4.116  1.00  0.00     0.049 A 
ATOM     28  C   UNL     1       8.339  -3.971   8.130  1.00  0.00     0.074 A 
ATOM     29  C   UNL     1       9.841  -8.862   4.382  1.00  0.00     0.029 A 
ATOM     30  N   UNL     1       8.963  -7.005   5.234  1.00  0.00    -0.354 N 
ATOM     31  N   UNL     1       8.601  -4.935   7.281  1.00  0.00    -0.248 NA
ATOM     32  C   UNL     1       9.083  -4.058   9.393  1.00  0.00     0.031 C 
ATOM     33  C   UNL     1      10.357  -8.681   5.671  1.00  0.00     0.029 A 
ATOM     34  C   UNL     1       9.825  -7.514   6.193  1.00  0.00     0.049 A 
ATOM     35  H   UNL     1       8.432  -6.182   5.331  1.00  0.00     0.167 HD
ATOM     36  C   UNL     1       9.531  -5.749   7.910  1.00  0.00     0.074 A 
ATOM     37  C   UNL     1       9.819  -5.142   9.194  1.00  0.00     0.031 C 
ATOM     38  C   UNL     1      10.086  -6.904   7.471  1.00  0.00     0.037 A 
BRANCH  25  39
ATOM     39  C   UNL     1       8.296  -8.583   1.805  1.00  0.00     0.057 A 
ATOM     40  C   UNL     1       9.010  -8.290   0.636  1.00  0.00     0.134 A 
ATOM     41  C   UNL     1       7.742  -9.864   1.920  1.00  0.00     0.134 A 
ATOM     42  F   UNL     1       9.555  -7.077   0.459  1.00  0.00    -0.206 F 
ATOM     43  C   UNL     1       9.160  -9.233  -0.383  1.00  0.00     0.040 A 
ATOM     44  C   UNL     1       7.902 -10.822   0.916  1.00  0.00     0.040 A 
ATOM     45  F   UNL     1       7.052 -10.212   3.016  1.00  0.00    -0.206 F 
ATOM     46  C   UNL     1       8.611 -10.507  -0.240  1.00  0.00     0.006 A 
ENDBRANCH  25  39
BRANCH  26  47
ATOM     47  C   UNL     1       7.244  -1.805   9.055  1.00  0.00     0.057 A 
ATOM     48  C   UNL     1       8.266  -0.894   9.345  1.00  0.00     0.134 A 
ATOM     49  C   UNL     1       6.062  -1.711   9.800  1.00  0.00     0.134 A 
ATOM     50  F   UNL     1       9.427  -0.946   8.676  1.00  0.00    -0.206 F 
ATOM     51  C   UNL     1       8.122   0.068  10.346  1.00  0.00     0.040 A 
ATOM     52  C   UNL     1       5.894  -0.737  10.784  1.00  0.00     0.040 A 
ATOM     53  F   UNL     1       5.043  -2.550   9.562  1.00  0.00    -0.206 F 
ATOM     54  C   UNL     1       6.929   0.153  11.063  1.00  0.00     0.006 A 
ENDBRANCH  26  47
BRANCH  38  55
ATOM     55  C   UNL     1      11.050  -7.579   8.398  1.00  0.00     0.057 A 
ATOM     56  C   UNL     1      10.609  -8.258   9.541  1.00  0.00     0.134 A 
ATOM     57  C   UNL     1      12.427  -7.548   8.149  1.00  0.00     0.134 A 
ATOM     58  F   UNL     1       9.303  -8.309   9.840  1.00  0.00    -0.206 F 
ATOM     59  C   UNL     1      11.509  -8.860  10.421  1.00  0.00     0.040 A 
ATOM     60  C   UNL     1      13.334  -8.163   9.011  1.00  0.00     0.040 A 
ATOM     61  F   UNL     1      12.910  -6.917   7.069  1.00  0.00    -0.206 F 
ATOM     62  C   UNL     1      12.876  -8.815  10.156  1.00  0.00     0.006 A 
ENDBRANCH  38  55
ENDBRANCH  12  13
ENDBRANCH   5   7
ENDBRANCH   2   3
ENDBRANCH   1   2
BRANCH   1  63
ATOM     63  C   UNL     1       4.612   0.707  -3.889  1.00  0.00     0.023 C 
BRANCH  63  64
ATOM     64  C   UNL     1       4.859   2.213  -3.896  1.00  0.00     0.116 C 
BRANCH  64  65
ATOM     65  N   UNL     1       6.185   2.616  -3.477  1.00  0.00    -0.351 N 
ATOM     66  C   UNL     1       6.859   3.783  -3.776  1.00  0.00     0.281 C 
ATOM     67  H   UNL     1       6.667   1.976  -2.905  1.00  0.00     0.163 HD
ATOM     68  O   UNL     1       7.890   3.989  -3.119  1.00  0.00    -0.268 OA
BRANCH  66  69
ATOM     69  C   UNL     1       6.323   4.750  -4.943  1.00  0.00     0.177 C 
ATOM     70  C   UNL     1       4.805   5.124  -4.890  1.00  0.00     0.079 C 
ATOM     71  C   UNL     1       6.608   6.268  -4.722  1.00  0.00     0.079 C 
ATOM     72  C   UNL     1       5.156   6.601  -5.088  1.00  0.00     0.014 C 
BRANCH  69  73
ATOM     73  N   UNL     1       6.749   4.261  -6.292  1.00  0.00    -0.318 N 
ATOM     74  C   UNL     1       8.212   4.073  -6.433  1.00  0.00     0.291 C 
ATOM     75  C   UNL     1       6.201   4.837  -7.526  1.00  0.00     0.291 C 
ATOM     76  H   UNL     1       6.254   3.370  -6.239  1.00  0.00     0.349 HD
ATOM     77  C   UNL     1       8.970   5.252  -7.069  1.00  0.00     0.221 C 
ATOM     78  C   UNL     1       7.005   6.003  -8.124  1.00  0.00     0.221 C 
ATOM     79  O   UNL     1       8.379   5.650  -8.309  1.00  0.00    -0.370 OA
ENDBRANCH  69  73
ENDBRANCH  66  69
ENDBRANCH  64  65
ENDBRANCH  63  64
ENDBRANCH   1  63
TORSDOF 12
