REMARK SMILES Cc1sc(-c2ccco2)nc1C(=O)N[C@@H](C(=O)NCCCCNC(=O)c1ccc(-c2c3nc(c(-c4c(F)cccc4F)c4ccc([nH]4)c(-c4c(F)cccc4F)c4nc(c(-c5c(F)cccc5F)c5ccc2[nH]5)C=C4)C=C3)cc1)C(C)C
REMARK SMILES IDX 20 1 19 2 18 3 16 4 17 5 15 7 14 8 12 9 13 10 11 12 1 13
REMARK SMILES IDX 2 14 3 15 4 16 10 17 5 18 6 19 9 20 7 21 8 22 80 23 81 24
REMARK SMILES IDX 82 25 21 26 22 27 23 28 24 29 25 31 26 32 27 33 79 34 28 35
REMARK SMILES IDX 78 36 29 37 30 38 31 39 72 40 32 41 77 42 71 43 73 44 33 45
REMARK SMILES IDX 76 46 70 47 69 48 34 50 60 51 43 52 59 53 44 54 47 55 58 56
REMARK SMILES IDX 74 57 45 58 46 59 57 61 75 62 48 63 35 64 36 65 41 66 37 67
REMARK SMILES IDX 38 68 40 69 42 70 39 71 61 72 62 73 67 74 63 75 64 76 66 77
REMARK SMILES IDX 68 78 65 79 49 80 50 81 55 82 51 83 52 84 54 85 56 86 53 87
REMARK H PARENT 18 6 14 11 23 30 73 49 47 60
REMARK Flexibility Score: inf
ROOT
ATOM      1  C   UNL     1       0.977  -3.227   3.389  1.00  0.00     0.023 C 
ENDROOT
BRANCH   1   2
ATOM      2  C   UNL     1       1.856  -2.159   2.747  1.00  0.00     0.116 C 
BRANCH   2   3
ATOM      3  N   UNL     1       3.141  -2.699   2.350  1.00  0.00    -0.354 N 
ATOM      4  C   UNL     1       3.646  -2.979   1.109  1.00  0.00     0.242 C 
ATOM      5  O   UNL     1       4.766  -3.492   1.071  1.00  0.00    -0.273 OA
ATOM      6  H   UNL     1       3.752  -2.897   3.096  1.00  0.00     0.163 HD
BRANCH   4   7
ATOM      7  C   UNL     1       2.902  -2.508  -0.171  1.00  0.00     0.174 C 
BRANCH   7   8
ATOM      8  N   UNL     1       1.549  -3.025  -0.220  1.00  0.00    -0.339 N 
ATOM      9  C   UNL     1       0.303  -2.452  -0.238  1.00  0.00     0.271 C 
ATOM     10  O   UNL     1      -0.604  -3.294  -0.256  1.00  0.00    -0.267 OA
ATOM     11  H   UNL     1       1.518  -4.009  -0.247  1.00  0.00     0.164 HD
BRANCH   9  12
ATOM     12  C   UNL     1      -0.035  -0.993  -0.214  1.00  0.00     0.142 A 
ATOM     13  C   UNL     1       2.092   0.626   0.173  1.00  0.00     0.059 C 
ATOM     14  C   UNL     1       0.689   0.205  -0.104  1.00  0.00     0.035 A 
ATOM     15  S   UNL     1      -0.372   1.555  -0.370  1.00  0.00    -0.115 S 
ATOM     16  C   UNL     1      -1.713   0.531  -0.261  1.00  0.00     0.160 A 
ATOM     17  N   UNL     1      -1.433  -0.745  -0.199  1.00  0.00    -0.227 NA
BRANCH  16  18
ATOM     18  C   UNL     1      -3.030   1.078  -0.163  1.00  0.00     0.162 A 
ATOM     19  C   UNL     1      -4.006   0.801   0.779  1.00  0.00     0.053 A 
ATOM     20  O   UNL     1      -3.485   2.077  -0.987  1.00  0.00    -0.462 OA
ATOM     21  C   UNL     1      -5.084   1.685   0.533  1.00  0.00     0.043 A 
ATOM     22  C   UNL     1      -4.725   2.424  -0.567  1.00  0.00     0.196 A 
ENDBRANCH  16  18
ENDBRANCH   9  12
ENDBRANCH   7   8
BRANCH   7  23
ATOM     23  C   UNL     1       3.692  -2.768  -1.477  1.00  0.00     0.015 C 
ATOM     24  C   UNL     1       2.827  -2.574  -2.730  1.00  0.00     0.010 C 
ATOM     25  C   UNL     1       4.888  -1.804  -1.568  1.00  0.00     0.010 C 
ENDBRANCH   7  23
ENDBRANCH   4   7
ENDBRANCH   2   3
ENDBRANCH   1   2
BRANCH   1  26
ATOM     26  C   UNL     1       1.397  -3.572   4.818  1.00  0.00     0.023 C 
BRANCH  26  27
ATOM     27  C   UNL     1       1.330  -2.405   5.798  1.00  0.00     0.116 C 
BRANCH  27  28
ATOM     28  N   UNL     1      -0.014  -1.875   5.965  1.00  0.00    -0.352 N 
ATOM     29  C   UNL     1      -0.652  -1.517   7.129  1.00  0.00     0.251 C 
ATOM     30  H   UNL     1      -0.535  -1.758   5.138  1.00  0.00     0.163 HD
ATOM     31  O   UNL     1      -1.839  -1.207   7.122  1.00  0.00    -0.269 OA
BRANCH  29  32
ATOM     32  C   UNL     1       0.099  -1.546   8.400  1.00  0.00     0.039 A 
ATOM     33  C   UNL     1      -0.457  -2.204   9.498  1.00  0.00     0.014 A 
ATOM     34  C   UNL     1       1.367  -0.964   8.491  1.00  0.00     0.014 A 
ATOM     35  C   UNL     1       0.289  -2.338  10.670  1.00  0.00     0.010 A 
ATOM     36  C   UNL     1       2.139  -1.169   9.630  1.00  0.00     0.010 A 
ATOM     37  C   UNL     1       1.608  -1.857  10.732  1.00  0.00    -0.014 A 
BRANCH  37  38
ATOM     38  C   UNL     1       2.447  -2.069  11.939  1.00  0.00     0.031 A 
ATOM     39  C   UNL     1       2.944  -0.892  12.731  1.00  0.00     0.074 A 
ATOM     40  C   UNL     1       2.812  -3.319  12.287  1.00  0.00     0.049 A 
ATOM     41  N   UNL     1       3.732  -0.872  13.776  1.00  0.00    -0.248 NA
ATOM     42  C   UNL     1       2.523   0.441  12.271  1.00  0.00     0.031 C 
ATOM     43  C   UNL     1       2.438  -4.541  11.572  1.00  0.00     0.029 A 
ATOM     44  N   UNL     1       3.588  -3.768  13.326  1.00  0.00    -0.354 N 
ATOM     45  C   UNL     1       3.907   0.470  14.091  1.00  0.00     0.074 A 
ATOM     46  C   UNL     1       3.195   1.235  13.091  1.00  0.00     0.031 C 
ATOM     47  C   UNL     1       2.963  -5.601  12.209  1.00  0.00     0.029 A 
ATOM     48  C   UNL     1       3.743  -5.133  13.350  1.00  0.00     0.049 A 
ATOM     49  H   UNL     1       3.996  -3.168  13.992  1.00  0.00     0.167 HD
ATOM     50  C   UNL     1       4.578   1.015  15.133  1.00  0.00     0.037 A 
ATOM     51  C   UNL     1       4.442  -5.918  14.191  1.00  0.00     0.037 A 
ATOM     52  C   UNL     1       5.271   0.250  16.137  1.00  0.00     0.049 A 
ATOM     53  C   UNL     1       5.192  -5.288  15.332  1.00  0.00     0.074 A 
ATOM     54  C   UNL     1       5.935   0.707  17.262  1.00  0.00     0.029 A 
ATOM     55  N   UNL     1       5.396  -1.131  16.133  1.00  0.00    -0.354 N 
ATOM     56  N   UNL     1       5.290  -4.022  15.659  1.00  0.00    -0.248 NA
ATOM     57  C   UNL     1       5.925  -6.197  16.225  1.00  0.00     0.031 C 
ATOM     58  C   UNL     1       6.505  -0.393  17.910  1.00  0.00     0.029 A 
ATOM     59  C   UNL     1       6.147  -1.541  17.222  1.00  0.00     0.049 A 
ATOM     60  H   UNL     1       5.007  -1.731  15.456  1.00  0.00     0.167 HD
ATOM     61  C   UNL     1       6.067  -3.985  16.810  1.00  0.00     0.074 A 
ATOM     62  C   UNL     1       6.401  -5.356  17.133  1.00  0.00     0.031 C 
ATOM     63  C   UNL     1       6.467  -2.911  17.535  1.00  0.00     0.037 A 
BRANCH  50  64
ATOM     64  C   UNL     1       4.591   2.513  15.241  1.00  0.00     0.057 A 
ATOM     65  C   UNL     1       3.437   3.243  15.556  1.00  0.00     0.134 A 
ATOM     66  C   UNL     1       5.779   3.233  15.060  1.00  0.00     0.134 A 
ATOM     67  F   UNL     1       2.263   2.617  15.730  1.00  0.00    -0.206 F 
ATOM     68  C   UNL     1       3.456   4.635  15.657  1.00  0.00     0.040 A 
ATOM     69  C   UNL     1       5.818   4.623  15.189  1.00  0.00     0.040 A 
ATOM     70  F   UNL     1       6.923   2.599  14.763  1.00  0.00    -0.206 F 
ATOM     71  C   UNL     1       4.652   5.328  15.480  1.00  0.00     0.006 A 
ENDBRANCH  50  64
BRANCH  51  72
ATOM     72  C   UNL     1       4.451  -7.392  14.000  1.00  0.00     0.057 A 
ATOM     73  C   UNL     1       3.817  -8.243  14.912  1.00  0.00     0.134 A 
ATOM     74  C   UNL     1       5.103  -7.984  12.912  1.00  0.00     0.134 A 
ATOM     75  F   UNL     1       3.191  -7.737  15.985  1.00  0.00    -0.206 F 
ATOM     76  C   UNL     1       3.849  -9.631  14.763  1.00  0.00     0.040 A 
ATOM     77  C   UNL     1       5.120  -9.369  12.735  1.00  0.00     0.040 A 
ATOM     78  F   UNL     1       5.723  -7.224  11.998  1.00  0.00    -0.206 F 
ATOM     79  C   UNL     1       4.499 -10.197  13.668  1.00  0.00     0.006 A 
ENDBRANCH  51  72
BRANCH  63  80
ATOM     80  C   UNL     1       7.278  -3.178  18.770  1.00  0.00     0.057 A 
ATOM     81  C   UNL     1       8.603  -3.627  18.707  1.00  0.00     0.134 A 
ATOM     82  C   UNL     1       6.734  -2.947  20.041  1.00  0.00     0.134 A 
ATOM     83  F   UNL     1       9.180  -3.880  17.523  1.00  0.00    -0.206 F 
ATOM     84  C   UNL     1       9.349  -3.862  19.863  1.00  0.00     0.040 A 
ATOM     85  C   UNL     1       7.480  -3.149  21.203  1.00  0.00     0.040 A 
ATOM     86  F   UNL     1       5.474  -2.507  20.174  1.00  0.00    -0.206 F 
ATOM     87  C   UNL     1       8.790  -3.615  21.116  1.00  0.00     0.006 A 
ENDBRANCH  63  80
ENDBRANCH  37  38
ENDBRANCH  29  32
ENDBRANCH  27  28
ENDBRANCH  26  27
ENDBRANCH   1  26
TORSDOF 15
