REMARK SMILES COC(=O)c1c(NC(=O)[C@@H]2[C@H]3CC[C@H](CC3)[C@H]2C(=O)NCCCCNC(=O)c2ccc(-c3c4nc(c(-c5c(F)cccc5F)c5ccc([nH]5)c(-c5c(F)cccc5F)c5nc(c(-c6c(F)cccc6F)c6ccc3[nH]6)C=C5)C=C4)cc2)sc(C)c1-c1ccc(C)cc1
REMARK SMILES IDX 21 1 20 2 18 3 19 4 17 6 10 7 11 8 16 9 12 10 14 11 15 12
REMARK SMILES IDX 13 13 8 14 7 15 9 17 6 18 5 19 85 20 82 21 83 22 84 23 3 24
REMARK SMILES IDX 4 25 2 26 1 27 86 28 87 29 92 30 88 31 91 32 89 33 90 34
REMARK SMILES IDX 22 35 23 36 24 37 25 38 26 39 27 41 28 42 29 43 81 44 30 45
REMARK SMILES IDX 80 46 31 47 32 48 33 49 74 50 34 51 79 52 73 53 75 54 35 55
REMARK SMILES IDX 78 56 72 57 71 58 36 60 62 61 45 62 61 63 46 64 49 65 60 66
REMARK SMILES IDX 76 67 47 68 48 69 59 71 77 72 50 73 37 74 38 75 43 76 39 77
REMARK SMILES IDX 40 78 42 79 44 80 41 81 63 82 64 83 69 84 65 85 66 86 68 87
REMARK SMILES IDX 70 88 67 89 51 90 52 91 57 92 53 93 54 94 56 95 58 96 55 97
REMARK H PARENT 20 5 7 16 25 40 75 59 49 70
REMARK Flexibility Score: inf
ROOT
ATOM      1  C   UNL     1       2.435  -4.307  -2.586  1.00  0.00     0.116 C 
ENDROOT
BRANCH   1   2
ATOM      2  N   UNL     1       1.623  -3.423  -3.374  1.00  0.00    -0.356 N 
ATOM      3  C   UNL     1       0.996  -3.652  -4.559  1.00  0.00     0.224 C 
ATOM      4  O   UNL     1       0.168  -2.800  -4.904  1.00  0.00    -0.275 OA
ATOM      5  H   UNL     1       1.503  -2.520  -3.002  1.00  0.00     0.163 HD
BRANCH   3   6
ATOM      6  C   UNL     1       1.258  -4.864  -5.473  1.00  0.00     0.094 C 
ATOM      7  C   UNL     1       2.731  -5.107  -5.886  1.00  0.00     0.094 C 
ATOM      8  C   UNL     1       2.995  -6.661  -5.881  1.00  0.00     0.002 C 
ATOM      9  C   UNL     1       2.782  -7.235  -4.459  1.00  0.00     0.005 C 
ATOM     10  C   UNL     1       1.990  -7.438  -6.760  1.00  0.00     0.005 C 
ATOM     11  C   UNL     1       0.558  -6.202  -5.084  1.00  0.00     0.002 C 
ATOM     12  C   UNL     1       1.313  -7.033  -4.029  1.00  0.00     0.005 C 
ATOM     13  C   UNL     1       0.547  -7.086  -6.358  1.00  0.00     0.005 C 
BRANCH   7  14
ATOM     14  C   UNL     1       2.975  -4.508  -7.292  1.00  0.00     0.229 C 
ATOM     15  N   UNL     1       3.847  -3.506  -7.595  1.00  0.00    -0.317 N 
ATOM     16  H   UNL     1       3.994  -3.420  -8.565  1.00  0.00     0.170 HD
ATOM     17  O   UNL     1       2.382  -4.987  -8.269  1.00  0.00    -0.274 OA
BRANCH  15  18
ATOM     18  C   UNL     1       4.572  -2.584  -6.869  1.00  0.00     0.111 A 
ATOM     19  C   UNL     1       5.613  -1.779  -7.325  1.00  0.00     0.102 A 
ATOM     20  C   UNL     1       6.209  -1.036  -6.222  1.00  0.00     0.012 A 
ATOM     21  S   UNL     1       4.115  -2.152  -5.315  1.00  0.00    -0.122 S 
ATOM     22  C   UNL     1       5.539  -1.262  -5.031  1.00  0.00     0.012 A 
ATOM     23  C   UNL     1       5.846  -0.814  -3.637  1.00  0.00     0.057 C 
BRANCH  19  24
ATOM     24  C   UNL     1       6.008  -1.767  -8.736  1.00  0.00     0.341 C 
ATOM     25  O   UNL     1       5.304  -2.234  -9.620  1.00  0.00    -0.246 OA
BRANCH  24  26
ATOM     26  O   UNL     1       7.214  -1.174  -8.956  1.00  0.00    -0.465 OA
ATOM     27  C   UNL     1       7.563  -1.006 -10.328  1.00  0.00     0.282 C 
ENDBRANCH  24  26
ENDBRANCH  19  24
BRANCH  20  28
ATOM     28  C   UNL     1       7.327  -0.099  -6.271  1.00  0.00    -0.016 A 
ATOM     29  C   UNL     1       7.169   1.126  -6.928  1.00  0.00     0.009 A 
ATOM     30  C   UNL     1       8.548  -0.398  -5.655  1.00  0.00     0.009 A 
ATOM     31  C   UNL     1       8.226   2.036  -6.985  1.00  0.00     0.004 A 
ATOM     32  C   UNL     1       9.601   0.521  -5.701  1.00  0.00     0.004 A 
ATOM     33  C   UNL     1       9.448   1.743  -6.368  1.00  0.00    -0.051 A 
ATOM     34  C   UNL     1      10.579   2.724  -6.456  1.00  0.00     0.044 C 
ENDBRANCH  20  28
ENDBRANCH  15  18
ENDBRANCH   7  14
ENDBRANCH   3   6
ENDBRANCH   1   2
BRANCH   1  35
ATOM     35  C   UNL     1       3.835  -3.831  -2.242  1.00  0.00     0.023 C 
BRANCH  35  36
ATOM     36  C   UNL     1       3.906  -2.831  -1.107  1.00  0.00     0.023 C 
BRANCH  36  37
ATOM     37  C   UNL     1       3.357  -3.377   0.200  1.00  0.00     0.116 C 
BRANCH  37  38
ATOM     38  N   UNL     1       3.946  -4.658   0.578  1.00  0.00    -0.352 N 
ATOM     39  C   UNL     1       4.383  -5.067   1.813  1.00  0.00     0.251 C 
ATOM     40  H   UNL     1       4.043  -5.316  -0.148  1.00  0.00     0.163 HD
ATOM     41  O   UNL     1       4.988  -6.123   1.951  1.00  0.00    -0.269 OA
BRANCH  39  42
ATOM     42  C   UNL     1       4.133  -4.183   2.962  1.00  0.00     0.039 A 
ATOM     43  C   UNL     1       5.190  -3.858   3.810  1.00  0.00     0.014 A 
ATOM     44  C   UNL     1       2.872  -3.604   3.126  1.00  0.00     0.014 A 
ATOM     45  C   UNL     1       4.993  -2.892   4.793  1.00  0.00     0.010 A 
ATOM     46  C   UNL     1       2.715  -2.561   4.022  1.00  0.00     0.010 A 
ATOM     47  C   UNL     1       3.766  -2.209   4.879  1.00  0.00    -0.014 A 
BRANCH  47  48
ATOM     48  C   UNL     1       3.563  -1.135   5.877  1.00  0.00     0.031 A 
ATOM     49  C   UNL     1       2.507  -1.287   6.936  1.00  0.00     0.074 A 
ATOM     50  C   UNL     1       4.295  -0.008   5.796  1.00  0.00     0.049 A 
ATOM     51  N   UNL     1       2.190  -0.470   7.906  1.00  0.00    -0.248 NA
ATOM     52  C   UNL     1       1.670  -2.498   6.876  1.00  0.00     0.031 C 
ATOM     53  C   UNL     1       5.283   0.290   4.756  1.00  0.00     0.029 A 
ATOM     54  N   UNL     1       4.323   1.097   6.607  1.00  0.00    -0.354 N 
ATOM     55  C   UNL     1       1.113  -1.059   8.555  1.00  0.00     0.074 A 
ATOM     56  C   UNL     1       0.781  -2.261   7.827  1.00  0.00     0.031 C 
ATOM     57  C   UNL     1       5.853   1.477   5.019  1.00  0.00     0.029 A 
ATOM     58  C   UNL     1       5.253   2.034   6.227  1.00  0.00     0.049 A 
ATOM     59  H   UNL     1       3.733   1.209   7.387  1.00  0.00     0.167 HD
ATOM     60  C   UNL     1       0.480  -0.654   9.681  1.00  0.00     0.037 A 
ATOM     61  C   UNL     1       5.593   3.202   6.802  1.00  0.00     0.037 A 
ATOM     62  C   UNL     1       0.842   0.525  10.419  1.00  0.00     0.049 A 
ATOM     63  C   UNL     1       4.913   3.607   8.080  1.00  0.00     0.074 A 
ATOM     64  C   UNL     1       0.322   0.988  11.614  1.00  0.00     0.029 A 
ATOM     65  N   UNL     1       1.820   1.428  10.028  1.00  0.00    -0.354 N 
ATOM     66  N   UNL     1       3.964   2.990   8.743  1.00  0.00    -0.248 NA
ATOM     67  C   UNL     1       5.363   4.860   8.700  1.00  0.00     0.031 C 
ATOM     68  C   UNL     1       0.955   2.196  11.924  1.00  0.00     0.029 A 
ATOM     69  C   UNL     1       1.907   2.457  10.950  1.00  0.00     0.049 A 
ATOM     70  H   UNL     1       2.370   1.349   9.216  1.00  0.00     0.167 HD
ATOM     71  C   UNL     1       3.724   3.761   9.872  1.00  0.00     0.074 A 
ATOM     72  C   UNL     1       4.639   4.884   9.810  1.00  0.00     0.031 C 
ATOM     73  C   UNL     1       2.830   3.561  10.871  1.00  0.00     0.037 A 
BRANCH  60  74
ATOM     74  C   UNL     1      -0.655  -1.501  10.177  1.00  0.00     0.057 A 
ATOM     75  C   UNL     1      -0.448  -2.787  10.698  1.00  0.00     0.134 A 
ATOM     76  C   UNL     1      -1.971  -1.024  10.145  1.00  0.00     0.134 A 
ATOM     77  F   UNL     1       0.786  -3.313  10.741  1.00  0.00    -0.206 F 
ATOM     78  C   UNL     1      -1.511  -3.578  11.137  1.00  0.00     0.040 A 
ATOM     79  C   UNL     1      -3.038  -1.793  10.611  1.00  0.00     0.040 A 
ATOM     80  F   UNL     1      -2.241   0.198   9.662  1.00  0.00    -0.206 F 
ATOM     81  C   UNL     1      -2.811  -3.078  11.100  1.00  0.00     0.006 A 
ENDBRANCH  60  74
BRANCH  61  82
ATOM     82  C   UNL     1       6.664   4.038   6.204  1.00  0.00     0.057 A 
ATOM     83  C   UNL     1       7.912   4.166   6.825  1.00  0.00     0.134 A 
ATOM     84  C   UNL     1       6.472   4.718   4.996  1.00  0.00     0.134 A 
ATOM     85  F   UNL     1       8.153   3.548   7.991  1.00  0.00    -0.206 F 
ATOM     86  C   UNL     1       8.924   4.957   6.278  1.00  0.00     0.040 A 
ATOM     87  C   UNL     1       7.483   5.492   4.425  1.00  0.00     0.040 A 
ATOM     88  F   UNL     1       5.304   4.624   4.344  1.00  0.00    -0.206 F 
ATOM     89  C   UNL     1       8.711   5.619   5.071  1.00  0.00     0.006 A 
ENDBRANCH  61  82
BRANCH  73  90
ATOM     90  C   UNL     1       2.825   4.554  11.995  1.00  0.00     0.057 A 
ATOM     91  C   UNL     1       2.337   5.856  11.832  1.00  0.00     0.134 A 
ATOM     92  C   UNL     1       3.284   4.188  13.267  1.00  0.00     0.134 A 
ATOM     93  F   UNL     1       1.893   6.271  10.636  1.00  0.00    -0.206 F 
ATOM     94  C   UNL     1       2.331   6.768  12.888  1.00  0.00     0.040 A 
ATOM     95  C   UNL     1       3.256   5.082  14.337  1.00  0.00     0.040 A 
ATOM     96  F   UNL     1       3.754   2.951  13.492  1.00  0.00    -0.206 F 
ATOM     97  C   UNL     1       2.786   6.379  14.147  1.00  0.00     0.006 A 
ENDBRANCH  73  90
ENDBRANCH  47  48
ENDBRANCH  39  42
ENDBRANCH  37  38
ENDBRANCH  36  37
ENDBRANCH  35  36
ENDBRANCH   1  35
TORSDOF 16
