REMARK SMILES C[C@@H]1C[C@H]([NH3+])C[N@@H+](CCC(=O)NCCCCNC(=O)c2ccc(-c3c4nc(c(-c5c(F)cccc5F)c5ccc([nH]5)c(-c5c(F)cccc5F)c5nc(c(-c6c(F)cccc6F)c6ccc3[nH]6)C=C5)C=C4)cc2)C1
REMARK SMILES IDX 14 1 13 2 12 3 10 4 11 5 9 7 8 8 7 9 1 10 2 11 3 12 74 13
REMARK SMILES IDX 4 14 6 15 5 17 15 21 16 22 17 23 18 24 19 26 20 27 21 28
REMARK SMILES IDX 73 29 22 30 72 31 23 32 24 33 25 34 66 35 26 36 71 37 65 38
REMARK SMILES IDX 67 39 27 40 70 41 64 42 63 43 28 45 54 46 37 47 53 48 38 49
REMARK SMILES IDX 41 50 52 51 68 52 39 53 40 54 51 56 69 57 42 58 29 59 30 60
REMARK SMILES IDX 35 61 31 62 32 63 34 64 36 65 33 66 55 67 56 68 61 69 57 70
REMARK SMILES IDX 58 71 60 72 62 73 59 74 43 75 44 76 49 77 45 78 46 79 48 80
REMARK SMILES IDX 50 81 47 82
REMARK H PARENT 12 6 7 16 5 18 5 19 5 20 17 25 67 44 41 55
REMARK Flexibility Score: inf
ROOT
ATOM      1  C   UNL     1       0.151   0.037   3.165  1.00  0.00     0.023 C 
ENDROOT
BRANCH   1   2
ATOM      2  C   UNL     1      -0.981  -0.292   4.135  1.00  0.00     0.116 C 
BRANCH   2   3
ATOM      3  N   UNL     1      -1.845   0.864   4.286  1.00  0.00    -0.356 N 
ATOM      4  C   UNL     1      -2.797   1.355   3.441  1.00  0.00     0.225 C 
ATOM      5  O   UNL     1      -3.190   2.509   3.615  1.00  0.00    -0.275 OA
ATOM      6  H   UNL     1      -1.728   1.368   5.123  1.00  0.00     0.163 HD
BRANCH   4   7
ATOM      7  C   UNL     1      -3.405   0.471   2.374  1.00  0.00     0.161 C 
BRANCH   7   8
ATOM      8  C   UNL     1      -3.167   0.955   0.930  1.00  0.00     0.272 C 
BRANCH   8   9
ATOM      9  N   UNL     1      -2.227   0.207   0.067  1.00  0.00    -0.329 N 
ATOM     10  C   UNL     1       1.012   0.365  -1.677  1.00  0.00     0.014 C 
ATOM     11  C   UNL     1       0.328  -0.074  -0.380  1.00  0.00     0.047 C 
ATOM     12  C   UNL     1       0.065  -1.586  -0.379  1.00  0.00     0.080 C 
ATOM     13  C   UNL     1      -0.896   0.810  -0.016  1.00  0.00     0.265 C 
ATOM     14  C   UNL     1      -1.350  -1.979  -0.788  1.00  0.00     0.237 C 
ATOM     15  C   UNL     1      -2.326  -1.245   0.150  1.00  0.00     0.327 C 
ATOM     16  H   UNL     1      -2.563   0.336  -0.888  1.00  0.00     0.348 HD
BRANCH  14  17
ATOM     17  N   UNL     1      -1.600  -1.683  -2.201  1.00  0.00    -0.350 N 
ATOM     18  H   UNL     1      -1.483  -0.683  -2.365  1.00  0.00     0.344 HD
ATOM     19  H   UNL     1      -2.552  -1.958  -2.443  1.00  0.00     0.344 HD
ATOM     20  H   UNL     1      -0.939  -2.202  -2.779  1.00  0.00     0.344 HD
ENDBRANCH  14  17
ENDBRANCH   8   9
ENDBRANCH   7   8
ENDBRANCH   4   7
ENDBRANCH   2   3
ENDBRANCH   1   2
BRANCH   1  21
ATOM     21  C   UNL     1       1.556  -0.318   3.624  1.00  0.00     0.023 C 
BRANCH  21  22
ATOM     22  C   UNL     1       1.786  -1.802   3.861  1.00  0.00     0.116 C 
BRANCH  22  23
ATOM     23  N   UNL     1       2.102  -2.561   2.654  1.00  0.00    -0.352 N 
ATOM     24  C   UNL     1       3.267  -3.144   2.204  1.00  0.00     0.251 C 
ATOM     25  H   UNL     1       1.337  -2.679   2.045  1.00  0.00     0.163 HD
ATOM     26  O   UNL     1       3.299  -3.650   1.084  1.00  0.00    -0.269 OA
BRANCH  24  27
ATOM     27  C   UNL     1       4.487  -3.137   3.037  1.00  0.00     0.039 A 
ATOM     28  C   UNL     1       5.739  -2.954   2.443  1.00  0.00     0.014 A 
ATOM     29  C   UNL     1       4.398  -3.279   4.417  1.00  0.00     0.014 A 
ATOM     30  C   UNL     1       6.870  -2.781   3.248  1.00  0.00     0.010 A 
ATOM     31  C   UNL     1       5.477  -2.932   5.211  1.00  0.00     0.010 A 
ATOM     32  C   UNL     1       6.734  -2.691   4.642  1.00  0.00    -0.014 A 
BRANCH  32  33
ATOM     33  C   UNL     1       7.868  -2.363   5.546  1.00  0.00     0.031 A 
ATOM     34  C   UNL     1       8.171  -3.261   6.719  1.00  0.00     0.074 A 
ATOM     35  C   UNL     1       8.527  -1.196   5.404  1.00  0.00     0.049 A 
ATOM     36  N   UNL     1       8.961  -3.054   7.741  1.00  0.00    -0.248 NA
ATOM     37  C   UNL     1       7.425  -4.529   6.789  1.00  0.00     0.031 C 
ATOM     38  C   UNL     1       8.268  -0.190   4.372  1.00  0.00     0.029 A 
ATOM     39  N   UNL     1       9.538  -0.648   6.152  1.00  0.00    -0.354 N 
ATOM     40  C   UNL     1       8.756  -4.130   8.596  1.00  0.00     0.074 A 
ATOM     41  C   UNL     1       7.714  -4.944   8.011  1.00  0.00     0.031 C 
ATOM     42  C   UNL     1       9.119   0.836   4.532  1.00  0.00     0.029 A 
ATOM     43  C   UNL     1       9.951   0.583   5.702  1.00  0.00     0.049 A 
ATOM     44  H   UNL     1       9.931  -1.094   6.937  1.00  0.00     0.167 HD
ATOM     45  C   UNL     1       9.401  -4.437   9.747  1.00  0.00     0.037 A 
ATOM     46  C   UNL     1      10.893   1.416   6.182  1.00  0.00     0.037 A 
ATOM     47  C   UNL     1      10.494  -3.668  10.276  1.00  0.00     0.049 A 
ATOM     48  C   UNL     1      11.671   1.012   7.401  1.00  0.00     0.074 A 
ATOM     49  C   UNL     1      11.295  -3.942  11.370  1.00  0.00     0.029 A 
ATOM     50  N   UNL     1      10.952  -2.477   9.730  1.00  0.00    -0.354 N 
ATOM     51  N   UNL     1      11.520  -0.046   8.161  1.00  0.00    -0.248 NA
ATOM     52  C   UNL     1      12.756   1.907   7.822  1.00  0.00     0.031 C 
ATOM     53  C   UNL     1      12.221  -2.901  11.502  1.00  0.00     0.029 A 
ATOM     54  C   UNL     1      12.021  -1.999  10.469  1.00  0.00     0.049 A 
ATOM     55  H   UNL     1      10.572  -2.037   8.936  1.00  0.00     0.167 HD
ATOM     56  C   UNL     1      12.499   0.045   9.140  1.00  0.00     0.074 A 
ATOM     57  C   UNL     1      13.250   1.254   8.866  1.00  0.00     0.031 C 
ATOM     58  C   UNL     1      12.753  -0.793  10.175  1.00  0.00     0.037 A 
BRANCH  45  59
ATOM     59  C   UNL     1       8.945  -5.665  10.485  1.00  0.00     0.057 A 
ATOM     60  C   UNL     1       9.110  -6.954   9.957  1.00  0.00     0.134 A 
ATOM     61  C   UNL     1       8.312  -5.557  11.730  1.00  0.00     0.134 A 
ATOM     62  F   UNL     1       9.696  -7.129   8.762  1.00  0.00    -0.206 F 
ATOM     63  C   UNL     1       8.615  -8.083  10.612  1.00  0.00     0.040 A 
ATOM     64  C   UNL     1       7.845  -6.683  12.412  1.00  0.00     0.040 A 
ATOM     65  F   UNL     1       8.128  -4.358  12.301  1.00  0.00    -0.206 F 
ATOM     66  C   UNL     1       7.983  -7.949  11.845  1.00  0.00     0.006 A 
ENDBRANCH  45  59
BRANCH  46  67
ATOM     67  C   UNL     1      11.175   2.689   5.473  1.00  0.00     0.057 A 
ATOM     68  C   UNL     1      12.334   2.841   4.704  1.00  0.00     0.134 A 
ATOM     69  C   UNL     1      10.280   3.765   5.511  1.00  0.00     0.134 A 
ATOM     70  F   UNL     1      13.235   1.849   4.640  1.00  0.00    -0.206 F 
ATOM     71  C   UNL     1      12.600   4.019   4.005  1.00  0.00     0.040 A 
ATOM     72  C   UNL     1      10.522   4.941   4.799  1.00  0.00     0.040 A 
ATOM     73  F   UNL     1       9.144   3.676   6.218  1.00  0.00    -0.206 F 
ATOM     74  C   UNL     1      11.687   5.072   4.045  1.00  0.00     0.006 A 
ENDBRANCH  46  67
BRANCH  58  75
ATOM     75  C   UNL     1      13.903  -0.443  11.070  1.00  0.00     0.057 A 
ATOM     76  C   UNL     1      13.822   0.604  11.996  1.00  0.00     0.134 A 
ATOM     77  C   UNL     1      15.086  -1.191  11.036  1.00  0.00     0.134 A 
ATOM     78  F   UNL     1      12.719   1.365  12.068  1.00  0.00    -0.206 F 
ATOM     79  C   UNL     1      14.886   0.906  12.846  1.00  0.00     0.040 A 
ATOM     80  C   UNL     1      16.147  -0.914  11.897  1.00  0.00     0.040 A 
ATOM     81  F   UNL     1      15.222  -2.213  10.177  1.00  0.00    -0.206 F 
ATOM     82  C   UNL     1      16.051   0.141  12.802  1.00  0.00     0.006 A 
ENDBRANCH  58  75
ENDBRANCH  32  33
ENDBRANCH  24  27
ENDBRANCH  22  23
ENDBRANCH  21  22
ENDBRANCH   1  21
TORSDOF 14
