REMARK SMILES Cc1ccc(NC(=O)[C@H]2CC(Cl)=CC[C@@H]2C(=O)NCCCCNC(=O)c2ccc(-c3c4nc(c(-c5c(F)cccc5F)c5ccc([nH]5)c(-c5c(F)cccc5F)c5nc(c(-c6c(F)cccc6F)c6ccc3[nH]6)C=C5)C=C4)cc2)cc1[N+](=O)[O-]
REMARK SMILES IDX 20 1 19 2 18 3 16 4 17 5 15 7 9 8 10 9 11 10 14 11 12 12
REMARK SMILES IDX 13 13 7 14 6 15 8 17 5 18 1 19 2 20 3 21 81 22 4 23 80 24
REMARK SMILES IDX 82 25 83 26 84 27 21 28 22 29 23 30 24 31 25 33 26 34 27 35
REMARK SMILES IDX 79 36 28 37 78 38 29 39 30 40 31 41 72 42 32 43 77 44 71 45
REMARK SMILES IDX 73 46 33 47 76 48 70 49 69 50 34 52 60 53 43 54 59 55 44 56
REMARK SMILES IDX 47 57 58 58 74 59 45 60 46 61 57 63 75 64 48 65 35 66 36 67
REMARK SMILES IDX 41 68 37 69 38 70 40 71 42 72 39 73 61 74 62 75 67 76 63 77
REMARK SMILES IDX 64 78 66 79 68 80 65 81 49 82 50 83 55 84 51 85 52 86 54 87
REMARK SMILES IDX 56 88 53 89
REMARK H PARENT 18 6 6 16 23 32 73 51 47 62
REMARK Flexibility Score: inf
ROOT
ATOM      1  C   UNL     1      -3.704   1.492  -0.942  1.00  0.00     0.023 C 
ENDROOT
BRANCH   1   2
ATOM      2  C   UNL     1      -3.351   0.606  -2.146  1.00  0.00     0.116 C 
BRANCH   2   3
ATOM      3  N   UNL     1      -2.139  -0.180  -1.977  1.00  0.00    -0.356 N 
ATOM      4  C   UNL     1      -1.918  -1.496  -1.723  1.00  0.00     0.224 C 
ATOM      5  O   UNL     1      -0.744  -1.875  -1.763  1.00  0.00    -0.275 OA
ATOM      6  H   UNL     1      -1.312   0.348  -2.065  1.00  0.00     0.163 HD
BRANCH   4   7
ATOM      7  C   UNL     1      -3.043  -2.464  -1.367  1.00  0.00     0.095 C 
ATOM      8  C   UNL     1      -2.953  -2.839   0.133  1.00  0.00     0.097 C 
ATOM      9  C   UNL     1      -3.937  -3.974   0.480  1.00  0.00     0.062 C 
ATOM     10  C   UNL     1      -3.736  -5.157  -0.408  1.00  0.00     0.015 C 
ATOM     11  C   UNL     1      -2.875  -3.727  -2.267  1.00  0.00     0.043 C 
ATOM     12  Cl  UNL     1      -4.108  -6.699   0.264  1.00  0.00    -0.089 Cl
ATOM     13  C   UNL     1      -3.252  -5.045  -1.649  1.00  0.00    -0.010 C 
BRANCH   8  14
ATOM     14  C   UNL     1      -3.285  -1.670   1.045  1.00  0.00     0.228 C 
ATOM     15  N   UNL     1      -2.356  -0.851   1.612  1.00  0.00    -0.326 N 
ATOM     16  H   UNL     1      -2.751  -0.169   2.201  1.00  0.00     0.169 HD
ATOM     17  O   UNL     1      -4.468  -1.357   1.235  1.00  0.00    -0.274 OA
BRANCH  15  18
ATOM     18  C   UNL     1      -0.956  -0.770   1.540  1.00  0.00     0.048 A 
ATOM     19  C   UNL     1       3.144  -0.095   0.327  1.00  0.00     0.052 C 
ATOM     20  C   UNL     1       1.761  -0.290   0.873  1.00  0.00     0.027 A 
ATOM     21  C   UNL     1       1.249  -1.591   0.947  1.00  0.00     0.012 A 
ATOM     22  C   UNL     1       0.906   0.750   1.255  1.00  0.00     0.274 A 
ATOM     23  C   UNL     1      -0.090  -1.827   1.286  1.00  0.00     0.027 A 
ATOM     24  C   UNL     1      -0.416   0.511   1.656  1.00  0.00     0.112 A 
BRANCH  22  25
ATOM     25  N   UNL     1       1.296   2.145   1.123  1.00  0.00     0.063 N 
ATOM     26  O   UNL     1       1.184   2.858   2.128  1.00  0.00    -0.258 OA
ATOM     27  O   UNL     1       1.637   2.537  -0.003  1.00  0.00    -0.258 OA
ENDBRANCH  22  25
ENDBRANCH  15  18
ENDBRANCH   8  14
ENDBRANCH   4   7
ENDBRANCH   2   3
ENDBRANCH   1   2
BRANCH   1  28
ATOM     28  C   UNL     1      -2.554   2.304  -0.342  1.00  0.00     0.023 C 
BRANCH  28  29
ATOM     29  C   UNL     1      -2.182   3.580  -1.086  1.00  0.00     0.116 C 
BRANCH  29  30
ATOM     30  N   UNL     1      -2.454   4.798  -0.318  1.00  0.00    -0.352 N 
ATOM     31  C   UNL     1      -2.035   6.092  -0.598  1.00  0.00     0.251 C 
ATOM     32  H   UNL     1      -3.000   4.685   0.494  1.00  0.00     0.163 HD
ATOM     33  O   UNL     1      -2.437   7.052   0.033  1.00  0.00    -0.269 OA
BRANCH  31  34
ATOM     34  C   UNL     1      -1.165   6.268  -1.780  1.00  0.00     0.039 A 
ATOM     35  C   UNL     1      -1.757   6.811  -2.922  1.00  0.00     0.014 A 
ATOM     36  C   UNL     1       0.024   5.544  -1.845  1.00  0.00     0.014 A 
ATOM     37  C   UNL     1      -1.307   6.387  -4.166  1.00  0.00     0.010 A 
ATOM     38  C   UNL     1       0.426   5.070  -3.081  1.00  0.00     0.010 A 
ATOM     39  C   UNL     1      -0.299   5.420  -4.228  1.00  0.00    -0.014 A 
BRANCH  39  40
ATOM     40  C   UNL     1      -0.086   4.619  -5.429  1.00  0.00     0.031 A 
ATOM     41  C   UNL     1       1.066   4.884  -6.311  1.00  0.00     0.074 A 
ATOM     42  C   UNL     1      -0.973   3.657  -5.776  1.00  0.00     0.049 A 
ATOM     43  N   UNL     1       1.038   4.735  -7.593  1.00  0.00    -0.248 NA
ATOM     44  C   UNL     1       2.339   5.384  -5.810  1.00  0.00     0.031 C 
ATOM     45  C   UNL     1      -0.839   2.683  -6.856  1.00  0.00     0.029 A 
ATOM     46  N   UNL     1      -2.301   3.518  -5.344  1.00  0.00    -0.354 N 
ATOM     47  C   UNL     1       2.325   4.876  -8.057  1.00  0.00     0.074 A 
ATOM     48  C   UNL     1       3.087   5.332  -6.916  1.00  0.00     0.031 C 
ATOM     49  C   UNL     1      -2.062   2.264  -7.213  1.00  0.00     0.029 A 
ATOM     50  C   UNL     1      -3.030   3.028  -6.448  1.00  0.00     0.049 A 
ATOM     51  H   UNL     1      -2.654   3.722  -4.448  1.00  0.00     0.167 HD
ATOM     52  C   UNL     1       2.638   4.473  -9.322  1.00  0.00     0.037 A 
ATOM     53  C   UNL     1      -4.094   3.702  -6.968  1.00  0.00     0.037 A 
ATOM     54  C   UNL     1       1.474   3.937 -10.020  1.00  0.00     0.049 A 
ATOM     55  C   UNL     1      -3.932   4.087  -8.419  1.00  0.00     0.074 A 
ATOM     56  C   UNL     1       1.011   2.643 -10.200  1.00  0.00     0.029 A 
ATOM     57  N   UNL     1       0.436   4.781 -10.391  1.00  0.00    -0.354 N 
ATOM     58  N   UNL     1      -2.795   4.047  -9.056  1.00  0.00    -0.248 NA
ATOM     59  C   UNL     1      -5.018   4.594  -9.256  1.00  0.00     0.031 C 
ATOM     60  C   UNL     1      -0.330   2.711 -10.644  1.00  0.00     0.029 A 
ATOM     61  C   UNL     1      -0.677   4.046 -10.750  1.00  0.00     0.049 A 
ATOM     62  H   UNL     1       0.487   5.764 -10.398  1.00  0.00     0.167 HD
ATOM     63  C   UNL     1      -2.959   4.553 -10.320  1.00  0.00     0.074 A 
ATOM     64  C   UNL     1      -4.375   4.849 -10.409  1.00  0.00     0.031 C 
ATOM     65  C   UNL     1      -1.902   4.706 -11.172  1.00  0.00     0.037 A 
BRANCH  52  66
ATOM     66  C   UNL     1       4.059   4.288  -9.797  1.00  0.00     0.057 A 
ATOM     67  C   UNL     1       4.405   3.250 -10.684  1.00  0.00     0.134 A 
ATOM     68  C   UNL     1       5.142   5.075  -9.372  1.00  0.00     0.134 A 
ATOM     69  F   UNL     1       3.478   2.486 -11.275  1.00  0.00    -0.206 F 
ATOM     70  C   UNL     1       5.731   2.935 -11.007  1.00  0.00     0.040 A 
ATOM     71  C   UNL     1       6.477   4.739  -9.641  1.00  0.00     0.040 A 
ATOM     72  F   UNL     1       4.949   6.225  -8.712  1.00  0.00    -0.206 F 
ATOM     73  C   UNL     1       6.777   3.652 -10.448  1.00  0.00     0.006 A 
ENDBRANCH  52  66
BRANCH  53  74
ATOM     74  C   UNL     1      -4.862   4.469  -5.957  1.00  0.00     0.057 A 
ATOM     75  C   UNL     1      -5.559   3.760  -4.962  1.00  0.00     0.134 A 
ATOM     76  C   UNL     1      -4.640   5.829  -5.733  1.00  0.00     0.134 A 
ATOM     77  F   UNL     1      -5.798   2.447  -5.112  1.00  0.00    -0.206 F 
ATOM     78  C   UNL     1      -5.927   4.352  -3.752  1.00  0.00     0.040 A 
ATOM     79  C   UNL     1      -5.010   6.435  -4.527  1.00  0.00     0.040 A 
ATOM     80  F   UNL     1      -3.965   6.566  -6.627  1.00  0.00    -0.206 F 
ATOM     81  C   UNL     1      -5.621   5.689  -3.519  1.00  0.00     0.006 A 
ENDBRANCH  53  74
BRANCH  65  82
ATOM     82  C   UNL     1      -1.918   5.416 -12.503  1.00  0.00     0.057 A 
ATOM     83  C   UNL     1      -2.749   6.502 -12.811  1.00  0.00     0.134 A 
ATOM     84  C   UNL     1      -0.951   5.102 -13.487  1.00  0.00     0.134 A 
ATOM     85  F   UNL     1      -3.643   6.972 -11.931  1.00  0.00    -0.206 F 
ATOM     86  C   UNL     1      -2.657   7.196 -14.027  1.00  0.00     0.040 A 
ATOM     87  C   UNL     1      -0.817   5.820 -14.678  1.00  0.00     0.040 A 
ATOM     88  F   UNL     1      -0.080   4.096 -13.322  1.00  0.00    -0.206 F 
ATOM     89  C   UNL     1      -1.681   6.865 -14.959  1.00  0.00     0.006 A 
ENDBRANCH  65  82
ENDBRANCH  39  40
ENDBRANCH  31  34
ENDBRANCH  29  30
ENDBRANCH  28  29
ENDBRANCH   1  28
TORSDOF 14
