REMARK SMILES CC(C)Cc1cc2c(cc1Cl)C=C(C(=O)NCCCCNC(=O)c1ccc(-c3c4nc(c(-c5c(F)cccc5F)c5ccc([nH]5)c(-c5c(F)cccc5F)c5nc(c(-c6c(F)cccc6F)c6ccc3[nH]6)C=C5)C=C4)cc1)[C@H](C(F)(F)F)O2
REMARK SMILES IDX 18 1 17 2 16 3 14 4 15 5 13 7 5 8 6 9 10 10 7 11 9 12 11 13
REMARK SMILES IDX 8 14 83 15 12 16 78 17 4 18 2 19 1 20 3 21 79 22 80 23 81 24
REMARK SMILES IDX 82 25 19 26 20 27 21 28 22 29 23 31 24 32 25 33 77 34 26 35
REMARK SMILES IDX 76 36 27 37 28 38 29 39 70 40 30 41 75 42 69 43 71 44 31 45
REMARK SMILES IDX 74 46 68 47 67 48 32 50 58 51 41 52 57 53 42 54 45 55 56 56
REMARK SMILES IDX 72 57 43 58 44 59 55 61 73 62 46 63 33 64 34 65 39 66 35 67
REMARK SMILES IDX 36 68 38 69 40 70 37 71 59 72 60 73 65 74 61 75 62 76 64 77
REMARK SMILES IDX 66 78 63 79 47 80 48 81 53 82 49 83 50 84 52 85 54 86 51 87
REMARK H PARENT 16 6 21 30 71 49 45 60
REMARK Flexibility Score: inf
ROOT
ATOM      1  C   UNL     1      -4.032   3.434   7.019  1.00  0.00     0.023 C 
ENDROOT
BRANCH   1   2
ATOM      2  C   UNL     1      -4.821   4.049   5.864  1.00  0.00     0.116 C 
BRANCH   2   3
ATOM      3  N   UNL     1      -4.074   5.105   5.210  1.00  0.00    -0.352 N 
ATOM      4  C   UNL     1      -3.375   5.241   4.059  1.00  0.00     0.251 C 
ATOM      5  O   UNL     1      -2.956   6.380   3.830  1.00  0.00    -0.270 OA
ATOM      6  H   UNL     1      -4.075   5.936   5.738  1.00  0.00     0.163 HD
BRANCH   4   7
ATOM      7  C   UNL     1      -3.083   4.141   3.092  1.00  0.00     0.067 C 
ATOM      8  C   UNL     1      -1.361   1.560  -0.887  1.00  0.00    -0.025 A 
ATOM      9  C   UNL     1      -2.067   1.218   0.278  1.00  0.00     0.052 A 
ATOM     10  C   UNL     1      -1.134   2.920  -1.156  1.00  0.00     0.045 A 
ATOM     11  C   UNL     1      -2.481   2.202   1.171  1.00  0.00     0.128 A 
ATOM     12  C   UNL     1      -1.570   3.906  -0.262  1.00  0.00     0.032 A 
ATOM     13  Cl  UNL     1      -0.322   3.446  -2.587  1.00  0.00    -0.084 Cl
ATOM     14  C   UNL     1      -2.233   3.547   0.913  1.00  0.00     0.019 A 
ATOM     15  O   UNL     1      -3.152   1.779   2.282  1.00  0.00    -0.475 OA
ATOM     16  C   UNL     1      -2.670   4.549   1.877  1.00  0.00     0.025 C 
ATOM     17  C   UNL     1      -3.102   2.673   3.430  1.00  0.00     0.314 C 
BRANCH   8  18
ATOM     18  C   UNL     1      -0.840   0.441  -1.762  1.00  0.00     0.040 C 
BRANCH  18  19
ATOM     19  C   UNL     1       0.672   0.170  -1.603  1.00  0.00    -0.013 C 
ATOM     20  C   UNL     1       1.066  -0.177  -0.164  1.00  0.00     0.008 C 
ATOM     21  C   UNL     1       1.091  -0.967  -2.537  1.00  0.00     0.008 C 
ENDBRANCH  18  19
ENDBRANCH   8  18
BRANCH  17  22
ATOM     22  C   UNL     1      -1.975   2.234   4.380  1.00  0.00     0.429 C 
ATOM     23  F   UNL     1      -1.464   3.260   5.098  1.00  0.00    -0.167 F 
ATOM     24  F   UNL     1      -2.449   1.328   5.274  1.00  0.00    -0.167 F 
ATOM     25  F   UNL     1      -0.939   1.652   3.736  1.00  0.00    -0.167 F 
ENDBRANCH  17  22
ENDBRANCH   4   7
ENDBRANCH   2   3
ENDBRANCH   1   2
BRANCH   1  26
ATOM     26  C   UNL     1      -4.119   4.212   8.333  1.00  0.00     0.023 C 
BRANCH  26  27
ATOM     27  C   UNL     1      -5.522   4.358   8.907  1.00  0.00     0.116 C 
BRANCH  27  28
ATOM     28  N   UNL     1      -6.231   3.096   9.072  1.00  0.00    -0.352 N 
ATOM     29  C   UNL     1      -7.174   2.765  10.018  1.00  0.00     0.251 C 
ATOM     30  H   UNL     1      -6.006   2.389   8.425  1.00  0.00     0.163 HD
ATOM     31  O   UNL     1      -7.633   1.630  10.075  1.00  0.00    -0.269 OA
BRANCH  29  32
ATOM     32  C   UNL     1      -7.582   3.787  11.002  1.00  0.00     0.039 A 
ATOM     33  C   UNL     1      -7.920   5.074  10.581  1.00  0.00     0.014 A 
ATOM     34  C   UNL     1      -7.538   3.474  12.363  1.00  0.00     0.014 A 
ATOM     35  C   UNL     1      -8.027   6.091  11.519  1.00  0.00     0.010 A 
ATOM     36  C   UNL     1      -7.738   4.483  13.308  1.00  0.00     0.010 A 
ATOM     37  C   UNL     1      -7.926   5.810  12.892  1.00  0.00    -0.014 A 
BRANCH  37  38
ATOM     38  C   UNL     1      -7.997   6.930  13.863  1.00  0.00     0.031 A 
ATOM     39  C   UNL     1      -6.807   7.294  14.710  1.00  0.00     0.074 A 
ATOM     40  C   UNL     1      -9.120   7.670  13.923  1.00  0.00     0.049 A 
ATOM     41  N   UNL     1      -6.681   8.262  15.583  1.00  0.00    -0.248 NA
ATOM     42  C   UNL     1      -5.602   6.462  14.564  1.00  0.00     0.031 C 
ATOM     43  C   UNL     1     -10.335   7.423  13.143  1.00  0.00     0.029 A 
ATOM     44  N   UNL     1      -9.412   8.798  14.645  1.00  0.00    -0.354 N 
ATOM     45  C   UNL     1      -5.400   8.140  16.107  1.00  0.00     0.074 A 
ATOM     46  C   UNL     1      -4.793   6.991  15.471  1.00  0.00     0.031 C 
ATOM     47  C   UNL     1     -11.215   8.406  13.378  1.00  0.00     0.029 A 
ATOM     48  C   UNL     1     -10.654   9.316  14.370  1.00  0.00     0.049 A 
ATOM     49  H   UNL     1      -8.791   9.198  15.296  1.00  0.00     0.167 HD
ATOM     50  C   UNL     1      -4.783   8.920  17.027  1.00  0.00     0.037 A 
ATOM     51  C   UNL     1     -11.275  10.399  14.868  1.00  0.00     0.037 A 
ATOM     52  C   UNL     1      -5.378  10.080  17.639  1.00  0.00     0.049 A 
ATOM     53  C   UNL     1     -10.576  11.233  15.900  1.00  0.00     0.074 A 
ATOM     54  C   UNL     1      -4.828  10.944  18.571  1.00  0.00     0.029 A 
ATOM     55  N   UNL     1      -6.657  10.543  17.372  1.00  0.00    -0.354 N 
ATOM     56  N   UNL     1      -9.367  11.100  16.389  1.00  0.00    -0.248 NA
ATOM     57  C   UNL     1     -11.334  12.360  16.459  1.00  0.00     0.031 C 
ATOM     58  C   UNL     1      -5.787  11.912  18.890  1.00  0.00     0.029 A 
ATOM     59  C   UNL     1      -6.921  11.671  18.131  1.00  0.00     0.049 A 
ATOM     60  H   UNL     1      -7.286  10.130  16.737  1.00  0.00     0.167 HD
ATOM     61  C   UNL     1      -9.215  12.129  17.306  1.00  0.00     0.074 A 
ATOM     62  C   UNL     1     -10.447  12.893  17.288  1.00  0.00     0.031 C 
ATOM     63  C   UNL     1      -8.154  12.414  18.100  1.00  0.00     0.037 A 
BRANCH  50  64
ATOM     64  C   UNL     1      -3.394   8.531  17.442  1.00  0.00     0.057 A 
ATOM     65  C   UNL     1      -3.157   7.977  18.707  1.00  0.00     0.134 A 
ATOM     66  C   UNL     1      -2.288   8.728  16.605  1.00  0.00     0.134 A 
ATOM     67  F   UNL     1      -4.171   7.766  19.559  1.00  0.00    -0.206 F 
ATOM     68  C   UNL     1      -1.869   7.633  19.124  1.00  0.00     0.040 A 
ATOM     69  C   UNL     1      -0.999   8.369  17.003  1.00  0.00     0.040 A 
ATOM     70  F   UNL     1      -2.450   9.241  15.376  1.00  0.00    -0.206 F 
ATOM     71  C   UNL     1      -0.786   7.824  18.268  1.00  0.00     0.006 A 
ENDBRANCH  50  64
BRANCH  51  72
ATOM     72  C   UNL     1     -12.636  10.752  14.397  1.00  0.00     0.057 A 
ATOM     73  C   UNL     1     -13.747   9.967  14.726  1.00  0.00     0.134 A 
ATOM     74  C   UNL     1     -12.853  11.882  13.601  1.00  0.00     0.134 A 
ATOM     75  F   UNL     1     -13.600   8.868  15.481  1.00  0.00    -0.206 F 
ATOM     76  C   UNL     1     -15.026  10.286  14.270  1.00  0.00     0.040 A 
ATOM     77  C   UNL     1     -14.131  12.226  13.158  1.00  0.00     0.040 A 
ATOM     78  F   UNL     1     -11.829  12.681  13.268  1.00  0.00    -0.206 F 
ATOM     79  C   UNL     1     -15.221  11.422  13.488  1.00  0.00     0.006 A 
ENDBRANCH  51  72
BRANCH  63  80
ATOM     80  C   UNL     1      -8.284  13.609  18.993  1.00  0.00     0.057 A 
ATOM     81  C   UNL     1      -7.606  14.798  18.699  1.00  0.00     0.134 A 
ATOM     82  C   UNL     1      -9.078  13.581  20.146  1.00  0.00     0.134 A 
ATOM     83  F   UNL     1      -6.827  14.887  17.610  1.00  0.00    -0.206 F 
ATOM     84  C   UNL     1      -7.717  15.921  19.520  1.00  0.00     0.040 A 
ATOM     85  C   UNL     1      -9.214  14.704  20.963  1.00  0.00     0.040 A 
ATOM     86  F   UNL     1      -9.766  12.475  20.470  1.00  0.00    -0.206 F 
ATOM     87  C   UNL     1      -8.529  15.877  20.652  1.00  0.00     0.006 A 
ENDBRANCH  63  80
ENDBRANCH  37  38
ENDBRANCH  29  32
ENDBRANCH  27  28
ENDBRANCH  26  27
ENDBRANCH   1  26
TORSDOF 14
