REMARK SMILES Cc1ccc(NC(=O)CN2C(=O)S/C(=C\c3cc(Cl)c(OCC(=O)NCCCCNC(=O)c4ccc(-c5c6nc(c(-c7c(F)cccc7F)c7ccc([nH]7)c(-c7c(F)cccc7F)c7nc(c(-c8c(F)cccc8F)c8ccc5[nH]8)C=C7)C=C6)cc4)c(Cl)c3)C2=O)cc1
REMARK SMILES IDX 23 1 24 2 25 3 22 5 21 6 20 7 16 8 17 9 89 10 18 11 87 12
REMARK SMILES IDX 19 13 88 14 15 15 10 16 11 17 90 18 12 19 13 20 14 21 91 22
REMARK SMILES IDX 9 23 7 24 6 25 8 27 5 28 1 29 2 30 3 31 93 32 4 33 92 34
REMARK SMILES IDX 26 35 27 36 28 37 29 38 30 39 31 40 32 42 33 43 34 44 86 45
REMARK SMILES IDX 35 46 85 47 36 48 37 49 38 50 79 51 39 52 84 53 78 54 80 55
REMARK SMILES IDX 40 56 83 57 77 58 76 59 41 61 67 62 50 63 66 64 51 65 54 66
REMARK SMILES IDX 65 67 81 68 52 69 53 70 64 72 82 73 55 74 42 75 43 76 48 77
REMARK SMILES IDX 44 78 45 79 47 80 49 81 46 82 68 83 69 84 74 85 70 86 71 87
REMARK SMILES IDX 73 88 75 89 72 90 56 91 57 92 62 93 58 94 59 95 61 96 63 97
REMARK SMILES IDX 60 98
REMARK H PARENT 25 4 6 26 30 41 80 60 54 71
REMARK Flexibility Score: inf
ROOT
ATOM      1  C   UNL     1      -7.443  -3.263 -10.761  1.00  0.00     0.257 C 
ATOM      2  O   UNL     1      -8.374  -3.284  -9.954  1.00  0.00    -0.271 OA
ATOM      3  N   UNL     1      -7.238  -4.387 -11.507  1.00  0.00    -0.353 N 
ATOM      4  H   UNL     1      -7.775  -5.170 -11.249  1.00  0.00     0.163 HD
ENDROOT
BRANCH   1   5
ATOM      5  C   UNL     1      -6.569  -2.017 -10.985  1.00  0.00     0.329 C 
BRANCH   5   6
ATOM      6  O   UNL     1      -5.175  -2.126 -10.768  1.00  0.00    -0.481 OA
BRANCH   6   7
ATOM      7  C   UNL     1      -4.617  -2.293  -9.529  1.00  0.00     0.157 A 
ATOM      8  C   UNL     1      -3.116  -2.755  -7.132  1.00  0.00    -0.021 A 
ATOM      9  C   UNL     1      -2.487  -2.820  -8.368  1.00  0.00     0.032 A 
ATOM     10  C   UNL     1      -4.492  -2.493  -7.115  1.00  0.00     0.032 A 
ATOM     11  C   UNL     1      -3.230  -2.595  -9.544  1.00  0.00     0.085 A 
ATOM     12  C   UNL     1      -5.222  -2.196  -8.274  1.00  0.00     0.085 A 
ATOM     13  Cl  UNL     1      -2.352  -2.684 -11.041  1.00  0.00    -0.080 Cl
ATOM     14  Cl  UNL     1      -6.813  -1.615  -7.942  1.00  0.00    -0.080 Cl
BRANCH   8  15
ATOM     15  C   UNL     1      -2.417  -3.007  -5.856  1.00  0.00     0.029 C 
ATOM     16  N   UNL     1      -3.110  -2.064  -2.495  1.00  0.00    -0.259 N 
ATOM     17  C   UNL     1      -3.924  -1.112  -3.052  1.00  0.00     0.294 C 
ATOM     18  C   UNL     1      -2.305  -2.754  -3.381  1.00  0.00     0.268 C 
ATOM     19  O   UNL     1      -4.950  -0.642  -2.595  1.00  0.00    -0.261 OA
ATOM     20  S   UNL     1      -3.342  -0.709  -4.648  1.00  0.00    -0.022 SA
ATOM     21  C   UNL     1      -2.541  -2.231  -4.763  1.00  0.00     0.083 C 
ATOM     22  O   UNL     1      -1.631  -3.744  -3.131  1.00  0.00    -0.268 OA
BRANCH  16  23
ATOM     23  C   UNL     1      -3.441  -2.617  -1.191  1.00  0.00     0.230 C 
BRANCH  23  24
ATOM     24  C   UNL     1      -3.794  -1.547  -0.154  1.00  0.00     0.244 C 
ATOM     25  N   UNL     1      -2.979  -0.473   0.060  1.00  0.00    -0.325 N 
ATOM     26  H   UNL     1      -3.449   0.344   0.344  1.00  0.00     0.169 HD
ATOM     27  O   UNL     1      -4.843  -1.628   0.491  1.00  0.00    -0.273 OA
BRANCH  25  28
ATOM     28  C   UNL     1      -1.590  -0.332  -0.056  1.00  0.00     0.041 A 
ATOM     29  C   UNL     1       2.677   0.316  -0.037  1.00  0.00     0.044 C 
ATOM     30  C   UNL     1       1.192   0.106  -0.053  1.00  0.00    -0.051 A 
ATOM     31  C   UNL     1       0.674  -1.191   0.008  1.00  0.00     0.005 A 
ATOM     32  C   UNL     1       0.307   1.185  -0.114  1.00  0.00     0.005 A 
ATOM     33  C   UNL     1      -0.707  -1.409   0.008  1.00  0.00     0.026 A 
ATOM     34  C   UNL     1      -1.074   0.967  -0.100  1.00  0.00     0.026 A 
ENDBRANCH  25  28
ENDBRANCH  23  24
ENDBRANCH  16  23
ENDBRANCH   8  15
ENDBRANCH   6   7
ENDBRANCH   5   6
ENDBRANCH   1   5
BRANCH   3  35
ATOM     35  C   UNL     1      -6.340  -4.589 -12.626  1.00  0.00     0.116 C 
BRANCH  35  36
ATOM     36  C   UNL     1      -5.041  -5.297 -12.243  1.00  0.00     0.023 C 
BRANCH  36  37
ATOM     37  C   UNL     1      -5.196  -6.621 -11.501  1.00  0.00     0.023 C 
BRANCH  37  38
ATOM     38  C   UNL     1      -5.911  -7.720 -12.270  1.00  0.00     0.116 C 
BRANCH  38  39
ATOM     39  N   UNL     1      -5.091  -8.418 -13.254  1.00  0.00    -0.352 N 
ATOM     40  C   UNL     1      -5.395  -9.503 -14.062  1.00  0.00     0.251 C 
ATOM     41  H   UNL     1      -4.180  -8.062 -13.362  1.00  0.00     0.163 HD
ATOM     42  O   UNL     1      -4.528  -9.971 -14.796  1.00  0.00    -0.269 OA
BRANCH  40  43
ATOM     43  C   UNL     1      -6.797  -9.982 -14.190  1.00  0.00     0.039 A 
ATOM     44  C   UNL     1      -7.255 -10.283 -15.481  1.00  0.00     0.014 A 
ATOM     45  C   UNL     1      -7.709  -9.793 -13.163  1.00  0.00     0.014 A 
ATOM     46  C   UNL     1      -8.583 -10.033 -15.803  1.00  0.00     0.010 A 
ATOM     47  C   UNL     1      -8.973  -9.385 -13.502  1.00  0.00     0.010 A 
ATOM     48  C   UNL     1      -9.379  -9.434 -14.838  1.00  0.00    -0.014 A 
BRANCH  48  49
ATOM     49  C   UNL     1     -10.644  -8.780 -15.107  1.00  0.00     0.031 A 
ATOM     50  C   UNL     1     -11.885  -9.457 -14.704  1.00  0.00     0.074 A 
ATOM     51  C   UNL     1     -10.636  -7.496 -15.528  1.00  0.00     0.049 A 
ATOM     52  N   UNL     1     -13.053  -9.138 -15.131  1.00  0.00    -0.248 NA
ATOM     53  C   UNL     1     -11.896 -10.602 -13.802  1.00  0.00     0.031 C 
ATOM     54  C   UNL     1     -11.735  -6.538 -15.490  1.00  0.00     0.029 A 
ATOM     55  N   UNL     1      -9.637  -6.846 -16.264  1.00  0.00    -0.354 N 
ATOM     56  C   UNL     1     -13.976  -9.801 -14.353  1.00  0.00     0.074 A 
ATOM     57  C   UNL     1     -13.207 -10.768 -13.610  1.00  0.00     0.031 C 
ATOM     58  C   UNL     1     -11.494  -5.562 -16.381  1.00  0.00     0.029 A 
ATOM     59  C   UNL     1     -10.312  -5.955 -17.128  1.00  0.00     0.049 A 
ATOM     60  H   UNL     1      -8.665  -6.981 -16.193  1.00  0.00     0.167 HD
ATOM     61  C   UNL     1     -15.257  -9.334 -14.337  1.00  0.00     0.037 A 
ATOM     62  C   UNL     1     -10.273  -6.124 -18.483  1.00  0.00     0.037 A 
ATOM     63  C   UNL     1     -15.401  -8.231 -15.289  1.00  0.00     0.049 A 
ATOM     64  C   UNL     1     -11.637  -6.349 -19.093  1.00  0.00     0.074 A 
ATOM     65  C   UNL     1     -15.381  -6.854 -15.134  1.00  0.00     0.029 A 
ATOM     66  N   UNL     1     -15.249  -8.478 -16.648  1.00  0.00    -0.354 N 
ATOM     67  N   UNL     1     -12.660  -6.819 -18.431  1.00  0.00    -0.248 NA
ATOM     68  C   UNL     1     -11.967  -6.038 -20.479  1.00  0.00     0.031 C 
ATOM     69  C   UNL     1     -15.182  -6.273 -16.412  1.00  0.00     0.029 A 
ATOM     70  C   UNL     1     -15.102  -7.295 -17.342  1.00  0.00     0.049 A 
ATOM     71  H   UNL     1     -15.245  -9.373 -17.058  1.00  0.00     0.167 HD
ATOM     72  C   UNL     1     -13.762  -6.859 -19.250  1.00  0.00     0.074 A 
ATOM     73  C   UNL     1     -13.274  -6.356 -20.520  1.00  0.00     0.031 C 
ATOM     74  C   UNL     1     -14.978  -7.293 -18.794  1.00  0.00     0.037 A 
BRANCH  61  75
ATOM     75  C   UNL     1     -16.298  -9.655 -13.284  1.00  0.00     0.057 A 
ATOM     76  C   UNL     1     -17.380  -8.776 -13.063  1.00  0.00     0.134 A 
ATOM     77  C   UNL     1     -16.284 -10.763 -12.419  1.00  0.00     0.134 A 
ATOM     78  F   UNL     1     -17.608  -7.722 -13.857  1.00  0.00    -0.206 F 
ATOM     79  C   UNL     1     -18.295  -8.929 -12.012  1.00  0.00     0.040 A 
ATOM     80  C   UNL     1     -17.169 -10.911 -11.340  1.00  0.00     0.040 A 
ATOM     81  F   UNL     1     -15.458 -11.797 -12.601  1.00  0.00    -0.206 F 
ATOM     82  C   UNL     1     -18.174  -9.984 -11.124  1.00  0.00     0.006 A 
ENDBRANCH  61  75
BRANCH  62  83
ATOM     83  C   UNL     1      -8.994  -6.738 -18.937  1.00  0.00     0.057 A 
ATOM     84  C   UNL     1      -7.808  -6.006 -18.730  1.00  0.00     0.134 A 
ATOM     85  C   UNL     1      -8.867  -8.120 -19.100  1.00  0.00     0.134 A 
ATOM     86  F   UNL     1      -7.859  -4.673 -18.577  1.00  0.00    -0.206 F 
ATOM     87  C   UNL     1      -6.578  -6.637 -18.526  1.00  0.00     0.040 A 
ATOM     88  C   UNL     1      -7.633  -8.759 -18.920  1.00  0.00     0.040 A 
ATOM     89  F   UNL     1      -9.949  -8.888 -19.294  1.00  0.00    -0.206 F 
ATOM     90  C   UNL     1      -6.498  -8.024 -18.577  1.00  0.00     0.006 A 
ENDBRANCH  62  83
BRANCH  74  91
ATOM     91  C   UNL     1     -16.202  -7.671 -19.611  1.00  0.00     0.057 A 
ATOM     92  C   UNL     1     -16.199  -7.954 -20.984  1.00  0.00     0.134 A 
ATOM     93  C   UNL     1     -17.447  -7.914 -18.971  1.00  0.00     0.134 A 
ATOM     94  F   UNL     1     -15.085  -7.882 -21.720  1.00  0.00    -0.206 F 
ATOM     95  C   UNL     1     -17.343  -8.392 -21.670  1.00  0.00     0.040 A 
ATOM     96  C   UNL     1     -18.573  -8.412 -19.632  1.00  0.00     0.040 A 
ATOM     97  F   UNL     1     -17.629  -7.707 -17.659  1.00  0.00    -0.206 F 
ATOM     98  C   UNL     1     -18.530  -8.639 -20.994  1.00  0.00     0.006 A 
ENDBRANCH  74  91
ENDBRANCH  48  49
ENDBRANCH  40  43
ENDBRANCH  38  39
ENDBRANCH  37  38
ENDBRANCH  36  37
ENDBRANCH  35  36
ENDBRANCH   3  35
TORSDOF 17
