REMARK SMILES O=C(NCCCCNC(=O)c1c[nH]c(=O)c(-c2cccc([N+](=O)[O-])c2)c1)c1ccc(-c2c3nc(c(-c4c(F)cccc4F)c4ccc([nH]4)c(-c4c(F)cccc4F)c4nc(c(-c5c(F)cccc5F)c5ccc2[nH]5)C=C4)C=C3)cc1
REMARK SMILES IDX 5 1 4 2 3 3 1 4 2 5 27 7 28 8 80 9 29 10 79 11 30 12 31 13
REMARK SMILES IDX 32 14 73 15 33 16 78 17 72 18 74 19 34 20 77 21 71 22 70 23
REMARK SMILES IDX 35 25 61 26 44 27 60 28 45 29 48 30 59 31 75 32 46 33 47 34
REMARK SMILES IDX 58 36 76 37 49 38 36 39 37 40 42 41 38 42 39 43 41 44 43 45
REMARK SMILES IDX 40 46 62 47 63 48 68 49 64 50 65 51 67 52 69 53 66 54 50 55
REMARK SMILES IDX 51 56 56 57 52 58 53 59 55 60 57 61 54 62 6 63 7 64 8 65
REMARK SMILES IDX 9 66 10 68 11 69 12 70 26 71 13 72 16 73 14 74 15 76 17 77
REMARK SMILES IDX 18 78 25 79 19 80 21 81 20 82 22 83 23 84 24 85
REMARK H PARENT 3 6 74 24 48 35 8 67 13 75
REMARK Flexibility Score: inf
ROOT
ATOM      1  C   UNL     1       4.834   0.129  -2.822  1.00  0.00     0.023 C 
ENDROOT
BRANCH   1   2
ATOM      2  C   UNL     1       4.517   0.416  -1.361  1.00  0.00     0.116 C 
BRANCH   2   3
ATOM      3  N   UNL     1       3.092   0.480  -1.074  1.00  0.00    -0.352 N 
ATOM      4  O   UNL     1       1.161  -0.062  -0.030  1.00  0.00    -0.269 OA
ATOM      5  C   UNL     1       2.385  -0.146  -0.072  1.00  0.00     0.251 C 
ATOM      6  H   UNL     1       2.562   1.048  -1.678  1.00  0.00     0.163 HD
BRANCH   5   7
ATOM      7  C   UNL     1       3.107  -0.953   0.936  1.00  0.00     0.039 A 
ATOM      8  C   UNL     1       4.270  -0.463   1.529  1.00  0.00     0.014 A 
ATOM      9  C   UNL     1       2.635  -2.228   1.262  1.00  0.00     0.014 A 
ATOM     10  C   UNL     1       5.052  -1.308   2.305  1.00  0.00     0.010 A 
ATOM     11  C   UNL     1       3.374  -3.043   2.127  1.00  0.00     0.010 A 
ATOM     12  C   UNL     1       4.610  -2.604   2.623  1.00  0.00    -0.014 A 
BRANCH  12  13
ATOM     13  C   UNL     1       5.450  -3.436   3.522  1.00  0.00     0.031 A 
ATOM     14  C   UNL     1       6.099  -4.706   3.047  1.00  0.00     0.074 A 
ATOM     15  C   UNL     1       5.690  -2.980   4.767  1.00  0.00     0.049 A 
ATOM     16  N   UNL     1       6.940  -5.485   3.682  1.00  0.00    -0.248 NA
ATOM     17  C   UNL     1       5.761  -5.171   1.693  1.00  0.00     0.031 C 
ATOM     18  C   UNL     1       5.094  -1.774   5.348  1.00  0.00     0.029 A 
ATOM     19  N   UNL     1       6.524  -3.445   5.751  1.00  0.00    -0.354 N 
ATOM     20  C   UNL     1       7.222  -6.534   2.816  1.00  0.00     0.074 A 
ATOM     21  C   UNL     1       6.442  -6.307   1.617  1.00  0.00     0.031 C 
ATOM     22  C   UNL     1       5.633  -1.555   6.555  1.00  0.00     0.029 A 
ATOM     23  C   UNL     1       6.567  -2.633   6.858  1.00  0.00     0.049 A 
ATOM     24  H   UNL     1       7.041  -4.279   5.671  1.00  0.00     0.167 HD
ATOM     25  C   UNL     1       8.061  -7.582   3.000  1.00  0.00     0.037 A 
ATOM     26  C   UNL     1       7.278  -2.741   7.994  1.00  0.00     0.037 A 
ATOM     27  C   UNL     1       8.845  -7.798   4.191  1.00  0.00     0.049 A 
ATOM     28  C   UNL     1       8.213  -3.900   8.161  1.00  0.00     0.074 A 
ATOM     29  C   UNL     1       9.727  -8.829   4.469  1.00  0.00     0.029 A 
ATOM     30  N   UNL     1       8.844  -6.966   5.300  1.00  0.00    -0.354 N 
ATOM     31  N   UNL     1       8.477  -4.873   7.324  1.00  0.00    -0.248 NA
ATOM     32  C   UNL     1       8.947  -3.978   9.431  1.00  0.00     0.031 C 
ATOM     33  C   UNL     1      10.239  -8.635   5.757  1.00  0.00     0.029 A 
ATOM     34  C   UNL     1       9.703  -7.464   6.267  1.00  0.00     0.049 A 
ATOM     35  H   UNL     1       8.312  -6.142   5.388  1.00  0.00     0.167 HD
ATOM     36  C   UNL     1       9.402  -5.682   7.965  1.00  0.00     0.074 A 
ATOM     37  C   UNL     1       9.684  -5.064   9.245  1.00  0.00     0.031 C 
ATOM     38  C   UNL     1       9.960  -6.842   7.539  1.00  0.00     0.037 A 
BRANCH  25  39
ATOM     39  C   UNL     1       8.177  -8.586   1.891  1.00  0.00     0.057 A 
ATOM     40  C   UNL     1       8.883  -8.304   0.715  1.00  0.00     0.134 A 
ATOM     41  C   UNL     1       7.631  -9.869   2.025  1.00  0.00     0.134 A 
ATOM     42  F   UNL     1       9.421  -7.091   0.519  1.00  0.00    -0.206 F 
ATOM     43  C   UNL     1       9.034  -9.259  -0.293  1.00  0.00     0.040 A 
ATOM     44  C   UNL     1       7.791 -10.838   1.033  1.00  0.00     0.040 A 
ATOM     45  F   UNL     1       6.948 -10.206   3.129  1.00  0.00    -0.206 F 
ATOM     46  C   UNL     1       8.493 -10.534  -0.132  1.00  0.00     0.006 A 
ENDBRANCH  25  39
BRANCH  26  47
ATOM     47  C   UNL     1       7.122  -1.720   9.058  1.00  0.00     0.057 A 
ATOM     48  C   UNL     1       8.148  -0.817   9.356  1.00  0.00     0.134 A 
ATOM     49  C   UNL     1       5.933  -1.614   9.790  1.00  0.00     0.134 A 
ATOM     50  F   UNL     1       9.315  -0.880   8.699  1.00  0.00    -0.206 F 
ATOM     51  C   UNL     1       8.002   0.147  10.354  1.00  0.00     0.040 A 
ATOM     52  C   UNL     1       5.763  -0.637  10.771  1.00  0.00     0.040 A 
ATOM     53  F   UNL     1       4.909  -2.444   9.543  1.00  0.00    -0.206 F 
ATOM     54  C   UNL     1       6.804   0.243  11.060  1.00  0.00     0.006 A 
ENDBRANCH  26  47
BRANCH  38  55
ATOM     55  C   UNL     1      10.923  -7.506   8.475  1.00  0.00     0.057 A 
ATOM     56  C   UNL     1      10.485  -8.166   9.630  1.00  0.00     0.134 A 
ATOM     57  C   UNL     1      12.300  -7.484   8.222  1.00  0.00     0.134 A 
ATOM     58  F   UNL     1       9.179  -8.207   9.935  1.00  0.00    -0.206 F 
ATOM     59  C   UNL     1      11.385  -8.756  10.517  1.00  0.00     0.040 A 
ATOM     60  C   UNL     1      13.208  -8.090   9.090  1.00  0.00     0.040 A 
ATOM     61  F   UNL     1      12.782  -6.872   7.130  1.00  0.00    -0.206 F 
ATOM     62  C   UNL     1      12.752  -8.722  10.246  1.00  0.00     0.006 A 
ENDBRANCH  38  55
ENDBRANCH  12  13
ENDBRANCH   5   7
ENDBRANCH   2   3
ENDBRANCH   1   2
BRANCH   1  63
ATOM     63  C   UNL     1       4.353   1.183  -3.813  1.00  0.00     0.023 C 
BRANCH  63  64
ATOM     64  C   UNL     1       4.772   2.614  -3.494  1.00  0.00     0.116 C 
BRANCH  64  65
ATOM     65  N   UNL     1       6.218   2.791  -3.466  1.00  0.00    -0.352 N 
ATOM     66  C   UNL     1       7.017   3.574  -4.252  1.00  0.00     0.252 C 
ATOM     67  H   UNL     1       6.691   2.268  -2.778  1.00  0.00     0.163 HD
ATOM     68  O   UNL     1       8.238   3.526  -4.139  1.00  0.00    -0.269 OA
BRANCH  66  69
ATOM     69  C   UNL     1       6.366   4.448  -5.259  1.00  0.00     0.056 A 
ATOM     70  C   UNL     1       6.690   4.275  -6.548  1.00  0.00     0.099 A 
ATOM     71  C   UNL     1       5.343   5.406  -4.896  1.00  0.00     0.029 A 
ATOM     72  N   UNL     1       6.002   4.955  -7.525  1.00  0.00    -0.328 N 
ATOM     73  C   UNL     1       4.601   6.030  -5.830  1.00  0.00     0.048 A 
ATOM     74  C   UNL     1       4.943   5.803  -7.279  1.00  0.00     0.255 A 
ATOM     75  H   UNL     1       6.283   4.827  -8.460  1.00  0.00     0.169 HD
ATOM     76  O   UNL     1       4.318   6.331  -8.192  1.00  0.00    -0.269 OA
BRANCH  73  77
ATOM     77  C   UNL     1       3.415   6.794  -5.408  1.00  0.00    -0.006 A 
ATOM     78  C   UNL     1       3.514   7.843  -4.481  1.00  0.00     0.009 A 
ATOM     79  C   UNL     1       2.148   6.409  -5.872  1.00  0.00     0.094 A 
ATOM     80  C   UNL     1       2.369   8.494  -4.015  1.00  0.00     0.008 A 
ATOM     81  C   UNL     1       1.003   7.062  -5.397  1.00  0.00     0.270 A 
ATOM     82  C   UNL     1       1.108   8.104  -4.467  1.00  0.00     0.085 A 
BRANCH  81  83
ATOM     83  N   UNL     1      -0.322   6.627  -5.854  1.00  0.00     0.062 N 
ATOM     84  O   UNL     1      -1.303   7.294  -5.496  1.00  0.00    -0.258 OA
ATOM     85  O   UNL     1      -0.384   5.606  -6.554  1.00  0.00    -0.258 OA
ENDBRANCH  81  83
ENDBRANCH  73  77
ENDBRANCH  66  69
ENDBRANCH  64  65
ENDBRANCH  63  64
ENDBRANCH   1  63
TORSDOF 13
