REMARK SMILES Cc1c(C[NH2+]CC(=O)NCCCCNC(=O)c2ccc(-c3c4nc(c(-c5c(F)cccc5F)c5ccc([nH]5)c(-c5c(F)cccc5F)c5nc(c(-c6c(F)cccc6F)c6ccc3[nH]6)C=C5)C=C4)cc2)cnn1C
REMARK SMILES IDX 11 1 10 2 9 3 7 4 8 5 6 7 5 8 4 11 3 12 1 13 2 14 73 15
REMARK SMILES IDX 71 16 72 17 74 18 12 19 13 20 14 21 15 22 16 24 17 25 18 26
REMARK SMILES IDX 70 27 19 28 69 29 20 30 21 31 22 32 63 33 23 34 68 35 62 36
REMARK SMILES IDX 64 37 24 38 67 39 61 40 60 41 25 43 51 44 34 45 50 46 35 47
REMARK SMILES IDX 38 48 49 49 65 50 36 51 37 52 48 54 66 55 39 56 26 57 27 58
REMARK SMILES IDX 32 59 28 60 29 61 31 62 33 63 30 64 52 65 53 66 58 67 54 68
REMARK SMILES IDX 55 69 57 70 59 71 56 72 40 73 41 74 46 75 42 76 43 77 45 78
REMARK SMILES IDX 47 79 44 80
REMARK H PARENT 9 6 5 9 5 10 14 23 64 42 38 53
REMARK Flexibility Score: inf
ROOT
ATOM      1  C   UNL     1      -2.928  -3.152   1.289  1.00  0.00     0.023 C 
ENDROOT
BRANCH   1   2
ATOM      2  C   UNL     1      -2.338  -4.550   1.050  1.00  0.00     0.116 C 
BRANCH   2   3
ATOM      3  N   UNL     1      -2.487  -4.977  -0.334  1.00  0.00    -0.351 N 
ATOM      4  C   UNL     1      -1.568  -5.061  -1.347  1.00  0.00     0.275 C 
ATOM      5  O   UNL     1      -1.982  -5.353  -2.472  1.00  0.00    -0.269 OA
ATOM      6  H   UNL     1      -3.399  -5.252  -0.583  1.00  0.00     0.163 HD
BRANCH   4   7
ATOM      7  C   UNL     1      -0.073  -4.759  -1.106  1.00  0.00     0.362 C 
BRANCH   7   8
ATOM      8  N   UNL     1       0.315  -3.361  -1.448  1.00  0.00    -0.335 N 
ATOM      9  H   UNL     1       1.307  -3.224  -1.253  1.00  0.00     0.347 HD
ATOM     10  H   UNL     1       0.142  -3.188  -2.439  1.00  0.00     0.347 HD
BRANCH   8  11
ATOM     11  C   UNL     1      -0.471  -2.442  -0.644  1.00  0.00     0.301 C 
BRANCH  11  12
ATOM     12  C   UNL     1      -0.135  -1.006  -0.749  1.00  0.00     0.047 A 
ATOM     13  C   UNL     1       2.394  -0.844  -0.160  1.00  0.00     0.067 C 
ATOM     14  C   UNL     1       1.041  -0.326  -0.481  1.00  0.00     0.044 A 
ATOM     15  N   UNL     1       0.705   1.007  -0.485  1.00  0.00    -0.272 N 
ATOM     16  C   UNL     1      -1.093   0.018  -0.942  1.00  0.00     0.145 A 
ATOM     17  N   UNL     1      -0.584   1.236  -0.793  1.00  0.00    -0.181 NA
ATOM     18  C   UNL     1       1.531   2.130  -0.111  1.00  0.00     0.174 C 
ENDBRANCH  11  12
ENDBRANCH   8  11
ENDBRANCH   7   8
ENDBRANCH   4   7
ENDBRANCH   2   3
ENDBRANCH   1   2
BRANCH   1  19
ATOM     19  C   UNL     1      -4.426  -3.106   1.536  1.00  0.00     0.023 C 
BRANCH  19  20
ATOM     20  C   UNL     1      -4.844  -3.656   2.884  1.00  0.00     0.116 C 
BRANCH  20  21
ATOM     21  N   UNL     1      -4.260  -2.938   4.010  1.00  0.00    -0.352 N 
ATOM     22  C   UNL     1      -4.870  -2.509   5.168  1.00  0.00     0.251 C 
ATOM     23  H   UNL     1      -3.301  -2.731   3.933  1.00  0.00     0.163 HD
ATOM     24  O   UNL     1      -4.260  -1.835   5.986  1.00  0.00    -0.269 OA
BRANCH  22  25
ATOM     25  C   UNL     1      -6.292  -2.841   5.380  1.00  0.00     0.039 A 
ATOM     26  C   UNL     1      -7.179  -1.827   5.743  1.00  0.00     0.014 A 
ATOM     27  C   UNL     1      -6.753  -4.134   5.123  1.00  0.00     0.014 A 
ATOM     28  C   UNL     1      -8.548  -2.093   5.764  1.00  0.00     0.010 A 
ATOM     29  C   UNL     1      -8.116  -4.364   5.033  1.00  0.00     0.010 A 
ATOM     30  C   UNL     1      -9.028  -3.351   5.364  1.00  0.00    -0.014 A 
BRANCH  30  31
ATOM     31  C   UNL     1     -10.478  -3.650   5.305  1.00  0.00     0.031 A 
ATOM     32  C   UNL     1     -11.041  -4.748   6.163  1.00  0.00     0.074 A 
ATOM     33  C   UNL     1     -11.264  -3.005   4.422  1.00  0.00     0.049 A 
ATOM     34  N   UNL     1     -12.253  -5.238   6.192  1.00  0.00    -0.248 NA
ATOM     35  C   UNL     1     -10.102  -5.417   7.080  1.00  0.00     0.031 C 
ATOM     36  C   UNL     1     -10.822  -1.964   3.490  1.00  0.00     0.029 A 
ATOM     37  N   UNL     1     -12.604  -3.135   4.162  1.00  0.00    -0.354 N 
ATOM     38  C   UNL     1     -12.209  -6.292   7.095  1.00  0.00     0.074 A 
ATOM     39  C   UNL     1     -10.841  -6.410   7.547  1.00  0.00     0.031 C 
ATOM     40  C   UNL     1     -11.881  -1.522   2.792  1.00  0.00     0.029 A 
ATOM     41  C   UNL     1     -13.065  -2.271   3.200  1.00  0.00     0.049 A 
ATOM     42  H   UNL     1     -13.181  -3.788   4.622  1.00  0.00     0.167 HD
ATOM     43  C   UNL     1     -13.224  -7.073   7.532  1.00  0.00     0.037 A 
ATOM     44  C   UNL     1     -14.307  -2.101   2.710  1.00  0.00     0.037 A 
ATOM     45  C   UNL     1     -14.593  -6.910   7.128  1.00  0.00     0.049 A 
ATOM     46  C   UNL     1     -15.425  -2.955   3.236  1.00  0.00     0.074 A 
ATOM     47  C   UNL     1     -15.714  -7.577   7.586  1.00  0.00     0.029 A 
ATOM     48  N   UNL     1     -15.026  -6.004   6.171  1.00  0.00    -0.354 N 
ATOM     49  N   UNL     1     -15.387  -3.897   4.147  1.00  0.00    -0.248 NA
ATOM     50  C   UNL     1     -16.759  -2.722   2.666  1.00  0.00     0.031 C 
ATOM     51  C   UNL     1     -16.823  -7.099   6.880  1.00  0.00     0.029 A 
ATOM     52  C   UNL     1     -16.396  -6.109   6.009  1.00  0.00     0.049 A 
ATOM     53  H   UNL     1     -14.444  -5.380   5.679  1.00  0.00     0.167 HD
ATOM     54  C   UNL     1     -16.692  -4.350   4.281  1.00  0.00     0.074 A 
ATOM     55  C   UNL     1     -17.500  -3.573   3.362  1.00  0.00     0.031 C 
ATOM     56  C   UNL     1     -17.180  -5.319   5.093  1.00  0.00     0.037 A 
BRANCH  43  57
ATOM     57  C   UNL     1     -12.878  -8.164   8.502  1.00  0.00     0.057 A 
ATOM     58  C   UNL     1     -12.479  -7.889   9.818  1.00  0.00     0.134 A 
ATOM     59  C   UNL     1     -12.935  -9.508   8.113  1.00  0.00     0.134 A 
ATOM     60  F   UNL     1     -12.386  -6.622  10.248  1.00  0.00    -0.206 F 
ATOM     61  C   UNL     1     -12.111  -8.908  10.698  1.00  0.00     0.040 A 
ATOM     62  C   UNL     1     -12.598 -10.537   8.994  1.00  0.00     0.040 A 
ATOM     63  F   UNL     1     -13.312  -9.842   6.870  1.00  0.00    -0.206 F 
ATOM     64  C   UNL     1     -12.174 -10.237  10.287  1.00  0.00     0.006 A 
ENDBRANCH  43  57
BRANCH  44  65
ATOM     65  C   UNL     1     -14.569  -1.039   1.707  1.00  0.00     0.057 A 
ATOM     66  C   UNL     1     -15.255   0.127   2.068  1.00  0.00     0.134 A 
ATOM     67  C   UNL     1     -14.138  -1.152   0.381  1.00  0.00     0.134 A 
ATOM     68  F   UNL     1     -15.706   0.283   3.321  1.00  0.00    -0.206 F 
ATOM     69  C   UNL     1     -15.515   1.138   1.143  1.00  0.00     0.040 A 
ATOM     70  C   UNL     1     -14.374  -0.139  -0.551  1.00  0.00     0.040 A 
ATOM     71  F   UNL     1     -13.468  -2.241  -0.024  1.00  0.00    -0.206 F 
ATOM     72  C   UNL     1     -15.069   1.008  -0.171  1.00  0.00     0.006 A 
ENDBRANCH  44  65
BRANCH  56  73
ATOM     73  C   UNL     1     -18.657  -5.570   5.047  1.00  0.00     0.057 A 
ATOM     74  C   UNL     1     -19.256  -6.244   3.977  1.00  0.00     0.134 A 
ATOM     75  C   UNL     1     -19.480  -5.169   6.107  1.00  0.00     0.134 A 
ATOM     76  F   UNL     1     -18.522  -6.641   2.926  1.00  0.00    -0.206 F 
ATOM     77  C   UNL     1     -20.628  -6.497   3.955  1.00  0.00     0.040 A 
ATOM     78  C   UNL     1     -20.849  -5.436   6.107  1.00  0.00     0.040 A 
ATOM     79  F   UNL     1     -18.963  -4.526   7.165  1.00  0.00    -0.206 F 
ATOM     80  C   UNL     1     -21.427  -6.098   5.025  1.00  0.00     0.006 A 
ENDBRANCH  56  73
ENDBRANCH  30  31
ENDBRANCH  22  25
ENDBRANCH  20  21
ENDBRANCH  19  20
ENDBRANCH   1  19
TORSDOF 14
