REMARK SMILES Cc1ccc(F)c(C(=O)Nc2cccc(C(=O)NCCCCNC(=O)c3ccc(-c4c5nc(c(-c6c(F)cccc6F)c6ccc([nH]6)c(-c6c(F)cccc6F)c6nc(c(-c7c(F)cccc7F)c7ccc4[nH]7)C=C6)C=C5)cc3)c2)c1
REMARK SMILES IDX 20 1 19 2 18 3 16 4 17 5 15 7 11 8 12 9 80 10 13 11 14 12
REMARK SMILES IDX 10 13 8 14 9 15 7 17 1 18 2 19 3 20 81 21 4 22 5 23 6 24
REMARK SMILES IDX 21 25 22 26 23 27 24 28 25 30 26 31 27 32 79 33 28 34 78 35
REMARK SMILES IDX 29 36 30 37 31 38 72 39 32 40 77 41 71 42 73 43 33 44 76 45
REMARK SMILES IDX 70 46 69 47 34 49 60 50 43 51 59 52 44 53 47 54 58 55 74 56
REMARK SMILES IDX 45 57 46 58 57 60 75 61 48 62 35 63 36 64 41 65 37 66 38 67
REMARK SMILES IDX 40 68 42 69 39 70 61 71 62 72 67 73 63 74 64 75 66 76 68 77
REMARK SMILES IDX 65 78 49 79 50 80 55 81 51 82 52 83 54 84 56 85 53 86
REMARK H PARENT 18 6 10 16 23 29 73 48 47 59
REMARK Flexibility Score: inf
ROOT
ATOM      1  C   UNL     1       0.865  -1.550   3.990  1.00  0.00     0.023 C 
ENDROOT
BRANCH   1   2
ATOM      2  C   UNL     1       1.764  -1.015   2.878  1.00  0.00     0.116 C 
BRANCH   2   3
ATOM      3  N   UNL     1       3.055  -1.667   2.892  1.00  0.00    -0.352 N 
ATOM      4  C   UNL     1       3.561  -2.752   2.223  1.00  0.00     0.251 C 
ATOM      5  O   UNL     1       4.732  -3.051   2.462  1.00  0.00    -0.269 OA
ATOM      6  H   UNL     1       3.701  -1.247   3.504  1.00  0.00     0.163 HD
BRANCH   4   7
ATOM      7  C   UNL     1       2.813  -3.535   1.191  1.00  0.00     0.041 A 
ATOM      8  C   UNL     1       0.851  -4.122  -0.112  1.00  0.00     0.042 A 
ATOM      9  C   UNL     1       1.614  -4.952  -0.930  1.00  0.00     0.026 A 
ATOM     10  C   UNL     1       1.429  -3.518   1.009  1.00  0.00     0.040 A 
ATOM     11  C   UNL     1       2.987  -5.043  -0.722  1.00  0.00     0.003 A 
ATOM     12  C   UNL     1       3.584  -4.313   0.309  1.00  0.00     0.014 A 
BRANCH   8  13
ATOM     13  N   UNL     1      -0.466  -3.849  -0.502  1.00  0.00    -0.322 N 
ATOM     14  C   UNL     1      -1.169  -2.653  -0.520  1.00  0.00     0.258 C 
ATOM     15  O   UNL     1      -2.377  -2.708  -0.750  1.00  0.00    -0.269 OA
ATOM     16  H   UNL     1      -0.975  -4.632  -0.815  1.00  0.00     0.170 HD
BRANCH  14  17
ATOM     17  C   UNL     1      -0.505  -1.316  -0.402  1.00  0.00     0.076 A 
ATOM     18  C   UNL     1       2.940   0.304  -0.693  1.00  0.00     0.044 C 
ATOM     19  C   UNL     1       1.455   0.150  -0.530  1.00  0.00    -0.050 A 
ATOM     20  C   UNL     1       0.681   1.226  -0.087  1.00  0.00     0.006 A 
ATOM     21  C   UNL     1       0.833  -1.088  -0.768  1.00  0.00     0.020 A 
ATOM     22  C   UNL     1      -0.675   1.044   0.177  1.00  0.00     0.040 A 
ATOM     23  C   UNL     1      -1.252  -0.222   0.045  1.00  0.00     0.135 A 
ATOM     24  F   UNL     1      -2.542  -0.348   0.385  1.00  0.00    -0.206 F 
ENDBRANCH  14  17
ENDBRANCH   8  13
ENDBRANCH   4   7
ENDBRANCH   2   3
ENDBRANCH   1   2
BRANCH   1  25
ATOM     25  C   UNL     1       1.079  -0.845   5.330  1.00  0.00     0.023 C 
BRANCH  25  26
ATOM     26  C   UNL     1       0.751   0.643   5.316  1.00  0.00     0.116 C 
BRANCH  26  27
ATOM     27  N   UNL     1      -0.619   0.933   4.924  1.00  0.00    -0.352 N 
ATOM     28  C   UNL     1      -1.417   1.977   5.333  1.00  0.00     0.251 C 
ATOM     29  H   UNL     1      -1.027   0.303   4.286  1.00  0.00     0.163 HD
ATOM     30  O   UNL     1      -2.586   2.038   5.004  1.00  0.00    -0.269 OA
BRANCH  28  31
ATOM     31  C   UNL     1      -0.832   3.013   6.212  1.00  0.00     0.039 A 
ATOM     32  C   UNL     1      -1.523   3.379   7.368  1.00  0.00     0.014 A 
ATOM     33  C   UNL     1       0.398   3.599   5.903  1.00  0.00     0.014 A 
ATOM     34  C   UNL     1      -0.958   4.311   8.238  1.00  0.00     0.010 A 
ATOM     35  C   UNL     1       0.997   4.463   6.812  1.00  0.00     0.010 A 
ATOM     36  C   UNL     1       0.315   4.845   7.976  1.00  0.00    -0.014 A 
BRANCH  36  37
ATOM     37  C   UNL     1       0.920   5.852   8.880  1.00  0.00     0.031 A 
ATOM     38  C   UNL     1       1.172   7.248   8.378  1.00  0.00     0.074 A 
ATOM     39  C   UNL     1       1.277   5.505  10.131  1.00  0.00     0.049 A 
ATOM     40  N   UNL     1       1.723   8.263   8.994  1.00  0.00    -0.248 NA
ATOM     41  C   UNL     1       0.781   7.532   6.987  1.00  0.00     0.031 C 
ATOM     42  C   UNL     1       1.137   4.169  10.714  1.00  0.00     0.029 A 
ATOM     43  N   UNL     1       1.835   6.251  11.138  1.00  0.00    -0.354 N 
ATOM     44  C   UNL     1       1.751   9.296   8.065  1.00  0.00     0.074 A 
ATOM     45  C   UNL     1       1.231   8.766   6.825  1.00  0.00     0.031 C 
ATOM     46  C   UNL     1       1.574   4.197  11.984  1.00  0.00     0.029 A 
ATOM     47  C   UNL     1       2.047   5.543  12.295  1.00  0.00     0.049 A 
ATOM     48  H   UNL     1       2.062   7.204  11.040  1.00  0.00     0.167 HD
ATOM     49  C   UNL     1       2.140  10.581   8.238  1.00  0.00     0.037 A 
ATOM     50  C   UNL     1       2.560   5.939  13.475  1.00  0.00     0.037 A 
ATOM     51  C   UNL     1       2.633  11.112   9.480  1.00  0.00     0.049 A 
ATOM     52  C   UNL     1       2.962   7.378  13.650  1.00  0.00     0.074 A 
ATOM     53  C   UNL     1       3.029  12.406   9.771  1.00  0.00     0.029 A 
ATOM     54  N   UNL     1       2.789  10.374  10.644  1.00  0.00    -0.354 N 
ATOM     55  N   UNL     1       2.934   8.358  12.780  1.00  0.00    -0.248 NA
ATOM     56  C   UNL     1       3.449   7.771  14.980  1.00  0.00     0.031 C 
ATOM     57  C   UNL     1       3.451  12.444  11.105  1.00  0.00     0.029 A 
ATOM     58  C   UNL     1       3.274  11.185  11.656  1.00  0.00     0.049 A 
ATOM     59  H   UNL     1       2.584   9.416  10.737  1.00  0.00     0.167 HD
ATOM     60  C   UNL     1       3.362   9.489  13.464  1.00  0.00     0.074 A 
ATOM     61  C   UNL     1       3.630   9.074  14.826  1.00  0.00     0.031 C 
ATOM     62  C   UNL     1       3.519  10.756  13.009  1.00  0.00     0.037 A 
BRANCH  49  63
ATOM     63  C   UNL     1       2.028  11.497   7.054  1.00  0.00     0.057 A 
ATOM     64  C   UNL     1       0.783  11.899   6.550  1.00  0.00     0.134 A 
ATOM     65  C   UNL     1       3.172  11.995   6.418  1.00  0.00     0.134 A 
ATOM     66  F   UNL     1      -0.352  11.445   7.102  1.00  0.00    -0.206 F 
ATOM     67  C   UNL     1       0.679  12.736   5.438  1.00  0.00     0.040 A 
ATOM     68  C   UNL     1       3.081  12.857   5.323  1.00  0.00     0.040 A 
ATOM     69  F   UNL     1       4.395  11.654   6.849  1.00  0.00    -0.206 F 
ATOM     70  C   UNL     1       1.832  13.223   4.825  1.00  0.00     0.006 A 
ENDBRANCH  49  63
BRANCH  50  71
ATOM     71  C   UNL     1       2.685   4.974  14.596  1.00  0.00     0.057 A 
ATOM     72  C   UNL     1       1.871   5.073  15.731  1.00  0.00     0.134 A 
ATOM     73  C   UNL     1       3.630   3.942  14.569  1.00  0.00     0.134 A 
ATOM     74  F   UNL     1       0.957   6.051  15.823  1.00  0.00    -0.206 F 
ATOM     75  C   UNL     1       2.010   4.199  16.810  1.00  0.00     0.040 A 
ATOM     76  C   UNL     1       3.763   3.045  15.630  1.00  0.00     0.040 A 
ATOM     77  F   UNL     1       4.432   3.786  13.506  1.00  0.00    -0.206 F 
ATOM     78  C   UNL     1       2.957   3.179  16.759  1.00  0.00     0.006 A 
ENDBRANCH  50  71
BRANCH  62  79
ATOM     79  C   UNL     1       3.948  11.792  14.007  1.00  0.00     0.057 A 
ATOM     80  C   UNL     1       5.244  11.824  14.536  1.00  0.00     0.134 A 
ATOM     81  C   UNL     1       3.052  12.783  14.429  1.00  0.00     0.134 A 
ATOM     82  F   UNL     1       6.147  10.898  14.181  1.00  0.00    -0.206 F 
ATOM     83  C   UNL     1       5.624  12.784  15.476  1.00  0.00     0.040 A 
ATOM     84  C   UNL     1       3.428  13.764  15.346  1.00  0.00     0.040 A 
ATOM     85  F   UNL     1       1.798  12.816  13.953  1.00  0.00    -0.206 F 
ATOM     86  C   UNL     1       4.715  13.761  15.880  1.00  0.00     0.006 A 
ENDBRANCH  62  79
ENDBRANCH  36  37
ENDBRANCH  28  31
ENDBRANCH  26  27
ENDBRANCH  25  26
ENDBRANCH   1  25
TORSDOF 13
