REMARK SMILES CC(=O)C1=C(NCCCCNC(=O)c2ccc(-c3c4nc(c(-c5c(F)cccc5F)c5ccc([nH]5)c(-c5c(F)cccc5F)c5nc(c(-c6c(F)cccc6F)c6ccc3[nH]6)C=C5)C=C4)cc2)C(=O)N(c2ccc(C(=O)[O-])cc2)[C@H]1c1ccc([N+](=O)[O-])cc1
REMARK SMILES IDX 8 1 7 2 6 3 5 5 4 6 80 7 68 8 70 9 69 10 2 11 1 12 3 13
REMARK SMILES IDX 81 14 82 15 89 16 83 17 88 18 84 19 85 20 86 21 87 22 71 23
REMARK SMILES IDX 72 24 79 25 73 26 78 27 74 28 75 29 76 30 77 31 9 32 10 33
REMARK SMILES IDX 11 34 12 35 13 37 14 38 15 39 67 40 16 41 66 42 17 43 18 44
REMARK SMILES IDX 19 45 60 46 20 47 65 48 59 49 61 50 21 51 64 52 58 53 57 54
REMARK SMILES IDX 22 56 48 57 31 58 47 59 32 60 35 61 46 62 62 63 33 64 34 65
REMARK SMILES IDX 45 67 63 68 36 69 23 70 24 71 29 72 25 73 26 74 28 75 30 76
REMARK SMILES IDX 27 77 49 78 50 79 55 80 51 81 52 82 54 83 56 84 53 85 37 86
REMARK SMILES IDX 38 87 43 88 39 89 40 90 42 91 44 92 41 93
REMARK H PARENT 6 4 11 36 61 55 35 66
REMARK Flexibility Score: inf
ROOT
ATOM      1  C   UNL     1      -3.204  -1.973  -1.127  1.00  0.00     0.023 C 
ENDROOT
BRANCH   1   2
ATOM      2  C   UNL     1      -2.029  -2.533  -0.329  1.00  0.00     0.113 C 
BRANCH   2   3
ATOM      3  N   UNL     1      -1.167  -3.323  -1.180  1.00  0.00    -0.380 N 
ATOM      4  H   UNL     1      -1.601  -4.069  -1.655  1.00  0.00     0.160 HD
BRANCH   3   5
ATOM      5  C   UNL     1       0.174  -3.168  -1.412  1.00  0.00     0.110 C 
ATOM      6  C   UNL     1       1.127  -2.361  -0.935  1.00  0.00     0.051 C 
ATOM      7  C   UNL     1       2.462  -2.551  -1.562  1.00  0.00     0.157 C 
ATOM      8  C   UNL     1       0.895  -4.078  -2.382  1.00  0.00     0.275 C 
ATOM      9  N   UNL     1       2.246  -3.770  -2.302  1.00  0.00    -0.295 N 
ATOM     10  O   UNL     1       0.332  -4.945  -3.030  1.00  0.00    -0.267 OA
BRANCH   6  11
ATOM     11  C   UNL     1       0.981  -1.427   0.190  1.00  0.00     0.160 C 
ATOM     12  C   UNL     1       1.079   0.046  -0.089  1.00  0.00     0.093 C 
ATOM     13  O   UNL     1       0.838  -1.861   1.331  1.00  0.00    -0.295 OA
ENDBRANCH   6  11
BRANCH   7  14
ATOM     14  C   UNL     1       2.825  -1.400  -2.508  1.00  0.00    -0.020 A 
ATOM     15  C   UNL     1       2.008  -1.075  -3.615  1.00  0.00     0.013 A 
ATOM     16  C   UNL     1       3.991  -0.650  -2.293  1.00  0.00     0.013 A 
ATOM     17  C   UNL     1       2.343  -0.033  -4.481  1.00  0.00     0.086 A 
ATOM     18  C   UNL     1       4.333   0.397  -3.157  1.00  0.00     0.086 A 
ATOM     19  C   UNL     1       3.509   0.700  -4.249  1.00  0.00     0.269 A 
BRANCH  19  20
ATOM     20  N   UNL     1       3.872   1.792  -5.161  1.00  0.00     0.062 N 
ATOM     21  O   UNL     1       3.127   2.006  -6.128  1.00  0.00    -0.258 OA
ATOM     22  O   UNL     1       4.897   2.438  -4.906  1.00  0.00    -0.258 OA
ENDBRANCH  19  20
ENDBRANCH   7  14
BRANCH   9  23
ATOM     23  C   UNL     1       3.299  -4.455  -2.938  1.00  0.00     0.045 A 
ATOM     24  C   UNL     1       3.192  -4.870  -4.268  1.00  0.00     0.027 A 
ATOM     25  C   UNL     1       4.490  -4.692  -2.240  1.00  0.00     0.027 A 
ATOM     26  C   UNL     1       4.285  -5.467  -4.907  1.00  0.00     0.012 A 
ATOM     27  C   UNL     1       5.563  -5.336  -2.859  1.00  0.00     0.012 A 
ATOM     28  C   UNL     1       5.472  -5.710  -4.203  1.00  0.00    -0.003 A 
BRANCH  28  29
ATOM     29  C   UNL     1       6.604  -6.355  -4.909  1.00  0.00     0.071 C 
ATOM     30  O   UNL     1       6.643  -6.630  -6.096  1.00  0.00    -0.545 OA
ATOM     31  O   UNL     1       7.637  -6.629  -4.094  1.00  0.00    -0.545 OA
ENDBRANCH  28  29
ENDBRANCH   9  23
ENDBRANCH   3   5
ENDBRANCH   2   3
ENDBRANCH   1   2
BRANCH   1  32
ATOM     32  C   UNL     1      -4.201  -3.019  -1.617  1.00  0.00     0.023 C 
BRANCH  32  33
ATOM     33  C   UNL     1      -4.784  -3.904  -0.524  1.00  0.00     0.116 C 
BRANCH  33  34
ATOM     34  N   UNL     1      -5.521  -3.152   0.484  1.00  0.00    -0.352 N 
ATOM     35  C   UNL     1      -6.798  -3.361   0.949  1.00  0.00     0.251 C 
ATOM     36  H   UNL     1      -5.040  -2.392   0.885  1.00  0.00     0.163 HD
ATOM     37  O   UNL     1      -7.333  -2.552   1.698  1.00  0.00    -0.269 OA
BRANCH  35  38
ATOM     38  C   UNL     1      -7.530  -4.565   0.508  1.00  0.00     0.039 A 
ATOM     39  C   UNL     1      -8.829  -4.433   0.012  1.00  0.00     0.014 A 
ATOM     40  C   UNL     1      -6.904  -5.813   0.536  1.00  0.00     0.014 A 
ATOM     41  C   UNL     1      -9.474  -5.547  -0.532  1.00  0.00     0.010 A 
ATOM     42  C   UNL     1      -7.510  -6.896  -0.086  1.00  0.00     0.010 A 
ATOM     43  C   UNL     1      -8.803  -6.777  -0.622  1.00  0.00    -0.014 A 
BRANCH  43  44
ATOM     44  C   UNL     1      -9.426  -7.974  -1.240  1.00  0.00     0.031 A 
ATOM     45  C   UNL     1      -9.640  -9.206  -0.405  1.00  0.00     0.074 A 
ATOM     46  C   UNL     1      -9.702  -7.993  -2.559  1.00  0.00     0.049 A 
ATOM     47  N   UNL     1     -10.012 -10.405  -0.774  1.00  0.00    -0.248 NA
ATOM     48  C   UNL     1      -9.364  -9.079   1.036  1.00  0.00     0.031 C 
ATOM     49  C   UNL     1      -9.518  -6.873  -3.483  1.00  0.00     0.029 A 
ATOM     50  N   UNL     1     -10.178  -9.006  -3.355  1.00  0.00    -0.354 N 
ATOM     51  C   UNL     1      -9.981 -11.178   0.380  1.00  0.00     0.074 A 
ATOM     52  C   UNL     1      -9.507 -10.328   1.449  1.00  0.00     0.031 C 
ATOM     53  C   UNL     1      -9.893  -7.254  -4.715  1.00  0.00     0.029 A 
ATOM     54  C   UNL     1     -10.292  -8.658  -4.680  1.00  0.00     0.049 A 
ATOM     55  H   UNL     1     -10.414  -9.897  -3.010  1.00  0.00     0.167 HD
ATOM     56  C   UNL     1     -10.334 -12.475   0.537  1.00  0.00     0.037 A 
ATOM     57  C   UNL     1     -10.659  -9.394  -5.747  1.00  0.00     0.037 A 
ATOM     58  C   UNL     1     -10.832 -13.307  -0.525  1.00  0.00     0.049 A 
ATOM     59  C   UNL     1     -11.020 -10.843  -5.552  1.00  0.00     0.074 A 
ATOM     60  C   UNL     1     -11.274 -14.616  -0.457  1.00  0.00     0.029 A 
ATOM     61  N   UNL     1     -10.950 -12.911  -1.849  1.00  0.00    -0.354 N 
ATOM     62  N   UNL     1     -11.039 -11.550  -4.447  1.00  0.00    -0.248 NA
ATOM     63  C   UNL     1     -11.412 -11.597  -6.751  1.00  0.00     0.031 C 
ATOM     64  C   UNL     1     -11.604 -15.031  -1.750  1.00  0.00     0.029 A 
ATOM     65  C   UNL     1     -11.435 -13.959  -2.612  1.00  0.00     0.049 A 
ATOM     66  H   UNL     1     -10.724 -12.017  -2.194  1.00  0.00     0.167 HD
ATOM     67  C   UNL     1     -11.490 -12.813  -4.810  1.00  0.00     0.074 A 
ATOM     68  C   UNL     1     -11.729 -12.778  -6.237  1.00  0.00     0.031 C 
ATOM     69  C   UNL     1     -11.697 -13.900  -4.028  1.00  0.00     0.037 A 
BRANCH  56  70
ATOM     70  C   UNL     1     -10.181 -13.075   1.906  1.00  0.00     0.057 A 
ATOM     71  C   UNL     1     -10.982 -12.679   2.986  1.00  0.00     0.134 A 
ATOM     72  C   UNL     1      -9.236 -14.082   2.139  1.00  0.00     0.134 A 
ATOM     73  F   UNL     1     -11.899 -11.712   2.835  1.00  0.00    -0.206 F 
ATOM     74  C   UNL     1     -10.823 -13.238   4.256  1.00  0.00     0.040 A 
ATOM     75  C   UNL     1      -9.091 -14.672   3.396  1.00  0.00     0.040 A 
ATOM     76  F   UNL     1      -8.441 -14.515   1.149  1.00  0.00    -0.206 F 
ATOM     77  C   UNL     1      -9.880 -14.243   4.461  1.00  0.00     0.006 A 
ENDBRANCH  56  70
BRANCH  57  78
ATOM     78  C   UNL     1     -10.727  -8.774  -7.095  1.00  0.00     0.057 A 
ATOM     79  C   UNL     1     -11.957  -8.581  -7.736  1.00  0.00     0.134 A 
ATOM     80  C   UNL     1      -9.575  -8.373  -7.782  1.00  0.00     0.134 A 
ATOM     81  F   UNL     1     -13.096  -8.961  -7.138  1.00  0.00    -0.206 F 
ATOM     82  C   UNL     1     -12.038  -8.033  -9.018  1.00  0.00     0.040 A 
ATOM     83  C   UNL     1      -9.643  -7.799  -9.053  1.00  0.00     0.040 A 
ATOM     84  F   UNL     1      -8.365  -8.524  -7.222  1.00  0.00    -0.206 F 
ATOM     85  C   UNL     1     -10.878  -7.636  -9.678  1.00  0.00     0.006 A 
ENDBRANCH  57  78
BRANCH  69  86
ATOM     86  C   UNL     1     -12.278 -15.125  -4.672  1.00  0.00     0.057 A 
ATOM     87  C   UNL     1     -11.538 -15.941  -5.536  1.00  0.00     0.134 A 
ATOM     88  C   UNL     1     -13.582 -15.534  -4.355  1.00  0.00     0.134 A 
ATOM     89  F   UNL     1     -10.290 -15.602  -5.889  1.00  0.00    -0.206 F 
ATOM     90  C   UNL     1     -12.078 -17.113  -6.071  1.00  0.00     0.040 A 
ATOM     91  C   UNL     1     -14.120 -16.717  -4.859  1.00  0.00     0.040 A 
ATOM     92  F   UNL     1     -14.342 -14.802  -3.525  1.00  0.00    -0.206 F 
ATOM     93  C   UNL     1     -13.368 -17.509  -5.723  1.00  0.00     0.006 A 
ENDBRANCH  69  86
ENDBRANCH  43  44
ENDBRANCH  35  38
ENDBRANCH  33  34
ENDBRANCH  32  33
ENDBRANCH   1  32
TORSDOF 16
