REMARK SMILES O=C(NCCCCNC(=O)c1cc2c(c(S(=O)(=O)Nc3cc(C(F)(F)F)ccc3-n3cccn3)c1)CCC2)c1ccc(-c2c3nc(c(-c4c(F)cccc4F)c4ccc([nH]4)c(-c4c(F)cccc4F)c4nc(c(-c5c(F)cccc5F)c5ccc2[nH]5)C=C4)C=C3)cc1
REMARK SMILES IDX 6 1 5 2 4 3 3 4 1 5 2 6 39 8 40 9 92 10 41 11 91 12 42 13
REMARK SMILES IDX 43 14 44 15 85 16 45 17 90 18 84 19 86 20 46 21 89 22 83 23
REMARK SMILES IDX 82 24 47 26 73 27 56 28 72 29 57 30 60 31 71 32 87 33 58 34
REMARK SMILES IDX 59 35 70 37 88 38 61 39 48 40 49 41 54 42 50 43 51 44 53 45
REMARK SMILES IDX 55 46 52 47 74 48 75 49 80 50 76 51 77 52 79 53 81 54 78 55
REMARK SMILES IDX 62 56 63 57 68 58 64 59 65 60 67 61 69 62 66 63 7 64 8 65
REMARK SMILES IDX 9 66 10 68 11 69 12 70 35 71 13 72 15 73 14 74 38 75 36 76
REMARK SMILES IDX 37 77 16 78 17 79 18 80 19 81 20 83 21 84 29 85 22 86 28 87
REMARK SMILES IDX 27 88 30 89 31 90 34 91 32 92 33 93 23 94 24 95 25 96 26 97
REMARK H PARENT 3 7 86 25 60 36 8 67 19 82
REMARK Flexibility Score: inf
ROOT
ATOM      1  C   UNL     1       4.552   2.438   2.487  1.00  0.00     0.023 C 
ENDROOT
BRANCH   1   2
ATOM      2  C   UNL     1       5.024   1.881   1.143  1.00  0.00     0.023 C 
BRANCH   2   3
ATOM      3  C   UNL     1       4.669   0.419   0.868  1.00  0.00     0.116 C 
BRANCH   3   4
ATOM      4  N   UNL     1       3.253   0.109   0.928  1.00  0.00    -0.352 N 
ATOM      5  O   UNL     1       1.134  -0.276   0.445  1.00  0.00    -0.269 OA
ATOM      6  C   UNL     1       2.189   0.248   0.077  1.00  0.00     0.251 C 
ATOM      7  H   UNL     1       2.995  -0.298   1.787  1.00  0.00     0.163 HD
BRANCH   6   8
ATOM      8  C   UNL     1       2.197   0.996  -1.213  1.00  0.00     0.039 A 
ATOM      9  C   UNL     1       3.330   1.466  -1.873  1.00  0.00     0.014 A 
ATOM     10  C   UNL     1       0.939   1.226  -1.809  1.00  0.00     0.014 A 
ATOM     11  C   UNL     1       3.212   2.182  -3.066  1.00  0.00     0.010 A 
ATOM     12  C   UNL     1       0.815   1.925  -3.011  1.00  0.00     0.010 A 
ATOM     13  C   UNL     1       1.957   2.415  -3.638  1.00  0.00    -0.014 A 
BRANCH  13  14
ATOM     14  C   UNL     1       1.921   3.025  -4.970  1.00  0.00     0.031 A 
ATOM     15  C   UNL     1       2.543   2.220  -6.065  1.00  0.00     0.074 A 
ATOM     16  C   UNL     1       1.258   4.151  -5.302  1.00  0.00     0.049 A 
ATOM     17  N   UNL     1       3.518   2.547  -6.851  1.00  0.00    -0.248 NA
ATOM     18  C   UNL     1       2.031   0.859  -6.280  1.00  0.00     0.031 C 
ATOM     19  C   UNL     1       0.310   4.913  -4.491  1.00  0.00     0.029 A 
ATOM     20  N   UNL     1       1.237   4.800  -6.506  1.00  0.00    -0.354 N 
ATOM     21  C   UNL     1       3.645   1.504  -7.768  1.00  0.00     0.074 A 
ATOM     22  C   UNL     1       2.773   0.452  -7.311  1.00  0.00     0.031 C 
ATOM     23  C   UNL     1      -0.336   5.799  -5.284  1.00  0.00     0.029 A 
ATOM     24  C   UNL     1       0.238   5.754  -6.620  1.00  0.00     0.049 A 
ATOM     25  H   UNL     1       1.876   4.606  -7.230  1.00  0.00     0.167 HD
ATOM     26  C   UNL     1       4.330   1.643  -8.937  1.00  0.00     0.037 A 
ATOM     27  C   UNL     1      -0.127   6.426  -7.740  1.00  0.00     0.037 A 
ATOM     28  C   UNL     1       5.239   2.757  -8.897  1.00  0.00     0.049 A 
ATOM     29  C   UNL     1       0.978   6.337  -8.722  1.00  0.00     0.074 A 
ATOM     30  C   UNL     1       6.307   3.124  -8.102  1.00  0.00     0.029 A 
ATOM     31  N   UNL     1       4.936   3.872  -9.635  1.00  0.00    -0.354 N 
ATOM     32  N   UNL     1       2.107   6.978  -8.633  1.00  0.00    -0.248 NA
ATOM     33  C   UNL     1       0.952   5.254  -9.693  1.00  0.00     0.031 C 
ATOM     34  C   UNL     1       6.262   4.548  -8.050  1.00  0.00     0.029 A 
ATOM     35  C   UNL     1       5.182   4.954  -8.833  1.00  0.00     0.049 A 
ATOM     36  H   UNL     1       4.605   3.892 -10.562  1.00  0.00     0.167 HD
ATOM     37  C   UNL     1       3.039   6.129  -9.205  1.00  0.00     0.074 A 
ATOM     38  C   UNL     1       2.256   5.157  -9.957  1.00  0.00     0.031 C 
ATOM     39  C   UNL     1       4.338   6.123  -8.786  1.00  0.00     0.037 A 
BRANCH  26  40
ATOM     40  C   UNL     1       3.956   0.968 -10.238  1.00  0.00     0.057 A 
ATOM     41  C   UNL     1       4.817   1.075 -11.348  1.00  0.00     0.134 A 
ATOM     42  C   UNL     1       2.665   0.486 -10.531  1.00  0.00     0.134 A 
ATOM     43  F   UNL     1       6.071   1.532 -11.207  1.00  0.00    -0.206 F 
ATOM     44  C   UNL     1       4.399   0.804 -12.657  1.00  0.00     0.040 A 
ATOM     45  C   UNL     1       2.254   0.162 -11.828  1.00  0.00     0.040 A 
ATOM     46  F   UNL     1       1.707   0.396  -9.600  1.00  0.00    -0.206 F 
ATOM     47  C   UNL     1       3.109   0.354 -12.901  1.00  0.00     0.006 A 
ENDBRANCH  26  40
BRANCH  27  48
ATOM     48  C   UNL     1      -1.441   6.992  -8.115  1.00  0.00     0.057 A 
ATOM     49  C   UNL     1      -1.556   7.956  -9.128  1.00  0.00     0.134 A 
ATOM     50  C   UNL     1      -2.643   6.411  -7.678  1.00  0.00     0.134 A 
ATOM     51  F   UNL     1      -0.464   8.541  -9.642  1.00  0.00    -0.206 F 
ATOM     52  C   UNL     1      -2.791   8.303  -9.690  1.00  0.00     0.040 A 
ATOM     53  C   UNL     1      -3.883   6.757  -8.222  1.00  0.00     0.040 A 
ATOM     54  F   UNL     1      -2.644   5.423  -6.770  1.00  0.00    -0.206 F 
ATOM     55  C   UNL     1      -3.959   7.695  -9.244  1.00  0.00     0.006 A 
ENDBRANCH  27  48
BRANCH  39  56
ATOM     56  C   UNL     1       4.823   7.280  -7.963  1.00  0.00     0.057 A 
ATOM     57  C   UNL     1       4.296   7.632  -6.712  1.00  0.00     0.134 A 
ATOM     58  C   UNL     1       5.957   7.979  -8.395  1.00  0.00     0.134 A 
ATOM     59  F   UNL     1       3.281   6.947  -6.167  1.00  0.00    -0.206 F 
ATOM     60  C   UNL     1       4.840   8.672  -5.954  1.00  0.00     0.040 A 
ATOM     61  C   UNL     1       6.533   8.994  -7.629  1.00  0.00     0.040 A 
ATOM     62  F   UNL     1       6.552   7.656  -9.554  1.00  0.00    -0.206 F 
ATOM     63  C   UNL     1       5.966   9.353  -6.409  1.00  0.00     0.006 A 
ENDBRANCH  39  56
ENDBRANCH  13  14
ENDBRANCH   6   8
ENDBRANCH   3   4
ENDBRANCH   2   3
ENDBRANCH   1   2
BRANCH   1  64
ATOM     64  C   UNL     1       5.022   1.696   3.735  1.00  0.00     0.116 C 
BRANCH  64  65
ATOM     65  N   UNL     1       6.460   1.786   3.985  1.00  0.00    -0.352 N 
ATOM     66  C   UNL     1       7.126   2.066   5.167  1.00  0.00     0.251 C 
ATOM     67  H   UNL     1       7.036   1.624   3.203  1.00  0.00     0.163 HD
ATOM     68  O   UNL     1       8.348   2.155   5.193  1.00  0.00    -0.269 OA
BRANCH  66  69
ATOM     69  C   UNL     1       6.339   2.299   6.403  1.00  0.00     0.041 A 
ATOM     70  C   UNL     1       5.373   1.359   6.762  1.00  0.00     0.018 A 
ATOM     71  C   UNL     1       6.449   3.534   7.081  1.00  0.00     0.036 A 
ATOM     72  C   UNL     1       4.367   1.781   7.603  1.00  0.00    -0.043 A 
ATOM     73  C   UNL     1       5.452   3.928   7.995  1.00  0.00     0.092 A 
ATOM     74  C   UNL     1       4.357   3.081   8.143  1.00  0.00    -0.024 A 
ATOM     75  C   UNL     1       3.089   1.050   7.886  1.00  0.00     0.036 C 
ATOM     76  C   UNL     1       2.972   3.356   8.643  1.00  0.00     0.037 C 
ATOM     77  C   UNL     1       2.486   1.943   8.969  1.00  0.00     0.010 C 
BRANCH  73  78
ATOM     78  S   UNL     1       5.465   5.584   8.658  1.00  0.00     0.262 S 
ATOM     79  O   UNL     1       6.672   6.231   8.176  1.00  0.00    -0.201 OA
ATOM     80  O   UNL     1       4.176   6.183   8.391  1.00  0.00    -0.201 OA
BRANCH  78  81
ATOM     81  N   UNL     1       5.665   5.555  10.357  1.00  0.00    -0.277 N 
ATOM     82  H   UNL     1       6.388   6.082  10.768  1.00  0.00     0.180 HD
BRANCH  81  83
ATOM     83  C   UNL     1       4.796   4.775  11.191  1.00  0.00     0.075 A 
ATOM     84  C   UNL     1       3.537   5.293  11.538  1.00  0.00     0.042 A 
ATOM     85  C   UNL     1       5.114   3.451  11.534  1.00  0.00     0.089 A 
ATOM     86  C   UNL     1       2.569   4.480  12.167  1.00  0.00     0.058 A 
ATOM     87  C   UNL     1       4.165   2.648  12.187  1.00  0.00     0.031 A 
ATOM     88  C   UNL     1       2.905   3.161  12.505  1.00  0.00     0.015 A 
BRANCH  85  89
ATOM     89  N   UNL     1       6.360   2.876  11.183  1.00  0.00    -0.239 N 
ATOM     90  C   UNL     1       7.579   3.504  11.044  1.00  0.00     0.115 A 
ATOM     91  N   UNL     1       6.445   1.562  10.849  1.00  0.00    -0.177 NA
ATOM     92  C   UNL     1       8.412   2.622  10.403  1.00  0.00     0.042 A 
ATOM     93  C   UNL     1       7.649   1.452  10.280  1.00  0.00     0.135 A 
ENDBRANCH  85  89
BRANCH  86  94
ATOM     94  C   UNL     1       1.165   4.997  12.393  1.00  0.00     0.416 C 
ATOM     95  F   UNL     1       1.100   5.915  13.393  1.00  0.00    -0.166 F 
ATOM     96  F   UNL     1       0.652   5.603  11.287  1.00  0.00    -0.166 F 
ATOM     97  F   UNL     1       0.276   4.017  12.720  1.00  0.00    -0.166 F 
ENDBRANCH  86  94
ENDBRANCH  81  83
ENDBRANCH  78  81
ENDBRANCH  73  78
ENDBRANCH  66  69
ENDBRANCH  64  65
ENDBRANCH   1  64
TORSDOF 16
