REMARK SMILES O=C(COc1ccc(/C=C/C(=O)c2ccc(F)cc2F)cc1[N+](=O)[O-])NCCCCNC(=O)c1ccc(-c2c3nc(c(-c4c(F)cccc4F)c4ccc([nH]4)c(-c4c(F)cccc4F)c4nc(c(-c5c(F)cccc5F)c5ccc2[nH]5)C=C4)C=C3)cc1
REMARK SMILES IDX 27 1 26 2 1 3 2 4 3 6 4 7 5 8 6 9 22 10 7 11 21 12 8 13
REMARK SMILES IDX 23 14 24 15 25 16 9 17 10 18 11 19 12 20 13 21 14 22 19 23
REMARK SMILES IDX 15 24 18 25 20 26 16 27 17 28 28 29 29 30 30 31 31 32 32 33
REMARK SMILES IDX 33 35 34 36 35 37 87 38 36 39 86 40 37 41 38 42 39 43 80 44
REMARK SMILES IDX 40 45 85 46 79 47 81 48 41 49 84 50 78 51 77 52 42 54 68 55
REMARK SMILES IDX 51 56 67 57 52 58 55 59 66 60 82 61 53 62 54 63 65 65 83 66
REMARK SMILES IDX 56 67 43 68 44 69 49 70 45 71 46 72 48 73 50 74 47 75 69 76
REMARK SMILES IDX 70 77 75 78 71 79 72 80 74 81 76 82 73 83 57 84 58 85 63 86
REMARK SMILES IDX 59 87 60 88 62 89 64 90 61 91
REMARK H PARENT 26 5 31 34 81 53 55 64
REMARK Flexibility Score: inf
ROOT
ATOM      1  C   UNL     1       2.086   1.242   2.041  1.00  0.00     0.116 C 
ENDROOT
BRANCH   1   2
ATOM      2  N   UNL     1       2.833   0.510   1.031  1.00  0.00    -0.353 N 
ATOM      3  O   UNL     1       1.087  -0.795   0.286  1.00  0.00    -0.271 OA
ATOM      4  C   UNL     1       2.229  -0.367   0.152  1.00  0.00     0.257 C 
ATOM      5  H   UNL     1       3.807   0.644   0.973  1.00  0.00     0.163 HD
BRANCH   4   6
ATOM      6  C   UNL     1       3.109  -0.771  -1.039  1.00  0.00     0.329 C 
BRANCH   6   7
ATOM      7  O   UNL     1       3.874   0.314  -1.582  1.00  0.00    -0.477 OA
BRANCH   7   8
ATOM      8  C   UNL     1       3.245   0.933  -2.630  1.00  0.00     0.197 A 
ATOM      9  C   UNL     1       3.592   0.560  -3.932  1.00  0.00     0.054 A 
ATOM     10  C   UNL     1       2.360   1.998  -2.470  1.00  0.00     0.311 A 
ATOM     11  C   UNL     1       3.021   1.216  -5.040  1.00  0.00     0.012 A 
ATOM     12  C   UNL     1       1.748   2.624  -3.561  1.00  0.00     0.098 A 
ATOM     13  C   UNL     1       2.087   2.246  -4.862  1.00  0.00    -0.018 A 
BRANCH  10  14
ATOM     14  N   UNL     1       2.135   2.602  -1.180  1.00  0.00     0.066 N 
ATOM     15  O   UNL     1       0.961   2.712  -0.805  1.00  0.00    -0.258 OA
ATOM     16  O   UNL     1       3.131   3.015  -0.568  1.00  0.00    -0.258 OA
ENDBRANCH  10  14
BRANCH  13  17
ATOM     17  C   UNL     1       1.425   2.982  -5.947  1.00  0.00     0.012 C 
ATOM     18  C   UNL     1       1.979   3.308  -7.124  1.00  0.00     0.053 C 
BRANCH  18  19
ATOM     19  C   UNL     1       1.290   4.144  -8.147  1.00  0.00     0.188 C 
ATOM     20  O   UNL     1       1.587   4.014  -9.332  1.00  0.00    -0.289 OA
BRANCH  19  21
ATOM     21  C   UNL     1       0.238   5.115  -7.766  1.00  0.00     0.058 A 
ATOM     22  C   UNL     1      -0.915   5.196  -8.559  1.00  0.00     0.018 A 
ATOM     23  C   UNL     1       0.382   5.978  -6.675  1.00  0.00     0.137 A 
ATOM     24  C   UNL     1      -1.926   6.102  -8.228  1.00  0.00     0.040 A 
ATOM     25  C   UNL     1      -0.624   6.880  -6.341  1.00  0.00     0.079 A 
ATOM     26  F   UNL     1       1.494   5.964  -5.926  1.00  0.00    -0.206 F 
ATOM     27  C   UNL     1      -1.773   6.930  -7.120  1.00  0.00     0.126 A 
ATOM     28  F   UNL     1      -2.746   7.794  -6.803  1.00  0.00    -0.207 F 
ENDBRANCH  19  21
ENDBRANCH  18  19
ENDBRANCH  13  17
ENDBRANCH   7   8
ENDBRANCH   6   7
ENDBRANCH   4   6
ENDBRANCH   1   2
BRANCH   1  29
ATOM     29  C   UNL     1       2.654   1.122   3.450  1.00  0.00     0.023 C 
BRANCH  29  30
ATOM     30  C   UNL     1       4.131   1.492   3.607  1.00  0.00     0.023 C 
BRANCH  30  31
ATOM     31  C   UNL     1       4.531   2.886   3.129  1.00  0.00     0.116 C 
BRANCH  31  32
ATOM     32  N   UNL     1       3.954   3.956   3.929  1.00  0.00    -0.352 N 
ATOM     33  C   UNL     1       4.562   4.924   4.692  1.00  0.00     0.251 C 
ATOM     34  H   UNL     1       2.970   3.991   3.924  1.00  0.00     0.163 HD
ATOM     35  O   UNL     1       3.878   5.658   5.404  1.00  0.00    -0.269 OA
BRANCH  33  36
ATOM     36  C   UNL     1       6.035   5.080   4.697  1.00  0.00     0.039 A 
ATOM     37  C   UNL     1       6.686   5.282   5.919  1.00  0.00     0.014 A 
ATOM     38  C   UNL     1       6.779   5.053   3.515  1.00  0.00     0.014 A 
ATOM     39  C   UNL     1       8.081   5.373   5.963  1.00  0.00     0.010 A 
ATOM     40  C   UNL     1       8.174   5.067   3.567  1.00  0.00     0.010 A 
ATOM     41  C   UNL     1       8.842   5.221   4.792  1.00  0.00    -0.014 A 
BRANCH  41  42
ATOM     42  C   UNL     1      10.330   5.200   4.836  1.00  0.00     0.031 A 
ATOM     43  C   UNL     1      11.133   6.255   4.124  1.00  0.00     0.074 A 
ATOM     44  C   UNL     1      10.964   4.191   5.465  1.00  0.00     0.049 A 
ATOM     45  N   UNL     1      12.432   6.361   3.996  1.00  0.00    -0.248 NA
ATOM     46  C   UNL     1      10.376   7.319   3.446  1.00  0.00     0.031 C 
ATOM     47  C   UNL     1      10.309   3.082   6.161  1.00  0.00     0.029 A 
ATOM     48  N   UNL     1      12.305   3.927   5.613  1.00  0.00    -0.354 N 
ATOM     49  C   UNL     1      12.647   7.489   3.215  1.00  0.00     0.074 A 
ATOM     50  C   UNL     1      11.344   8.006   2.856  1.00  0.00     0.031 C 
ATOM     51  C   UNL     1      11.246   2.273   6.682  1.00  0.00     0.029 A 
ATOM     52  C   UNL     1      12.567   2.778   6.321  1.00  0.00     0.049 A 
ATOM     53  H   UNL     1      13.011   4.506   5.247  1.00  0.00     0.167 HD
ATOM     54  C   UNL     1      13.821   8.056   2.845  1.00  0.00     0.037 A 
ATOM     55  C   UNL     1      13.737   2.190   6.637  1.00  0.00     0.037 A 
ATOM     56  C   UNL     1      15.119   7.553   3.218  1.00  0.00     0.049 A 
ATOM     57  C   UNL     1      15.026   2.827   6.194  1.00  0.00     0.074 A 
ATOM     58  C   UNL     1      16.363   8.095   2.944  1.00  0.00     0.029 A 
ATOM     59  N   UNL     1      15.341   6.390   3.939  1.00  0.00    -0.354 N 
ATOM     60  N   UNL     1      15.213   3.933   5.516  1.00  0.00    -0.248 NA
ATOM     61  C   UNL     1      16.268   2.134   6.565  1.00  0.00     0.031 C 
ATOM     62  C   UNL     1      17.339   7.231   3.451  1.00  0.00     0.029 A 
ATOM     63  C   UNL     1      16.702   6.181   4.093  1.00  0.00     0.049 A 
ATOM     64  H   UNL     1      14.635   5.799   4.289  1.00  0.00     0.167 HD
ATOM     65  C   UNL     1      16.589   4.086   5.409  1.00  0.00     0.074 A 
ATOM     66  C   UNL     1      17.190   2.967   6.103  1.00  0.00     0.031 C 
ATOM     67  C   UNL     1      17.292   5.068   4.793  1.00  0.00     0.037 A 
BRANCH  54  68
ATOM     68  C   UNL     1      13.760   9.287   1.986  1.00  0.00     0.057 A 
ATOM     69  C   UNL     1      13.303  10.515   2.483  1.00  0.00     0.134 A 
ATOM     70  C   UNL     1      14.208   9.256   0.659  1.00  0.00     0.134 A 
ATOM     71  F   UNL     1      12.852  10.614   3.743  1.00  0.00    -0.206 F 
ATOM     72  C   UNL     1      13.266  11.659   1.683  1.00  0.00     0.040 A 
ATOM     73  C   UNL     1      14.205  10.400  -0.141  1.00  0.00     0.040 A 
ATOM     74  F   UNL     1      14.669   8.116   0.122  1.00  0.00    -0.206 F 
ATOM     75  C   UNL     1      13.726  11.605   0.369  1.00  0.00     0.006 A 
ENDBRANCH  54  68
BRANCH  55  76
ATOM     76  C   UNL     1      13.752   0.933   7.429  1.00  0.00     0.057 A 
ATOM     77  C   UNL     1      14.243   0.912   8.740  1.00  0.00     0.134 A 
ATOM     78  C   UNL     1      13.297  -0.278   6.893  1.00  0.00     0.134 A 
ATOM     79  F   UNL     1      14.713   2.036   9.302  1.00  0.00    -0.206 F 
ATOM     80  C   UNL     1      14.304  -0.269   9.480  1.00  0.00     0.040 A 
ATOM     81  C   UNL     1      13.326  -1.462   7.632  1.00  0.00     0.040 A 
ATOM     82  F   UNL     1      12.809  -0.325   5.644  1.00  0.00    -0.206 F 
ATOM     83  C   UNL     1      13.840  -1.461   8.927  1.00  0.00     0.006 A 
ENDBRANCH  55  76
BRANCH  67  84
ATOM     84  C   UNL     1      18.790   5.002   4.875  1.00  0.00     0.057 A 
ATOM     85  C   UNL     1      19.531   4.040   4.177  1.00  0.00     0.134 A 
ATOM     86  C   UNL     1      19.502   5.938   5.636  1.00  0.00     0.134 A 
ATOM     87  F   UNL     1      18.911   3.106   3.440  1.00  0.00    -0.206 F 
ATOM     88  C   UNL     1      20.925   3.996   4.253  1.00  0.00     0.040 A 
ATOM     89  C   UNL     1      20.896   5.923   5.696  1.00  0.00     0.040 A 
ATOM     90  F   UNL     1      18.855   6.892   6.323  1.00  0.00    -0.206 F 
ATOM     91  C   UNL     1      21.611   4.945   5.008  1.00  0.00     0.006 A 
ENDBRANCH  67  84
ENDBRANCH  41  42
ENDBRANCH  33  36
ENDBRANCH  31  32
ENDBRANCH  30  31
ENDBRANCH  29  30
ENDBRANCH   1  29
TORSDOF 17
