REMARK SMILES C[C@@H]1[C@H](C)CCC[C@@H]1NC(=O)COc1csc(C(=O)NCCCCNC(=O)c2ccc(-c3c4nc(c(-c5c(F)cccc5F)c5ccc([nH]5)c(-c5c(F)cccc5F)c5nc(c(-c6c(F)cccc6F)c6ccc3[nH]6)C=C5)C=C4)cc2)c1
REMARK SMILES IDX 21 1 20 2 18 3 19 4 17 6 14 7 15 8 82 9 16 10 13 11 12 12
REMARK SMILES IDX 10 13 9 14 11 16 8 17 1 18 2 19 3 20 4 21 5 22 7 23 6 24
REMARK SMILES IDX 22 25 23 26 24 27 25 28 26 29 27 31 28 32 29 33 81 34 30 35
REMARK SMILES IDX 80 36 31 37 32 38 33 39 74 40 34 41 79 42 73 43 75 44 35 45
REMARK SMILES IDX 78 46 72 47 71 48 36 50 62 51 45 52 61 53 46 54 49 55 60 56
REMARK SMILES IDX 76 57 47 58 48 59 59 61 77 62 50 63 37 64 38 65 43 66 39 67
REMARK SMILES IDX 40 68 42 69 44 70 41 71 63 72 64 73 69 74 65 75 66 76 68 77
REMARK SMILES IDX 70 78 67 79 51 80 52 81 57 82 53 83 54 84 56 85 58 86 55 87
REMARK H PARENT 20 5 9 15 25 30 75 49 49 60
REMARK Flexibility Score: inf
ROOT
ATOM      1  C   UNL     1      -3.124   0.060   5.571  1.00  0.00     0.116 C 
ENDROOT
BRANCH   1   2
ATOM      2  N   UNL     1      -3.455   1.305   6.233  1.00  0.00    -0.351 N 
ATOM      3  C   UNL     1      -3.006   2.593   6.031  1.00  0.00     0.261 C 
ATOM      4  O   UNL     1      -3.572   3.457   6.705  1.00  0.00    -0.268 OA
ATOM      5  H   UNL     1      -4.118   1.216   6.956  1.00  0.00     0.163 HD
BRANCH   3   6
ATOM      6  C   UNL     1      -1.947   2.887   5.072  1.00  0.00     0.096 A 
ATOM      7  C   UNL     1      -0.169   2.776   3.556  1.00  0.00     0.131 A 
ATOM      8  C   UNL     1      -0.485   4.107   3.461  1.00  0.00     0.112 A 
ATOM      9  C   UNL     1      -0.977   2.092   4.497  1.00  0.00     0.072 A 
ATOM     10  S   UNL     1      -1.777   4.512   4.512  1.00  0.00    -0.135 S 
BRANCH   7  11
ATOM     11  O   UNL     1       0.727   2.097   2.809  1.00  0.00    -0.483 OA
BRANCH  11  12
ATOM     12  C   UNL     1       1.944   2.749   2.552  1.00  0.00     0.329 C 
BRANCH  12  13
ATOM     13  C   UNL     1       2.043   3.722   1.383  1.00  0.00     0.258 C 
ATOM     14  N   UNL     1       1.640   3.430   0.122  1.00  0.00    -0.350 N 
ATOM     15  H   UNL     1       2.113   3.973  -0.550  1.00  0.00     0.163 HD
ATOM     16  O   UNL     1       2.611   4.809   1.541  1.00  0.00    -0.271 OA
BRANCH  14  17
ATOM     17  C   UNL     1       0.673   2.507  -0.500  1.00  0.00     0.085 C 
ATOM     18  C   UNL     1       2.051   0.367  -0.104  1.00  0.00     0.010 C 
ATOM     19  C   UNL     1       0.667   1.022  -0.058  1.00  0.00     0.011 C 
ATOM     20  C   UNL     1      -0.409   0.237  -0.866  1.00  0.00    -0.009 C 
ATOM     21  C   UNL     1      -0.530  -1.225  -0.436  1.00  0.00     0.008 C 
ATOM     22  C   UNL     1      -0.183   0.340  -2.379  1.00  0.00     0.004 C 
ATOM     23  C   UNL     1       0.870   2.611  -2.029  1.00  0.00     0.025 C 
ATOM     24  C   UNL     1      -0.137   1.794  -2.827  1.00  0.00     0.002 C 
ENDBRANCH  14  17
ENDBRANCH  12  13
ENDBRANCH  11  12
ENDBRANCH   7  11
ENDBRANCH   3   6
ENDBRANCH   1   2
BRANCH   1  25
ATOM     25  C   UNL     1      -2.026  -0.703   6.316  1.00  0.00     0.023 C 
BRANCH  25  26
ATOM     26  C   UNL     1      -2.497  -1.428   7.578  1.00  0.00     0.023 C 
BRANCH  26  27
ATOM     27  C   UNL     1      -3.566  -2.490   7.354  1.00  0.00     0.116 C 
BRANCH  27  28
ATOM     28  N   UNL     1      -3.170  -3.529   6.415  1.00  0.00    -0.352 N 
ATOM     29  C   UNL     1      -3.570  -4.845   6.384  1.00  0.00     0.251 C 
ATOM     30  H   UNL     1      -2.535  -3.255   5.714  1.00  0.00     0.163 HD
ATOM     31  O   UNL     1      -3.077  -5.628   5.584  1.00  0.00    -0.269 OA
BRANCH  29  32
ATOM     32  C   UNL     1      -4.571  -5.312   7.365  1.00  0.00     0.039 A 
ATOM     33  C   UNL     1      -4.287  -6.450   8.125  1.00  0.00     0.014 A 
ATOM     34  C   UNL     1      -5.758  -4.604   7.566  1.00  0.00     0.014 A 
ATOM     35  C   UNL     1      -5.163  -6.835   9.140  1.00  0.00     0.010 A 
ATOM     36  C   UNL     1      -6.595  -4.949   8.622  1.00  0.00     0.010 A 
ATOM     37  C   UNL     1      -6.303  -6.064   9.422  1.00  0.00    -0.014 A 
BRANCH  37  38
ATOM     38  C   UNL     1      -7.197  -6.401  10.556  1.00  0.00     0.031 A 
ATOM     39  C   UNL     1      -8.619  -6.812  10.299  1.00  0.00     0.074 A 
ATOM     40  C   UNL     1      -6.751  -6.263  11.820  1.00  0.00     0.049 A 
ATOM     41  N   UNL     1      -9.573  -7.071  11.157  1.00  0.00    -0.248 NA
ATOM     42  C   UNL     1      -9.032  -6.919   8.891  1.00  0.00     0.031 C 
ATOM     43  C   UNL     1      -5.408  -5.818  12.200  1.00  0.00     0.029 A 
ATOM     44  N   UNL     1      -7.384  -6.470  13.019  1.00  0.00    -0.354 N 
ATOM     45  C   UNL     1     -10.699  -7.353  10.395  1.00  0.00     0.074 A 
ATOM     46  C   UNL     1     -10.324  -7.186   9.008  1.00  0.00     0.031 C 
ATOM     47  C   UNL     1      -5.313  -5.805  13.539  1.00  0.00     0.029 A 
ATOM     48  C   UNL     1      -6.594  -6.207  14.112  1.00  0.00     0.049 A 
ATOM     49  H   UNL     1      -8.316  -6.777  13.090  1.00  0.00     0.167 HD
ATOM     50  C   UNL     1     -11.927  -7.740  10.813  1.00  0.00     0.037 A 
ATOM     51  C   UNL     1      -6.873  -6.278  15.427  1.00  0.00     0.037 A 
ATOM     52  C   UNL     1     -12.289  -7.934  12.192  1.00  0.00     0.049 A 
ATOM     53  C   UNL     1      -8.242  -6.719  15.865  1.00  0.00     0.074 A 
ATOM     54  C   UNL     1     -13.488  -8.388  12.713  1.00  0.00     0.029 A 
ATOM     55  N   UNL     1     -11.452  -7.686  13.269  1.00  0.00    -0.354 N 
ATOM     56  N   UNL     1      -9.277  -7.051  15.132  1.00  0.00    -0.248 NA
ATOM     57  C   UNL     1      -8.480  -6.800  17.313  1.00  0.00     0.031 C 
ATOM     58  C   UNL     1     -13.389  -8.379  14.109  1.00  0.00     0.029 A 
ATOM     59  C   UNL     1     -12.115  -7.959  14.454  1.00  0.00     0.049 A 
ATOM     60  H   UNL     1     -10.525  -7.362  13.202  1.00  0.00     0.167 HD
ATOM     61  C   UNL     1     -10.278  -7.406  16.026  1.00  0.00     0.074 A 
ATOM     62  C   UNL     1      -9.722  -7.261  17.356  1.00  0.00     0.031 C 
ATOM     63  C   UNL     1     -11.544  -7.816  15.769  1.00  0.00     0.037 A 
BRANCH  50  64
ATOM     64  C   UNL     1     -12.968  -7.984   9.761  1.00  0.00     0.057 A 
ATOM     65  C   UNL     1     -12.904  -9.091   8.903  1.00  0.00     0.134 A 
ATOM     66  C   UNL     1     -14.062  -7.122   9.621  1.00  0.00     0.134 A 
ATOM     67  F   UNL     1     -11.874  -9.948   8.976  1.00  0.00    -0.206 F 
ATOM     68  C   UNL     1     -13.876  -9.315   7.926  1.00  0.00     0.040 A 
ATOM     69  C   UNL     1     -15.054  -7.350   8.666  1.00  0.00     0.040 A 
ATOM     70  F   UNL     1     -14.188  -6.046  10.413  1.00  0.00    -0.206 F 
ATOM     71  C   UNL     1     -14.959  -8.446   7.811  1.00  0.00     0.006 A 
ENDBRANCH  50  64
BRANCH  51  72
ATOM     72  C   UNL     1      -5.827  -5.950  16.427  1.00  0.00     0.057 A 
ATOM     73  C   UNL     1      -5.238  -6.952  17.207  1.00  0.00     0.134 A 
ATOM     74  C   UNL     1      -5.396  -4.634  16.632  1.00  0.00     0.134 A 
ATOM     75  F   UNL     1      -5.624  -8.229  17.068  1.00  0.00    -0.206 F 
ATOM     76  C   UNL     1      -4.271  -6.656  18.169  1.00  0.00     0.040 A 
ATOM     77  C   UNL     1      -4.413  -4.327  17.574  1.00  0.00     0.040 A 
ATOM     78  F   UNL     1      -5.916  -3.631  15.910  1.00  0.00    -0.206 F 
ATOM     79  C   UNL     1      -3.853  -5.339  18.351  1.00  0.00     0.006 A 
ENDBRANCH  51  72
BRANCH  63  80
ATOM     80  C   UNL     1     -12.402  -8.168  16.947  1.00  0.00     0.057 A 
ATOM     81  C   UNL     1     -12.935  -7.187  17.792  1.00  0.00     0.134 A 
ATOM     82  C   UNL     1     -12.732  -9.503  17.214  1.00  0.00     0.134 A 
ATOM     83  F   UNL     1     -12.646  -5.892  17.597  1.00  0.00    -0.206 F 
ATOM     84  C   UNL     1     -13.750  -7.523  18.874  1.00  0.00     0.040 A 
ATOM     85  C   UNL     1     -13.565  -9.849  18.278  1.00  0.00     0.040 A 
ATOM     86  F   UNL     1     -12.260 -10.490  16.438  1.00  0.00    -0.206 F 
ATOM     87  C   UNL     1     -14.073  -8.857  19.115  1.00  0.00     0.006 A 
ENDBRANCH  63  80
ENDBRANCH  37  38
ENDBRANCH  29  32
ENDBRANCH  27  28
ENDBRANCH  26  27
ENDBRANCH  25  26
ENDBRANCH   1  25
TORSDOF 15
