REMARK SMILES C#CCN(CC(=O)NCCCCNC(=O)c1ccc(-c2c3nc(c(-c4c(F)cccc4F)c4ccc([nH]4)c(-c4c(F)cccc4F)c4nc(c(-c5c(F)cccc5F)c5ccc2[nH]5)C=C4)C=C3)cc1)C(=O)c1cc([N+](=O)[O-])c(F)cc1F
REMARK SMILES IDX 9 1 8 2 6 3 7 4 5 6 4 7 3 8 2 9 1 10 70 11 71 12 72 13 73 14
REMARK SMILES IDX 81 15 74 16 80 17 82 18 78 19 79 20 75 21 76 22 77 23 10 24
REMARK SMILES IDX 11 25 12 26 13 27 14 28 15 30 16 31 17 32 69 33 18 34 68 35
REMARK SMILES IDX 19 36 20 37 21 38 62 39 22 40 67 41 61 42 63 43 23 44 66 45
REMARK SMILES IDX 60 46 59 47 24 49 50 50 33 51 49 52 34 53 37 54 48 55 64 56
REMARK SMILES IDX 35 57 36 58 47 60 65 61 38 62 25 63 26 64 31 65 27 66 28 67
REMARK SMILES IDX 30 68 32 69 29 70 51 71 52 72 57 73 53 74 54 75 56 76 58 77
REMARK SMILES IDX 55 78 39 79 40 80 45 81 41 82 42 83 44 84 46 85 43 86
REMARK H PARENT 8 5 13 29 63 48 37 59
REMARK Flexibility Score: inf
ROOT
ATOM      1  C   UNL     1      -5.187  -0.131   0.304  1.00  0.00     0.116 C 
ENDROOT
BRANCH   1   2
ATOM      2  N   UNL     1      -5.488  -0.335  -1.095  1.00  0.00    -0.355 N 
ATOM      3  C   UNL     1      -4.681  -0.647  -2.148  1.00  0.00     0.239 C 
ATOM      4  O   UNL     1      -5.238  -0.972  -3.203  1.00  0.00    -0.273 OA
ATOM      5  H   UNL     1      -6.439  -0.232  -1.327  1.00  0.00     0.163 HD
BRANCH   3   6
ATOM      6  C   UNL     1      -3.147  -0.735  -2.044  1.00  0.00     0.220 C 
BRANCH   6   7
ATOM      7  N   UNL     1      -2.452   0.311  -1.290  1.00  0.00    -0.318 N 
BRANCH   7   8
ATOM      8  C   UNL     1      -1.906  -0.053   0.018  1.00  0.00     0.210 C 
BRANCH   8   9
ATOM      9  C   UNL     1      -0.386  -0.053   0.018  1.00  0.00    -0.085 C 
ATOM     10  C   UNL     1       0.917  -0.053   0.018  1.00  0.00     0.006 C 
ENDBRANCH   8   9
ENDBRANCH   7   8
BRANCH   7  11
ATOM     11  C   UNL     1      -2.222   1.609  -1.764  1.00  0.00     0.258 C 
ATOM     12  O   UNL     1      -1.639   2.475  -1.115  1.00  0.00    -0.269 OA
BRANCH  11  13
ATOM     13  C   UNL     1      -2.644   2.006  -3.124  1.00  0.00     0.082 A 
ATOM     14  C   UNL     1      -1.664   2.370  -4.060  1.00  0.00     0.105 A 
ATOM     15  C   UNL     1      -3.989   2.176  -3.444  1.00  0.00     0.139 A 
ATOM     16  C   UNL     1      -2.057   2.828  -5.332  1.00  0.00     0.305 A 
ATOM     17  C   UNL     1      -4.379   2.566  -4.721  1.00  0.00     0.086 A 
ATOM     18  F   UNL     1      -4.940   2.020  -2.516  1.00  0.00    -0.206 F 
ATOM     19  C   UNL     1      -3.411   2.886  -5.668  1.00  0.00     0.203 A 
ATOM     20  F   UNL     1      -3.835   3.264  -6.881  1.00  0.00    -0.199 F 
BRANCH  16  21
ATOM     21  N   UNL     1      -1.042   3.288  -6.280  1.00  0.00     0.065 N 
ATOM     22  O   UNL     1       0.144   3.134  -5.957  1.00  0.00    -0.258 OA
ATOM     23  O   UNL     1      -1.411   3.818  -7.335  1.00  0.00    -0.258 OA
ENDBRANCH  16  21
ENDBRANCH  11  13
ENDBRANCH   7  11
ENDBRANCH   6   7
ENDBRANCH   3   6
ENDBRANCH   1   2
BRANCH   1  24
ATOM     24  C   UNL     1      -4.928   1.328   0.683  1.00  0.00     0.023 C 
BRANCH  24  25
ATOM     25  C   UNL     1      -6.140   2.255   0.654  1.00  0.00     0.023 C 
BRANCH  25  26
ATOM     26  C   UNL     1      -7.338   1.789   1.464  1.00  0.00     0.116 C 
BRANCH  26  27
ATOM     27  N   UNL     1      -7.026   1.494   2.854  1.00  0.00    -0.352 N 
ATOM     28  C   UNL     1      -7.805   1.684   3.972  1.00  0.00     0.251 C 
ATOM     29  H   UNL     1      -6.136   1.105   3.016  1.00  0.00     0.163 HD
ATOM     30  O   UNL     1      -7.355   1.448   5.085  1.00  0.00    -0.269 OA
BRANCH  28  31
ATOM     31  C   UNL     1      -9.174   2.221   3.821  1.00  0.00     0.039 A 
ATOM     32  C   UNL     1      -9.573   3.276   4.645  1.00  0.00     0.014 A 
ATOM     33  C   UNL     1     -10.044   1.716   2.852  1.00  0.00     0.014 A 
ATOM     34  C   UNL     1     -10.817   3.876   4.445  1.00  0.00     0.010 A 
ATOM     35  C   UNL     1     -11.250   2.364   2.603  1.00  0.00     0.010 A 
ATOM     36  C   UNL     1     -11.646   3.452   3.394  1.00  0.00    -0.014 A 
BRANCH  36  37
ATOM     37  C   UNL     1     -12.925   4.144   3.095  1.00  0.00     0.031 A 
ATOM     38  C   UNL     1     -14.230   3.411   3.221  1.00  0.00     0.074 A 
ATOM     39  C   UNL     1     -12.903   5.409   2.632  1.00  0.00     0.049 A 
ATOM     40  N   UNL     1     -15.439   3.820   2.932  1.00  0.00    -0.248 NA
ATOM     41  C   UNL     1     -14.165   2.024   3.707  1.00  0.00     0.031 C 
ATOM     42  C   UNL     1     -11.696   6.209   2.410  1.00  0.00     0.029 A 
ATOM     43  N   UNL     1     -13.926   6.240   2.251  1.00  0.00    -0.354 N 
ATOM     44  C   UNL     1     -16.273   2.739   3.183  1.00  0.00     0.074 A 
ATOM     45  C   UNL     1     -15.429   1.641   3.599  1.00  0.00     0.031 C 
ATOM     46  C   UNL     1     -12.050   7.419   1.947  1.00  0.00     0.029 A 
ATOM     47  C   UNL     1     -13.502   7.469   1.807  1.00  0.00     0.049 A 
ATOM     48  H   UNL     1     -14.875   5.980   2.291  1.00  0.00     0.167 HD
ATOM     49  C   UNL     1     -17.623   2.674   3.096  1.00  0.00     0.037 A 
ATOM     50  C   UNL     1     -14.203   8.515   1.331  1.00  0.00     0.037 A 
ATOM     51  C   UNL     1     -18.463   3.777   2.709  1.00  0.00     0.049 A 
ATOM     52  C   UNL     1     -15.701   8.422   1.252  1.00  0.00     0.074 A 
ATOM     53  C   UNL     1     -19.845   3.834   2.666  1.00  0.00     0.029 A 
ATOM     54  N   UNL     1     -17.998   5.016   2.294  1.00  0.00    -0.354 N 
ATOM     55  N   UNL     1     -16.484   7.420   1.571  1.00  0.00    -0.248 NA
ATOM     56  C   UNL     1     -16.414   9.607   0.754  1.00  0.00     0.031 C 
ATOM     57  C   UNL     1     -20.216   5.093   2.181  1.00  0.00     0.029 A 
ATOM     58  C   UNL     1     -19.066   5.836   1.968  1.00  0.00     0.049 A 
ATOM     59  H   UNL     1     -17.050   5.275   2.240  1.00  0.00     0.167 HD
ATOM     60  C   UNL     1     -17.780   7.860   1.337  1.00  0.00     0.074 A 
ATOM     61  C   UNL     1     -17.679   9.225   0.863  1.00  0.00     0.031 C 
ATOM     62  C   UNL     1     -18.949   7.194   1.499  1.00  0.00     0.037 A 
BRANCH  49  63
ATOM     63  C   UNL     1     -18.275   1.363   3.426  1.00  0.00     0.057 A 
ATOM     64  C   UNL     1     -18.319   0.867   4.735  1.00  0.00     0.134 A 
ATOM     65  C   UNL     1     -18.894   0.601   2.426  1.00  0.00     0.134 A 
ATOM     66  F   UNL     1     -17.736   1.541   5.738  1.00  0.00    -0.206 F 
ATOM     67  C   UNL     1     -18.930  -0.353   5.035  1.00  0.00     0.040 A 
ATOM     68  C   UNL     1     -19.531  -0.606   2.717  1.00  0.00     0.040 A 
ATOM     69  F   UNL     1     -18.894   1.020   1.152  1.00  0.00    -0.206 F 
ATOM     70  C   UNL     1     -19.544  -1.089   4.024  1.00  0.00     0.006 A 
ENDBRANCH  49  63
BRANCH  50  71
ATOM     71  C   UNL     1     -13.495   9.749   0.908  1.00  0.00     0.057 A 
ATOM     72  C   UNL     1     -13.591  10.928   1.657  1.00  0.00     0.134 A 
ATOM     73  C   UNL     1     -12.709   9.782  -0.249  1.00  0.00     0.134 A 
ATOM     74  F   UNL     1     -14.344  10.964   2.766  1.00  0.00    -0.206 F 
ATOM     75  C   UNL     1     -12.944  12.100   1.261  1.00  0.00     0.040 A 
ATOM     76  C   UNL     1     -12.037  10.940  -0.644  1.00  0.00     0.040 A 
ATOM     77  F   UNL     1     -12.571   8.683  -1.005  1.00  0.00    -0.206 F 
ATOM     78  C   UNL     1     -12.160  12.106   0.109  1.00  0.00     0.006 A 
ENDBRANCH  50  71
BRANCH  62  79
ATOM     79  C   UNL     1     -20.214   7.940   1.189  1.00  0.00     0.057 A 
ATOM     80  C   UNL     1     -20.594   8.235  -0.126  1.00  0.00     0.134 A 
ATOM     81  C   UNL     1     -21.080   8.332   2.217  1.00  0.00     0.134 A 
ATOM     82  F   UNL     1     -19.802   7.898  -1.155  1.00  0.00    -0.206 F 
ATOM     83  C   UNL     1     -21.781   8.914  -0.406  1.00  0.00     0.040 A 
ATOM     84  C   UNL     1     -22.282   8.988   1.948  1.00  0.00     0.040 A 
ATOM     85  F   UNL     1     -20.779   8.072   3.499  1.00  0.00    -0.206 F 
ATOM     86  C   UNL     1     -22.632   9.285   0.633  1.00  0.00     0.006 A 
ENDBRANCH  62  79
ENDBRANCH  36  37
ENDBRANCH  28  31
ENDBRANCH  26  27
ENDBRANCH  25  26
ENDBRANCH  24  25
ENDBRANCH   1  24
TORSDOF 17
