REMARK SMILES CSCC[C@H](NC(=O)Cc1c(C)c2ccc(O)cc2oc1=O)C(=O)NCCCCNC(=O)c1ccc(-c2c3nc(c(-c4c(F)cccc4F)c4ccc([nH]4)c(-c4c(F)cccc4F)c4nc(c(-c5c(F)cccc5F)c5ccc2[nH]5)C=C4)C=C3)cc1
REMARK SMILES IDX 26 1 25 2 23 3 24 4 5 6 4 7 3 8 2 9 1 10 6 11 7 12 8 14 9 15
REMARK SMILES IDX 10 16 11 17 21 18 12 19 13 20 20 21 22 22 14 23 19 24 15 25
REMARK SMILES IDX 18 26 16 27 17 28 27 30 28 31 29 32 30 33 31 34 32 36 33 37
REMARK SMILES IDX 34 38 86 39 35 40 85 41 36 42 37 43 38 44 79 45 39 46 84 47
REMARK SMILES IDX 78 48 80 49 40 50 83 51 77 52 76 53 41 55 67 56 50 57 66 58
REMARK SMILES IDX 51 59 54 60 65 61 81 62 52 63 53 64 64 66 82 67 55 68 42 69
REMARK SMILES IDX 43 70 48 71 44 72 45 73 47 74 49 75 46 76 68 77 69 78 74 79
REMARK SMILES IDX 70 80 71 81 73 82 75 83 72 84 56 85 57 86 62 87 58 88 59 89
REMARK SMILES IDX 61 90 63 91 60 92
REMARK H PARENT 25 5 6 13 17 29 30 35 80 54 54 65
REMARK Flexibility Score: inf
ROOT
ATOM      1  C   UNL     1       0.796   5.738  -2.617  1.00  0.00     0.116 C 
ENDROOT
BRANCH   1   2
ATOM      2  N   UNL     1      -0.094   5.474  -1.508  1.00  0.00    -0.354 N 
ATOM      3  C   UNL     1      -0.187   4.425  -0.655  1.00  0.00     0.242 C 
ATOM      4  O   UNL     1      -1.081   4.472   0.198  1.00  0.00    -0.273 OA
ATOM      5  H   UNL     1      -0.753   6.186  -1.342  1.00  0.00     0.163 HD
BRANCH   3   6
ATOM      6  C   UNL     1       0.771   3.228  -0.679  1.00  0.00     0.172 C 
BRANCH   6   7
ATOM      7  C   UNL     1       2.223   3.426  -0.194  1.00  0.00     0.046 C 
BRANCH   7   8
ATOM      8  C   UNL     1       3.004   4.733  -0.227  1.00  0.00     0.072 C 
BRANCH   8   9
ATOM      9  S   UNL     1       2.660   6.157   0.877  1.00  0.00    -0.165 SA
ATOM     10  C   UNL     1       1.268   5.645   1.914  1.00  0.00     0.085 C 
ENDBRANCH   8   9
ENDBRANCH   7   8
ENDBRANCH   6   7
BRANCH   6  11
ATOM     11  N   UNL     1       0.664   2.474  -1.936  1.00  0.00    -0.344 N 
ATOM     12  C   UNL     1       0.076   1.269  -2.216  1.00  0.00     0.225 C 
ATOM     13  H   UNL     1       1.088   2.910  -2.710  1.00  0.00     0.164 HD
ATOM     14  O   UNL     1      -0.018   0.973  -3.410  1.00  0.00    -0.275 OA
BRANCH  12  15
ATOM     15  C   UNL     1      -0.376   0.299  -1.119  1.00  0.00     0.143 C 
BRANCH  15  16
ATOM     16  C   UNL     1       0.812  -0.558  -0.750  1.00  0.00     0.051 A 
ATOM     17  C   UNL     1       1.641  -0.316   0.283  1.00  0.00    -0.029 A 
ATOM     18  C   UNL     1       0.993  -1.821  -1.536  1.00  0.00     0.340 A 
ATOM     19  C   UNL     1       1.323   0.502   1.497  1.00  0.00     0.046 C 
ATOM     20  C   UNL     1       2.969  -0.925   0.233  1.00  0.00     0.021 A 
ATOM     21  O   UNL     1       2.046  -2.660  -1.163  1.00  0.00    -0.422 OA
ATOM     22  O   UNL     1       0.171  -2.184  -2.370  1.00  0.00    -0.246 OA
ATOM     23  C   UNL     1       4.112  -0.301   0.748  1.00  0.00     0.016 A 
ATOM     24  C   UNL     1       3.111  -2.144  -0.411  1.00  0.00     0.142 A 
ATOM     25  C   UNL     1       5.346  -0.952   0.717  1.00  0.00     0.047 A 
ATOM     26  C   UNL     1       4.314  -2.843  -0.387  1.00  0.00     0.094 A 
ATOM     27  C   UNL     1       5.423  -2.240   0.196  1.00  0.00     0.119 A 
BRANCH  27  28
ATOM     28  O   UNL     1       6.596  -2.934   0.222  1.00  0.00    -0.508 OA
ATOM     29  H   UNL     1       7.358  -2.551   0.609  1.00  0.00     0.293 HD
ENDBRANCH  27  28
ENDBRANCH  15  16
ENDBRANCH  12  15
ENDBRANCH   6  11
ENDBRANCH   3   6
ENDBRANCH   1   2
BRANCH   1  30
ATOM     30  C   UNL     1       0.267   6.832  -3.535  1.00  0.00     0.023 C 
BRANCH  30  31
ATOM     31  C   UNL     1       0.098   8.197  -2.860  1.00  0.00     0.023 C 
BRANCH  31  32
ATOM     32  C   UNL     1       1.308   8.685  -2.069  1.00  0.00     0.116 C 
BRANCH  32  33
ATOM     33  N   UNL     1       2.502   8.785  -2.896  1.00  0.00    -0.352 N 
ATOM     34  C   UNL     1       3.177   9.904  -3.303  1.00  0.00     0.251 C 
ATOM     35  H   UNL     1       2.874   7.928  -3.207  1.00  0.00     0.163 HD
ATOM     36  O   UNL     1       4.027   9.827  -4.193  1.00  0.00    -0.269 OA
BRANCH  34  37
ATOM     37  C   UNL     1       2.871  11.205  -2.684  1.00  0.00     0.039 A 
ATOM     38  C   UNL     1       2.655  12.311  -3.507  1.00  0.00     0.014 A 
ATOM     39  C   UNL     1       2.786  11.328  -1.294  1.00  0.00     0.014 A 
ATOM     40  C   UNL     1       2.301  13.531  -2.934  1.00  0.00     0.010 A 
ATOM     41  C   UNL     1       2.351  12.523  -0.730  1.00  0.00     0.010 A 
ATOM     42  C   UNL     1       2.113  13.640  -1.544  1.00  0.00    -0.014 A 
BRANCH  42  43
ATOM     43  C   UNL     1       1.659  14.922  -0.950  1.00  0.00     0.031 A 
ATOM     44  C   UNL     1       2.546  15.687  -0.008  1.00  0.00     0.074 A 
ATOM     45  C   UNL     1       0.433  15.390  -1.256  1.00  0.00     0.049 A 
ATOM     46  N   UNL     1       2.341  16.852   0.553  1.00  0.00    -0.248 NA
ATOM     47  C   UNL     1       3.817  15.053   0.375  1.00  0.00     0.031 C 
ATOM     48  C   UNL     1      -0.546  14.705  -2.103  1.00  0.00     0.029 A 
ATOM     49  N   UNL     1      -0.195  16.556  -0.900  1.00  0.00    -0.354 N 
ATOM     50  C   UNL     1       3.454  17.090   1.349  1.00  0.00     0.074 A 
ATOM     51  C   UNL     1       4.300  15.920   1.253  1.00  0.00     0.031 C 
ATOM     52  C   UNL     1      -1.629  15.484  -2.241  1.00  0.00     0.029 A 
ATOM     53  C   UNL     1      -1.437  16.706  -1.468  1.00  0.00     0.049 A 
ATOM     54  H   UNL     1       0.206  17.222  -0.296  1.00  0.00     0.167 HD
ATOM     55  C   UNL     1       3.759  18.194   2.071  1.00  0.00     0.037 A 
ATOM     56  C   UNL     1      -2.317  17.722  -1.384  1.00  0.00     0.037 A 
ATOM     57  C   UNL     1       2.917  19.360   2.156  1.00  0.00     0.049 A 
ATOM     58  C   UNL     1      -1.953  18.938  -0.580  1.00  0.00     0.074 A 
ATOM     59  C   UNL     1       3.159  20.552   2.816  1.00  0.00     0.029 A 
ATOM     60  N   UNL     1       1.666  19.476   1.568  1.00  0.00    -0.354 N 
ATOM     61  N   UNL     1      -0.857  19.187   0.096  1.00  0.00    -0.248 NA
ATOM     62  C   UNL     1      -2.944  20.022  -0.538  1.00  0.00     0.031 C 
ATOM     63  C   UNL     1       2.033  21.369   2.671  1.00  0.00     0.029 A 
ATOM     64  C   UNL     1       1.113  20.709   1.871  1.00  0.00     0.049 A 
ATOM     65  H   UNL     1       1.235  18.784   1.016  1.00  0.00     0.167 HD
ATOM     66  C   UNL     1      -1.015  20.463   0.622  1.00  0.00     0.074 A 
ATOM     67  C   UNL     1      -2.303  20.944   0.165  1.00  0.00     0.031 C 
ATOM     68  C   UNL     1      -0.173  21.172   1.413  1.00  0.00     0.037 A 
BRANCH  55  69
ATOM     69  C   UNL     1       5.059  18.193   2.824  1.00  0.00     0.057 A 
ATOM     70  C   UNL     1       6.296  18.237   2.165  1.00  0.00     0.134 A 
ATOM     71  C   UNL     1       5.077  18.182   4.225  1.00  0.00     0.134 A 
ATOM     72  F   UNL     1       6.352  18.237   0.825  1.00  0.00    -0.206 F 
ATOM     73  C   UNL     1       7.501  18.242   2.870  1.00  0.00     0.040 A 
ATOM     74  C   UNL     1       6.275  18.217   4.941  1.00  0.00     0.040 A 
ATOM     75  F   UNL     1       3.931  18.146   4.921  1.00  0.00    -0.206 F 
ATOM     76  C   UNL     1       7.492  18.240   4.263  1.00  0.00     0.006 A 
ENDBRANCH  55  69
BRANCH  56  77
ATOM     77  C   UNL     1      -3.611  17.647  -2.110  1.00  0.00     0.057 A 
ATOM     78  C   UNL     1      -3.880  18.483  -3.200  1.00  0.00     0.134 A 
ATOM     79  C   UNL     1      -4.612  16.747  -1.726  1.00  0.00     0.134 A 
ATOM     80  F   UNL     1      -2.967  19.378  -3.606  1.00  0.00    -0.206 F 
ATOM     81  C   UNL     1      -5.105  18.443  -3.868  1.00  0.00     0.040 A 
ATOM     82  C   UNL     1      -5.830  16.676  -2.403  1.00  0.00     0.040 A 
ATOM     83  F   UNL     1      -4.413  15.911  -0.696  1.00  0.00    -0.206 F 
ATOM     84  C   UNL     1      -6.083  17.533  -3.472  1.00  0.00     0.006 A 
ENDBRANCH  56  77
BRANCH  68  85
ATOM     85  C   UNL     1      -0.611  22.553   1.808  1.00  0.00     0.057 A 
ATOM     86  C   UNL     1      -1.674  22.770   2.695  1.00  0.00     0.134 A 
ATOM     87  C   UNL     1       0.046  23.682   1.302  1.00  0.00     0.134 A 
ATOM     88  F   UNL     1      -2.354  21.733   3.208  1.00  0.00    -0.206 F 
ATOM     89  C   UNL     1      -2.092  24.058   3.033  1.00  0.00     0.040 A 
ATOM     90  C   UNL     1      -0.341  24.974   1.658  1.00  0.00     0.040 A 
ATOM     91  F   UNL     1       1.080  23.547   0.457  1.00  0.00    -0.206 F 
ATOM     92  C   UNL     1      -1.421  25.165   2.517  1.00  0.00     0.006 A 
ENDBRANCH  68  85
ENDBRANCH  42  43
ENDBRANCH  34  37
ENDBRANCH  32  33
ENDBRANCH  31  32
ENDBRANCH  30  31
ENDBRANCH   1  30
TORSDOF 18
