REMARK SMILES Cc1ccn2c([C@@H]3CCCC[C@@H]3C(=O)NCCCCNC(=O)c3ccc(-c4c5nc(c(-c6c(F)cccc6F)c6ccc([nH]6)c(-c6c(F)cccc6F)c6nc(c(-c7c(F)cccc7F)c7ccc4[nH]7)C=C6)C=C5)cc3)nnc2c1
REMARK SMILES IDX 18 1 17 2 16 3 15 4 13 5 14 6 12 8 7 9 8 10 9 11 11 12 10 13
REMARK SMILES IDX 6 14 1 15 2 16 3 17 80 18 4 19 79 20 5 21 78 22 77 23 19 24
REMARK SMILES IDX 20 25 21 26 22 28 23 29 24 30 76 31 25 32 75 33 26 34 27 35
REMARK SMILES IDX 28 36 69 37 29 38 74 39 68 40 70 41 30 42 73 43 67 44 66 45
REMARK SMILES IDX 31 47 57 48 40 49 56 50 41 51 44 52 55 53 71 54 42 55 43 56
REMARK SMILES IDX 54 58 72 59 45 60 32 61 33 62 38 63 34 64 35 65 37 66 39 67
REMARK SMILES IDX 36 68 58 69 59 70 64 71 60 72 61 73 63 74 65 75 62 76 46 77
REMARK SMILES IDX 47 78 52 79 48 80 49 81 51 82 53 83 50 84
REMARK H PARENT 15 7 20 27 70 46 44 57
REMARK Flexibility Score: inf
ROOT
ATOM      1  C   UNL     1      -5.022  -2.457   5.699  1.00  0.00     0.023 C 
ENDROOT
BRANCH   1   2
ATOM      2  C   UNL     1      -5.083  -1.092   6.384  1.00  0.00     0.023 C 
BRANCH   2   3
ATOM      3  C   UNL     1      -3.731  -0.439   6.644  1.00  0.00     0.116 C 
BRANCH   3   4
ATOM      4  N   UNL     1      -3.155   0.103   5.430  1.00  0.00    -0.356 N 
ATOM      5  C   UNL     1      -2.731   1.333   5.069  1.00  0.00     0.223 C 
ATOM      6  O   UNL     1      -2.719   1.512   3.843  1.00  0.00    -0.275 OA
ATOM      7  H   UNL     1      -3.050  -0.569   4.718  1.00  0.00     0.163 HD
BRANCH   5   8
ATOM      8  C   UNL     1      -2.229   2.457   5.992  1.00  0.00     0.089 C 
ATOM      9  C   UNL     1      -0.718   2.793   5.831  1.00  0.00     0.071 C 
ATOM     10  C   UNL     1       0.220   1.903   6.657  1.00  0.00     0.012 C 
ATOM     11  C   UNL     1      -0.179   1.893   8.132  1.00  0.00     0.001 C 
ATOM     12  C   UNL     1      -2.562   2.421   7.488  1.00  0.00     0.014 C 
ATOM     13  C   UNL     1      -1.641   1.503   8.297  1.00  0.00     0.001 C 
BRANCH   9  14
ATOM     14  C   UNL     1      -0.230   3.054   4.434  1.00  0.00     0.141 A 
ATOM     15  C   UNL     1       1.094   0.103  -0.144  1.00  0.00     0.044 C 
ATOM     16  C   UNL     1       0.796   0.867   1.111  1.00  0.00    -0.046 A 
ATOM     17  C   UNL     1       0.455   0.092   2.301  1.00  0.00     0.022 A 
ATOM     18  C   UNL     1       0.801   2.217   1.152  1.00  0.00     0.053 A 
ATOM     19  C   UNL     1       0.118   0.734   3.432  1.00  0.00     0.095 A 
ATOM     20  C   UNL     1       0.465   2.895   2.355  1.00  0.00     0.161 A 
ATOM     21  N   UNL     1       0.105   2.130   3.457  1.00  0.00    -0.286 N 
ATOM     22  N   UNL     1       0.419   4.171   2.662  1.00  0.00    -0.130 NA
ATOM     23  N   UNL     1      -0.014   4.271   3.959  1.00  0.00    -0.134 NA
ENDBRANCH   9  14
ENDBRANCH   5   8
ENDBRANCH   3   4
ENDBRANCH   2   3
ENDBRANCH   1   2
BRANCH   1  24
ATOM     24  C   UNL     1      -4.095  -3.483   6.361  1.00  0.00     0.116 C 
BRANCH  24  25
ATOM     25  N   UNL     1      -4.250  -3.609   7.798  1.00  0.00    -0.352 N 
ATOM     26  C   UNL     1      -5.051  -4.351   8.620  1.00  0.00     0.251 C 
ATOM     27  H   UNL     1      -3.636  -3.024   8.297  1.00  0.00     0.163 HD
ATOM     28  O   UNL     1      -4.774  -4.319   9.825  1.00  0.00    -0.269 OA
BRANCH  26  29
ATOM     29  C   UNL     1      -6.251  -5.112   8.187  1.00  0.00     0.039 A 
ATOM     30  C   UNL     1      -6.688  -5.224   6.871  1.00  0.00     0.014 A 
ATOM     31  C   UNL     1      -7.037  -5.683   9.207  1.00  0.00     0.014 A 
ATOM     32  C   UNL     1      -7.938  -5.755   6.593  1.00  0.00     0.010 A 
ATOM     33  C   UNL     1      -8.273  -6.260   8.930  1.00  0.00     0.010 A 
ATOM     34  C   UNL     1      -8.746  -6.241   7.625  1.00  0.00    -0.014 A 
BRANCH  34  35
ATOM     35  C   UNL     1     -10.031  -6.813   7.237  1.00  0.00     0.031 A 
ATOM     36  C   UNL     1      -9.919  -7.904   6.233  1.00  0.00     0.074 A 
ATOM     37  C   UNL     1     -11.224  -6.418   7.724  1.00  0.00     0.049 A 
ATOM     38  N   UNL     1     -10.280  -7.867   4.993  1.00  0.00    -0.248 NA
ATOM     39  C   UNL     1      -9.181  -9.118   6.607  1.00  0.00     0.031 C 
ATOM     40  C   UNL     1     -11.482  -5.538   8.866  1.00  0.00     0.029 A 
ATOM     41  N   UNL     1     -12.479  -6.783   7.323  1.00  0.00    -0.354 N 
ATOM     42  C   UNL     1      -9.995  -9.128   4.474  1.00  0.00     0.074 A 
ATOM     43  C   UNL     1      -9.191  -9.800   5.459  1.00  0.00     0.031 C 
ATOM     44  C   UNL     1     -12.792  -5.606   9.197  1.00  0.00     0.029 A 
ATOM     45  C   UNL     1     -13.487  -6.401   8.197  1.00  0.00     0.049 A 
ATOM     46  H   UNL     1     -12.653  -7.273   6.487  1.00  0.00     0.167 HD
ATOM     47  C   UNL     1     -10.668  -9.597   3.388  1.00  0.00     0.037 A 
ATOM     48  C   UNL     1     -14.801  -6.716   8.115  1.00  0.00     0.037 A 
ATOM     49  C   UNL     1     -11.344  -8.532   2.695  1.00  0.00     0.049 A 
ATOM     50  C   UNL     1     -15.109  -7.038   6.707  1.00  0.00     0.074 A 
ATOM     51  C   UNL     1     -11.028  -7.548   1.786  1.00  0.00     0.029 A 
ATOM     52  N   UNL     1     -12.562  -8.218   3.231  1.00  0.00    -0.354 N 
ATOM     53  N   UNL     1     -15.111  -6.150   5.754  1.00  0.00    -0.248 NA
ATOM     54  C   UNL     1     -15.124  -8.429   6.266  1.00  0.00     0.031 C 
ATOM     55  C   UNL     1     -12.031  -6.539   1.925  1.00  0.00     0.029 A 
ATOM     56  C   UNL     1     -12.938  -6.947   2.899  1.00  0.00     0.049 A 
ATOM     57  H   UNL     1     -13.100  -8.829   3.785  1.00  0.00     0.167 HD
ATOM     58  C   UNL     1     -14.695  -6.848   4.639  1.00  0.00     0.074 A 
ATOM     59  C   UNL     1     -14.905  -8.253   4.960  1.00  0.00     0.031 C 
ATOM     60  C   UNL     1     -13.917  -6.248   3.696  1.00  0.00     0.037 A 
BRANCH  47  61
ATOM     61  C   UNL     1     -11.159 -11.025   3.245  1.00  0.00     0.057 A 
ATOM     62  C   UNL     1     -11.323 -11.916   4.325  1.00  0.00     0.134 A 
ATOM     63  C   UNL     1     -11.825 -11.399   2.061  1.00  0.00     0.134 A 
ATOM     64  F   UNL     1     -10.809 -11.680   5.537  1.00  0.00    -0.206 F 
ATOM     65  C   UNL     1     -12.124 -13.060   4.251  1.00  0.00     0.040 A 
ATOM     66  C   UNL     1     -12.665 -12.518   1.990  1.00  0.00     0.040 A 
ATOM     67  F   UNL     1     -11.749 -10.638   0.958  1.00  0.00    -0.206 F 
ATOM     68  C   UNL     1     -12.828 -13.345   3.093  1.00  0.00     0.006 A 
ENDBRANCH  47  61
BRANCH  48  69
ATOM     69  C   UNL     1     -15.790  -6.920   9.192  1.00  0.00     0.057 A 
ATOM     70  C   UNL     1     -15.409  -7.503  10.411  1.00  0.00     0.134 A 
ATOM     71  C   UNL     1     -17.168  -6.827   8.950  1.00  0.00     0.134 A 
ATOM     72  F   UNL     1     -14.116  -7.695  10.707  1.00  0.00    -0.206 F 
ATOM     73  C   UNL     1     -16.345  -8.000  11.324  1.00  0.00     0.040 A 
ATOM     74  C   UNL     1     -18.115  -7.322   9.855  1.00  0.00     0.040 A 
ATOM     75  F   UNL     1     -17.625  -6.313   7.799  1.00  0.00    -0.206 F 
ATOM     76  C   UNL     1     -17.704  -7.925  11.039  1.00  0.00     0.006 A 
ENDBRANCH  48  69
BRANCH  60  77
ATOM     77  C   UNL     1     -13.961  -4.756   3.638  1.00  0.00     0.057 A 
ATOM     78  C   UNL     1     -14.537  -4.149   2.519  1.00  0.00     0.134 A 
ATOM     79  C   UNL     1     -13.428  -3.914   4.623  1.00  0.00     0.134 A 
ATOM     80  F   UNL     1     -15.027  -4.901   1.520  1.00  0.00    -0.206 F 
ATOM     81  C   UNL     1     -14.600  -2.762   2.387  1.00  0.00     0.040 A 
ATOM     82  C   UNL     1     -13.512  -2.523   4.519  1.00  0.00     0.040 A 
ATOM     83  F   UNL     1     -12.794  -4.415   5.692  1.00  0.00    -0.206 F 
ATOM     84  C   UNL     1     -14.098  -1.944   3.396  1.00  0.00     0.006 A 
ENDBRANCH  60  77
ENDBRANCH  34  35
ENDBRANCH  26  29
ENDBRANCH  24  25
ENDBRANCH   1  24
TORSDOF 12
