REMARK SMILES O=C(CCC(=O)N1N=C(c2ccc(F)cc2)C[C@@H]1c1ccc2nccnc2c1)NCCCCNC(=O)c1ccc(-c2c3nc(c(-c4c(F)cccc4F)c4ccc([nH]4)c(-c4c(F)cccc4F)c4nc(c(-c5c(F)cccc5F)c5ccc2[nH]5)C=C4)C=C3)cc1
REMARK SMILES IDX 30 1 29 2 1 3 2 4 3 6 4 7 5 8 6 9 7 10 8 11 18 12 9 13 17 14
REMARK SMILES IDX 19 15 20 16 28 17 21 18 27 19 22 20 26 21 23 22 25 23 24 24
REMARK SMILES IDX 10 25 11 26 16 27 12 28 15 29 13 30 14 31 31 32 32 33 33 34
REMARK SMILES IDX 34 35 35 36 36 38 37 39 38 40 90 41 39 42 89 43 40 44 41 45
REMARK SMILES IDX 42 46 83 47 43 48 88 49 82 50 84 51 44 52 87 53 81 54 80 55
REMARK SMILES IDX 45 57 71 58 54 59 70 60 55 61 58 62 69 63 85 64 56 65 57 66
REMARK SMILES IDX 68 68 86 69 59 70 46 71 47 72 52 73 48 74 49 75 51 76 53 77
REMARK SMILES IDX 50 78 72 79 73 80 78 81 74 82 75 83 77 84 79 85 76 86 60 87
REMARK SMILES IDX 61 88 66 89 62 90 63 91 65 92 67 93 64 94
REMARK H PARENT 29 5 34 37 84 56 58 67
REMARK Flexibility Score: inf
ROOT
ATOM      1  C   UNL     1       0.809  -1.058  -2.482  1.00  0.00     0.116 C 
ENDROOT
BRANCH   1   2
ATOM      2  N   UNL     1       1.219  -0.232  -1.330  1.00  0.00    -0.356 N 
ATOM      3  O   UNL     1       0.876  -1.869   0.250  1.00  0.00    -0.275 OA
ATOM      4  C   UNL     1       1.329  -0.779  -0.033  1.00  0.00     0.220 C 
ATOM      5  H   UNL     1       1.420   0.722  -1.469  1.00  0.00     0.163 HD
BRANCH   4   6
ATOM      6  C   UNL     1       2.224   0.021   0.968  1.00  0.00     0.110 C 
BRANCH   6   7
ATOM      7  C   UNL     1       3.208  -0.887   1.771  1.00  0.00     0.112 C 
BRANCH   7   8
ATOM      8  C   UNL     1       4.668  -1.283   1.354  1.00  0.00     0.243 C 
ATOM      9  O   UNL     1       5.526  -1.391   2.238  1.00  0.00    -0.273 OA
BRANCH   8  10
ATOM     10  N   UNL     1       4.916  -1.720   0.057  1.00  0.00    -0.225 N 
ATOM     11  N   UNL     1       5.202  -3.095  -0.146  1.00  0.00    -0.174 NA
ATOM     12  C   UNL     1       4.292  -1.144  -1.100  1.00  0.00     0.147 C 
ATOM     13  C   UNL     1       4.602  -3.438  -1.251  1.00  0.00     0.071 C 
ATOM     14  C   UNL     1       3.765  -2.351  -1.831  1.00  0.00     0.091 C 
BRANCH  12  15
ATOM     15  C   UNL     1       4.831   0.160  -1.678  1.00  0.00    -0.021 A 
ATOM     16  C   UNL     1       3.900   1.030  -2.262  1.00  0.00     0.008 A 
ATOM     17  C   UNL     1       6.105   0.703  -1.492  1.00  0.00     0.036 A 
ATOM     18  C   UNL     1       4.163   2.341  -2.633  1.00  0.00     0.031 A 
ATOM     19  C   UNL     1       6.415   2.035  -1.866  1.00  0.00     0.089 A 
ATOM     20  C   UNL     1       5.409   2.857  -2.443  1.00  0.00     0.089 A 
ATOM     21  N   UNL     1       7.640   2.559  -1.667  1.00  0.00    -0.253 NA
ATOM     22  N   UNL     1       5.597   4.134  -2.811  1.00  0.00    -0.253 NA
ATOM     23  C   UNL     1       7.825   3.853  -2.038  1.00  0.00     0.132 A 
ATOM     24  C   UNL     1       6.827   4.625  -2.598  1.00  0.00     0.132 A 
ENDBRANCH  12  15
BRANCH  13  25
ATOM     25  C   UNL     1       4.485  -4.796  -1.852  1.00  0.00    -0.002 A 
ATOM     26  C   UNL     1       4.297  -4.932  -3.238  1.00  0.00     0.013 A 
ATOM     27  C   UNL     1       4.412  -5.938  -1.055  1.00  0.00     0.013 A 
ATOM     28  C   UNL     1       4.105  -6.177  -3.837  1.00  0.00     0.040 A 
ATOM     29  C   UNL     1       4.181  -7.190  -1.650  1.00  0.00     0.040 A 
ATOM     30  C   UNL     1       4.047  -7.300  -3.033  1.00  0.00     0.123 A 
ATOM     31  F   UNL     1       3.839  -8.499  -3.593  1.00  0.00    -0.207 F 
ENDBRANCH  13  25
ENDBRANCH   8  10
ENDBRANCH   7   8
ENDBRANCH   6   7
ENDBRANCH   4   6
ENDBRANCH   1   2
BRANCH   1  32
ATOM     32  C   UNL     1       1.201  -0.766  -3.990  1.00  0.00     0.023 C 
BRANCH  32  33
ATOM     33  C   UNL     1       2.507  -0.341  -4.764  1.00  0.00     0.023 C 
BRANCH  33  34
ATOM     34  C   UNL     1       3.809  -1.150  -5.061  1.00  0.00     0.116 C 
BRANCH  34  35
ATOM     35  N   UNL     1       3.597  -2.405  -5.762  1.00  0.00    -0.352 N 
ATOM     36  C   UNL     1       4.467  -3.212  -6.470  1.00  0.00     0.251 C 
ATOM     37  H   UNL     1       2.671  -2.738  -5.727  1.00  0.00     0.163 HD
ATOM     38  O   UNL     1       3.970  -4.064  -7.208  1.00  0.00    -0.269 OA
BRANCH  36  39
ATOM     39  C   UNL     1       5.958  -3.161  -6.379  1.00  0.00     0.039 A 
ATOM     40  C   UNL     1       6.693  -3.390  -7.557  1.00  0.00     0.014 A 
ATOM     41  C   UNL     1       6.654  -3.114  -5.168  1.00  0.00     0.014 A 
ATOM     42  C   UNL     1       8.090  -3.545  -7.526  1.00  0.00     0.010 A 
ATOM     43  C   UNL     1       8.050  -3.289  -5.132  1.00  0.00     0.010 A 
ATOM     44  C   UNL     1       8.784  -3.498  -6.309  1.00  0.00    -0.014 A 
BRANCH  44  45
ATOM     45  C   UNL     1      10.273  -3.523  -6.272  1.00  0.00     0.031 A 
ATOM     46  C   UNL     1      11.050  -4.744  -5.864  1.00  0.00     0.074 A 
ATOM     47  C   UNL     1      10.931  -2.383  -6.563  1.00  0.00     0.049 A 
ATOM     48  N   UNL     1      12.349  -4.908  -5.790  1.00  0.00    -0.248 NA
ATOM     49  C   UNL     1      10.273  -5.929  -5.477  1.00  0.00     0.031 C 
ATOM     50  C   UNL     1      10.286  -1.122  -6.930  1.00  0.00     0.029 A 
ATOM     51  N   UNL     1      12.271  -2.092  -6.582  1.00  0.00    -0.354 N 
ATOM     52  C   UNL     1      12.549  -6.215  -5.360  1.00  0.00     0.074 A 
ATOM     53  C   UNL     1      11.234  -6.787  -5.152  1.00  0.00     0.031 C 
ATOM     54  C   UNL     1      11.229  -0.192  -7.139  1.00  0.00     0.029 A 
ATOM     55  C   UNL     1      12.543  -0.784  -6.905  1.00  0.00     0.049 A 
ATOM     56  H   UNL     1      12.971  -2.755  -6.383  1.00  0.00     0.167 HD
ATOM     57  C   UNL     1      13.719  -6.876  -5.171  1.00  0.00     0.037 A 
ATOM     58  C   UNL     1      13.716  -0.130  -7.005  1.00  0.00     0.037 A 
ATOM     59  C   UNL     1      15.025  -6.291  -5.363  1.00  0.00     0.049 A 
ATOM     60  C   UNL     1      14.998  -0.877  -6.777  1.00  0.00     0.074 A 
ATOM     61  C   UNL     1      16.267  -6.894  -5.245  1.00  0.00     0.029 A 
ATOM     62  N   UNL     1      15.259  -4.965  -5.697  1.00  0.00    -0.354 N 
ATOM     63  N   UNL     1      15.170  -2.135  -6.454  1.00  0.00    -0.248 NA
ATOM     64  C   UNL     1      16.247  -0.120  -6.938  1.00  0.00     0.031 C 
ATOM     65  C   UNL     1      17.251  -5.924  -5.461  1.00  0.00     0.029 A 
ATOM     66  C   UNL     1      16.624  -4.727  -5.766  1.00  0.00     0.049 A 
ATOM     67  H   UNL     1      14.560  -4.293  -5.861  1.00  0.00     0.167 HD
ATOM     68  C   UNL     1      16.543  -2.329  -6.394  1.00  0.00     0.074 A 
ATOM     69  C   UNL     1      17.159  -1.060  -6.727  1.00  0.00     0.031 C 
ATOM     70  C   UNL     1      17.228  -3.459  -6.093  1.00  0.00     0.037 A 
BRANCH  57  71
ATOM     71  C   UNL     1      13.657  -8.317  -4.744  1.00  0.00     0.057 A 
ATOM     72  C   UNL     1      14.103  -8.719  -3.477  1.00  0.00     0.134 A 
ATOM     73  C   UNL     1      13.239  -9.324  -5.625  1.00  0.00     0.134 A 
ATOM     74  F   UNL     1      14.536  -7.812  -2.589  1.00  0.00    -0.206 F 
ATOM     75  C   UNL     1      14.139 -10.065  -3.105  1.00  0.00     0.040 A 
ATOM     76  C   UNL     1      13.249 -10.672  -5.257  1.00  0.00     0.040 A 
ATOM     77  F   UNL     1      12.805  -9.012  -6.856  1.00  0.00    -0.206 F 
ATOM     78  C   UNL     1      13.708 -11.046  -3.995  1.00  0.00     0.006 A 
ENDBRANCH  57  71
BRANCH  58  79
ATOM     79  C   UNL     1      13.714   1.302  -7.391  1.00  0.00     0.057 A 
ATOM     80  C   UNL     1      13.255   2.296  -6.519  1.00  0.00     0.134 A 
ATOM     81  C   UNL     1      14.111   1.700  -8.672  1.00  0.00     0.134 A 
ATOM     82  F   UNL     1      12.848   1.977  -5.281  1.00  0.00    -0.206 F 
ATOM     83  C   UNL     1      13.169   3.632  -6.914  1.00  0.00     0.040 A 
ATOM     84  C   UNL     1      14.051   3.036  -9.074  1.00  0.00     0.040 A 
ATOM     85  F   UNL     1      14.571   0.795  -9.548  1.00  0.00    -0.206 F 
ATOM     86  C   UNL     1      13.569   4.005  -8.196  1.00  0.00     0.006 A 
ENDBRANCH  58  79
BRANCH  70  87
ATOM     87  C   UNL     1      18.727  -3.387  -6.117  1.00  0.00     0.057 A 
ATOM     88  C   UNL     1      19.457  -4.037  -7.122  1.00  0.00     0.134 A 
ATOM     89  C   UNL     1      19.449  -2.737  -5.110  1.00  0.00     0.134 A 
ATOM     90  F   UNL     1      18.825  -4.684  -8.113  1.00  0.00    -0.206 F 
ATOM     91  C   UNL     1      20.852  -4.055  -7.114  1.00  0.00     0.040 A 
ATOM     92  C   UNL     1      20.845  -2.727  -5.105  1.00  0.00     0.040 A 
ATOM     93  F   UNL     1      18.810  -2.085  -4.127  1.00  0.00    -0.206 F 
ATOM     94  C   UNL     1      21.550  -3.397  -6.104  1.00  0.00     0.006 A 
ENDBRANCH  70  87
ENDBRANCH  44  45
ENDBRANCH  36  39
ENDBRANCH  34  35
ENDBRANCH  33  34
ENDBRANCH  32  33
ENDBRANCH   1  32
TORSDOF 16
