REMARK SMILES O=C(NCCCCNC(=O)[C@@H]1CCCC[C@@H]1C(=O)Nc1ccccc1C(=O)N1CCN(c2ccc(F)cc2)CC1)c1ccc(-c2c3nc(c(-c4c(F)cccc4F)c4ccc([nH]4)c(-c4c(F)cccc4F)c4nc(c(-c5c(F)cccc5F)c5ccc2[nH]5)C=C4)C=C3)cc1
REMARK SMILES IDX 6 1 5 2 4 3 3 4 1 5 2 6 41 8 42 9 94 10 43 11 93 12 44 13
REMARK SMILES IDX 45 14 46 15 87 16 47 17 92 18 86 19 88 20 48 21 91 22 85 23
REMARK SMILES IDX 84 24 49 26 75 27 58 28 74 29 59 30 62 31 73 32 89 33 60 34
REMARK SMILES IDX 61 35 72 37 90 38 63 39 50 40 51 41 56 42 52 43 53 44 55 45
REMARK SMILES IDX 57 46 54 47 76 48 77 49 82 50 78 51 79 52 81 53 83 54 80 55
REMARK SMILES IDX 64 56 65 57 70 58 66 59 67 60 69 61 71 62 68 63 7 64 8 65
REMARK SMILES IDX 9 66 10 68 11 69 12 70 16 71 13 72 15 73 14 74 17 75 18 76
REMARK SMILES IDX 19 77 20 79 21 80 25 81 22 82 24 83 23 84 26 85 27 86 28 87
REMARK SMILES IDX 29 88 40 89 30 90 39 91 31 92 32 93 33 94 38 95 34 96 37 97
REMARK SMILES IDX 35 98 36 99
REMARK H PARENT 3 7 88 25 62 36 8 67 19 78
REMARK Flexibility Score: inf
ROOT
ATOM      1  C   UNL     1       6.720  -0.519  -3.491  1.00  0.00     0.023 C 
ENDROOT
BRANCH   1   2
ATOM      2  C   UNL     1       6.201  -1.176  -2.183  1.00  0.00     0.023 C 
BRANCH   2   3
ATOM      3  C   UNL     1       5.329  -0.413  -1.171  1.00  0.00     0.116 C 
BRANCH   3   4
ATOM      4  N   UNL     1       3.877  -0.557  -1.331  1.00  0.00    -0.352 N 
ATOM      5  O   UNL     1       1.698  -0.652  -0.685  1.00  0.00    -0.269 OA
ATOM      6  C   UNL     1       2.875  -0.668  -0.371  1.00  0.00     0.251 C 
ATOM      7  H   UNL     1       3.562  -0.580  -2.263  1.00  0.00     0.163 HD
BRANCH   6   8
ATOM      8  C   UNL     1       3.251  -0.924   1.041  1.00  0.00     0.039 A 
ATOM      9  C   UNL     1       4.240  -0.171   1.661  1.00  0.00     0.014 A 
ATOM     10  C   UNL     1       2.716  -2.047   1.686  1.00  0.00     0.014 A 
ATOM     11  C   UNL     1       4.906  -0.709   2.754  1.00  0.00     0.010 A 
ATOM     12  C   UNL     1       3.316  -2.525   2.856  1.00  0.00     0.010 A 
ATOM     13  C   UNL     1       4.483  -1.918   3.337  1.00  0.00    -0.014 A 
BRANCH  13  14
ATOM     14  C   UNL     1       5.320  -2.538   4.400  1.00  0.00     0.031 A 
ATOM     15  C   UNL     1       5.986  -3.878   4.188  1.00  0.00     0.074 A 
ATOM     16  C   UNL     1       5.569  -1.834   5.520  1.00  0.00     0.049 A 
ATOM     17  N   UNL     1       6.801  -4.529   4.983  1.00  0.00    -0.248 NA
ATOM     18  C   UNL     1       5.700  -4.585   2.929  1.00  0.00     0.031 C 
ATOM     19  C   UNL     1       4.981  -0.530   5.836  1.00  0.00     0.029 A 
ATOM     20  N   UNL     1       6.406  -2.086   6.575  1.00  0.00    -0.354 N 
ATOM     21  C   UNL     1       7.102  -5.723   4.336  1.00  0.00     0.074 A 
ATOM     22  C   UNL     1       6.367  -5.721   3.090  1.00  0.00     0.031 C 
ATOM     23  C   UNL     1       5.526  -0.066   6.968  1.00  0.00     0.029 A 
ATOM     24  C   UNL     1       6.447  -1.067   7.494  1.00  0.00     0.049 A 
ATOM     25  H   UNL     1       6.927  -2.917   6.665  1.00  0.00     0.167 HD
ATOM     26  C   UNL     1       7.921  -6.726   4.740  1.00  0.00     0.037 A 
ATOM     27  C   UNL     1       7.137  -0.952   8.643  1.00  0.00     0.037 A 
ATOM     28  C   UNL     1       8.671  -6.712   5.971  1.00  0.00     0.049 A 
ATOM     29  C   UNL     1       8.048  -2.068   9.057  1.00  0.00     0.074 A 
ATOM     30  C   UNL     1       9.526  -7.678   6.475  1.00  0.00     0.029 A 
ATOM     31  N   UNL     1       8.662  -5.671   6.888  1.00  0.00    -0.354 N 
ATOM     32  N   UNL     1       8.303  -3.195   8.439  1.00  0.00    -0.248 NA
ATOM     33  C   UNL     1       8.761  -1.900  10.330  1.00  0.00     0.031 C 
ATOM     34  C   UNL     1      10.011  -7.234   7.710  1.00  0.00     0.029 A 
ATOM     35  C   UNL     1       9.492  -5.974   7.956  1.00  0.00     0.049 A 
ATOM     36  H   UNL     1       8.144  -4.840   6.794  1.00  0.00     0.167 HD
ATOM     37  C   UNL     1       9.201  -3.876   9.249  1.00  0.00     0.074 A 
ATOM     38  C   UNL     1       9.476  -3.014  10.382  1.00  0.00     0.031 C 
ATOM     39  C   UNL     1       9.739  -5.108   9.080  1.00  0.00     0.037 A 
BRANCH  26  40
ATOM     40  C   UNL     1       8.047  -7.934   3.853  1.00  0.00     0.057 A 
ATOM     41  C   UNL     1       8.766  -7.899   2.651  1.00  0.00     0.134 A 
ATOM     42  C   UNL     1       7.499  -9.165   4.238  1.00  0.00     0.134 A 
ATOM     43  F   UNL     1       9.309  -6.752   2.217  1.00  0.00    -0.206 F 
ATOM     44  C   UNL     1       8.924  -9.039   1.859  1.00  0.00     0.040 A 
ATOM     45  C   UNL     1       7.668 -10.317   3.466  1.00  0.00     0.040 A 
ATOM     46  F   UNL     1       6.805  -9.273   5.381  1.00  0.00    -0.206 F 
ATOM     47  C   UNL     1       8.381 -10.255   2.270  1.00  0.00     0.006 A 
ENDBRANCH  26  40
BRANCH  27  48
ATOM     48  C   UNL     1       6.966   0.261   9.480  1.00  0.00     0.057 A 
ATOM     49  C   UNL     1       7.995   1.195   9.632  1.00  0.00     0.134 A 
ATOM     50  C   UNL     1       5.750   0.528  10.123  1.00  0.00     0.134 A 
ATOM     51  F   UNL     1       9.187   0.987   9.055  1.00  0.00    -0.206 F 
ATOM     52  C   UNL     1       7.824   2.350  10.397  1.00  0.00     0.040 A 
ATOM     53  C   UNL     1       5.555   1.693  10.864  1.00  0.00     0.040 A 
ATOM     54  F   UNL     1       4.721  -0.325  10.008  1.00  0.00    -0.206 F 
ATOM     55  C   UNL     1       6.597   2.606  11.008  1.00  0.00     0.006 A 
ENDBRANCH  27  48
BRANCH  39  56
ATOM     56  C   UNL     1      10.675  -5.582  10.149  1.00  0.00     0.057 A 
ATOM     57  C   UNL     1      10.207  -5.975  11.410  1.00  0.00     0.134 A 
ATOM     58  C   UNL     1      12.054  -5.638   9.920  1.00  0.00     0.134 A 
ATOM     59  F   UNL     1       8.897  -5.928  11.694  1.00  0.00    -0.206 F 
ATOM     60  C   UNL     1      11.085  -6.378  12.418  1.00  0.00     0.040 A 
ATOM     61  C   UNL     1      12.939  -6.061  10.913  1.00  0.00     0.040 A 
ATOM     62  F   UNL     1      12.563  -5.281   8.732  1.00  0.00    -0.206 F 
ATOM     63  C   UNL     1      12.455  -6.423  12.169  1.00  0.00     0.006 A 
ENDBRANCH  39  56
ENDBRANCH  13  14
ENDBRANCH   6   8
ENDBRANCH   3   4
ENDBRANCH   2   3
ENDBRANCH   1   2
BRANCH   1  64
ATOM     64  C   UNL     1       7.396   0.865  -3.417  1.00  0.00     0.116 C 
BRANCH  64  65
ATOM     65  N   UNL     1       7.726   1.462  -4.752  1.00  0.00    -0.356 N 
ATOM     66  C   UNL     1       7.444   2.266  -5.794  1.00  0.00     0.223 C 
ATOM     67  H   UNL     1       8.594   1.061  -4.987  1.00  0.00     0.163 HD
ATOM     68  O   UNL     1       8.468   2.284  -6.526  1.00  0.00    -0.275 OA
BRANCH  66  69
ATOM     69  C   UNL     1       6.271   3.236  -6.326  1.00  0.00     0.091 C 
ATOM     70  C   UNL     1       6.607   4.732  -6.139  1.00  0.00     0.014 C 
ATOM     71  C   UNL     1       4.755   3.035  -6.805  1.00  0.00     0.091 C 
ATOM     72  C   UNL     1       6.369   5.518  -7.444  1.00  0.00     0.001 C 
ATOM     73  C   UNL     1       4.660   3.733  -8.213  1.00  0.00     0.014 C 
ATOM     74  C   UNL     1       5.039   5.229  -8.152  1.00  0.00     0.001 C 
BRANCH  71  75
ATOM     75  C   UNL     1       3.549   3.744  -6.085  1.00  0.00     0.228 C 
ATOM     76  O   UNL     1       3.679   4.830  -5.506  1.00  0.00    -0.274 OA
ATOM     77  N   UNL     1       2.239   3.366  -6.285  1.00  0.00    -0.325 N 
ATOM     78  H   UNL     1       1.600   4.110  -6.191  1.00  0.00     0.169 HD
BRANCH  77  79
ATOM     79  C   UNL     1       1.623   2.138  -6.595  1.00  0.00     0.054 A 
ATOM     80  C   UNL     1       0.422   2.194  -7.317  1.00  0.00     0.027 A 
ATOM     81  C   UNL     1       2.071   0.881  -6.190  1.00  0.00     0.063 A 
ATOM     82  C   UNL     1      -0.182   1.027  -7.802  1.00  0.00     0.002 A 
ATOM     83  C   UNL     1       1.520  -0.288  -6.747  1.00  0.00     0.016 A 
ATOM     84  C   UNL     1       0.404  -0.212  -7.570  1.00  0.00     0.001 A 
BRANCH  81  85
ATOM     85  C   UNL     1       3.089   0.693  -5.150  1.00  0.00     0.256 C 
ATOM     86  O   UNL     1       3.837  -0.278  -5.266  1.00  0.00    -0.269 OA
ATOM     87  N   UNL     1       3.286   1.686  -4.191  1.00  0.00    -0.335 N 
ATOM     88  C   UNL     1       4.649   1.829  -3.802  1.00  0.00     0.141 C 
ATOM     89  C   UNL     1       2.308   2.144  -3.181  1.00  0.00     0.141 C 
ATOM     90  C   UNL     1       5.011   3.169  -3.211  1.00  0.00     0.138 C 
ATOM     91  C   UNL     1       2.770   3.376  -2.297  1.00  0.00     0.138 C 
ATOM     92  N   UNL     1       4.221   3.341  -1.999  1.00  0.00    -0.368 N 
BRANCH  92  93
ATOM     93  C   UNL     1       4.871   4.273  -1.184  1.00  0.00     0.037 A 
ATOM     94  C   UNL     1       5.106   5.593  -1.604  1.00  0.00     0.029 A 
ATOM     95  C   UNL     1       5.593   3.786  -0.082  1.00  0.00     0.029 A 
ATOM     96  C   UNL     1       6.075   6.380  -0.972  1.00  0.00     0.041 A 
ATOM     97  C   UNL     1       6.547   4.576   0.562  1.00  0.00     0.041 A 
ATOM     98  C   UNL     1       6.790   5.862   0.100  1.00  0.00     0.123 A 
ATOM     99  F   UNL     1       7.751   6.598   0.673  1.00  0.00    -0.207 F 
ENDBRANCH  92  93
ENDBRANCH  81  85
ENDBRANCH  77  79
ENDBRANCH  71  75
ENDBRANCH  66  69
ENDBRANCH  64  65
ENDBRANCH   1  64
TORSDOF 15
