REMARK SMILES Cc1ccc(C(=O)N[C@@H]2CCCCC[C@@H]2C(=O)NCCCCNC(=O)c2ccc(-c3c4nc(c(-c5c(F)cccc5F)c5ccc([nH]5)c(-c5c(F)cccc5F)c5nc(c(-c6c(F)cccc6F)c6ccc3[nH]6)C=C5)C=C4)cc2)c(C)n1
REMARK SMILES IDX 20 1 19 2 18 3 16 4 17 5 15 7 9 8 8 9 6 10 7 11 5 13 1 14
REMARK SMILES IDX 2 15 3 16 82 17 4 18 80 19 81 20 10 21 11 22 14 24 13 25
REMARK SMILES IDX 12 26 21 28 22 29 23 30 24 31 25 33 26 34 27 35 79 36 28 37
REMARK SMILES IDX 78 38 29 39 30 40 31 41 72 42 32 43 77 44 71 45 73 46 33 47
REMARK SMILES IDX 76 48 70 49 69 50 34 52 60 53 43 54 59 55 44 56 47 57 58 58
REMARK SMILES IDX 74 59 45 60 46 61 57 63 75 64 48 65 35 66 36 67 41 68 37 69
REMARK SMILES IDX 38 70 40 71 42 72 39 73 61 74 62 75 67 76 63 77 64 78 66 79
REMARK SMILES IDX 68 80 65 81 49 82 50 83 55 84 51 85 52 86 54 87 56 88 53 89
REMARK H PARENT 18 6 8 12 23 32 73 51 47 62
REMARK Flexibility Score: 100.00
ROOT
ATOM      1  C   UNL     1       4.771  -7.226   0.462  1.00  0.00     0.023 C 
ENDROOT
BRANCH   1   2
ATOM      2  C   UNL     1       4.345  -5.787   0.171  1.00  0.00     0.116 C 
BRANCH   2   3
ATOM      3  N   UNL     1       3.804  -5.662  -1.167  1.00  0.00    -0.356 N 
ATOM      4  C   UNL     1       2.515  -5.723  -1.601  1.00  0.00     0.225 C 
ATOM      5  O   UNL     1       2.319  -5.736  -2.818  1.00  0.00    -0.275 OA
ATOM      6  H   UNL     1       4.473  -5.510  -1.873  1.00  0.00     0.163 HD
BRANCH   4   7
ATOM      7  C   UNL     1       1.342  -5.713  -0.623  1.00  0.00     0.101 C 
BRANCH   7   8
ATOM      8  C   UNL     1       1.040  -4.309  -0.019  1.00  0.00     0.094 C 
BRANCH   8   9
ATOM      9  N   UNL     1       2.057  -3.276  -0.270  1.00  0.00    -0.348 N 
ATOM     10  C   UNL     1       2.067  -1.898  -0.332  1.00  0.00     0.253 C 
ATOM     11  O   UNL     1       3.175  -1.416  -0.581  1.00  0.00    -0.269 OA
ATOM     12  H   UNL     1       2.947  -3.663  -0.432  1.00  0.00     0.164 HD
BRANCH  10  13
ATOM     13  C   UNL     1       0.884  -0.988  -0.136  1.00  0.00     0.061 A 
ATOM     14  C   UNL     1      -2.389   1.783   0.096  1.00  0.00     0.067 C 
ATOM     15  C   UNL     1      -1.268   0.792   0.069  1.00  0.00     0.038 A 
ATOM     16  C   UNL     1      -1.520  -0.557  -0.049  1.00  0.00     0.024 A 
ATOM     17  N   UNL     1      -0.010   1.273   0.116  1.00  0.00    -0.258 NA
ATOM     18  C   UNL     1      -0.441  -1.434  -0.155  1.00  0.00     0.017 A 
ATOM     19  C   UNL     1       1.047   0.403   0.025  1.00  0.00     0.050 A 
ATOM     20  C   UNL     1       2.373   1.110   0.063  1.00  0.00     0.067 C 
ENDBRANCH  10  13
ENDBRANCH   8   9
BRANCH   8  21
ATOM     21  C   UNL     1       0.666  -4.301   1.470  1.00  0.00     0.026 C 
BRANCH  21  22
ATOM     22  C   UNL     1      -0.657  -5.003   1.766  1.00  0.00     0.002 CG0
ATOM     23  G   UNL     1      -0.510  -6.493   2.036  1.00  0.00     0.000 G0
ENDBRANCH  21  22
ENDBRANCH   8  21
ENDBRANCH   7   8
BRANCH   7  24
ATOM     24  C   UNL     1       1.338  -6.930   0.318  1.00  0.00     0.015 C 
BRANCH  24  25
ATOM     25  C   UNL     1      -0.047  -7.313   0.839  1.00  0.00     0.001 C 
BRANCH  25  26
ATOM     26  C   UNL     1      -0.510  -6.493   2.036  1.00  0.00     0.000 CG0
ATOM     27  G   UNL     1      -0.657  -5.003   1.766  1.00  0.00     0.000 G0
ENDBRANCH  25  26
ENDBRANCH  24  25
ENDBRANCH   7  24
ENDBRANCH   4   7
ENDBRANCH   2   3
ENDBRANCH   1   2
BRANCH   1  28
ATOM     28  C   UNL     1       6.004  -7.689  -0.316  1.00  0.00     0.023 C 
BRANCH  28  29
ATOM     29  C   UNL     1       7.249  -6.838  -0.105  1.00  0.00     0.116 C 
BRANCH  29  30
ATOM     30  N   UNL     1       7.622  -6.711   1.295  1.00  0.00    -0.352 N 
ATOM     31  C   UNL     1       8.882  -6.639   1.836  1.00  0.00     0.251 C 
ATOM     32  H   UNL     1       6.876  -6.670   1.937  1.00  0.00     0.163 HD
ATOM     33  O   UNL     1       9.043  -6.648   3.052  1.00  0.00    -0.269 OA
BRANCH  31  34
ATOM     34  C   UNL     1      10.044  -6.595   0.930  1.00  0.00     0.039 A 
ATOM     35  C   UNL     1      11.082  -7.509   1.122  1.00  0.00     0.014 A 
ATOM     36  C   UNL     1      10.077  -5.691  -0.135  1.00  0.00     0.014 A 
ATOM     37  C   UNL     1      12.128  -7.560   0.201  1.00  0.00     0.010 A 
ATOM     38  C   UNL     1      11.083  -5.791  -1.088  1.00  0.00     0.010 A 
ATOM     39  C   UNL     1      12.117  -6.726  -0.929  1.00  0.00    -0.014 A 
BRANCH  39  40
ATOM     40  C   UNL     1      13.179  -6.816  -1.958  1.00  0.00     0.031 A 
ATOM     41  C   UNL     1      14.103  -5.654  -2.186  1.00  0.00     0.074 A 
ATOM     42  C   UNL     1      13.265  -7.915  -2.733  1.00  0.00     0.049 A 
ATOM     43  N   UNL     1      15.043  -5.509  -3.083  1.00  0.00    -0.248 NA
ATOM     44  C   UNL     1      13.926  -4.488  -1.306  1.00  0.00     0.031 C 
ATOM     45  C   UNL     1      12.391  -9.086  -2.642  1.00  0.00     0.029 A 
ATOM     46  N   UNL     1      14.123  -8.219  -3.759  1.00  0.00    -0.354 N 
ATOM     47  C   UNL     1      15.557  -4.235  -2.887  1.00  0.00     0.074 A 
ATOM     48  C   UNL     1      14.791  -3.627  -1.821  1.00  0.00     0.031 C 
ATOM     49  C   UNL     1      12.770  -9.989  -3.561  1.00  0.00     0.029 A 
ATOM     50  C   UNL     1      13.890  -9.448  -4.325  1.00  0.00     0.049 A 
ATOM     51  H   UNL     1      14.838  -7.613  -4.060  1.00  0.00     0.167 HD
ATOM     52  C   UNL     1      16.591  -3.634  -3.521  1.00  0.00     0.037 A 
ATOM     53  C   UNL     1      14.508 -10.066  -5.348  1.00  0.00     0.037 A 
ATOM     54  C   UNL     1      17.368  -4.251  -4.563  1.00  0.00     0.049 A 
ATOM     55  C   UNL     1      15.658  -9.381  -6.032  1.00  0.00     0.074 A 
ATOM     56  C   UNL     1      18.473  -3.749  -5.228  1.00  0.00     0.029 A 
ATOM     57  N   UNL     1      17.120  -5.509  -5.090  1.00  0.00    -0.354 N 
ATOM     58  N   UNL     1      16.179  -8.202  -5.791  1.00  0.00    -0.248 NA
ATOM     59  C   UNL     1      16.311 -10.114  -7.126  1.00  0.00     0.031 C 
ATOM     60  C   UNL     1      18.872  -4.690  -6.183  1.00  0.00     0.029 A 
ATOM     61  C   UNL     1      18.041  -5.794  -6.084  1.00  0.00     0.049 A 
ATOM     62  H   UNL     1      16.395  -6.110  -4.801  1.00  0.00     0.167 HD
ATOM     63  C   UNL     1      17.234  -8.063  -6.682  1.00  0.00     0.074 A 
ATOM     64  C   UNL     1      17.287  -9.283  -7.461  1.00  0.00     0.031 C 
ATOM     65  C   UNL     1      18.083  -7.018  -6.843  1.00  0.00     0.037 A 
BRANCH  52  66
ATOM     66  C   UNL     1      16.943  -2.239  -3.095  1.00  0.00     0.057 A 
ATOM     67  C   UNL     1      17.537  -1.976  -1.853  1.00  0.00     0.134 A 
ATOM     68  C   UNL     1      16.708  -1.150  -3.943  1.00  0.00     0.134 A 
ATOM     69  F   UNL     1      17.775  -2.974  -0.989  1.00  0.00    -0.206 F 
ATOM     70  C   UNL     1      17.858  -0.676  -1.459  1.00  0.00     0.040 A 
ATOM     71  C   UNL     1      17.049   0.151  -3.570  1.00  0.00     0.040 A 
ATOM     72  F   UNL     1      16.147  -1.332  -5.148  1.00  0.00    -0.206 F 
ATOM     73  C   UNL     1      17.620   0.392  -2.322  1.00  0.00     0.006 A 
ENDBRANCH  52  66
BRANCH  53  74
ATOM     74  C   UNL     1      14.071 -11.419  -5.772  1.00  0.00     0.057 A 
ATOM     75  C   UNL     1      14.866 -12.544  -5.523  1.00  0.00     0.134 A 
ATOM     76  C   UNL     1      12.856 -11.622  -6.437  1.00  0.00     0.134 A 
ATOM     77  F   UNL     1      16.049 -12.410  -4.905  1.00  0.00    -0.206 F 
ATOM     78  C   UNL     1      14.478 -13.819  -5.935  1.00  0.00     0.040 A 
ATOM     79  C   UNL     1      12.445 -12.895  -6.835  1.00  0.00     0.040 A 
ATOM     80  F   UNL     1      12.046 -10.586  -6.697  1.00  0.00    -0.206 F 
ATOM     81  C   UNL     1      13.261 -13.998  -6.590  1.00  0.00     0.006 A 
ENDBRANCH  53  74
BRANCH  65  82
ATOM     82  C   UNL     1      19.160  -7.164  -7.875  1.00  0.00     0.057 A 
ATOM     83  C   UNL     1      18.884  -7.093  -9.246  1.00  0.00     0.134 A 
ATOM     84  C   UNL     1      20.496  -7.335  -7.490  1.00  0.00     0.134 A 
ATOM     85  F   UNL     1      17.622  -6.944  -9.678  1.00  0.00    -0.206 F 
ATOM     86  C   UNL     1      19.896  -7.207 -10.199  1.00  0.00     0.040 A 
ATOM     87  C   UNL     1      21.520  -7.426  -8.433  1.00  0.00     0.040 A 
ATOM     88  F   UNL     1      20.828  -7.403  -6.192  1.00  0.00    -0.206 F 
ATOM     89  C   UNL     1      21.220  -7.367  -9.793  1.00  0.00     0.006 A 
ENDBRANCH  65  82
ENDBRANCH  39  40
ENDBRANCH  31  34
ENDBRANCH  29  30
ENDBRANCH  28  29
ENDBRANCH   1  28
TORSDOF 13
