REMARK SMILES COc1cccc(-c2ccc(=O)n(CC(=O)N[C@@H](C(=O)NCCCCNC(=O)c3ccc(-c4c5nc(c(-c6c(F)cccc6F)c6ccc([nH]6)c(-c6c(F)cccc6F)c6nc(c(-c7c(F)cccc7F)c7ccc4[nH]7)C=C6)C=C5)cc3)C(C)C)n2)c1
REMARK SMILES IDX 22 1 21 2 19 3 20 4 18 6 17 7 15 8 16 9 14 11 13 12 8 13
REMARK SMILES IDX 9 14 86 15 10 16 11 17 12 18 7 19 3 20 4 21 87 22 5 23 6 24
REMARK SMILES IDX 2 25 1 26 83 27 84 28 85 29 23 30 24 31 25 32 26 33 27 34
REMARK SMILES IDX 28 36 29 37 30 38 82 39 31 40 81 41 32 42 33 43 34 44 75 45
REMARK SMILES IDX 35 46 80 47 74 48 76 49 36 50 79 51 73 52 72 53 37 55 63 56
REMARK SMILES IDX 46 57 62 58 47 59 50 60 61 61 77 62 48 63 49 64 60 66 78 67
REMARK SMILES IDX 51 68 38 69 39 70 44 71 40 72 41 73 43 74 45 75 42 76 64 77
REMARK SMILES IDX 65 78 70 79 66 80 67 81 69 82 71 83 68 84 52 85 53 86 58 87
REMARK SMILES IDX 54 88 55 89 57 90 59 91 56 92
REMARK H PARENT 21 5 17 10 26 35 76 54 50 65
REMARK Flexibility Score: inf
ROOT
ATOM      1  C   UNL     1       5.722  -3.059  -6.716  1.00  0.00     0.116 C 
ENDROOT
BRANCH   1   2
ATOM      2  N   UNL     1       5.106  -4.287  -7.162  1.00  0.00    -0.354 N 
ATOM      3  C   UNL     1       4.826  -5.415  -6.435  1.00  0.00     0.242 C 
ATOM      4  O   UNL     1       4.144  -6.274  -6.998  1.00  0.00    -0.273 OA
ATOM      5  H   UNL     1       4.853  -4.318  -8.113  1.00  0.00     0.163 HD
BRANCH   3   6
ATOM      6  C   UNL     1       5.270  -5.534  -4.939  1.00  0.00     0.173 C 
BRANCH   6   7
ATOM      7  N   UNL     1       6.723  -5.340  -4.868  1.00  0.00    -0.342 N 
ATOM      8  C   UNL     1       7.485  -4.577  -4.029  1.00  0.00     0.242 C 
ATOM      9  O   UNL     1       8.709  -4.647  -4.183  1.00  0.00    -0.273 OA
ATOM     10  H   UNL     1       7.236  -5.845  -5.539  1.00  0.00     0.164 HD
BRANCH   8  11
ATOM     11  C   UNL     1       6.882  -3.754  -2.879  1.00  0.00     0.248 C 
BRANCH  11  12
ATOM     12  N   UNL     1       6.016  -2.646  -3.277  1.00  0.00    -0.220 N 
ATOM     13  C   UNL     1       3.882  -1.837  -3.400  1.00  0.00     0.091 A 
ATOM     14  C   UNL     1       4.314  -0.569  -4.012  1.00  0.00     0.036 A 
ATOM     15  N   UNL     1       4.665  -2.806  -3.053  1.00  0.00    -0.169 NA
ATOM     16  C   UNL     1       5.629  -0.407  -4.162  1.00  0.00     0.075 A 
ATOM     17  C   UNL     1       6.580  -1.475  -3.775  1.00  0.00     0.267 A 
ATOM     18  O   UNL     1       7.777  -1.298  -3.973  1.00  0.00    -0.268 OA
BRANCH  13  19
ATOM     19  C   UNL     1       2.439  -1.958  -3.152  1.00  0.00     0.006 A 
ATOM     20  C   UNL     1       0.573  -1.569  -1.682  1.00  0.00     0.119 A 
ATOM     21  C   UNL     1      -0.259  -2.215  -2.602  1.00  0.00     0.046 A 
ATOM     22  C   UNL     1       1.934  -1.456  -1.950  1.00  0.00     0.056 A 
ATOM     23  C   UNL     1       0.255  -2.719  -3.801  1.00  0.00     0.005 A 
ATOM     24  C   UNL     1       1.614  -2.591  -4.083  1.00  0.00     0.011 A 
BRANCH  20  25
ATOM     25  O   UNL     1      -0.042  -1.119  -0.546  1.00  0.00    -0.497 OA
ATOM     26  C   UNL     1       0.605  -0.035   0.114  1.00  0.00     0.278 C 
ENDBRANCH  20  25
ENDBRANCH  13  19
ENDBRANCH  11  12
ENDBRANCH   8  11
ENDBRANCH   6   7
BRANCH   6  27
ATOM     27  C   UNL     1       4.838  -6.904  -4.341  1.00  0.00     0.015 C 
ATOM     28  C   UNL     1       5.605  -7.303  -3.076  1.00  0.00     0.010 C 
ATOM     29  C   UNL     1       3.336  -6.899  -4.014  1.00  0.00     0.010 C 
ENDBRANCH   6  27
ENDBRANCH   3   6
ENDBRANCH   1   2
BRANCH   1  30
ATOM     30  C   UNL     1       6.970  -2.690  -7.508  1.00  0.00     0.023 C 
BRANCH  30  31
ATOM     31  C   UNL     1       6.691  -1.888  -8.778  1.00  0.00     0.023 C 
BRANCH  31  32
ATOM     32  C   UNL     1       5.996  -0.544  -8.565  1.00  0.00     0.116 C 
BRANCH  32  33
ATOM     33  N   UNL     1       6.721   0.382  -7.707  1.00  0.00    -0.352 N 
ATOM     34  C   UNL     1       6.756   1.758  -7.789  1.00  0.00     0.251 C 
ATOM     35  H   UNL     1       7.250  -0.023  -6.981  1.00  0.00     0.163 HD
ATOM     36  O   UNL     1       7.414   2.425  -7.005  1.00  0.00    -0.269 OA
BRANCH  34  37
ATOM     37  C   UNL     1       6.016   2.417  -8.885  1.00  0.00     0.039 A 
ATOM     38  C   UNL     1       6.726   3.199  -9.799  1.00  0.00     0.014 A 
ATOM     39  C   UNL     1       4.652   2.175  -9.062  1.00  0.00     0.014 A 
ATOM     40  C   UNL     1       6.087   3.658 -10.952  1.00  0.00     0.010 A 
ATOM     41  C   UNL     1       4.032   2.583 -10.239  1.00  0.00     0.010 A 
ATOM     42  C   UNL     1       4.751   3.306 -11.206  1.00  0.00    -0.014 A 
BRANCH  42  43
ATOM     43  C   UNL     1       4.100   3.634 -12.498  1.00  0.00     0.031 A 
ATOM     44  C   UNL     1       2.939   4.582 -12.544  1.00  0.00     0.074 A 
ATOM     45  C   UNL     1       4.504   3.008 -13.621  1.00  0.00     0.049 A 
ATOM     46  N   UNL     1       2.186   4.918 -13.561  1.00  0.00    -0.248 NA
ATOM     47  C   UNL     1       2.559   5.219 -11.274  1.00  0.00     0.031 C 
ATOM     48  C   UNL     1       5.594   2.033 -13.703  1.00  0.00     0.029 A 
ATOM     49  N   UNL     1       4.036   3.090 -14.908  1.00  0.00    -0.354 N 
ATOM     50  C   UNL     1       1.237   5.794 -13.053  1.00  0.00     0.074 A 
ATOM     51  C   UNL     1       1.481   5.902 -11.630  1.00  0.00     0.031 C 
ATOM     52  C   UNL     1       5.726   1.628 -14.977  1.00  0.00     0.029 A 
ATOM     53  C   UNL     1       4.710   2.283 -15.793  1.00  0.00     0.049 A 
ATOM     54  H   UNL     1       3.288   3.673 -15.173  1.00  0.00     0.167 HD
ATOM     55  C   UNL     1       0.264   6.464 -13.715  1.00  0.00     0.037 A 
ATOM     56  C   UNL     1       4.525   2.090 -17.112  1.00  0.00     0.037 A 
ATOM     57  C   UNL     1       0.034   6.373 -15.133  1.00  0.00     0.049 A 
ATOM     58  C   UNL     1       3.426   2.829 -17.820  1.00  0.00     0.074 A 
ATOM     59  C   UNL     1      -0.892   7.055 -15.902  1.00  0.00     0.029 A 
ATOM     60  N   UNL     1       0.739   5.546 -15.994  1.00  0.00    -0.354 N 
ATOM     61  N   UNL     1       2.569   3.694 -17.337  1.00  0.00    -0.248 NA
ATOM     62  C   UNL     1       3.268   2.563 -19.257  1.00  0.00     0.031 C 
ATOM     63  C   UNL     1      -0.769   6.617 -17.226  1.00  0.00     0.029 A 
ATOM     64  C   UNL     1       0.256   5.687 -17.285  1.00  0.00     0.049 A 
ATOM     65  H   UNL     1       1.474   4.948 -15.728  1.00  0.00     0.167 HD
ATOM     66  C   UNL     1       1.786   4.094 -18.411  1.00  0.00     0.074 A 
ATOM     67  C   UNL     1       2.276   3.383 -19.575  1.00  0.00     0.031 C 
ATOM     68  C   UNL     1       0.756   4.974 -18.432  1.00  0.00     0.037 A 
BRANCH  55  69
ATOM     69  C   UNL     1      -0.621   7.360 -12.902  1.00  0.00     0.057 A 
ATOM     70  C   UNL     1      -0.155   8.571 -12.374  1.00  0.00     0.134 A 
ATOM     71  C   UNL     1      -1.955   7.016 -12.653  1.00  0.00     0.134 A 
ATOM     72  F   UNL     1       1.118   8.950 -12.565  1.00  0.00    -0.206 F 
ATOM     73  C   UNL     1      -0.975   9.394 -11.602  1.00  0.00     0.040 A 
ATOM     74  C   UNL     1      -2.793   7.843 -11.902  1.00  0.00     0.040 A 
ATOM     75  F   UNL     1      -2.465   5.871 -13.133  1.00  0.00    -0.206 F 
ATOM     76  C   UNL     1      -2.300   9.032 -11.368  1.00  0.00     0.006 A 
ENDBRANCH  55  69
BRANCH  56  77
ATOM     77  C   UNL     1       5.423   1.177 -17.859  1.00  0.00     0.057 A 
ATOM     78  C   UNL     1       6.386   1.683 -18.739  1.00  0.00     0.134 A 
ATOM     79  C   UNL     1       5.345  -0.213 -17.715  1.00  0.00     0.134 A 
ATOM     80  F   UNL     1       6.494   3.006 -18.932  1.00  0.00    -0.206 F 
ATOM     81  C   UNL     1       7.234   0.840 -19.459  1.00  0.00     0.040 A 
ATOM     82  C   UNL     1       6.199  -1.067 -18.414  1.00  0.00     0.040 A 
ATOM     83  F   UNL     1       4.446  -0.758 -16.882  1.00  0.00    -0.206 F 
ATOM     84  C   UNL     1       7.144  -0.540 -19.293  1.00  0.00     0.006 A 
ENDBRANCH  56  77
BRANCH  68  85
ATOM     85  C   UNL     1       0.108   5.237 -19.758  1.00  0.00     0.057 A 
ATOM     86  C   UNL     1      -0.765   4.314 -20.345  1.00  0.00     0.134 A 
ATOM     87  C   UNL     1       0.333   6.441 -20.435  1.00  0.00     0.134 A 
ATOM     88  F   UNL     1      -1.008   3.135 -19.752  1.00  0.00    -0.206 F 
ATOM     89  C   UNL     1      -1.383   4.574 -21.569  1.00  0.00     0.040 A 
ATOM     90  C   UNL     1      -0.295   6.722 -21.649  1.00  0.00     0.040 A 
ATOM     91  F   UNL     1       1.155   7.368 -19.922  1.00  0.00    -0.206 F 
ATOM     92  C   UNL     1      -1.153   5.785 -22.221  1.00  0.00     0.006 A 
ENDBRANCH  68  85
ENDBRANCH  42  43
ENDBRANCH  34  37
ENDBRANCH  32  33
ENDBRANCH  31  32
ENDBRANCH  30  31
ENDBRANCH   1  30
TORSDOF 17
