REMARK SMILES Cc1ccnc(C(=O)c2[nH]c3cc(Cl)c(F)cc3c2CC(=O)NCCCCNC(=O)c2ccc(-c3c4nc(c(-c5c(F)cccc5F)c5ccc([nH]5)c(-c5c(F)cccc5F)c5nc(c(-c6c(F)cccc6F)c6ccc3[nH]6)C=C5)C=C4)cc2)c1
REMARK SMILES IDX 25 1 24 2 23 3 21 4 22 5 20 7 19 8 9 9 10 10 11 11 18 13
REMARK SMILES IDX 12 14 17 15 13 16 15 17 14 18 16 19 7 20 8 21 6 22 1 23 2 24
REMARK SMILES IDX 3 25 85 26 4 27 5 28 26 29 27 30 28 31 29 32 30 34 31 35
REMARK SMILES IDX 32 36 84 37 33 38 83 39 34 40 35 41 36 42 77 43 37 44 82 45
REMARK SMILES IDX 76 46 78 47 38 48 81 49 75 50 74 51 39 53 65 54 48 55 64 56
REMARK SMILES IDX 49 57 52 58 63 59 79 60 50 61 51 62 62 64 80 65 53 66 40 67
REMARK SMILES IDX 41 68 46 69 42 70 43 71 45 72 47 73 44 74 66 75 67 76 72 77
REMARK SMILES IDX 68 78 69 79 71 80 73 81 70 82 54 83 55 84 60 85 56 86 57 87
REMARK SMILES IDX 59 88 61 89 58 90
REMARK H PARENT 23 6 10 12 28 33 78 52 52 63
REMARK Flexibility Score: inf
ROOT
ATOM      1  C   UNL     1      -2.807  -3.627   0.827  1.00  0.00     0.023 C 
ENDROOT
BRANCH   1   2
ATOM      2  C   UNL     1      -2.963  -3.576  -0.705  1.00  0.00     0.116 C 
BRANCH   2   3
ATOM      3  N   UNL     1      -2.333  -2.461  -1.386  1.00  0.00    -0.356 N 
ATOM      4  C   UNL     1      -1.183  -2.380  -2.117  1.00  0.00     0.224 C 
ATOM      5  O   UNL     1      -0.991  -1.331  -2.741  1.00  0.00    -0.275 OA
ATOM      6  H   UNL     1      -2.823  -1.610  -1.307  1.00  0.00     0.163 HD
BRANCH   4   7
ATOM      7  C   UNL     1      -0.195  -3.522  -2.227  1.00  0.00     0.138 C 
BRANCH   7   8
ATOM      8  C   UNL     1       0.226  -4.154  -0.935  1.00  0.00    -0.002 A 
ATOM      9  C   UNL     1       1.060  -3.654   0.067  1.00  0.00     0.093 A 
ATOM     10  N   UNL     1       1.241  -4.685   0.972  1.00  0.00    -0.351 N 
ATOM     11  C   UNL     1       0.446  -5.764   0.676  1.00  0.00     0.048 A 
ATOM     12  H   UNL     1       1.863  -4.650   1.734  1.00  0.00     0.167 HD
ATOM     13  C   UNL     1      -0.144  -5.496  -0.554  1.00  0.00     0.007 A 
ATOM     14  C   UNL     1       0.221  -6.956   1.383  1.00  0.00     0.050 A 
ATOM     15  C   UNL     1      -0.963  -6.490  -1.136  1.00  0.00     0.051 A 
ATOM     16  C   UNL     1      -0.657  -7.889   0.818  1.00  0.00     0.078 A 
ATOM     17  C   UNL     1      -1.233  -7.659  -0.425  1.00  0.00     0.142 A 
ATOM     18  Cl  UNL     1      -1.025  -9.329   1.690  1.00  0.00    -0.081 Cl
ATOM     19  F   UNL     1      -2.087  -8.544  -0.962  1.00  0.00    -0.205 F 
BRANCH   9  20
ATOM     20  C   UNL     1       1.810  -2.407   0.244  1.00  0.00     0.227 C 
ATOM     21  O   UNL     1       3.002  -2.466   0.543  1.00  0.00    -0.285 OA
BRANCH  20  22
ATOM     22  C   UNL     1       1.146  -1.048   0.192  1.00  0.00     0.113 A 
ATOM     23  C   UNL     1      -2.271   0.634   0.229  1.00  0.00     0.044 C 
ATOM     24  C   UNL     1      -0.790   0.398   0.230  1.00  0.00    -0.047 A 
ATOM     25  C   UNL     1       0.062   1.478   0.030  1.00  0.00     0.023 A 
ATOM     26  C   UNL     1      -0.221  -0.874   0.385  1.00  0.00     0.036 A 
ATOM     27  C   UNL     1       1.421   1.237  -0.061  1.00  0.00     0.112 A 
ATOM     28  N   UNL     1       1.978   0.008   0.000  1.00  0.00    -0.253 NA
ENDBRANCH  20  22
ENDBRANCH   9  20
ENDBRANCH   7   8
ENDBRANCH   4   7
ENDBRANCH   2   3
ENDBRANCH   1   2
BRANCH   1  29
ATOM     29  C   UNL     1      -3.509  -2.547   1.669  1.00  0.00     0.023 C 
BRANCH  29  30
ATOM     30  C   UNL     1      -4.896  -2.157   1.181  1.00  0.00     0.116 C 
BRANCH  30  31
ATOM     31  N   UNL     1      -5.825  -3.262   1.237  1.00  0.00    -0.352 N 
ATOM     32  C   UNL     1      -6.759  -3.691   2.129  1.00  0.00     0.251 C 
ATOM     33  H   UNL     1      -5.769  -3.841   0.442  1.00  0.00     0.163 HD
ATOM     34  O   UNL     1      -7.432  -4.665   1.764  1.00  0.00    -0.269 OA
BRANCH  32  35
ATOM     35  C   UNL     1      -6.955  -3.168   3.507  1.00  0.00     0.039 A 
ATOM     36  C   UNL     1      -6.374  -2.029   4.064  1.00  0.00     0.014 A 
ATOM     37  C   UNL     1      -7.772  -3.967   4.327  1.00  0.00     0.014 A 
ATOM     38  C   UNL     1      -6.413  -1.838   5.446  1.00  0.00     0.010 A 
ATOM     39  C   UNL     1      -7.876  -3.737   5.688  1.00  0.00     0.010 A 
ATOM     40  C   UNL     1      -7.093  -2.752   6.265  1.00  0.00    -0.014 A 
BRANCH  40  41
ATOM     41  C   UNL     1      -7.179  -2.534   7.710  1.00  0.00     0.031 A 
ATOM     42  C   UNL     1      -7.828  -1.224   8.000  1.00  0.00     0.074 A 
ATOM     43  C   UNL     1      -6.809  -3.449   8.644  1.00  0.00     0.049 A 
ATOM     44  N   UNL     1      -7.249  -0.168   8.465  1.00  0.00    -0.248 NA
ATOM     45  C   UNL     1      -9.188  -0.967   7.489  1.00  0.00     0.031 C 
ATOM     46  C   UNL     1      -6.313  -4.817   8.439  1.00  0.00     0.029 A 
ATOM     47  N   UNL     1      -6.833  -3.363  10.017  1.00  0.00    -0.354 N 
ATOM     48  C   UNL     1      -8.241   0.805   8.554  1.00  0.00     0.074 A 
ATOM     49  C   UNL     1      -9.344   0.331   7.766  1.00  0.00     0.031 C 
ATOM     50  C   UNL     1      -6.308  -5.499   9.612  1.00  0.00     0.029 A 
ATOM     51  C   UNL     1      -6.649  -4.591  10.690  1.00  0.00     0.049 A 
ATOM     52  H   UNL     1      -6.968  -2.512  10.493  1.00  0.00     0.167 HD
ATOM     53  C   UNL     1      -8.161   1.767   9.514  1.00  0.00     0.037 A 
ATOM     54  C   UNL     1      -6.727  -4.808  12.037  1.00  0.00     0.037 A 
ATOM     55  C   UNL     1      -6.815   1.839  10.029  1.00  0.00     0.049 A 
ATOM     56  C   UNL     1      -6.524  -3.492  12.676  1.00  0.00     0.074 A 
ATOM     57  C   UNL     1      -5.587   2.240   9.549  1.00  0.00     0.029 A 
ATOM     58  N   UNL     1      -6.577   0.995  11.079  1.00  0.00    -0.354 N 
ATOM     59  N   UNL     1      -5.392  -2.850  12.640  1.00  0.00    -0.248 NA
ATOM     60  C   UNL     1      -7.709  -2.695  12.925  1.00  0.00     0.031 C 
ATOM     61  C   UNL     1      -4.641   1.340  10.128  1.00  0.00     0.029 A 
ATOM     62  C   UNL     1      -5.306   0.500  11.021  1.00  0.00     0.049 A 
ATOM     63  H   UNL     1      -7.232   0.774  11.780  1.00  0.00     0.167 HD
ATOM     64  C   UNL     1      -5.758  -1.539  12.392  1.00  0.00     0.074 A 
ATOM     65  C   UNL     1      -7.198  -1.490  12.669  1.00  0.00     0.031 C 
ATOM     66  C   UNL     1      -4.919  -0.719  11.693  1.00  0.00     0.037 A 
BRANCH  53  67
ATOM     67  C   UNL     1      -9.349   2.237  10.330  1.00  0.00     0.057 A 
ATOM     68  C   UNL     1      -9.168   3.264  11.275  1.00  0.00     0.134 A 
ATOM     69  C   UNL     1     -10.566   1.533  10.449  1.00  0.00     0.134 A 
ATOM     70  F   UNL     1      -8.036   3.984  11.300  1.00  0.00    -0.206 F 
ATOM     71  C   UNL     1     -10.105   3.538  12.281  1.00  0.00     0.040 A 
ATOM     72  C   UNL     1     -11.528   1.827  11.420  1.00  0.00     0.040 A 
ATOM     73  F   UNL     1     -10.852   0.458   9.706  1.00  0.00    -0.206 F 
ATOM     74  C   UNL     1     -11.291   2.818  12.357  1.00  0.00     0.006 A 
ENDBRANCH  53  67
BRANCH  54  75
ATOM     75  C   UNL     1      -7.309  -5.922  12.845  1.00  0.00     0.057 A 
ATOM     76  C   UNL     1      -7.103  -6.008  14.240  1.00  0.00     0.134 A 
ATOM     77  C   UNL     1      -8.371  -6.690  12.347  1.00  0.00     0.134 A 
ATOM     78  F   UNL     1      -6.143  -5.283  14.833  1.00  0.00    -0.206 F 
ATOM     79  C   UNL     1      -7.931  -6.768  15.085  1.00  0.00     0.040 A 
ATOM     80  C   UNL     1      -9.208  -7.450  13.180  1.00  0.00     0.040 A 
ATOM     81  F   UNL     1      -8.695  -6.640  11.048  1.00  0.00    -0.206 F 
ATOM     82  C   UNL     1      -9.003  -7.477  14.556  1.00  0.00     0.006 A 
ENDBRANCH  54  75
BRANCH  66  83
ATOM     83  C   UNL     1      -3.500  -1.183  11.492  1.00  0.00     0.057 A 
ATOM     84  C   UNL     1      -3.105  -2.245  10.663  1.00  0.00     0.134 A 
ATOM     85  C   UNL     1      -2.481  -0.414  12.062  1.00  0.00     0.134 A 
ATOM     86  F   UNL     1      -4.007  -2.993  10.014  1.00  0.00    -0.206 F 
ATOM     87  C   UNL     1      -1.753  -2.535  10.430  1.00  0.00     0.040 A 
ATOM     88  C   UNL     1      -1.132  -0.672  11.814  1.00  0.00     0.040 A 
ATOM     89  F   UNL     1      -2.787   0.643  12.830  1.00  0.00    -0.206 F 
ATOM     90  C   UNL     1      -0.763  -1.739  11.000  1.00  0.00     0.006 A 
ENDBRANCH  66  83
ENDBRANCH  40  41
ENDBRANCH  32  35
ENDBRANCH  30  31
ENDBRANCH  29  30
ENDBRANCH   1  29
TORSDOF 14
