REMARK SMILES [NH3+][C@]1(C(=O)NCCCCNC(=O)c2ccc(-c3c4nc(c(-c5c(F)cccc5F)c5ccc([nH]5)c(-c5c(F)cccc5F)c5nc(c(-c6c(F)cccc6F)c6ccc3[nH]6)C=C5)C=C4)cc2)CCC[C@@H](Oc2ccc3c(c2)CCC3)C1
REMARK SMILES IDX 7 1 6 2 5 3 3 4 4 5 2 7 67 8 81 9 68 10 70 11 69 12 1 13
REMARK SMILES IDX 71 17 72 18 73 19 77 20 74 21 76 22 75 23 78 24 80 25 79 26
REMARK SMILES IDX 8 27 9 28 10 29 11 30 12 32 13 33 14 34 66 35 15 36 65 37
REMARK SMILES IDX 16 38 17 39 18 40 59 41 19 42 64 43 58 44 60 45 20 46 63 47
REMARK SMILES IDX 57 48 56 49 21 51 47 52 30 53 46 54 31 55 34 56 45 57 61 58
REMARK SMILES IDX 32 59 33 60 44 62 62 63 35 64 22 65 23 66 28 67 24 68 25 69
REMARK SMILES IDX 27 70 29 71 26 72 48 73 49 74 54 75 50 76 51 77 53 78 55 79
REMARK SMILES IDX 52 80 36 81 37 82 42 83 38 84 39 85 41 86 43 87 40 88
REMARK H PARENT 5 6 1 14 1 15 1 16 10 31 60 50 34 61
REMARK Flexibility Score: inf
ROOT
ATOM      1  C   UNL     1      -1.786   3.525  -1.887  1.00  0.00     0.023 C 
ENDROOT
BRANCH   1   2
ATOM      2  C   UNL     1      -2.694   2.561  -1.096  1.00  0.00     0.116 C 
BRANCH   2   3
ATOM      3  N   UNL     1      -2.576   1.129  -1.344  1.00  0.00    -0.351 N 
ATOM      4  C   UNL     1      -1.938   0.082  -0.717  1.00  0.00     0.281 C 
ATOM      5  O   UNL     1      -2.260  -1.048  -1.103  1.00  0.00    -0.268 OA
ATOM      6  H   UNL     1      -3.067   0.845  -2.149  1.00  0.00     0.163 HD
BRANCH   4   7
ATOM      7  C   UNL     1      -0.953   0.277   0.486  1.00  0.00     0.177 C 
ATOM      8  C   UNL     1      -0.308  -1.064   0.940  1.00  0.00     0.079 C 
ATOM      9  C   UNL     1       0.148   1.331   0.258  1.00  0.00     0.124 C 
ATOM     10  C   UNL     1       0.917  -1.510   0.141  1.00  0.00     0.011 C 
ATOM     11  C   UNL     1       1.425   0.889  -0.501  1.00  0.00     0.180 C 
ATOM     12  C   UNL     1       1.978  -0.423   0.043  1.00  0.00     0.046 C 
BRANCH   7  13
ATOM     13  N   UNL     1      -1.827   0.658   1.636  1.00  0.00    -0.345 N 
ATOM     14  H   UNL     1      -2.546  -0.054   1.766  1.00  0.00     0.345 HD
ATOM     15  H   UNL     1      -2.270   1.556   1.443  1.00  0.00     0.345 HD
ATOM     16  H   UNL     1      -1.264   0.731   2.482  1.00  0.00     0.345 HD
ENDBRANCH   7  13
BRANCH  11  17
ATOM     17  O   UNL     1       1.449   1.071  -1.933  1.00  0.00    -0.490 OA
BRANCH  17  18
ATOM     18  C   UNL     1       0.945   0.102  -2.746  1.00  0.00     0.120 A 
ATOM     19  C   UNL     1       1.687  -0.995  -3.191  1.00  0.00     0.047 A 
ATOM     20  C   UNL     1      -0.330   0.296  -3.247  1.00  0.00     0.050 A 
ATOM     21  C   UNL     1       1.086  -1.976  -4.002  1.00  0.00     0.008 A 
ATOM     22  C   UNL     1      -0.942  -0.680  -4.007  1.00  0.00    -0.041 A 
ATOM     23  C   UNL     1      -0.242  -1.822  -4.374  1.00  0.00    -0.045 A 
ATOM     24  C   UNL     1      -2.382  -0.759  -4.402  1.00  0.00     0.036 C 
ATOM     25  C   UNL     1      -1.150  -2.783  -5.077  1.00  0.00     0.036 C 
ATOM     26  C   UNL     1      -2.349  -1.886  -5.436  1.00  0.00     0.010 C 
ENDBRANCH  17  18
ENDBRANCH  11  17
ENDBRANCH   4   7
ENDBRANCH   2   3
ENDBRANCH   1   2
BRANCH   1  27
ATOM     27  C   UNL     1      -1.879   3.639  -3.412  1.00  0.00     0.023 C 
BRANCH  27  28
ATOM     28  C   UNL     1      -3.261   3.625  -4.033  1.00  0.00     0.116 C 
BRANCH  28  29
ATOM     29  N   UNL     1      -4.056   4.766  -3.626  1.00  0.00    -0.352 N 
ATOM     30  C   UNL     1      -4.616   5.774  -4.374  1.00  0.00     0.251 C 
ATOM     31  H   UNL     1      -4.223   4.830  -2.658  1.00  0.00     0.163 HD
ATOM     32  O   UNL     1      -5.100   6.743  -3.798  1.00  0.00    -0.269 OA
BRANCH  30  33
ATOM     33  C   UNL     1      -4.624   5.725  -5.857  1.00  0.00     0.039 A 
ATOM     34  C   UNL     1      -4.431   6.918  -6.563  1.00  0.00     0.014 A 
ATOM     35  C   UNL     1      -4.860   4.542  -6.562  1.00  0.00     0.014 A 
ATOM     36  C   UNL     1      -4.416   6.914  -7.961  1.00  0.00     0.010 A 
ATOM     37  C   UNL     1      -4.765   4.524  -7.954  1.00  0.00     0.010 A 
ATOM     38  C   UNL     1      -4.546   5.710  -8.670  1.00  0.00    -0.014 A 
BRANCH  38  39
ATOM     39  C   UNL     1      -4.455   5.675 -10.155  1.00  0.00     0.031 A 
ATOM     40  C   UNL     1      -5.633   5.237 -10.982  1.00  0.00     0.074 A 
ATOM     41  C   UNL     1      -3.289   5.980 -10.759  1.00  0.00     0.049 A 
ATOM     42  N   UNL     1      -5.718   5.073 -12.279  1.00  0.00    -0.248 NA
ATOM     43  C   UNL     1      -6.872   4.920 -10.256  1.00  0.00     0.031 C 
ATOM     44  C   UNL     1      -2.061   6.383 -10.073  1.00  0.00     0.029 A 
ATOM     45  N   UNL     1      -2.944   5.987 -12.088  1.00  0.00    -0.354 N 
ATOM     46  C   UNL     1      -7.011   4.623 -12.521  1.00  0.00     0.074 A 
ATOM     47  C   UNL     1      -7.657   4.491 -11.233  1.00  0.00     0.031 C 
ATOM     48  C   UNL     1      -1.104   6.617 -10.985  1.00  0.00     0.029 A 
ATOM     49  C   UNL     1      -1.635   6.338 -12.315  1.00  0.00     0.049 A 
ATOM     50  H   UNL     1      -3.574   5.762 -12.810  1.00  0.00     0.167 HD
ATOM     51  C   UNL     1      -7.611   4.362 -13.707  1.00  0.00     0.037 A 
ATOM     52  C   UNL     1      -0.935   6.414 -13.464  1.00  0.00     0.037 A 
ATOM     53  C   UNL     1      -6.973   4.510 -14.989  1.00  0.00     0.049 A 
ATOM     54  C   UNL     1      -1.617   6.094 -14.766  1.00  0.00     0.074 A 
ATOM     55  C   UNL     1      -7.516   4.324 -16.249  1.00  0.00     0.029 A 
ATOM     56  N   UNL     1      -5.647   4.874 -15.177  1.00  0.00    -0.354 N 
ATOM     57  N   UNL     1      -2.858   5.733 -14.982  1.00  0.00    -0.248 NA
ATOM     58  C   UNL     1      -0.800   6.196 -15.984  1.00  0.00     0.031 C 
ATOM     59  C   UNL     1      -6.507   4.523 -17.196  1.00  0.00     0.029 A 
ATOM     60  C   UNL     1      -5.349   4.890 -16.530  1.00  0.00     0.049 A 
ATOM     61  H   UNL     1      -5.013   5.088 -14.455  1.00  0.00     0.167 HD
ATOM     62  C   UNL     1      -2.979   5.594 -16.360  1.00  0.00     0.074 A 
ATOM     63  C   UNL     1      -1.689   5.924 -16.928  1.00  0.00     0.031 C 
ATOM     64  C   UNL     1      -4.063   5.228 -17.086  1.00  0.00     0.037 A 
BRANCH  51  65
ATOM     65  C   UNL     1      -9.036   3.887 -13.675  1.00  0.00     0.057 A 
ATOM     66  C   UNL     1     -10.090   4.732 -13.301  1.00  0.00     0.134 A 
ATOM     67  C   UNL     1      -9.364   2.581 -14.062  1.00  0.00     0.134 A 
ATOM     68  F   UNL     1      -9.846   5.992 -12.911  1.00  0.00    -0.206 F 
ATOM     69  C   UNL     1     -11.413   4.287 -13.285  1.00  0.00     0.040 A 
ATOM     70  C   UNL     1     -10.686   2.134 -14.079  1.00  0.00     0.040 A 
ATOM     71  F   UNL     1      -8.406   1.722 -14.440  1.00  0.00    -0.206 F 
ATOM     72  C   UNL     1     -11.715   2.986 -13.683  1.00  0.00     0.006 A 
ENDBRANCH  51  65
BRANCH  52  73
ATOM     73  C   UNL     1       0.493   6.821 -13.439  1.00  0.00     0.057 A 
ATOM     74  C   UNL     1       0.904   8.049 -13.972  1.00  0.00     0.134 A 
ATOM     75  C   UNL     1       1.482   5.992 -12.896  1.00  0.00     0.134 A 
ATOM     76  F   UNL     1       0.007   8.879 -14.524  1.00  0.00    -0.206 F 
ATOM     77  C   UNL     1       2.247   8.428 -13.986  1.00  0.00     0.040 A 
ATOM     78  C   UNL     1       2.825   6.370 -12.878  1.00  0.00     0.040 A 
ATOM     79  F   UNL     1       1.154   4.805 -12.365  1.00  0.00    -0.206 F 
ATOM     80  C   UNL     1       3.212   7.589 -13.432  1.00  0.00     0.006 A 
ENDBRANCH  52  73
BRANCH  64  81
ATOM     81  C   UNL     1      -3.915   5.201 -18.581  1.00  0.00     0.057 A 
ATOM     82  C   UNL     1      -3.159   4.220 -19.234  1.00  0.00     0.134 A 
ATOM     83  C   UNL     1      -4.572   6.147 -19.378  1.00  0.00     0.134 A 
ATOM     84  F   UNL     1      -2.493   3.292 -18.530  1.00  0.00    -0.206 F 
ATOM     85  C   UNL     1      -3.044   4.194 -20.626  1.00  0.00     0.040 A 
ATOM     86  C   UNL     1      -4.489   6.115 -20.770  1.00  0.00     0.040 A 
ATOM     87  F   UNL     1      -5.320   7.109 -18.817  1.00  0.00    -0.206 F 
ATOM     88  C   UNL     1      -3.717   5.139 -21.398  1.00  0.00     0.006 A 
ENDBRANCH  64  81
ENDBRANCH  38  39
ENDBRANCH  30  33
ENDBRANCH  28  29
ENDBRANCH  27  28
ENDBRANCH   1  27
TORSDOF 14
