REMARK SMILES Cc1ncccc1C(=O)Nc1cnccc1C(=O)NCCCCNC(=O)c1ccc(-c2c3nc(c(-c4c(F)cccc4F)c4ccc([nH]4)c(-c4c(F)cccc4F)c4nc(c(-c5c(F)cccc5F)c5ccc2[nH]5)C=C4)C=C3)cc1
REMARK SMILES IDX 21 1 20 2 19 3 17 4 18 5 16 7 11 8 12 9 13 10 15 11 14 12
REMARK SMILES IDX 10 13 8 14 9 15 7 17 1 18 2 19 3 20 4 21 6 22 5 23 22 24
REMARK SMILES IDX 23 25 24 26 25 27 26 29 27 30 28 31 80 32 29 33 79 34 30 35
REMARK SMILES IDX 31 36 32 37 73 38 33 39 78 40 72 41 74 42 34 43 77 44 71 45
REMARK SMILES IDX 70 46 35 48 61 49 44 50 60 51 45 52 48 53 59 54 75 55 46 56
REMARK SMILES IDX 47 57 58 59 76 60 49 61 36 62 37 63 42 64 38 65 39 66 41 67
REMARK SMILES IDX 43 68 40 69 62 70 63 71 68 72 64 73 65 74 67 75 69 76 66 77
REMARK SMILES IDX 50 78 51 79 56 80 52 81 53 82 55 83 57 84 54 85
REMARK H PARENT 19 6 10 16 24 28 74 47 48 58
REMARK Flexibility Score: inf
ROOT
ATOM      1  C   UNL     1       1.527  -4.409   2.834  1.00  0.00     0.023 C 
ENDROOT
BRANCH   1   2
ATOM      2  C   UNL     1       1.729  -3.309   1.798  1.00  0.00     0.116 C 
BRANCH   2   3
ATOM      3  N   UNL     1       1.394  -1.978   2.266  1.00  0.00    -0.352 N 
ATOM      4  C   UNL     1       1.935  -0.760   1.932  1.00  0.00     0.253 C 
ATOM      5  O   UNL     1       1.484   0.248   2.475  1.00  0.00    -0.269 OA
ATOM      6  H   UNL     1       0.664  -1.942   2.926  1.00  0.00     0.163 HD
BRANCH   4   7
ATOM      7  C   UNL     1       3.111  -0.625   1.036  1.00  0.00     0.066 A 
ATOM      8  C   UNL     1       3.336  -1.293  -0.172  1.00  0.00     0.072 A 
ATOM      9  C   UNL     1       4.628  -1.204  -0.701  1.00  0.00     0.137 A 
ATOM     10  N   UNL     1       5.615  -0.418  -0.219  1.00  0.00    -0.263 NA
ATOM     11  C   UNL     1       4.111   0.234   1.529  1.00  0.00     0.036 A 
ATOM     12  C   UNL     1       5.321   0.318   0.866  1.00  0.00     0.112 A 
BRANCH   8  13
ATOM     13  N   UNL     1       2.421  -2.022  -0.954  1.00  0.00    -0.320 N 
ATOM     14  C   UNL     1       1.068  -1.925  -1.157  1.00  0.00     0.257 C 
ATOM     15  O   UNL     1       0.512  -2.865  -1.729  1.00  0.00    -0.269 OA
ATOM     16  H   UNL     1       2.840  -2.755  -1.461  1.00  0.00     0.170 HD
BRANCH  14  17
ATOM     17  C   UNL     1       0.244  -0.760  -0.776  1.00  0.00     0.061 A 
ATOM     18  C   UNL     1       1.797   1.043  -1.730  1.00  0.00     0.067 C 
ATOM     19  C   UNL     1       0.551   0.577  -1.042  1.00  0.00     0.050 A 
ATOM     20  N   UNL     1      -0.304   1.588  -0.716  1.00  0.00    -0.261 NA
ATOM     21  C   UNL     1      -1.497   1.268  -0.170  1.00  0.00     0.111 A 
ATOM     22  C   UNL     1      -1.025  -1.053  -0.251  1.00  0.00     0.017 A 
ATOM     23  C   UNL     1      -1.908  -0.028   0.062  1.00  0.00     0.021 A 
ENDBRANCH  14  17
ENDBRANCH   8  13
ENDBRANCH   4   7
ENDBRANCH   2   3
ENDBRANCH   1   2
BRANCH   1  24
ATOM     24  C   UNL     1       0.094  -4.629   3.320  1.00  0.00     0.023 C 
BRANCH  24  25
ATOM     25  C   UNL     1      -0.987  -4.723   2.247  1.00  0.00     0.116 C 
BRANCH  25  26
ATOM     26  N   UNL     1      -0.767  -5.780   1.271  1.00  0.00    -0.352 N 
ATOM     27  C   UNL     1      -1.535  -6.882   0.966  1.00  0.00     0.251 C 
ATOM     28  H   UNL     1       0.062  -5.694   0.746  1.00  0.00     0.163 HD
ATOM     29  O   UNL     1      -1.130  -7.720   0.172  1.00  0.00    -0.269 OA
BRANCH  27  30
ATOM     30  C   UNL     1      -2.839  -7.078   1.637  1.00  0.00     0.039 A 
ATOM     31  C   UNL     1      -3.117  -8.315   2.223  1.00  0.00     0.014 A 
ATOM     32  C   UNL     1      -3.766  -6.037   1.720  1.00  0.00     0.014 A 
ATOM     33  C   UNL     1      -4.274  -8.473   2.989  1.00  0.00     0.010 A 
ATOM     34  C   UNL     1      -4.875  -6.169   2.551  1.00  0.00     0.010 A 
ATOM     35  C   UNL     1      -5.133  -7.383   3.208  1.00  0.00    -0.014 A 
BRANCH  35  36
ATOM     36  C   UNL     1      -6.284  -7.480   4.144  1.00  0.00     0.031 A 
ATOM     37  C   UNL     1      -7.688  -7.282   3.644  1.00  0.00     0.074 A 
ATOM     38  C   UNL     1      -6.059  -7.660   5.461  1.00  0.00     0.049 A 
ATOM     39  N   UNL     1      -8.807  -7.238   4.321  1.00  0.00    -0.248 NA
ATOM     40  C   UNL     1      -7.852  -7.076   2.197  1.00  0.00     0.031 C 
ATOM     41  C   UNL     1      -4.741  -7.806   6.085  1.00  0.00     0.029 A 
ATOM     42  N   UNL     1      -6.933  -7.739   6.516  1.00  0.00    -0.354 N 
ATOM     43  C   UNL     1      -9.803  -6.981   3.387  1.00  0.00     0.074 A 
ATOM     44  C   UNL     1      -9.150  -6.826   2.105  1.00  0.00     0.031 C 
ATOM     45  C   UNL     1      -4.897  -7.981   7.407  1.00  0.00     0.029 A 
ATOM     46  C   UNL     1      -6.318  -7.923   7.731  1.00  0.00     0.049 A 
ATOM     47  H   UNL     1      -7.910  -7.670   6.412  1.00  0.00     0.167 HD
ATOM     48  C   UNL     1     -11.142  -6.905   3.575  1.00  0.00     0.037 A 
ATOM     49  C   UNL     1      -6.839  -8.026   8.969  1.00  0.00     0.037 A 
ATOM     50  C   UNL     1     -11.795  -7.092   4.843  1.00  0.00     0.049 A 
ATOM     51  C   UNL     1      -8.330  -7.949   9.149  1.00  0.00     0.074 A 
ATOM     52  C   UNL     1     -13.151  -7.100   5.122  1.00  0.00     0.029 A 
ATOM     53  N   UNL     1     -11.139  -7.308   6.045  1.00  0.00    -0.354 N 
ATOM     54  N   UNL     1      -9.264  -7.774   8.245  1.00  0.00    -0.248 NA
ATOM     55  C   UNL     1      -8.840  -8.089  10.520  1.00  0.00     0.031 C 
ATOM     56  C   UNL     1     -13.314  -7.284   6.499  1.00  0.00     0.029 A 
ATOM     57  C   UNL     1     -12.061  -7.434   7.071  1.00  0.00     0.049 A 
ATOM     58  H   UNL     1     -10.162  -7.364   6.154  1.00  0.00     0.167 HD
ATOM     59  C   UNL     1     -10.470  -7.812   8.933  1.00  0.00     0.074 A 
ATOM     60  C   UNL     1     -10.150  -8.040  10.327  1.00  0.00     0.031 C 
ATOM     61  C   UNL     1     -11.729  -7.672   8.452  1.00  0.00     0.037 A 
BRANCH  48  62
ATOM     62  C   UNL     1     -11.992  -6.618   2.372  1.00  0.00     0.057 A 
ATOM     63  C   UNL     1     -12.177  -7.566   1.358  1.00  0.00     0.134 A 
ATOM     64  C   UNL     1     -12.658  -5.393   2.241  1.00  0.00     0.134 A 
ATOM     65  F   UNL     1     -11.557  -8.755   1.417  1.00  0.00    -0.206 F 
ATOM     66  C   UNL     1     -12.972  -7.297   0.243  1.00  0.00     0.040 A 
ATOM     67  C   UNL     1     -13.478  -5.122   1.144  1.00  0.00     0.040 A 
ATOM     68  F   UNL     1     -12.529  -4.442   3.179  1.00  0.00    -0.206 F 
ATOM     69  C   UNL     1     -13.631  -6.074   0.137  1.00  0.00     0.006 A 
ENDBRANCH  48  62
BRANCH  49  70
ATOM     70  C   UNL     1      -5.950  -8.243  10.138  1.00  0.00     0.057 A 
ATOM     71  C   UNL     1      -5.930  -9.472  10.809  1.00  0.00     0.134 A 
ATOM     72  C   UNL     1      -5.114  -7.230  10.622  1.00  0.00     0.134 A 
ATOM     73  F   UNL     1      -6.724 -10.474  10.403  1.00  0.00    -0.206 F 
ATOM     74  C   UNL     1      -5.128  -9.679  11.932  1.00  0.00     0.040 A 
ATOM     75  C   UNL     1      -4.288  -7.432  11.729  1.00  0.00     0.040 A 
ATOM     76  F   UNL     1      -5.081  -6.033  10.019  1.00  0.00    -0.206 F 
ATOM     77  C   UNL     1      -4.301  -8.657  12.393  1.00  0.00     0.006 A 
ENDBRANCH  49  70
BRANCH  61  78
ATOM     78  C   UNL     1     -12.856  -7.797   9.433  1.00  0.00     0.057 A 
ATOM     79  C   UNL     1     -13.141  -6.791  10.364  1.00  0.00     0.134 A 
ATOM     80  C   UNL     1     -13.691  -8.921   9.417  1.00  0.00     0.134 A 
ATOM     81  F   UNL     1     -12.370  -5.696  10.439  1.00  0.00    -0.206 F 
ATOM     82  C   UNL     1     -14.206  -6.908  11.259  1.00  0.00     0.040 A 
ATOM     83  C   UNL     1     -14.774  -9.039  10.290  1.00  0.00     0.040 A 
ATOM     84  F   UNL     1     -13.477  -9.917   8.544  1.00  0.00    -0.206 F 
ATOM     85  C   UNL     1     -15.030  -8.032  11.218  1.00  0.00     0.006 A 
ENDBRANCH  61  78
ENDBRANCH  35  36
ENDBRANCH  27  30
ENDBRANCH  25  26
ENDBRANCH  24  25
ENDBRANCH   1  24
TORSDOF 13
