REMARK SMILES C[C@H](CC(=O)NCCCCNC(=O)c1ccc(-c2c3nc(c(-c4c(F)cccc4F)c4ccc([nH]4)c(-c4c(F)cccc4F)c4nc(c(-c5c(F)cccc5F)c5ccc2[nH]5)C=C4)C=C3)cc1)[NH2+][C@H](C)c1ccccc1
REMARK SMILES IDX 7 1 6 2 4 3 5 4 3 6 2 7 1 8 68 9 69 12 70 13 71 14 72 15
REMARK SMILES IDX 76 16 73 17 75 18 74 19 8 20 9 21 10 22 11 23 12 24 13 26
REMARK SMILES IDX 14 27 15 28 67 29 16 30 66 31 17 32 18 33 19 34 60 35 20 36
REMARK SMILES IDX 65 37 59 38 61 39 21 40 64 41 58 42 57 43 22 45 48 46 31 47
REMARK SMILES IDX 47 48 32 49 35 50 46 51 62 52 33 53 34 54 45 56 63 57 36 58
REMARK SMILES IDX 23 59 24 60 29 61 25 62 26 63 28 64 30 65 27 66 49 67 50 68
REMARK SMILES IDX 55 69 51 70 52 71 54 72 56 73 53 74 37 75 38 76 43 77 39 78
REMARK SMILES IDX 40 79 42 80 44 81 41 82
REMARK H PARENT 6 5 68 10 68 11 11 25 61 44 35 55
REMARK Flexibility Score: inf
ROOT
ATOM      1  C   UNL     1      -1.107   5.644   1.339  1.00  0.00     0.116 C 
ENDROOT
BRANCH   1   2
ATOM      2  N   UNL     1      -1.175   5.662   2.784  1.00  0.00    -0.356 N 
ATOM      3  C   UNL     1      -0.833   4.704   3.691  1.00  0.00     0.225 C 
ATOM      4  O   UNL     1      -1.030   4.956   4.882  1.00  0.00    -0.275 OA
ATOM      5  H   UNL     1      -1.523   6.496   3.173  1.00  0.00     0.163 HD
BRANCH   3   6
ATOM      6  C   UNL     1      -0.207   3.384   3.259  1.00  0.00     0.164 C 
BRANCH   6   7
ATOM      7  C   UNL     1      -1.244   2.340   2.769  1.00  0.00     0.189 C 
ATOM      8  C   UNL     1      -1.151   2.156   1.256  1.00  0.00     0.075 C 
BRANCH   7   9
ATOM      9  N   UNL     1      -1.067   1.067   3.484  1.00  0.00    -0.338 N 
ATOM     10  H   UNL     1      -1.379   1.234   4.441  1.00  0.00     0.347 HD
ATOM     11  H   UNL     1      -0.084   0.862   3.304  1.00  0.00     0.347 HD
BRANCH   9  12
ATOM     12  C   UNL     1      -1.721  -0.187   3.053  1.00  0.00     0.210 C 
ATOM     13  C   UNL     1      -1.091  -0.840   1.808  1.00  0.00     0.081 C 
BRANCH  12  14
ATOM     14  C   UNL     1      -3.245  -0.292   3.041  1.00  0.00     0.009 A 
ATOM     15  C   UNL     1      -4.132   0.764   2.798  1.00  0.00     0.010 A 
ATOM     16  C   UNL     1      -3.818  -1.565   3.243  1.00  0.00     0.010 A 
ATOM     17  C   UNL     1      -5.520   0.577   2.800  1.00  0.00     0.001 A 
ATOM     18  C   UNL     1      -5.203  -1.761   3.230  1.00  0.00     0.001 A 
ATOM     19  C   UNL     1      -6.056  -0.684   3.018  1.00  0.00     0.000 A 
ENDBRANCH  12  14
ENDBRANCH   9  12
ENDBRANCH   7   9
ENDBRANCH   6   7
ENDBRANCH   3   6
ENDBRANCH   1   2
BRANCH   1  20
ATOM     20  C   UNL     1      -2.472   5.300   0.734  1.00  0.00     0.023 C 
BRANCH  20  21
ATOM     21  C   UNL     1      -3.329   6.512   0.378  1.00  0.00     0.023 C 
BRANCH  21  22
ATOM     22  C   UNL     1      -2.774   7.363  -0.760  1.00  0.00     0.116 C 
BRANCH  22  23
ATOM     23  N   UNL     1      -2.583   6.633  -2.008  1.00  0.00    -0.352 N 
ATOM     24  C   UNL     1      -2.693   7.104  -3.299  1.00  0.00     0.251 C 
ATOM     25  H   UNL     1      -2.344   5.683  -1.917  1.00  0.00     0.163 HD
ATOM     26  O   UNL     1      -2.561   6.358  -4.255  1.00  0.00    -0.269 OA
BRANCH  24  27
ATOM     27  C   UNL     1      -3.036   8.527  -3.498  1.00  0.00     0.039 A 
ATOM     28  C   UNL     1      -4.165   8.842  -4.258  1.00  0.00     0.014 A 
ATOM     29  C   UNL     1      -2.314   9.524  -2.839  1.00  0.00     0.014 A 
ATOM     30  C   UNL     1      -4.637  10.154  -4.266  1.00  0.00     0.010 A 
ATOM     31  C   UNL     1      -2.826  10.815  -2.790  1.00  0.00     0.010 A 
ATOM     32  C   UNL     1      -4.006  11.133  -3.481  1.00  0.00    -0.014 A 
BRANCH  32  33
ATOM     33  C   UNL     1      -4.596  12.483  -3.313  1.00  0.00     0.031 A 
ATOM     34  C   UNL     1      -3.858  13.695  -3.799  1.00  0.00     0.074 A 
ATOM     35  C   UNL     1      -5.750  12.616  -2.630  1.00  0.00     0.049 A 
ATOM     36  N   UNL     1      -4.161  14.958  -3.650  1.00  0.00    -0.248 NA
ATOM     37  C   UNL     1      -2.600  13.456  -4.523  1.00  0.00     0.031 C 
ATOM     38  C   UNL     1      -6.529  11.516  -2.058  1.00  0.00     0.029 A 
ATOM     39  N   UNL     1      -6.460  13.738  -2.285  1.00  0.00    -0.354 N 
ATOM     40  C   UNL     1      -3.127  15.665  -4.248  1.00  0.00     0.074 A 
ATOM     41  C   UNL     1      -2.165  14.692  -4.720  1.00  0.00     0.031 C 
ATOM     42  C   UNL     1      -7.616  12.016  -1.449  1.00  0.00     0.029 A 
ATOM     43  C   UNL     1      -7.591  13.471  -1.553  1.00  0.00     0.049 A 
ATOM     44  H   UNL     1      -6.184  14.649  -2.538  1.00  0.00     0.167 HD
ATOM     45  C   UNL     1      -3.002  17.003  -4.408  1.00  0.00     0.037 A 
ATOM     46  C   UNL     1      -8.499  14.306  -1.015  1.00  0.00     0.037 A 
ATOM     47  C   UNL     1      -3.973  17.965  -3.959  1.00  0.00     0.049 A 
ATOM     48  C   UNL     1      -8.331  15.787  -1.196  1.00  0.00     0.074 A 
ATOM     49  C   UNL     1      -3.977  19.337  -4.144  1.00  0.00     0.029 A 
ATOM     50  N   UNL     1      -5.111  17.656  -3.229  1.00  0.00    -0.354 N 
ATOM     51  N   UNL     1      -7.387  16.439  -1.830  1.00  0.00    -0.248 NA
ATOM     52  C   UNL     1      -9.352  16.649  -0.584  1.00  0.00     0.031 C 
ATOM     53  C   UNL     1      -5.097  19.862  -3.491  1.00  0.00     0.029 A 
ATOM     54  C   UNL     1      -5.810  18.814  -2.931  1.00  0.00     0.049 A 
ATOM     55  H   UNL     1      -5.382  16.748  -2.962  1.00  0.00     0.167 HD
ATOM     56  C   UNL     1      -7.705  17.784  -1.707  1.00  0.00     0.074 A 
ATOM     57  C   UNL     1      -8.941  17.855  -0.953  1.00  0.00     0.031 C 
ATOM     58  C   UNL     1      -7.034  18.865  -2.173  1.00  0.00     0.037 A 
BRANCH  45  59
ATOM     59  C   UNL     1      -1.773  17.502  -5.106  1.00  0.00     0.057 A 
ATOM     60  C   UNL     1      -1.587  17.327  -6.483  1.00  0.00     0.134 A 
ATOM     61  C   UNL     1      -0.779  18.191  -4.401  1.00  0.00     0.134 A 
ATOM     62  F   UNL     1      -2.496  16.662  -7.213  1.00  0.00    -0.206 F 
ATOM     63  C   UNL     1      -0.445  17.799  -7.131  1.00  0.00     0.040 A 
ATOM     64  C   UNL     1       0.356  18.689  -5.042  1.00  0.00     0.040 A 
ATOM     65  F   UNL     1      -0.897  18.395  -3.080  1.00  0.00    -0.206 F 
ATOM     66  C   UNL     1       0.528  18.489  -6.410  1.00  0.00     0.006 A 
ENDBRANCH  45  59
BRANCH  46  67
ATOM     67  C   UNL     1      -9.656  13.760  -0.262  1.00  0.00     0.057 A 
ATOM     68  C   UNL     1     -10.948  13.808  -0.797  1.00  0.00     0.134 A 
ATOM     69  C   UNL     1      -9.500  13.183   1.003  1.00  0.00     0.134 A 
ATOM     70  F   UNL     1     -11.161  14.367  -1.997  1.00  0.00    -0.206 F 
ATOM     71  C   UNL     1     -12.048  13.315  -0.094  1.00  0.00     0.040 A 
ATOM     72  C   UNL     1     -10.588  12.666   1.708  1.00  0.00     0.040 A 
ATOM     73  F   UNL     1      -8.286  13.102   1.566  1.00  0.00    -0.206 F 
ATOM     74  C   UNL     1     -11.868  12.737   1.161  1.00  0.00     0.006 A 
ENDBRANCH  46  67
BRANCH  58  75
ATOM     75  C   UNL     1      -7.626  20.211  -1.887  1.00  0.00     0.057 A 
ATOM     76  C   UNL     1      -7.563  20.783  -0.610  1.00  0.00     0.134 A 
ATOM     77  C   UNL     1      -8.233  20.958  -2.904  1.00  0.00     0.134 A 
ATOM     78  F   UNL     1      -7.007  20.111   0.409  1.00  0.00    -0.206 F 
ATOM     79  C   UNL     1      -8.097  22.046  -0.351  1.00  0.00     0.040 A 
ATOM     80  C   UNL     1      -8.751  22.230  -2.663  1.00  0.00     0.040 A 
ATOM     81  F   UNL     1      -8.320  20.467  -4.149  1.00  0.00    -0.206 F 
ATOM     82  C   UNL     1      -8.688  22.776  -1.382  1.00  0.00     0.006 A 
ENDBRANCH  58  75
ENDBRANCH  32  33
ENDBRANCH  24  27
ENDBRANCH  22  23
ENDBRANCH  21  22
ENDBRANCH  20  21
ENDBRANCH   1  20
TORSDOF 15
