REMARK SMILES O=C(NCCCCNC(=O)c1cc(-c2ccc(Cl)cc2)nc2c3c(C4CC4)cc(C(F)(F)F)nc3nn12)c1ccc(-c2c3nc(c(-c4c(F)cccc4F)c4ccc([nH]4)c(-c4c(F)cccc4F)c4nc(c(-c5c(F)cccc5F)c5ccc2[nH]5)C=C4)C=C3)cc1
REMARK SMILES IDX 5 1 4 2 3 3 1 4 2 5 38 7 39 8 91 9 40 10 90 11 41 12 42 13
REMARK SMILES IDX 43 14 84 15 44 16 89 17 83 18 85 19 45 20 88 21 82 22 81 23
REMARK SMILES IDX 46 25 72 26 55 27 71 28 56 29 59 30 70 31 86 32 57 33 58 34
REMARK SMILES IDX 69 36 87 37 60 38 47 39 48 40 53 41 49 42 50 43 52 44 54 45
REMARK SMILES IDX 51 46 73 47 74 48 79 49 75 50 76 51 78 52 80 53 77 54 61 55
REMARK SMILES IDX 62 56 67 57 63 58 64 59 66 60 68 61 65 62 6 63 7 64 8 65
REMARK SMILES IDX 9 66 10 68 11 69 12 70 37 71 13 72 22 73 36 74 21 75 23 76
REMARK SMILES IDX 35 77 24 78 34 79 28 80 29 81 14 82 15 83 20 84 16 85 19 86
REMARK SMILES IDX 17 87 18 88 25 89 26 90 27 91 30 92 31 93 32 94 33 95
REMARK H PARENT 3 6 85 24 59 35 8 67
REMARK Flexibility Score: inf
ROOT
ATOM      1  C   UNL     1       4.972  -2.374  -0.284  1.00  0.00     0.023 C 
ENDROOT
BRANCH   1   2
ATOM      2  C   UNL     1       4.764  -1.026  -0.967  1.00  0.00     0.116 C 
BRANCH   2   3
ATOM      3  N   UNL     1       3.418  -0.518  -0.772  1.00  0.00    -0.352 N 
ATOM      4  O   UNL     1       1.822   0.669   0.323  1.00  0.00    -0.269 OA
ATOM      5  C   UNL     1       2.996   0.401   0.164  1.00  0.00     0.251 C 
ATOM      6  H   UNL     1       2.727  -0.870  -1.379  1.00  0.00     0.163 HD
BRANCH   5   7
ATOM      7  C   UNL     1       4.033   1.040   0.995  1.00  0.00     0.039 A 
ATOM      8  C   UNL     1       4.973   1.886   0.397  1.00  0.00     0.014 A 
ATOM      9  C   UNL     1       4.113   0.706   2.346  1.00  0.00     0.014 A 
ATOM     10  C   UNL     1       6.047   2.349   1.146  1.00  0.00     0.010 A 
ATOM     11  C   UNL     1       5.179   1.189   3.099  1.00  0.00     0.010 A 
ATOM     12  C   UNL     1       6.154   2.004   2.501  1.00  0.00    -0.014 A 
BRANCH  12  13
ATOM     13  C   UNL     1       7.248   2.602   3.282  1.00  0.00     0.031 A 
ATOM     14  C   UNL     1       6.827   3.298   4.529  1.00  0.00     0.074 A 
ATOM     15  C   UNL     1       8.520   2.163   3.207  1.00  0.00     0.049 A 
ATOM     16  N   UNL     1       6.655   2.666   5.653  1.00  0.00    -0.248 NA
ATOM     17  C   UNL     1       6.328   4.672   4.533  1.00  0.00     0.031 C 
ATOM     18  C   UNL     1       8.901   0.798   2.829  1.00  0.00     0.029 A 
ATOM     19  N   UNL     1       9.687   2.731   3.661  1.00  0.00    -0.354 N 
ATOM     20  C   UNL     1       5.949   3.510   6.486  1.00  0.00     0.074 A 
ATOM     21  C   UNL     1       5.803   4.758   5.766  1.00  0.00     0.031 C 
ATOM     22  C   UNL     1      10.167   0.579   3.241  1.00  0.00     0.029 A 
ATOM     23  C   UNL     1      10.740   1.825   3.745  1.00  0.00     0.049 A 
ATOM     24  H   UNL     1       9.770   3.682   3.902  1.00  0.00     0.167 HD
ATOM     25  C   UNL     1       5.484   3.124   7.701  1.00  0.00     0.037 A 
ATOM     26  C   UNL     1      11.757   1.878   4.646  1.00  0.00     0.037 A 
ATOM     27  C   UNL     1       5.763   1.773   8.083  1.00  0.00     0.049 A 
ATOM     28  C   UNL     1      11.041   1.711   5.956  1.00  0.00     0.074 A 
ATOM     29  C   UNL     1       5.118   0.557   8.023  1.00  0.00     0.029 A 
ATOM     30  N   UNL     1       6.995   1.494   8.622  1.00  0.00    -0.354 N 
ATOM     31  N   UNL     1      10.680   0.576   6.488  1.00  0.00    -0.248 NA
ATOM     32  C   UNL     1      10.423   2.894   6.561  1.00  0.00     0.031 C 
ATOM     33  C   UNL     1       6.149  -0.430   8.110  1.00  0.00     0.029 A 
ATOM     34  C   UNL     1       7.361   0.256   8.156  1.00  0.00     0.049 A 
ATOM     35  H   UNL     1       7.516   2.070   9.227  1.00  0.00     0.167 HD
ATOM     36  C   UNL     1       9.590   0.882   7.305  1.00  0.00     0.074 A 
ATOM     37  C   UNL     1       9.509   2.327   7.337  1.00  0.00     0.031 C 
ATOM     38  C   UNL     1       8.708  -0.059   7.747  1.00  0.00     0.037 A 
BRANCH  25  39
ATOM     39  C   UNL     1       4.801   4.008   8.657  1.00  0.00     0.057 A 
ATOM     40  C   UNL     1       3.427   4.244   8.609  1.00  0.00     0.134 A 
ATOM     41  C   UNL     1       5.508   4.444   9.784  1.00  0.00     0.134 A 
ATOM     42  F   UNL     1       2.700   3.834   7.559  1.00  0.00    -0.206 F 
ATOM     43  C   UNL     1       2.769   4.860   9.675  1.00  0.00     0.040 A 
ATOM     44  C   UNL     1       4.864   5.054  10.856  1.00  0.00     0.040 A 
ATOM     45  F   UNL     1       6.831   4.228   9.874  1.00  0.00    -0.206 F 
ATOM     46  C   UNL     1       3.485   5.250  10.809  1.00  0.00     0.006 A 
ENDBRANCH  25  39
BRANCH  26  47
ATOM     47  C   UNL     1      12.794   2.930   4.416  1.00  0.00     0.057 A 
ATOM     48  C   UNL     1      13.310   3.788   5.396  1.00  0.00     0.134 A 
ATOM     49  C   UNL     1      13.357   3.066   3.132  1.00  0.00     0.134 A 
ATOM     50  F   UNL     1      12.943   3.682   6.680  1.00  0.00    -0.206 F 
ATOM     51  C   UNL     1      14.232   4.798   5.095  1.00  0.00     0.040 A 
ATOM     52  C   UNL     1      14.294   4.055   2.821  1.00  0.00     0.040 A 
ATOM     53  F   UNL     1      13.013   2.222   2.145  1.00  0.00    -0.206 F 
ATOM     54  C   UNL     1      14.717   4.943   3.801  1.00  0.00     0.006 A 
ENDBRANCH  26  47
BRANCH  38  55
ATOM     55  C   UNL     1       9.113  -1.470   7.499  1.00  0.00     0.057 A 
ATOM     56  C   UNL     1       8.496  -2.260   6.521  1.00  0.00     0.134 A 
ATOM     57  C   UNL     1      10.142  -2.050   8.248  1.00  0.00     0.134 A 
ATOM     58  F   UNL     1       7.516  -1.766   5.749  1.00  0.00    -0.206 F 
ATOM     59  C   UNL     1       8.868  -3.591   6.320  1.00  0.00     0.040 A 
ATOM     60  C   UNL     1      10.537  -3.372   8.041  1.00  0.00     0.040 A 
ATOM     61  F   UNL     1      10.768  -1.346   9.205  1.00  0.00    -0.206 F 
ATOM     62  C   UNL     1       9.893  -4.149   7.080  1.00  0.00     0.006 A 
ENDBRANCH  38  55
ENDBRANCH  12  13
ENDBRANCH   5   7
ENDBRANCH   2   3
ENDBRANCH   1   2
BRANCH   1  63
ATOM     63  C   UNL     1       4.396  -3.563  -1.055  1.00  0.00     0.023 C 
BRANCH  63  64
ATOM     64  C   UNL     1       4.837  -3.660  -2.515  1.00  0.00     0.116 C 
BRANCH  64  65
ATOM     65  N   UNL     1       6.281  -3.583  -2.680  1.00  0.00    -0.351 N 
ATOM     66  C   UNL     1       7.081  -4.214  -3.584  1.00  0.00     0.270 C 
ATOM     67  H   UNL     1       6.747  -2.989  -2.048  1.00  0.00     0.163 HD
ATOM     68  O   UNL     1       8.295  -4.026  -3.564  1.00  0.00    -0.268 OA
BRANCH  66  69
ATOM     69  C   UNL     1       6.488  -5.207  -4.494  1.00  0.00     0.134 A 
ATOM     70  C   UNL     1       6.982  -6.447  -4.383  1.00  0.00     0.063 A 
ATOM     71  N   UNL     1       5.472  -4.920  -5.399  1.00  0.00    -0.207 N 
ATOM     72  C   UNL     1       6.368  -7.458  -5.287  1.00  0.00     0.075 A 
ATOM     73  C   UNL     1       4.897  -5.952  -6.168  1.00  0.00     0.166 A 
ATOM     74  N   UNL     1       4.889  -3.719  -5.632  1.00  0.00    -0.145 NA
ATOM     75  N   UNL     1       5.398  -7.232  -6.127  1.00  0.00    -0.228 NA
ATOM     76  C   UNL     1       3.817  -5.366  -6.801  1.00  0.00     0.069 A 
ATOM     77  C   UNL     1       3.867  -3.991  -6.430  1.00  0.00     0.184 A 
ATOM     78  C   UNL     1       2.845  -5.974  -7.610  1.00  0.00    -0.028 A 
ATOM     79  N   UNL     1       2.947  -3.087  -6.835  1.00  0.00    -0.222 NA
ATOM     80  C   UNL     1       1.898  -5.004  -8.005  1.00  0.00     0.038 A 
ATOM     81  C   UNL     1       1.969  -3.631  -7.626  1.00  0.00     0.147 A 
BRANCH  72  82
ATOM     82  C   UNL     1       6.984  -8.799  -5.187  1.00  0.00     0.000 A 
ATOM     83  C   UNL     1       7.626  -9.332  -6.307  1.00  0.00     0.012 A 
ATOM     84  C   UNL     1       6.996  -9.481  -3.964  1.00  0.00     0.012 A 
ATOM     85  C   UNL     1       8.313 -10.543  -6.194  1.00  0.00     0.021 A 
ATOM     86  C   UNL     1       7.677 -10.695  -3.859  1.00  0.00     0.021 A 
ATOM     87  C   UNL     1       8.340 -11.216  -4.971  1.00  0.00     0.041 A 
ATOM     88  Cl  UNL     1       9.209 -12.693  -4.828  1.00  0.00    -0.084 Cl
ENDBRANCH  72  82
BRANCH  78  89
ATOM     89  C   UNL     1       2.853  -7.429  -7.954  1.00  0.00     0.020 C 
ATOM     90  C   UNL     1       1.802  -8.062  -8.837  1.00  0.00     0.009 C 
ATOM     91  C   UNL     1       3.184  -7.836  -9.372  1.00  0.00     0.009 C 
ENDBRANCH  78  89
BRANCH  81  92
ATOM     92  C   UNL     1       0.869  -2.685  -8.102  1.00  0.00     0.433 C 
ATOM     93  F   UNL     1       0.082  -2.238  -7.082  1.00  0.00    -0.165 F 
ATOM     94  F   UNL     1       1.348  -1.573  -8.728  1.00  0.00    -0.165 F 
ATOM     95  F   UNL     1       0.009  -3.261  -8.996  1.00  0.00    -0.165 F 
ENDBRANCH  81  92
ENDBRANCH  66  69
ENDBRANCH  64  65
ENDBRANCH  63  64
ENDBRANCH   1  63
TORSDOF 14
