REMARK SMILES [NH3+]C[C@@H]1CCCC[C@H]1CC(=O)NCCCCNC(=O)c1ccc(-c2c3nc(c(-c4c(F)cccc4F)c4ccc([nH]4)c(-c4c(F)cccc4F)c4nc(c(-c5c(F)cccc5F)c5ccc2[nH]5)C=C4)C=C3)cc1
REMARK SMILES IDX 14 1 13 2 12 3 10 4 11 5 9 7 8 8 3 9 4 10 5 11 7 12 6 13
REMARK SMILES IDX 2 14 1 15 15 19 16 20 17 21 18 22 19 24 20 25 21 26 73 27
REMARK SMILES IDX 22 28 72 29 23 30 24 31 25 32 66 33 26 34 71 35 65 36 67 37
REMARK SMILES IDX 27 38 70 39 64 40 63 41 28 43 54 44 37 45 53 46 38 47 41 48
REMARK SMILES IDX 52 49 68 50 39 51 40 52 51 54 69 55 42 56 29 57 30 58 35 59
REMARK SMILES IDX 31 60 32 61 34 62 36 63 33 64 55 65 56 66 61 67 57 68 58 69
REMARK SMILES IDX 60 70 62 71 59 72 43 73 44 74 49 75 45 76 46 77 48 78 50 79
REMARK SMILES IDX 47 80
REMARK H PARENT 12 6 1 16 1 17 1 18 17 23 67 42 41 53
REMARK Flexibility Score: inf
ROOT
ATOM      1  C   UNL     1      -0.628   0.176  -3.131  1.00  0.00     0.023 C 
ENDROOT
BRANCH   1   2
ATOM      2  C   UNL     1       0.748   0.630  -3.634  1.00  0.00     0.116 C 
BRANCH   2   3
ATOM      3  N   UNL     1       1.628   1.154  -2.599  1.00  0.00    -0.356 N 
ATOM      4  C   UNL     1       2.724   0.618  -1.983  1.00  0.00     0.220 C 
ATOM      5  O   UNL     1       3.298   1.284  -1.120  1.00  0.00    -0.275 OA
ATOM      6  H   UNL     1       1.391   2.057  -2.287  1.00  0.00     0.163 HD
BRANCH   4   7
ATOM      7  C   UNL     1       3.206  -0.771  -2.337  1.00  0.00     0.104 C 
BRANCH   7   8
ATOM      8  C   UNL     1       2.779  -1.938  -1.399  1.00  0.00     0.007 C 
ATOM      9  C   UNL     1       1.264  -1.942  -1.071  1.00  0.00     0.048 C 
ATOM     10  C   UNL     1       0.654  -3.298  -0.680  1.00  0.00     0.010 C 
ATOM     11  C   UNL     1       1.080  -4.400  -1.629  1.00  0.00     0.001 C 
ATOM     12  C   UNL     1       3.239  -3.240  -2.105  1.00  0.00     0.004 C 
ATOM     13  C   UNL     1       2.592  -4.519  -1.592  1.00  0.00     0.000 C 
BRANCH   9  14
ATOM     14  C   UNL     1       0.792  -0.886  -0.035  1.00  0.00     0.262 C 
BRANCH  14  15
ATOM     15  N   UNL     1       1.505  -0.916   1.235  1.00  0.00    -0.357 N 
ATOM     16  H   UNL     1       1.132  -0.193   1.851  1.00  0.00     0.344 HD
ATOM     17  H   UNL     1       2.497  -0.745   1.072  1.00  0.00     0.344 HD
ATOM     18  H   UNL     1       1.385  -1.830   1.672  1.00  0.00     0.344 HD
ENDBRANCH  14  15
ENDBRANCH   9  14
ENDBRANCH   7   8
ENDBRANCH   4   7
ENDBRANCH   2   3
ENDBRANCH   1   2
BRANCH   1  19
ATOM     19  C   UNL     1      -1.434   1.213  -2.361  1.00  0.00     0.023 C 
BRANCH  19  20
ATOM     20  C   UNL     1      -2.136   2.203  -3.265  1.00  0.00     0.116 C 
BRANCH  20  21
ATOM     21  N   UNL     1      -3.092   1.545  -4.147  1.00  0.00    -0.352 N 
ATOM     22  C   UNL     1      -4.397   1.860  -4.418  1.00  0.00     0.251 C 
ATOM     23  H   UNL     1      -2.747   0.754  -4.621  1.00  0.00     0.163 HD
ATOM     24  O   UNL     1      -5.100   1.074  -5.043  1.00  0.00    -0.269 OA
BRANCH  22  25
ATOM     25  C   UNL     1      -4.951   3.139  -3.939  1.00  0.00     0.039 A 
ATOM     26  C   UNL     1      -6.264   3.167  -3.465  1.00  0.00     0.014 A 
ATOM     27  C   UNL     1      -4.181   4.305  -3.965  1.00  0.00     0.014 A 
ATOM     28  C   UNL     1      -6.789   4.361  -2.978  1.00  0.00     0.010 A 
ATOM     29  C   UNL     1      -4.666   5.464  -3.383  1.00  0.00     0.010 A 
ATOM     30  C   UNL     1      -5.983   5.510  -2.911  1.00  0.00    -0.014 A 
BRANCH  30  31
ATOM     31  C   UNL     1      -6.516   6.785  -2.387  1.00  0.00     0.031 A 
ATOM     32  C   UNL     1      -6.621   7.976  -3.298  1.00  0.00     0.074 A 
ATOM     33  C   UNL     1      -6.848   6.873  -1.086  1.00  0.00     0.049 A 
ATOM     34  N   UNL     1      -7.028   9.188  -3.027  1.00  0.00    -0.248 NA
ATOM     35  C   UNL     1      -6.176   7.793  -4.691  1.00  0.00     0.031 C 
ATOM     36  C   UNL     1      -6.715   5.796  -0.101  1.00  0.00     0.029 A 
ATOM     37  N   UNL     1      -7.366   7.918  -0.367  1.00  0.00    -0.354 N 
ATOM     38  C   UNL     1      -6.867   9.911  -4.202  1.00  0.00     0.074 A 
ATOM     39  C   UNL     1      -6.273   9.022  -5.173  1.00  0.00     0.031 C 
ATOM     40  C   UNL     1      -7.175   6.226   1.085  1.00  0.00     0.029 A 
ATOM     41  C   UNL     1      -7.605   7.612   0.950  1.00  0.00     0.049 A 
ATOM     42  H   UNL     1      -7.548   8.803  -0.758  1.00  0.00     0.167 HD
ATOM     43  C   UNL     1      -7.214  11.194  -4.454  1.00  0.00     0.037 A 
ATOM     44  C   UNL     1      -8.123   8.372   1.932  1.00  0.00     0.037 A 
ATOM     45  C   UNL     1      -7.853  12.050  -3.493  1.00  0.00     0.049 A 
ATOM     46  C   UNL     1      -8.540   9.779   1.609  1.00  0.00     0.074 A 
ATOM     47  C   UNL     1      -8.325  13.339  -3.664  1.00  0.00     0.029 A 
ATOM     48  N   UNL     1      -8.115  11.695  -2.178  1.00  0.00    -0.354 N 
ATOM     49  N   UNL     1      -8.463  10.425   0.470  1.00  0.00    -0.248 NA
ATOM     50  C   UNL     1      -9.128  10.560   2.705  1.00  0.00     0.031 C 
ATOM     51  C   UNL     1      -8.842  13.777  -2.440  1.00  0.00     0.029 A 
ATOM     52  C   UNL     1      -8.727  12.747  -1.520  1.00  0.00     0.049 A 
ATOM     53  H   UNL     1      -7.897  10.825  -1.773  1.00  0.00     0.167 HD
ATOM     54  C   UNL     1      -9.011  11.678   0.705  1.00  0.00     0.074 A 
ATOM     55  C   UNL     1      -9.438  11.692   2.090  1.00  0.00     0.031 C 
ATOM     56  C   UNL     1      -9.145  12.727  -0.142  1.00  0.00     0.037 A 
BRANCH  43  57
ATOM     57  C   UNL     1      -6.927  11.738  -5.822  1.00  0.00     0.057 A 
ATOM     58  C   UNL     1      -7.648  11.323  -6.949  1.00  0.00     0.134 A 
ATOM     59  C   UNL     1      -5.945  12.720  -6.009  1.00  0.00     0.134 A 
ATOM     60  F   UNL     1      -8.590  10.374  -6.842  1.00  0.00    -0.206 F 
ATOM     61  C   UNL     1      -7.392  11.852  -8.216  1.00  0.00     0.040 A 
ATOM     62  C   UNL     1      -5.697  13.274  -7.266  1.00  0.00     0.040 A 
ATOM     63  F   UNL     1      -5.218  13.162  -4.972  1.00  0.00    -0.206 F 
ATOM     64  C   UNL     1      -6.419  12.837  -8.375  1.00  0.00     0.006 A 
ENDBRANCH  43  57
BRANCH  44  65
ATOM     65  C   UNL     1      -8.311   7.812   3.293  1.00  0.00     0.057 A 
ATOM     66  C   UNL     1      -9.592   7.564   3.800  1.00  0.00     0.134 A 
ATOM     67  C   UNL     1      -7.222   7.528   4.126  1.00  0.00     0.134 A 
ATOM     68  F   UNL     1     -10.675   7.828   3.055  1.00  0.00    -0.206 F 
ATOM     69  C   UNL     1      -9.786   7.080   5.095  1.00  0.00     0.040 A 
ATOM     70  C   UNL     1      -7.400   7.020   5.414  1.00  0.00     0.040 A 
ATOM     71  F   UNL     1      -5.969   7.733   3.696  1.00  0.00    -0.206 F 
ATOM     72  C   UNL     1      -8.687   6.804   5.905  1.00  0.00     0.006 A 
ENDBRANCH  44  65
BRANCH  56  73
ATOM     73  C   UNL     1      -9.801  13.957   0.406  1.00  0.00     0.057 A 
ATOM     74  C   UNL     1      -9.146  14.797   1.314  1.00  0.00     0.134 A 
ATOM     75  C   UNL     1     -11.093  14.316   0.002  1.00  0.00     0.134 A 
ATOM     76  F   UNL     1      -7.912  14.498   1.748  1.00  0.00    -0.206 F 
ATOM     77  C   UNL     1      -9.764  15.938   1.826  1.00  0.00     0.040 A 
ATOM     78  C   UNL     1     -11.711  15.469   0.486  1.00  0.00     0.040 A 
ATOM     79  F   UNL     1     -11.769  13.558  -0.874  1.00  0.00    -0.206 F 
ATOM     80  C   UNL     1     -11.049  16.279   1.407  1.00  0.00     0.006 A 
ENDBRANCH  56  73
ENDBRANCH  30  31
ENDBRANCH  22  25
ENDBRANCH  20  21
ENDBRANCH  19  20
ENDBRANCH   1  19
TORSDOF 14
