REMARK SMILES Cc1ccc(C(=O)Nc2cccc(F)c2C(=O)NCCCCNC(=O)c2ccc(-c3c4nc(c(-c5c(F)cccc5F)c5ccc([nH]5)c(-c5c(F)cccc5F)c5nc(c(-c6c(F)cccc6F)c6ccc3[nH]6)C=C5)C=C4)cc2)c(F)c1
REMARK SMILES IDX 20 1 19 2 18 3 16 4 17 5 15 7 9 8 10 9 11 10 13 11 12 12
REMARK SMILES IDX 14 13 8 14 6 15 7 16 5 18 1 19 2 20 3 21 82 22 4 23 80 24
REMARK SMILES IDX 81 25 21 26 22 27 23 28 24 29 25 31 26 32 27 33 79 34 28 35
REMARK SMILES IDX 78 36 29 37 30 38 31 39 72 40 32 41 77 42 71 43 73 44 33 45
REMARK SMILES IDX 76 46 70 47 69 48 34 50 60 51 43 52 59 53 44 54 47 55 58 56
REMARK SMILES IDX 74 57 45 58 46 59 57 61 75 62 48 63 35 64 36 65 41 66 37 67
REMARK SMILES IDX 38 68 40 69 42 70 39 71 61 72 62 73 67 74 63 75 64 76 66 77
REMARK SMILES IDX 68 78 65 79 49 80 50 81 55 82 51 83 52 84 54 85 56 86 53 87
REMARK H PARENT 18 6 8 17 23 30 73 49 47 60
REMARK Flexibility Score: inf
ROOT
ATOM      1  C   UNL     1      -0.850  -9.462  -1.671  1.00  0.00     0.023 C 
ENDROOT
BRANCH   1   2
ATOM      2  C   UNL     1      -0.295  -8.060  -1.887  1.00  0.00     0.116 C 
BRANCH   2   3
ATOM      3  N   UNL     1      -1.303  -7.027  -2.037  1.00  0.00    -0.352 N 
ATOM      4  C   UNL     1      -1.387  -5.747  -1.540  1.00  0.00     0.256 C 
ATOM      5  O   UNL     1      -2.378  -5.093  -1.872  1.00  0.00    -0.269 OA
ATOM      6  H   UNL     1      -2.067  -7.291  -2.599  1.00  0.00     0.163 HD
BRANCH   4   7
ATOM      7  C   UNL     1      -0.418  -5.165  -0.565  1.00  0.00     0.099 A 
ATOM      8  C   UNL     1      -0.819  -4.137   0.318  1.00  0.00     0.057 A 
ATOM      9  C   UNL     1       0.017  -3.745   1.378  1.00  0.00     0.027 A 
ATOM     10  C   UNL     1       1.312  -4.243   1.474  1.00  0.00     0.005 A 
ATOM     11  C   UNL     1       0.937  -5.500  -0.549  1.00  0.00     0.138 A 
ATOM     12  C   UNL     1       1.791  -5.073   0.470  1.00  0.00     0.040 A 
ATOM     13  F   UNL     1       1.501  -6.164  -1.568  1.00  0.00    -0.206 F 
BRANCH   8  14
ATOM     14  N   UNL     1      -1.995  -3.398   0.064  1.00  0.00    -0.321 N 
ATOM     15  C   UNL     1      -2.156  -2.019   0.021  1.00  0.00     0.258 C 
ATOM     16  O   UNL     1      -3.285  -1.547  -0.097  1.00  0.00    -0.269 OA
ATOM     17  H   UNL     1      -2.807  -3.930  -0.105  1.00  0.00     0.170 HD
BRANCH  15  18
ATOM     18  C   UNL     1      -0.976  -1.104  -0.032  1.00  0.00     0.075 A 
ATOM     19  C   UNL     1       2.449   1.539  -0.044  1.00  0.00     0.044 C 
ATOM     20  C   UNL     1       1.256   0.630  -0.052  1.00  0.00    -0.048 A 
ATOM     21  C   UNL     1       1.317  -0.607  -0.697  1.00  0.00     0.004 A 
ATOM     22  C   UNL     1       0.045   1.028   0.526  1.00  0.00     0.043 A 
ATOM     23  C   UNL     1       0.200  -1.447  -0.719  1.00  0.00     0.017 A 
ATOM     24  C   UNL     1      -1.053   0.162   0.546  1.00  0.00     0.136 A 
ATOM     25  F   UNL     1      -2.171   0.584   1.153  1.00  0.00    -0.206 F 
ENDBRANCH  15  18
ENDBRANCH   8  14
ENDBRANCH   4   7
ENDBRANCH   2   3
ENDBRANCH   1   2
BRANCH   1  26
ATOM     26  C   UNL     1      -1.766 -10.018  -2.755  1.00  0.00     0.023 C 
BRANCH  26  27
ATOM     27  C   UNL     1      -1.256  -9.921  -4.188  1.00  0.00     0.116 C 
BRANCH  27  28
ATOM     28  N   UNL     1       0.037 -10.553  -4.400  1.00  0.00    -0.352 N 
ATOM     29  C   UNL     1       0.415 -11.527  -5.299  1.00  0.00     0.251 C 
ATOM     30  H   UNL     1       0.756 -10.234  -3.807  1.00  0.00     0.163 HD
ATOM     31  O   UNL     1       1.546 -11.982  -5.271  1.00  0.00    -0.269 OA
BRANCH  29  32
ATOM     32  C   UNL     1      -0.570 -12.058  -6.269  1.00  0.00     0.039 A 
ATOM     33  C   UNL     1      -0.694 -13.443  -6.408  1.00  0.00     0.014 A 
ATOM     34  C   UNL     1      -1.384 -11.204  -7.015  1.00  0.00     0.014 A 
ATOM     35  C   UNL     1      -1.703 -13.972  -7.217  1.00  0.00     0.010 A 
ATOM     36  C   UNL     1      -2.437 -11.730  -7.760  1.00  0.00     0.010 A 
ATOM     37  C   UNL     1      -2.617 -13.119  -7.856  1.00  0.00    -0.014 A 
BRANCH  37  38
ATOM     38  C   UNL     1      -3.782 -13.650  -8.608  1.00  0.00     0.031 A 
ATOM     39  C   UNL     1      -3.916 -13.382 -10.081  1.00  0.00     0.074 A 
ATOM     40  C   UNL     1      -4.765 -14.298  -7.949  1.00  0.00     0.049 A 
ATOM     41  N   UNL     1      -4.919 -13.644 -10.880  1.00  0.00    -0.248 NA
ATOM     42  C   UNL     1      -2.787 -12.703 -10.738  1.00  0.00     0.031 C 
ATOM     43  C   UNL     1      -4.778 -14.583  -6.513  1.00  0.00     0.029 A 
ATOM     44  N   UNL     1      -5.953 -14.819  -8.400  1.00  0.00    -0.354 N 
ATOM     45  C   UNL     1      -4.553 -13.143 -12.122  1.00  0.00     0.074 A 
ATOM     46  C   UNL     1      -3.253 -12.527 -11.966  1.00  0.00     0.031 C 
ATOM     47  C   UNL     1      -5.908 -15.240  -6.204  1.00  0.00     0.029 A 
ATOM     48  C   UNL     1      -6.718 -15.387  -7.409  1.00  0.00     0.049 A 
ATOM     49  H   UNL     1      -6.231 -14.788  -9.344  1.00  0.00     0.167 HD
ATOM     50  C   UNL     1      -5.231 -13.208 -13.291  1.00  0.00     0.037 A 
ATOM     51  C   UNL     1      -7.941 -15.951  -7.461  1.00  0.00     0.037 A 
ATOM     52  C   UNL     1      -6.501 -13.863 -13.457  1.00  0.00     0.049 A 
ATOM     53  C   UNL     1      -8.664 -16.025  -8.777  1.00  0.00     0.074 A 
ATOM     54  C   UNL     1      -7.231 -14.037 -14.620  1.00  0.00     0.029 A 
ATOM     55  N   UNL     1      -7.223 -14.457 -12.435  1.00  0.00    -0.354 N 
ATOM     56  N   UNL     1      -8.282 -15.590  -9.952  1.00  0.00    -0.248 NA
ATOM     57  C   UNL     1      -9.987 -16.668  -8.776  1.00  0.00     0.031 C 
ATOM     58  C   UNL     1      -8.411 -14.711 -14.297  1.00  0.00     0.029 A 
ATOM     59  C   UNL     1      -8.397 -14.990 -12.940  1.00  0.00     0.049 A 
ATOM     60  H   UNL     1      -6.944 -14.495 -11.492  1.00  0.00     0.167 HD
ATOM     61  C   UNL     1      -9.302 -15.926 -10.832  1.00  0.00     0.074 A 
ATOM     62  C   UNL     1     -10.316 -16.611 -10.060  1.00  0.00     0.031 C 
ATOM     63  C   UNL     1      -9.388 -15.686 -12.162  1.00  0.00     0.037 A 
BRANCH  50  64
ATOM     64  C   UNL     1      -4.610 -12.576 -14.499  1.00  0.00     0.057 A 
ATOM     65  C   UNL     1      -5.157 -11.416 -15.061  1.00  0.00     0.134 A 
ATOM     66  C   UNL     1      -3.526 -13.168 -15.159  1.00  0.00     0.134 A 
ATOM     67  F   UNL     1      -6.201 -10.805 -14.480  1.00  0.00    -0.206 F 
ATOM     68  C   UNL     1      -4.656 -10.874 -16.245  1.00  0.00     0.040 A 
ATOM     69  C   UNL     1      -3.003 -12.624 -16.332  1.00  0.00     0.040 A 
ATOM     70  F   UNL     1      -2.952 -14.276 -14.665  1.00  0.00    -0.206 F 
ATOM     71  C   UNL     1      -3.576 -11.480 -16.885  1.00  0.00     0.006 A 
ENDBRANCH  50  64
BRANCH  51  72
ATOM     72  C   UNL     1      -8.553 -16.509  -6.229  1.00  0.00     0.057 A 
ATOM     73  C   UNL     1      -9.022 -15.680  -5.203  1.00  0.00     0.134 A 
ATOM     74  C   UNL     1      -8.684 -17.891  -6.053  1.00  0.00     0.134 A 
ATOM     75  F   UNL     1      -8.919 -14.347  -5.309  1.00  0.00    -0.206 F 
ATOM     76  C   UNL     1      -9.591 -16.206  -4.042  1.00  0.00     0.040 A 
ATOM     77  C   UNL     1      -9.272 -18.430  -4.907  1.00  0.00     0.040 A 
ATOM     78  F   UNL     1      -8.271 -18.735  -7.010  1.00  0.00    -0.206 F 
ATOM     79  C   UNL     1      -9.723 -17.585  -3.895  1.00  0.00     0.006 A 
ENDBRANCH  51  72
BRANCH  63  80
ATOM     80  C   UNL     1     -10.600 -16.190 -12.885  1.00  0.00     0.057 A 
ATOM     81  C   UNL     1     -10.503 -17.275 -13.765  1.00  0.00     0.134 A 
ATOM     82  C   UNL     1     -11.837 -15.544 -12.783  1.00  0.00     0.134 A 
ATOM     83  F   UNL     1      -9.341 -17.929 -13.915  1.00  0.00    -0.206 F 
ATOM     84  C   UNL     1     -11.591 -17.690 -14.533  1.00  0.00     0.040 A 
ATOM     85  C   UNL     1     -12.939 -15.963 -13.530  1.00  0.00     0.040 A 
ATOM     86  F   UNL     1     -11.994 -14.504 -11.950  1.00  0.00    -0.206 F 
ATOM     87  C   UNL     1     -12.814 -17.032 -14.416  1.00  0.00     0.006 A 
ENDBRANCH  63  80
ENDBRANCH  37  38
ENDBRANCH  29  32
ENDBRANCH  27  28
ENDBRANCH  26  27
ENDBRANCH   1  26
TORSDOF 13
