REMARK SMILES Cc1ccccc1-c1c(Cl)ccc2c1C=C(C(=O)NCCCCNC(=O)c1ccc(-c3c4nc(c(-c5c(F)cccc5F)c5ccc([nH]5)c(-c5c(F)cccc5F)c5nc(c(-c6c(F)cccc6F)c6ccc3[nH]6)C=C5)C=C4)cc1)[C@@H](C(F)(F)F)O2
REMARK SMILES IDX 22 1 21 2 20 3 19 4 17 5 18 6 16 8 8 9 9 10 14 11 10 12
REMARK SMILES IDX 11 13 13 14 15 15 12 16 86 17 81 18 7 19 1 20 2 21 3 22 4 23
REMARK SMILES IDX 6 24 5 25 82 26 83 27 84 28 85 29 23 30 24 31 25 32 26 34
REMARK SMILES IDX 27 35 28 36 80 37 29 38 79 39 30 40 31 41 32 42 73 43 33 44
REMARK SMILES IDX 78 45 72 46 74 47 34 48 77 49 71 50 70 51 35 53 61 54 44 55
REMARK SMILES IDX 60 56 45 57 48 58 59 59 75 60 46 61 47 62 58 64 76 65 49 66
REMARK SMILES IDX 36 67 37 68 42 69 38 70 39 71 41 72 43 73 40 74 62 75 63 76
REMARK SMILES IDX 68 77 64 78 65 79 67 80 69 81 66 82 50 83 51 84 56 85 52 86
REMARK SMILES IDX 53 87 55 88 57 89 54 90
REMARK H PARENT 19 7 24 33 74 52 48 63
REMARK Flexibility Score: inf
ROOT
ATOM      1  C   UNL     1       7.363  -1.589  -2.739  1.00  0.00     0.023 C 
ENDROOT
BRANCH   1   2
ATOM      2  C   UNL     1       5.891  -1.391  -3.119  1.00  0.00     0.023 C 
BRANCH   2   3
ATOM      3  C   UNL     1       5.047  -0.572  -2.136  1.00  0.00     0.116 C 
BRANCH   3   4
ATOM      4  N   UNL     1       5.590   0.751  -1.908  1.00  0.00    -0.352 N 
ATOM      5  C   UNL     1       5.101   1.992  -2.145  1.00  0.00     0.251 C 
ATOM      6  O   UNL     1       5.860   2.940  -1.935  1.00  0.00    -0.270 OA
ATOM      7  H   UNL     1       6.487   0.748  -1.502  1.00  0.00     0.163 HD
BRANCH   5   8
ATOM      8  C   UNL     1       3.703   2.230  -2.657  1.00  0.00     0.067 C 
ATOM      9  C   UNL     1       1.190   2.424   0.100  1.00  0.00     0.012 A 
ATOM     10  C   UNL     1       0.890   3.402   1.082  1.00  0.00     0.049 A 
ATOM     11  C   UNL     1       2.101   2.788  -0.926  1.00  0.00     0.027 A 
ATOM     12  Cl  UNL     1      -0.103   3.049   2.461  1.00  0.00    -0.084 Cl
ATOM     13  C   UNL     1       1.392   4.705   0.997  1.00  0.00     0.025 A 
ATOM     14  C   UNL     1       2.528   4.127  -1.039  1.00  0.00     0.128 A 
ATOM     15  C   UNL     1       2.733   1.805  -1.825  1.00  0.00     0.026 C 
ATOM     16  C   UNL     1       2.182   5.076  -0.083  1.00  0.00     0.049 A 
ATOM     17  O   UNL     1       3.314   4.594  -2.063  1.00  0.00    -0.475 OA
ATOM     18  C   UNL     1       3.570   3.667  -3.143  1.00  0.00     0.314 C 
BRANCH   9  19
ATOM     19  C   UNL     1       0.468   1.125   0.091  1.00  0.00    -0.013 A 
ATOM     20  C   UNL     1       2.508  -0.314   0.678  1.00  0.00     0.045 C 
ATOM     21  C   UNL     1       1.052  -0.129   0.362  1.00  0.00    -0.043 A 
ATOM     22  C   UNL     1       0.257  -1.292   0.300  1.00  0.00     0.004 A 
ATOM     23  C   UNL     1      -1.104  -1.226   0.008  1.00  0.00     0.000 A 
ATOM     24  C   UNL     1      -0.913   1.159  -0.212  1.00  0.00     0.009 A 
ATOM     25  C   UNL     1      -1.692   0.004  -0.242  1.00  0.00     0.001 A 
ENDBRANCH   9  19
BRANCH  18  26
ATOM     26  C   UNL     1       2.514   3.777  -4.257  1.00  0.00     0.429 C 
ATOM     27  F   UNL     1       2.487   5.020  -4.794  1.00  0.00    -0.167 F 
ATOM     28  F   UNL     1       2.792   2.919  -5.273  1.00  0.00    -0.167 F 
ATOM     29  F   UNL     1       1.261   3.493  -3.833  1.00  0.00    -0.167 F 
ENDBRANCH  18  26
ENDBRANCH   5   8
ENDBRANCH   3   4
ENDBRANCH   2   3
ENDBRANCH   1   2
BRANCH   1  30
ATOM     30  C   UNL     1       7.612  -2.383  -1.462  1.00  0.00     0.116 C 
BRANCH  30  31
ATOM     31  N   UNL     1       7.572  -3.829  -1.621  1.00  0.00    -0.352 N 
ATOM     32  C   UNL     1       7.701  -4.840  -0.680  1.00  0.00     0.251 C 
ATOM     33  H   UNL     1       7.430  -4.139  -2.544  1.00  0.00     0.163 HD
ATOM     34  O   UNL     1       7.717  -6.003  -1.054  1.00  0.00    -0.269 OA
BRANCH  32  35
ATOM     35  C   UNL     1       7.669  -4.539   0.779  1.00  0.00     0.039 A 
ATOM     36  C   UNL     1       7.009  -5.450   1.619  1.00  0.00     0.014 A 
ATOM     37  C   UNL     1       8.087  -3.318   1.295  1.00  0.00     0.014 A 
ATOM     38  C   UNL     1       6.529  -5.027   2.858  1.00  0.00     0.010 A 
ATOM     39  C   UNL     1       7.526  -2.859   2.468  1.00  0.00     0.010 A 
ATOM     40  C   UNL     1       6.681  -3.690   3.207  1.00  0.00    -0.014 A 
BRANCH  40  41
ATOM     41  C   UNL     1       5.866  -3.014   4.208  1.00  0.00     0.031 A 
ATOM     42  C   UNL     1       6.457  -2.513   5.462  1.00  0.00     0.074 A 
ATOM     43  C   UNL     1       4.604  -2.675   3.866  1.00  0.00     0.049 A 
ATOM     44  N   UNL     1       5.775  -2.135   6.489  1.00  0.00    -0.248 NA
ATOM     45  C   UNL     1       7.895  -2.454   5.678  1.00  0.00     0.031 C 
ATOM     46  C   UNL     1       3.747  -1.674   4.491  1.00  0.00     0.029 A 
ATOM     47  N   UNL     1       3.766  -3.337   2.961  1.00  0.00    -0.354 N 
ATOM     48  C   UNL     1       6.636  -1.498   7.355  1.00  0.00     0.074 A 
ATOM     49  C   UNL     1       7.949  -1.837   6.861  1.00  0.00     0.031 C 
ATOM     50  C   UNL     1       2.469  -1.940   4.176  1.00  0.00     0.029 A 
ATOM     51  C   UNL     1       2.459  -3.214   3.478  1.00  0.00     0.049 A 
ATOM     52  H   UNL     1       4.034  -3.796   2.132  1.00  0.00     0.167 HD
ATOM     53  C   UNL     1       6.114  -0.642   8.283  1.00  0.00     0.037 A 
ATOM     54  C   UNL     1       1.757  -4.312   3.881  1.00  0.00     0.037 A 
ATOM     55  C   UNL     1       4.649  -0.745   8.312  1.00  0.00     0.049 A 
ATOM     56  C   UNL     1       1.376  -4.280   5.343  1.00  0.00     0.074 A 
ATOM     57  C   UNL     1       3.636   0.054   7.805  1.00  0.00     0.029 A 
ATOM     58  N   UNL     1       4.050  -1.948   8.678  1.00  0.00    -0.354 N 
ATOM     59  N   UNL     1       1.962  -3.525   6.230  1.00  0.00    -0.248 NA
ATOM     60  C   UNL     1       0.323  -5.108   5.925  1.00  0.00     0.031 C 
ATOM     61  C   UNL     1       2.436  -0.704   7.802  1.00  0.00     0.029 A 
ATOM     62  C   UNL     1       2.713  -1.954   8.330  1.00  0.00     0.049 A 
ATOM     63  H   UNL     1       4.515  -2.692   9.124  1.00  0.00     0.167 HD
ATOM     64  C   UNL     1       1.415  -3.755   7.465  1.00  0.00     0.074 A 
ATOM     65  C   UNL     1       0.380  -4.742   7.218  1.00  0.00     0.031 C 
ATOM     66  C   UNL     1       1.875  -3.120   8.583  1.00  0.00     0.037 A 
BRANCH  53  67
ATOM     67  C   UNL     1       6.876   0.497   8.954  1.00  0.00     0.057 A 
ATOM     68  C   UNL     1       6.178   1.575   9.543  1.00  0.00     0.134 A 
ATOM     69  C   UNL     1       8.274   0.660   8.986  1.00  0.00     0.134 A 
ATOM     70  F   UNL     1       4.848   1.553   9.700  1.00  0.00    -0.206 F 
ATOM     71  C   UNL     1       6.804   2.744  10.007  1.00  0.00     0.040 A 
ATOM     72  C   UNL     1       8.914   1.830   9.425  1.00  0.00     0.040 A 
ATOM     73  F   UNL     1       9.118  -0.313   8.644  1.00  0.00    -0.206 F 
ATOM     74  C   UNL     1       8.178   2.889   9.922  1.00  0.00     0.006 A 
ENDBRANCH  53  67
BRANCH  54  75
ATOM     75  C   UNL     1       2.102  -5.538   3.113  1.00  0.00     0.057 A 
ATOM     76  C   UNL     1       1.820  -5.568   1.735  1.00  0.00     0.134 A 
ATOM     77  C   UNL     1       3.026  -6.471   3.594  1.00  0.00     0.134 A 
ATOM     78  F   UNL     1       0.947  -4.695   1.207  1.00  0.00    -0.206 F 
ATOM     79  C   UNL     1       2.513  -6.405   0.857  1.00  0.00     0.040 A 
ATOM     80  C   UNL     1       3.715  -7.325   2.724  1.00  0.00     0.040 A 
ATOM     81  F   UNL     1       3.366  -6.490   4.890  1.00  0.00    -0.206 F 
ATOM     82  C   UNL     1       3.489  -7.265   1.349  1.00  0.00     0.006 A 
ENDBRANCH  54  75
BRANCH  66  83
ATOM     83  C   UNL     1       1.524  -3.473  10.009  1.00  0.00     0.057 A 
ATOM     84  C   UNL     1       1.159  -4.758  10.438  1.00  0.00     0.134 A 
ATOM     85  C   UNL     1       1.696  -2.526  11.043  1.00  0.00     0.134 A 
ATOM     86  F   UNL     1       1.070  -5.786   9.584  1.00  0.00    -0.206 F 
ATOM     87  C   UNL     1       0.925  -5.063  11.787  1.00  0.00     0.040 A 
ATOM     88  C   UNL     1       1.519  -2.833  12.396  1.00  0.00     0.040 A 
ATOM     89  F   UNL     1       2.070  -1.263  10.789  1.00  0.00    -0.206 F 
ATOM     90  C   UNL     1       1.116  -4.104  12.772  1.00  0.00     0.006 A 
ENDBRANCH  66  83
ENDBRANCH  40  41
ENDBRANCH  32  35
ENDBRANCH  30  31
ENDBRANCH   1  30
TORSDOF 13
