REMARK SMILES COc1c(C(=O)NCCCCNC(=O)c2ccc(-c3c4nc(c(-c5c(F)cccc5F)c5ccc([nH]5)c(-c5c(F)cccc5F)c5nc(c(-c6c(F)cccc6F)c6ccc3[nH]6)C=C5)C=C4)cc2)cccc1-c1cc(C)ccc1C
REMARK SMILES IDX 10 1 9 2 8 3 7 4 5 5 6 6 4 8 3 9 72 10 69 11 71 12 70 13
REMARK SMILES IDX 2 14 1 15 73 16 74 17 79 18 75 19 78 20 80 21 76 22 77 23
REMARK SMILES IDX 11 24 12 25 13 26 14 28 15 29 16 30 68 31 17 32 67 33 18 34
REMARK SMILES IDX 19 35 20 36 61 37 21 38 66 39 60 40 62 41 22 42 65 43 59 44
REMARK SMILES IDX 58 45 23 47 49 48 32 49 48 50 33 51 36 52 47 53 63 54 34 55
REMARK SMILES IDX 35 56 46 58 64 59 37 60 24 61 25 62 30 63 26 64 27 65 29 66
REMARK SMILES IDX 31 67 28 68 50 69 51 70 56 71 52 72 53 73 55 74 57 75 54 76
REMARK SMILES IDX 38 77 39 78 44 79 40 80 41 81 43 82 45 83 42 84
REMARK H PARENT 7 7 12 27 62 46 36 57
REMARK Flexibility Score: inf
ROOT
ATOM      1  C   UNL     1      -3.659  -0.767   0.778  1.00  0.00     0.023 C 
ENDROOT
BRANCH   1   2
ATOM      2  C   UNL     1      -2.466  -0.089   1.444  1.00  0.00     0.023 C 
BRANCH   2   3
ATOM      3  C   UNL     1      -1.542   0.696   0.531  1.00  0.00     0.116 C 
BRANCH   3   4
ATOM      4  N   UNL     1      -2.081   1.827  -0.167  1.00  0.00    -0.352 N 
ATOM      5  C   UNL     1      -1.373   2.840  -0.779  1.00  0.00     0.255 C 
ATOM      6  O   UNL     1      -2.006   3.638  -1.475  1.00  0.00    -0.269 OA
ATOM      7  H   UNL     1      -3.063   1.888  -0.213  1.00  0.00     0.163 HD
BRANCH   5   8
ATOM      8  C   UNL     1       0.085   3.097  -0.537  1.00  0.00     0.082 A 
ATOM      9  C   UNL     1       1.145   2.157  -0.549  1.00  0.00     0.139 A 
ATOM     10  C   UNL     1       2.481   2.593  -0.313  1.00  0.00     0.025 A 
ATOM     11  C   UNL     1       0.378   4.457  -0.302  1.00  0.00     0.018 A 
ATOM     12  C   UNL     1       2.716   3.963  -0.074  1.00  0.00     0.012 A 
ATOM     13  C   UNL     1       1.679   4.888  -0.071  1.00  0.00     0.002 A 
BRANCH   9  14
ATOM     14  O   UNL     1       0.865   0.857  -0.913  1.00  0.00    -0.495 OA
ATOM     15  C   UNL     1       1.365  -0.160  -0.032  1.00  0.00     0.278 C 
ENDBRANCH   9  14
BRANCH  10  16
ATOM     16  C   UNL     1       3.645   1.682  -0.252  1.00  0.00    -0.011 A 
ATOM     17  C   UNL     1       4.263   1.497   1.006  1.00  0.00     0.012 A 
ATOM     18  C   UNL     1       4.111   0.925  -1.349  1.00  0.00    -0.043 A 
ATOM     19  C   UNL     1       5.262   0.538   1.208  1.00  0.00    -0.050 A 
ATOM     20  C   UNL     1       5.101  -0.051  -1.134  1.00  0.00     0.004 A 
ATOM     21  C   UNL     1       3.499   1.020  -2.722  1.00  0.00     0.045 C 
ATOM     22  C   UNL     1       5.855   0.358   2.573  1.00  0.00     0.044 C 
ATOM     23  C   UNL     1       5.664  -0.247   0.129  1.00  0.00     0.004 A 
ENDBRANCH  10  16
ENDBRANCH   5   8
ENDBRANCH   3   4
ENDBRANCH   2   3
ENDBRANCH   1   2
BRANCH   1  24
ATOM     24  C   UNL     1      -3.409  -1.446  -0.567  1.00  0.00     0.116 C 
BRANCH  24  25
ATOM     25  N   UNL     1      -2.483  -2.571  -0.519  1.00  0.00    -0.352 N 
ATOM     26  C   UNL     1      -2.696  -3.925  -0.672  1.00  0.00     0.251 C 
ATOM     27  H   UNL     1      -1.546  -2.322  -0.348  1.00  0.00     0.163 HD
ATOM     28  O   UNL     1      -1.768  -4.711  -0.535  1.00  0.00    -0.269 OA
BRANCH  26  29
ATOM     29  C   UNL     1      -4.058  -4.439  -0.943  1.00  0.00     0.039 A 
ATOM     30  C   UNL     1      -4.537  -5.513  -0.187  1.00  0.00     0.014 A 
ATOM     31  C   UNL     1      -4.876  -3.846  -1.904  1.00  0.00     0.014 A 
ATOM     32  C   UNL     1      -5.874  -5.901  -0.304  1.00  0.00     0.010 A 
ATOM     33  C   UNL     1      -6.231  -4.160  -1.942  1.00  0.00     0.010 A 
ATOM     34  C   UNL     1      -6.750  -5.180  -1.131  1.00  0.00    -0.014 A 
BRANCH  34  35
ATOM     35  C   UNL     1      -8.212  -5.453  -1.149  1.00  0.00     0.031 A 
ATOM     36  C   UNL     1      -8.894  -5.846  -2.432  1.00  0.00     0.074 A 
ATOM     37  C   UNL     1      -8.945  -5.254  -0.034  1.00  0.00     0.049 A 
ATOM     38  N   UNL     1     -10.171  -6.005  -2.675  1.00  0.00    -0.248 NA
ATOM     39  C   UNL     1      -8.030  -6.052  -3.605  1.00  0.00     0.031 C 
ATOM     40  C   UNL     1      -8.421  -4.811   1.260  1.00  0.00     0.029 A 
ATOM     41  N   UNL     1     -10.295  -5.383   0.186  1.00  0.00    -0.354 N 
ATOM     42  C   UNL     1     -10.261  -6.305  -4.029  1.00  0.00     0.074 A 
ATOM     43  C   UNL     1      -8.919  -6.251  -4.566  1.00  0.00     0.031 C 
ATOM     44  C   UNL     1      -9.431  -4.729   2.142  1.00  0.00     0.029 A 
ATOM     45  C   UNL     1     -10.678  -5.072   1.469  1.00  0.00     0.049 A 
ATOM     46  H   UNL     1     -10.928  -5.671  -0.511  1.00  0.00     0.167 HD
ATOM     47  C   UNL     1     -11.359  -6.624  -4.755  1.00  0.00     0.037 A 
ATOM     48  C   UNL     1     -11.899  -5.056   2.037  1.00  0.00     0.037 A 
ATOM     49  C   UNL     1     -12.689  -6.717  -4.215  1.00  0.00     0.049 A 
ATOM     50  C   UNL     1     -13.099  -5.433   1.214  1.00  0.00     0.074 A 
ATOM     51  C   UNL     1     -13.856  -7.093  -4.858  1.00  0.00     0.029 A 
ATOM     52  N   UNL     1     -13.028  -6.438  -2.900  1.00  0.00    -0.354 N 
ATOM     53  N   UNL     1     -13.160  -5.775  -0.050  1.00  0.00    -0.248 NA
ATOM     54  C   UNL     1     -14.401  -5.427   1.897  1.00  0.00     0.031 C 
ATOM     55  C   UNL     1     -14.907  -7.012  -3.938  1.00  0.00     0.029 A 
ATOM     56  C   UNL     1     -14.387  -6.624  -2.714  1.00  0.00     0.049 A 
ATOM     57  H   UNL     1     -12.396  -6.151  -2.202  1.00  0.00     0.167 HD
ATOM     58  C   UNL     1     -14.497  -6.052  -0.305  1.00  0.00     0.074 A 
ATOM     59  C   UNL     1     -15.211  -5.851   0.938  1.00  0.00     0.031 C 
ATOM     60  C   UNL     1     -15.080  -6.436  -1.466  1.00  0.00     0.037 A 
BRANCH  47  61
ATOM     61  C   UNL     1     -11.161  -6.915  -6.214  1.00  0.00     0.057 A 
ATOM     62  C   UNL     1     -10.520  -8.082  -6.650  1.00  0.00     0.134 A 
ATOM     63  C   UNL     1     -11.646  -6.040  -7.193  1.00  0.00     0.134 A 
ATOM     64  F   UNL     1     -10.021  -8.956  -5.762  1.00  0.00    -0.206 F 
ATOM     65  C   UNL     1     -10.345  -8.356  -8.007  1.00  0.00     0.040 A 
ATOM     66  C   UNL     1     -11.501  -6.316  -8.554  1.00  0.00     0.040 A 
ATOM     67  F   UNL     1     -12.276  -4.908  -6.845  1.00  0.00    -0.206 F 
ATOM     68  C   UNL     1     -10.843  -7.475  -8.964  1.00  0.00     0.006 A 
ENDBRANCH  47  61
BRANCH  48  69
ATOM     69  C   UNL     1     -12.053  -4.691   3.469  1.00  0.00     0.057 A 
ATOM     70  C   UNL     1     -12.405  -5.653   4.423  1.00  0.00     0.134 A 
ATOM     71  C   UNL     1     -11.875  -3.377   3.914  1.00  0.00     0.134 A 
ATOM     72  F   UNL     1     -12.609  -6.926   4.054  1.00  0.00    -0.206 F 
ATOM     73  C   UNL     1     -12.598  -5.318   5.764  1.00  0.00     0.040 A 
ATOM     74  C   UNL     1     -12.040  -3.031   5.257  1.00  0.00     0.040 A 
ATOM     75  F   UNL     1     -11.529  -2.410   3.052  1.00  0.00    -0.206 F 
ATOM     76  C   UNL     1     -12.412  -4.003   6.185  1.00  0.00     0.006 A 
ENDBRANCH  48  69
BRANCH  60  77
ATOM     77  C   UNL     1     -16.555  -6.703  -1.438  1.00  0.00     0.057 A 
ATOM     78  C   UNL     1     -17.493  -5.667  -1.357  1.00  0.00     0.134 A 
ATOM     79  C   UNL     1     -17.042  -8.013  -1.534  1.00  0.00     0.134 A 
ATOM     80  F   UNL     1     -17.090  -4.392  -1.249  1.00  0.00    -0.206 F 
ATOM     81  C   UNL     1     -18.865  -5.925  -1.353  1.00  0.00     0.040 A 
ATOM     82  C   UNL     1     -18.411  -8.282  -1.556  1.00  0.00     0.040 A 
ATOM     83  F   UNL     1     -16.196  -9.050  -1.622  1.00  0.00    -0.206 F 
ATOM     84  C   UNL     1     -19.327  -7.236  -1.460  1.00  0.00     0.006 A 
ENDBRANCH  60  77
ENDBRANCH  34  35
ENDBRANCH  26  29
ENDBRANCH  24  25
ENDBRANCH   1  24
TORSDOF 13
