REMARK SMILES Cc1c(NC(=O)[C@@H]2CC=CC[C@@H]2C(=O)NCCCCNC(=O)c2ccc(-c3c4nc(c(-c5c(F)cccc5F)c5ccc([nH]5)c(-c5c(F)cccc5F)c5nc(c(-c6c(F)cccc6F)c6ccc3[nH]6)C=C5)C=C4)cc2)cccc1C(=O)N1CCOCC1
REMARK SMILES IDX 17 1 16 2 15 3 13 4 14 5 12 7 7 8 8 9 9 10 11 11 10 12 5 13
REMARK SMILES IDX 4 14 6 16 3 17 1 18 2 19 80 20 77 21 79 22 78 23 81 24 82 25
REMARK SMILES IDX 83 26 84 27 88 28 85 29 87 30 86 31 18 32 19 33 20 34 21 35
REMARK SMILES IDX 22 37 23 38 24 39 76 40 25 41 75 42 26 43 27 44 28 45 69 46
REMARK SMILES IDX 29 47 74 48 68 49 70 50 30 51 73 52 67 53 66 54 31 56 57 57
REMARK SMILES IDX 40 58 56 59 41 60 44 61 55 62 71 63 42 64 43 65 54 67 72 68
REMARK SMILES IDX 45 69 32 70 33 71 38 72 34 73 35 74 37 75 39 76 36 77 58 78
REMARK SMILES IDX 59 79 64 80 60 81 61 82 63 83 65 84 62 85 46 86 47 87 52 88
REMARK SMILES IDX 48 89 49 90 51 91 53 92 50 93
REMARK H PARENT 15 6 4 15 20 36 70 55 44 66
REMARK Flexibility Score: inf
ROOT
ATOM      1  C   UNL     1      -4.131  -4.406   2.403  1.00  0.00     0.023 C 
ENDROOT
BRANCH   1   2
ATOM      2  C   UNL     1      -3.915  -4.621   0.893  1.00  0.00     0.116 C 
BRANCH   2   3
ATOM      3  N   UNL     1      -4.164  -3.428   0.101  1.00  0.00    -0.356 N 
ATOM      4  C   UNL     1      -3.469  -2.588  -0.694  1.00  0.00     0.224 C 
ATOM      5  O   UNL     1      -4.212  -1.789  -1.294  1.00  0.00    -0.275 OA
ATOM      6  H   UNL     1      -5.108  -3.156   0.161  1.00  0.00     0.163 HD
BRANCH   4   7
ATOM      7  C   UNL     1      -1.949  -2.512  -0.984  1.00  0.00     0.095 C 
ATOM      8  C   UNL     1      -0.870  -3.288  -0.192  1.00  0.00     0.095 C 
ATOM      9  C   UNL     1      -0.926  -2.910   1.289  1.00  0.00     0.041 C 
ATOM     10  C   UNL     1      -0.996  -1.421   1.488  1.00  0.00    -0.030 C 
ATOM     11  C   UNL     1      -1.545  -1.011  -0.919  1.00  0.00     0.041 C 
ATOM     12  C   UNL     1      -1.239  -0.562   0.486  1.00  0.00    -0.030 C 
BRANCH   8  13
ATOM     13  C   UNL     1      -0.879  -4.758  -0.555  1.00  0.00     0.228 C 
ATOM     14  N   UNL     1      -0.064  -5.691  -0.010  1.00  0.00    -0.326 N 
ATOM     15  H   UNL     1      -0.342  -6.598  -0.270  1.00  0.00     0.169 HD
ATOM     16  O   UNL     1      -1.684  -5.191  -1.390  1.00  0.00    -0.274 OA
BRANCH  14  17
ATOM     17  C   UNL     1       1.071  -5.729   0.825  1.00  0.00     0.044 A 
ATOM     18  C   UNL     1       0.241  -7.986   1.514  1.00  0.00     0.047 C 
ATOM     19  C   UNL     1       1.335  -6.963   1.485  1.00  0.00    -0.015 A 
ATOM     20  C   UNL     1       2.528  -7.160   2.206  1.00  0.00     0.045 A 
ATOM     21  C   UNL     1       1.946  -4.665   1.012  1.00  0.00     0.026 A 
ATOM     22  C   UNL     1       3.370  -6.059   2.405  1.00  0.00     0.014 A 
ATOM     23  C   UNL     1       3.070  -4.819   1.831  1.00  0.00     0.003 A 
BRANCH  20  24
ATOM     24  C   UNL     1       2.832  -8.411   2.972  1.00  0.00     0.254 C 
ATOM     25  O   UNL     1       3.271  -8.272   4.114  1.00  0.00    -0.269 OA
ATOM     26  N   UNL     1       2.532  -9.671   2.453  1.00  0.00    -0.334 N 
ATOM     27  C   UNL     1       2.606 -10.087   1.045  1.00  0.00     0.148 C 
ATOM     28  C   UNL     1       2.355 -10.782   3.391  1.00  0.00     0.148 C 
ATOM     29  C   UNL     1       1.501 -11.101   0.678  1.00  0.00     0.181 C 
ATOM     30  C   UNL     1       1.174 -11.653   2.954  1.00  0.00     0.181 C 
ATOM     31  O   UNL     1       1.397 -12.169   1.632  1.00  0.00    -0.378 OA
ENDBRANCH  20  24
ENDBRANCH  14  17
ENDBRANCH   8  13
ENDBRANCH   4   7
ENDBRANCH   2   3
ENDBRANCH   1   2
BRANCH   1  32
ATOM     32  C   UNL     1      -5.563  -4.105   2.843  1.00  0.00     0.023 C 
BRANCH  32  33
ATOM     33  C   UNL     1      -6.497  -5.303   2.786  1.00  0.00     0.116 C 
BRANCH  33  34
ATOM     34  N   UNL     1      -6.551  -6.114   4.004  1.00  0.00    -0.352 N 
ATOM     35  C   UNL     1      -7.176  -7.334   4.190  1.00  0.00     0.251 C 
ATOM     36  H   UNL     1      -6.085  -5.745   4.789  1.00  0.00     0.163 HD
ATOM     37  O   UNL     1      -7.141  -7.895   5.284  1.00  0.00    -0.269 OA
BRANCH  35  38
ATOM     38  C   UNL     1      -7.761  -8.029   3.015  1.00  0.00     0.039 A 
ATOM     39  C   UNL     1      -7.345  -9.339   2.764  1.00  0.00     0.014 A 
ATOM     40  C   UNL     1      -8.446  -7.310   2.040  1.00  0.00     0.014 A 
ATOM     41  C   UNL     1      -7.340  -9.804   1.452  1.00  0.00     0.010 A 
ATOM     42  C   UNL     1      -8.350  -7.725   0.726  1.00  0.00     0.010 A 
ATOM     43  C   UNL     1      -7.727  -8.939   0.426  1.00  0.00    -0.014 A 
BRANCH  43  44
ATOM     44  C   UNL     1      -7.431  -9.210  -0.976  1.00  0.00     0.031 A 
ATOM     45  C   UNL     1      -8.468  -9.764  -1.856  1.00  0.00     0.074 A 
ATOM     46  C   UNL     1      -6.199  -8.986  -1.484  1.00  0.00     0.049 A 
ATOM     47  N   UNL     1      -8.246 -10.635  -2.782  1.00  0.00    -0.248 NA
ATOM     48  C   UNL     1      -9.863  -9.367  -1.740  1.00  0.00     0.031 C 
ATOM     49  C   UNL     1      -5.765  -9.138  -2.871  1.00  0.00     0.029 A 
ATOM     50  N   UNL     1      -5.009  -8.840  -0.767  1.00  0.00    -0.354 N 
ATOM     51  C   UNL     1      -9.369 -10.670  -3.575  1.00  0.00     0.074 A 
ATOM     52  C   UNL     1     -10.373  -9.936  -2.835  1.00  0.00     0.031 C 
ATOM     53  C   UNL     1      -4.459  -9.453  -2.873  1.00  0.00     0.029 A 
ATOM     54  C   UNL     1      -4.049  -9.588  -1.487  1.00  0.00     0.049 A 
ATOM     55  H   UNL     1      -4.868  -8.327   0.061  1.00  0.00     0.167 HD
ATOM     56  C   UNL     1      -9.285 -11.156  -4.848  1.00  0.00     0.037 A 
ATOM     57  C   UNL     1      -3.395 -10.642  -0.921  1.00  0.00     0.037 A 
ATOM     58  C   UNL     1      -7.938 -11.633  -5.160  1.00  0.00     0.049 A 
ATOM     59  C   UNL     1      -3.525 -11.920  -1.705  1.00  0.00     0.074 A 
ATOM     60  C   UNL     1      -6.880 -11.047  -5.838  1.00  0.00     0.029 A 
ATOM     61  N   UNL     1      -7.410 -12.737  -4.495  1.00  0.00    -0.354 N 
ATOM     62  N   UNL     1      -4.445 -12.100  -2.609  1.00  0.00    -0.248 NA
ATOM     63  C   UNL     1      -2.683 -13.100  -1.522  1.00  0.00     0.031 C 
ATOM     64  C   UNL     1      -5.704 -11.773  -5.541  1.00  0.00     0.029 A 
ATOM     65  C   UNL     1      -6.042 -12.805  -4.684  1.00  0.00     0.049 A 
ATOM     66  H   UNL     1      -7.937 -13.377  -3.964  1.00  0.00     0.167 HD
ATOM     67  C   UNL     1      -4.358 -13.372  -3.103  1.00  0.00     0.074 A 
ATOM     68  C   UNL     1      -3.229 -13.957  -2.405  1.00  0.00     0.031 C 
ATOM     69  C   UNL     1      -5.236 -13.831  -4.041  1.00  0.00     0.037 A 
BRANCH  56  70
ATOM     70  C   UNL     1     -10.337 -10.838  -5.889  1.00  0.00     0.057 A 
ATOM     71  C   UNL     1      -9.992 -10.587  -7.231  1.00  0.00     0.134 A 
ATOM     72  C   UNL     1     -11.705 -10.693  -5.608  1.00  0.00     0.134 A 
ATOM     73  F   UNL     1      -8.760 -10.816  -7.701  1.00  0.00    -0.206 F 
ATOM     74  C   UNL     1     -10.900 -10.081  -8.169  1.00  0.00     0.040 A 
ATOM     75  C   UNL     1     -12.614 -10.132  -6.517  1.00  0.00     0.040 A 
ATOM     76  F   UNL     1     -12.225 -11.123  -4.449  1.00  0.00    -0.206 F 
ATOM     77  C   UNL     1     -12.207  -9.804  -7.801  1.00  0.00     0.006 A 
ENDBRANCH  56  70
BRANCH  57  78
ATOM     78  C   UNL     1      -3.275 -10.519   0.556  1.00  0.00     0.057 A 
ATOM     79  C   UNL     1      -2.767  -9.306   1.060  1.00  0.00     0.134 A 
ATOM     80  C   UNL     1      -3.947 -11.338   1.461  1.00  0.00     0.134 A 
ATOM     81  F   UNL     1      -2.139  -8.457   0.227  1.00  0.00    -0.206 F 
ATOM     82  C   UNL     1      -3.027  -8.862   2.357  1.00  0.00     0.040 A 
ATOM     83  C   UNL     1      -4.185 -10.919   2.778  1.00  0.00     0.040 A 
ATOM     84  F   UNL     1      -4.488 -12.498   1.064  1.00  0.00    -0.206 F 
ATOM     85  C   UNL     1      -3.762  -9.662   3.216  1.00  0.00     0.006 A 
ENDBRANCH  57  78
BRANCH  69  86
ATOM     86  C   UNL     1      -5.332 -15.253  -4.513  1.00  0.00     0.057 A 
ATOM     87  C   UNL     1      -5.101 -16.365  -3.692  1.00  0.00     0.134 A 
ATOM     88  C   UNL     1      -5.799 -15.544  -5.812  1.00  0.00     0.134 A 
ATOM     89  F   UNL     1      -4.758 -16.222  -2.404  1.00  0.00    -0.206 F 
ATOM     90  C   UNL     1      -5.259 -17.679  -4.151  1.00  0.00     0.040 A 
ATOM     91  C   UNL     1      -6.005 -16.849  -6.266  1.00  0.00     0.040 A 
ATOM     92  F   UNL     1      -6.089 -14.570  -6.689  1.00  0.00    -0.206 F 
ATOM     93  C   UNL     1      -5.720 -17.925  -5.439  1.00  0.00     0.006 A 
ENDBRANCH  69  86
ENDBRANCH  43  44
ENDBRANCH  35  38
ENDBRANCH  33  34
ENDBRANCH  32  33
ENDBRANCH   1  32
TORSDOF 14
