REMARK SMILES COc1ccc([C@H]2[NH2+][C@@H](C(=O)NCCCCNC(=O)c3ccc(-c4c5nc(c(-c6c(F)cccc6F)c6ccc([nH]6)c(-c6c(F)cccc6F)c6nc(c(-c7c(F)cccc7F)c7ccc4[nH]7)C=C6)C=C5)cc3)CC3=c4ccccc4=N[C@H]32)cc1Cn1cc([N+](=O)[O-])cn1
REMARK SMILES IDX 13 1 12 2 10 3 11 4 9 6 7 7 8 8 83 9 75 12 82 13 74 14 76 15
REMARK SMILES IDX 81 16 77 17 80 18 78 19 79 20 6 21 3 22 4 23 85 24 5 25
REMARK SMILES IDX 84 26 2 27 1 28 86 29 87 30 88 31 94 32 89 33 93 34 90 35
REMARK SMILES IDX 91 36 92 37 14 38 15 39 16 40 17 41 18 42 19 44 20 45 21 46
REMARK SMILES IDX 73 47 22 48 72 49 23 50 24 51 25 52 66 53 26 54 71 55 65 56
REMARK SMILES IDX 67 57 27 58 70 59 64 60 63 61 28 63 54 64 37 65 53 66 38 67
REMARK SMILES IDX 41 68 52 69 68 70 39 71 40 72 51 74 69 75 42 76 29 77 30 78
REMARK SMILES IDX 35 79 31 80 32 81 34 82 36 83 33 84 55 85 56 86 61 87 57 88
REMARK SMILES IDX 58 89 60 90 62 91 59 92 43 93 44 94 49 95 45 96 46 97 48 98
REMARK SMILES IDX 50 99 47 100
REMARK H PARENT 12 5 8 10 8 11 17 43 67 62 41 73
REMARK Flexibility Score: inf
ROOT
ATOM      1  C   UNL     1       3.522  -3.176  -9.305  1.00  0.00     0.116 C 
ENDROOT
BRANCH   1   2
ATOM      2  N   UNL     1       3.795  -1.740  -9.263  1.00  0.00    -0.351 N 
ATOM      3  C   UNL     1       3.005  -0.685  -8.861  1.00  0.00     0.278 C 
ATOM      4  O   UNL     1       3.486   0.448  -9.022  1.00  0.00    -0.268 OA
ATOM      5  H   UNL     1       4.693  -1.484  -9.573  1.00  0.00     0.163 HD
BRANCH   3   6
ATOM      6  C   UNL     1       1.617  -0.792  -8.139  1.00  0.00     0.277 C 
ATOM      7  C   UNL     1       2.383  -2.038  -6.135  1.00  0.00     0.243 C 
ATOM      8  N   UNL     1       1.744  -0.801  -6.657  1.00  0.00    -0.327 N 
ATOM      9  C   UNL     1       1.319  -3.251  -6.632  1.00  0.00     0.196 C 
ATOM     10  H   UNL     1       2.309  -0.000  -6.374  1.00  0.00     0.347 HD
ATOM     11  H   UNL     1       0.801  -0.759  -6.270  1.00  0.00     0.347 HD
ATOM     12  C   UNL     1       0.734  -3.140  -8.040  1.00  0.00    -0.024 C 
ATOM     13  N   UNL     1       1.755  -4.686  -6.562  1.00  0.00    -0.270 NA
ATOM     14  C   UNL     1       0.578  -1.793  -8.651  1.00  0.00     0.109 C 
ATOM     15  C   UNL     1       0.724  -4.313  -8.679  1.00  0.00     0.002 A 
ATOM     16  C   UNL     1       1.321  -5.216  -7.681  1.00  0.00     0.066 A 
ATOM     17  C   UNL     1       0.674  -4.654 -10.077  1.00  0.00     0.010 A 
ATOM     18  C   UNL     1       1.548  -6.614  -8.167  1.00  0.00     0.028 A 
ATOM     19  C   UNL     1       1.162  -5.843 -10.470  1.00  0.00     0.001 A 
ATOM     20  C   UNL     1       1.560  -6.844  -9.496  1.00  0.00     0.002 A 
BRANCH   7  21
ATOM     21  C   UNL     1       3.968  -1.848  -6.187  1.00  0.00     0.012 A 
ATOM     22  C   UNL     1       6.846  -1.612  -6.486  1.00  0.00     0.123 A 
ATOM     23  C   UNL     1       6.035  -0.578  -5.941  1.00  0.00     0.047 A 
ATOM     24  C   UNL     1       6.317  -2.856  -6.836  1.00  0.00     0.016 A 
ATOM     25  C   UNL     1       4.631  -0.699  -5.772  1.00  0.00     0.014 A 
ATOM     26  C   UNL     1       4.859  -2.815  -6.692  1.00  0.00     0.019 A 
BRANCH  22  27
ATOM     27  O   UNL     1       8.178  -1.321  -6.628  1.00  0.00    -0.496 OA
ATOM     28  C   UNL     1       8.504  -1.050  -7.996  1.00  0.00     0.278 C 
ENDBRANCH  22  27
BRANCH  24  29
ATOM     29  C   UNL     1       7.333  -3.985  -7.510  1.00  0.00     0.183 C 
BRANCH  29  30
ATOM     30  N   UNL     1       7.647  -5.542  -7.441  1.00  0.00    -0.261 N 
ATOM     31  C   UNL     1       6.997  -6.743  -7.288  1.00  0.00     0.194 A 
ATOM     32  N   UNL     1       8.930  -5.887  -7.804  1.00  0.00    -0.174 NA
ATOM     33  C   UNL     1       7.859  -7.804  -7.235  1.00  0.00     0.307 A 
ATOM     34  C   UNL     1       9.054  -7.211  -7.572  1.00  0.00     0.220 A 
BRANCH  33  35
ATOM     35  N   UNL     1       7.502  -9.146  -6.866  1.00  0.00     0.066 N 
ATOM     36  O   UNL     1       8.428  -9.925  -6.613  1.00  0.00    -0.258 OA
ATOM     37  O   UNL     1       6.292  -9.418  -6.813  1.00  0.00    -0.258 OA
ENDBRANCH  33  35
ENDBRANCH  29  30
ENDBRANCH  24  29
ENDBRANCH   7  21
ENDBRANCH   3   6
ENDBRANCH   1   2
BRANCH   1  38
ATOM     38  C   UNL     1       4.642  -4.232  -9.083  1.00  0.00     0.023 C 
BRANCH  38  39
ATOM     39  C   UNL     1       4.586  -5.431  -7.882  1.00  0.00     0.023 C 
BRANCH  39  40
ATOM     40  C   UNL     1       4.860  -5.370  -6.091  1.00  0.00     0.116 C 
BRANCH  40  41
ATOM     41  N   UNL     1       5.294  -6.439  -5.148  1.00  0.00    -0.352 N 
ATOM     42  C   UNL     1       6.361  -6.504  -4.212  1.00  0.00     0.251 C 
ATOM     43  H   UNL     1       4.738  -7.250  -5.179  1.00  0.00     0.163 HD
ATOM     44  O   UNL     1       6.193  -7.260  -3.243  1.00  0.00    -0.269 OA
BRANCH  42  45
ATOM     45  C   UNL     1       7.773  -5.928  -4.350  1.00  0.00     0.039 A 
ATOM     46  C   UNL     1       8.847  -6.845  -4.290  1.00  0.00     0.014 A 
ATOM     47  C   UNL     1       8.142  -4.587  -4.483  1.00  0.00     0.014 A 
ATOM     48  C   UNL     1      10.199  -6.476  -4.552  1.00  0.00     0.010 A 
ATOM     49  C   UNL     1       9.507  -4.212  -4.753  1.00  0.00     0.010 A 
ATOM     50  C   UNL     1      10.556  -5.154  -4.851  1.00  0.00    -0.014 A 
BRANCH  50  51
ATOM     51  C   UNL     1      12.014  -4.777  -5.095  1.00  0.00     0.031 A 
ATOM     52  C   UNL     1      12.823  -4.216  -3.950  1.00  0.00     0.074 A 
ATOM     53  C   UNL     1      12.689  -4.950  -6.261  1.00  0.00     0.049 A 
ATOM     54  N   UNL     1      14.097  -3.904  -3.897  1.00  0.00    -0.248 NA
ATOM     55  C   UNL     1      12.092  -3.976  -2.700  1.00  0.00     0.031 C 
ATOM     56  C   UNL     1      12.127  -5.460  -7.496  1.00  0.00     0.029 A 
ATOM     57  N   UNL     1      14.012  -4.719  -6.611  1.00  0.00    -0.354 N 
ATOM     58  C   UNL     1      14.322  -3.446  -2.607  1.00  0.00     0.074 A 
ATOM     59  C   UNL     1      13.042  -3.473  -1.927  1.00  0.00     0.031 C 
ATOM     60  C   UNL     1      13.063  -5.535  -8.455  1.00  0.00     0.029 A 
ATOM     61  C   UNL     1      14.325  -5.048  -7.918  1.00  0.00     0.049 A 
ATOM     62  H   UNL     1      14.674  -4.352  -5.982  1.00  0.00     0.167 HD
ATOM     63  C   UNL     1      15.480  -3.057  -2.017  1.00  0.00     0.037 A 
ATOM     64  C   UNL     1      15.476  -4.976  -8.624  1.00  0.00     0.037 A 
ATOM     65  C   UNL     1      16.771  -2.998  -2.651  1.00  0.00     0.049 A 
ATOM     66  C   UNL     1      16.737  -4.482  -7.967  1.00  0.00     0.074 A 
ATOM     67  C   UNL     1      17.983  -2.613  -2.100  1.00  0.00     0.029 A 
ATOM     68  N   UNL     1      17.022  -3.320  -3.974  1.00  0.00    -0.354 N 
ATOM     69  N   UNL     1      16.931  -4.115  -6.726  1.00  0.00    -0.248 NA
ATOM     70  C   UNL     1      17.946  -4.402  -8.808  1.00  0.00     0.031 C 
ATOM     71  C   UNL     1      18.962  -2.670  -3.098  1.00  0.00     0.029 A 
ATOM     72  C   UNL     1      18.366  -3.127  -4.260  1.00  0.00     0.049 A 
ATOM     73  H   UNL     1      16.347  -3.638  -4.616  1.00  0.00     0.167 HD
ATOM     74  C   UNL     1      18.282  -3.802  -6.628  1.00  0.00     0.074 A 
ATOM     75  C   UNL     1      18.866  -4.026  -7.931  1.00  0.00     0.031 C 
ATOM     76  C   UNL     1      18.968  -3.369  -5.545  1.00  0.00     0.037 A 
BRANCH  63  77
ATOM     77  C   UNL     1      15.385  -2.651  -0.578  1.00  0.00     0.057 A 
ATOM     78  C   UNL     1      15.195  -3.600   0.436  1.00  0.00     0.134 A 
ATOM     79  C   UNL     1      15.466  -1.305  -0.204  1.00  0.00     0.134 A 
ATOM     80  F   UNL     1      15.095  -4.904   0.136  1.00  0.00    -0.206 F 
ATOM     81  C   UNL     1      15.049  -3.219   1.769  1.00  0.00     0.040 A 
ATOM     82  C   UNL     1      15.347  -0.914   1.130  1.00  0.00     0.040 A 
ATOM     83  F   UNL     1      15.656  -0.351  -1.128  1.00  0.00    -0.206 F 
ATOM     84  C   UNL     1      15.127  -1.872   2.119  1.00  0.00     0.006 A 
ENDBRANCH  63  77
BRANCH  64  85
ATOM     85  C   UNL     1      15.532  -5.392 -10.058  1.00  0.00     0.057 A 
ATOM     86  C   UNL     1      16.243  -6.535 -10.453  1.00  0.00     0.134 A 
ATOM     87  C   UNL     1      14.972  -4.607 -11.072  1.00  0.00     0.134 A 
ATOM     88  F   UNL     1      16.840  -7.309  -9.535  1.00  0.00    -0.206 F 
ATOM     89  C   UNL     1      16.416  -6.865 -11.801  1.00  0.00     0.040 A 
ATOM     90  C   UNL     1      15.118  -4.938 -12.423  1.00  0.00     0.040 A 
ATOM     91  F   UNL     1      14.291  -3.493 -10.768  1.00  0.00    -0.206 F 
ATOM     92  C   UNL     1      15.852  -6.065 -12.791  1.00  0.00     0.006 A 
ENDBRANCH  64  85
BRANCH  76  93
ATOM     93  C   UNL     1      20.446  -3.151  -5.691  1.00  0.00     0.057 A 
ATOM     94  C   UNL     1      20.971  -2.062  -6.400  1.00  0.00     0.134 A 
ATOM     95  C   UNL     1      21.358  -4.016  -5.073  1.00  0.00     0.134 A 
ATOM     96  F   UNL     1      20.154  -1.203  -7.028  1.00  0.00    -0.206 F 
ATOM     97  C   UNL     1      22.348  -1.849  -6.498  1.00  0.00     0.040 A 
ATOM     98  C   UNL     1      22.736  -3.802  -5.145  1.00  0.00     0.040 A 
ATOM     99  F   UNL     1      20.924  -5.077  -4.376  1.00  0.00    -0.206 F 
ATOM    100  C   UNL     1      23.235  -2.717  -5.862  1.00  0.00     0.006 A 
ENDBRANCH  76  93
ENDBRANCH  50  51
ENDBRANCH  42  45
ENDBRANCH  40  41
ENDBRANCH  39  40
ENDBRANCH  38  39
ENDBRANCH   1  38
TORSDOF 16
