REMARK SMILES Cc1cc(F)cc(N[C@@](C)(C(=O)NCCCCNC(=O)c2ccc(-c3c4nc(c(-c5c(F)cccc5F)c5ccc([nH]5)c(-c5c(F)cccc5F)c5nc(c(-c6c(F)cccc6F)c6ccc3[nH]6)C=C5)C=C4)cc2)c2ccc(O)cc2)c1
REMARK SMILES IDX 15 1 14 2 13 3 11 4 12 5 9 7 10 8 8 9 7 11 1 12 2 13 3 14
REMARK SMILES IDX 82 15 4 16 5 17 6 18 75 19 76 20 81 21 77 22 80 23 78 24
REMARK SMILES IDX 79 25 16 27 17 28 18 29 19 30 20 32 21 33 22 34 74 35 23 36
REMARK SMILES IDX 73 37 24 38 25 39 26 40 67 41 27 42 72 43 66 44 68 45 28 46
REMARK SMILES IDX 71 47 65 48 64 49 29 51 55 52 38 53 54 54 39 55 42 56 53 57
REMARK SMILES IDX 69 58 40 59 41 60 52 62 70 63 43 64 30 65 31 66 36 67 32 68
REMARK SMILES IDX 33 69 35 70 37 71 34 72 56 73 57 74 62 75 58 76 59 77 61 78
REMARK SMILES IDX 63 79 60 80 44 81 45 82 50 83 46 84 47 85 49 86 51 87 48 88
REMARK H PARENT 13 6 8 10 79 26 18 31 68 50 42 61
REMARK Flexibility Score: inf
ROOT
ATOM      1  C   UNL     1       2.761  -5.517   1.149  1.00  0.00     0.023 C 
ENDROOT
BRANCH   1   2
ATOM      2  C   UNL     1       1.456  -5.806   0.410  1.00  0.00     0.116 C 
BRANCH   2   3
ATOM      3  N   UNL     1       0.294  -5.588   1.250  1.00  0.00    -0.354 N 
ATOM      4  C   UNL     1      -0.779  -4.739   1.158  1.00  0.00     0.250 C 
ATOM      5  O   UNL     1      -1.480  -4.719   2.178  1.00  0.00    -0.272 OA
ATOM      6  H   UNL     1       0.272  -6.165   2.046  1.00  0.00     0.163 HD
BRANCH   4   7
ATOM      7  C   UNL     1      -1.078  -3.862  -0.134  1.00  0.00     0.139 C 
ATOM      8  C   UNL     1      -1.117  -4.765  -1.393  1.00  0.00     0.051 C 
BRANCH   7   9
ATOM      9  N   UNL     1       0.051  -2.899  -0.289  1.00  0.00    -0.368 N 
ATOM     10  H   UNL     1       0.771  -3.210  -0.883  1.00  0.00     0.161 HD
BRANCH   9  11
ATOM     11  C   UNL     1       0.262  -1.645   0.258  1.00  0.00     0.038 A 
ATOM     12  C   UNL     1       2.866   1.124  -0.276  1.00  0.00     0.044 C 
ATOM     13  C   UNL     1       1.631   0.409   0.184  1.00  0.00    -0.046 A 
ATOM     14  C   UNL     1       0.637   1.096   0.876  1.00  0.00     0.042 A 
ATOM     15  C   UNL     1       1.419  -0.943  -0.140  1.00  0.00     0.029 A 
ATOM     16  C   UNL     1      -0.478   0.403   1.326  1.00  0.00     0.125 A 
ATOM     17  F   UNL     1      -1.432   1.067   1.993  1.00  0.00    -0.207 F 
ATOM     18  C   UNL     1      -0.642  -0.958   1.068  1.00  0.00     0.065 A 
ENDBRANCH   9  11
ENDBRANCH   7   9
BRANCH   7  19
ATOM     19  C   UNL     1      -2.478  -3.182  -0.159  1.00  0.00    -0.013 A 
ATOM     20  C   UNL     1      -2.713  -2.042  -0.960  1.00  0.00     0.010 A 
ATOM     21  C   UNL     1      -3.579  -3.694   0.554  1.00  0.00     0.010 A 
ATOM     22  C   UNL     1      -3.929  -1.356  -0.914  1.00  0.00     0.046 A 
ATOM     23  C   UNL     1      -4.803  -3.017   0.594  1.00  0.00     0.046 A 
ATOM     24  C   UNL     1      -4.954  -1.833  -0.114  1.00  0.00     0.115 A 
BRANCH  24  25
ATOM     25  O   UNL     1      -6.105  -1.108  -0.043  1.00  0.00    -0.508 OA
ATOM     26  H   UNL     1      -6.188  -0.311  -0.528  1.00  0.00     0.293 HD
ENDBRANCH  24  25
ENDBRANCH   7  19
ENDBRANCH   4   7
ENDBRANCH   2   3
ENDBRANCH   1   2
BRANCH   1  27
ATOM     27  C   UNL     1       3.076  -6.456   2.315  1.00  0.00     0.023 C 
BRANCH  27  28
ATOM     28  C   UNL     1       3.094  -7.945   1.982  1.00  0.00     0.116 C 
BRANCH  28  29
ATOM     29  N   UNL     1       4.042  -8.289   0.935  1.00  0.00    -0.352 N 
ATOM     30  C   UNL     1       4.981  -9.295   0.898  1.00  0.00     0.251 C 
ATOM     31  H   UNL     1       4.006  -7.719   0.134  1.00  0.00     0.163 HD
ATOM     32  O   UNL     1       5.772  -9.359  -0.033  1.00  0.00    -0.269 OA
BRANCH  30  33
ATOM     33  C   UNL     1       5.058 -10.278   2.002  1.00  0.00     0.039 A 
ATOM     34  C   UNL     1       6.311 -10.587   2.539  1.00  0.00     0.014 A 
ATOM     35  C   UNL     1       3.908 -10.888   2.509  1.00  0.00     0.014 A 
ATOM     36  C   UNL     1       6.403 -11.447   3.636  1.00  0.00     0.010 A 
ATOM     37  C   UNL     1       3.994 -11.690   3.645  1.00  0.00     0.010 A 
ATOM     38  C   UNL     1       5.241 -11.974   4.224  1.00  0.00    -0.014 A 
BRANCH  38  39
ATOM     39  C   UNL     1       5.306 -12.809   5.452  1.00  0.00     0.031 A 
ATOM     40  C   UNL     1       4.849 -14.242   5.419  1.00  0.00     0.074 A 
ATOM     41  C   UNL     1       5.696 -12.252   6.616  1.00  0.00     0.049 A 
ATOM     42  N   UNL     1       4.739 -15.096   6.405  1.00  0.00    -0.248 NA
ATOM     43  C   UNL     1       4.432 -14.777   4.113  1.00  0.00     0.031 C 
ATOM     44  C   UNL     1       6.106 -10.858   6.795  1.00  0.00     0.029 A 
ATOM     45  N   UNL     1       5.789 -12.788   7.878  1.00  0.00    -0.354 N 
ATOM     46  C   UNL     1       4.215 -16.255   5.845  1.00  0.00     0.074 A 
ATOM     47  C   UNL     1       3.996 -15.985   4.441  1.00  0.00     0.031 C 
ATOM     48  C   UNL     1       6.414 -10.651   8.086  1.00  0.00     0.029 A 
ATOM     49  C   UNL     1       6.190 -11.884   8.833  1.00  0.00     0.049 A 
ATOM     50  H   UNL     1       5.587 -13.730   8.079  1.00  0.00     0.167 HD
ATOM     51  C   UNL     1       3.955 -17.440   6.445  1.00  0.00     0.037 A 
ATOM     52  C   UNL     1       6.346 -12.029  10.162  1.00  0.00     0.037 A 
ATOM     53  C   UNL     1       4.221 -17.724   7.830  1.00  0.00     0.049 A 
ATOM     54  C   UNL     1       6.081 -13.368  10.794  1.00  0.00     0.074 A 
ATOM     55  C   UNL     1       4.084 -18.926   8.503  1.00  0.00     0.029 A 
ATOM     56  N   UNL     1       4.677 -16.797   8.754  1.00  0.00    -0.354 N 
ATOM     57  N   UNL     1       5.674 -14.481  10.233  1.00  0.00    -0.248 NA
ATOM     58  C   UNL     1       6.304 -13.475  12.243  1.00  0.00     0.031 C 
ATOM     59  C   UNL     1       4.417 -18.717   9.845  1.00  0.00     0.029 A 
ATOM     60  C   UNL     1       4.804 -17.395   9.997  1.00  0.00     0.049 A 
ATOM     61  H   UNL     1       4.880 -15.854   8.556  1.00  0.00     0.167 HD
ATOM     62  C   UNL     1       5.623 -15.424  11.251  1.00  0.00     0.074 A 
ATOM     63  C   UNL     1       6.053 -14.758  12.462  1.00  0.00     0.031 C 
ATOM     64  C   UNL     1       5.251 -16.725  11.189  1.00  0.00     0.037 A 
BRANCH  51  65
ATOM     65  C   UNL     1       3.359 -18.534   5.609  1.00  0.00     0.057 A 
ATOM     66  C   UNL     1       4.109 -19.225   4.651  1.00  0.00     0.134 A 
ATOM     67  C   UNL     1       2.038 -18.949   5.820  1.00  0.00     0.134 A 
ATOM     68  F   UNL     1       5.378 -18.870   4.395  1.00  0.00    -0.206 F 
ATOM     69  C   UNL     1       3.563 -20.282   3.921  1.00  0.00     0.040 A 
ATOM     70  C   UNL     1       1.488 -20.020   5.114  1.00  0.00     0.040 A 
ATOM     71  F   UNL     1       1.266 -18.333   6.729  1.00  0.00    -0.206 F 
ATOM     72  C   UNL     1       2.252 -20.688   4.159  1.00  0.00     0.006 A 
ENDBRANCH  51  65
BRANCH  52  73
ATOM     73  C   UNL     1       6.782 -10.880  10.996  1.00  0.00     0.057 A 
ATOM     74  C   UNL     1       8.048 -10.858  11.594  1.00  0.00     0.134 A 
ATOM     75  C   UNL     1       5.932  -9.796  11.245  1.00  0.00     0.134 A 
ATOM     76  F   UNL     1       8.899 -11.878  11.409  1.00  0.00    -0.206 F 
ATOM     77  C   UNL     1       8.442  -9.815  12.433  1.00  0.00     0.040 A 
ATOM     78  C   UNL     1       6.324  -8.733  12.061  1.00  0.00     0.040 A 
ATOM     79  F   UNL     1       4.710  -9.753  10.696  1.00  0.00    -0.206 F 
ATOM     80  C   UNL     1       7.579  -8.746  12.667  1.00  0.00     0.006 A 
ENDBRANCH  52  73
BRANCH  64  81
ATOM     81  C   UNL     1       5.334 -17.526  12.454  1.00  0.00     0.057 A 
ATOM     82  C   UNL     1       4.420 -17.353  13.501  1.00  0.00     0.134 A 
ATOM     83  C   UNL     1       6.317 -18.512  12.608  1.00  0.00     0.134 A 
ATOM     84  F   UNL     1       3.463 -16.416  13.420  1.00  0.00    -0.206 F 
ATOM     85  C   UNL     1       4.493 -18.119  14.665  1.00  0.00     0.040 A 
ATOM     86  C   UNL     1       6.384 -19.302  13.756  1.00  0.00     0.040 A 
ATOM     87  F   UNL     1       7.217 -18.734  11.638  1.00  0.00    -0.206 F 
ATOM     88  C   UNL     1       5.474 -19.102  14.791  1.00  0.00     0.006 A 
ENDBRANCH  64  81
ENDBRANCH  38  39
ENDBRANCH  30  33
ENDBRANCH  28  29
ENDBRANCH  27  28
ENDBRANCH   1  27
TORSDOF 15
