REMARK SMILES O=C(NCCCCNC(=O)c1ccn(-c2cc(-c3ccncc3)nc(-c3ccccc3F)n2)n1)c1ccc(-c2c3nc(c(-c4c(F)cccc4F)c4ccc([nH]4)c(-c4c(F)cccc4F)c4nc(c(-c5c(F)cccc5F)c5ccc2[nH]5)C=C4)C=C3)cc1
REMARK SMILES IDX 5 1 4 2 3 3 1 4 2 5 35 7 36 8 88 9 37 10 87 11 38 12 39 13
REMARK SMILES IDX 40 14 81 15 41 16 86 17 80 18 82 19 42 20 85 21 79 22 78 23
REMARK SMILES IDX 43 25 69 26 52 27 68 28 53 29 56 30 67 31 83 32 54 33 55 34
REMARK SMILES IDX 66 36 84 37 57 38 44 39 45 40 50 41 46 42 47 43 49 44 51 45
REMARK SMILES IDX 48 46 70 47 71 48 76 49 72 50 73 51 75 52 77 53 74 54 58 55
REMARK SMILES IDX 59 56 64 57 60 58 61 59 63 60 65 61 62 62 6 63 7 64 8 65
REMARK SMILES IDX 9 66 10 68 11 69 12 70 34 71 13 72 14 73 15 74 16 75 33 76
REMARK SMILES IDX 17 77 25 78 24 79 18 80 19 81 23 82 20 83 22 84 21 85 26 86
REMARK SMILES IDX 27 87 31 88 28 89 30 90 32 91 29 92
REMARK H PARENT 3 6 82 24 56 35 8 67
REMARK Flexibility Score: inf
ROOT
ATOM      1  C   UNL     1       4.871   0.324  -2.257  1.00  0.00     0.023 C 
ENDROOT
BRANCH   1   2
ATOM      2  C   UNL     1       4.629   0.743  -0.804  1.00  0.00     0.116 C 
BRANCH   2   3
ATOM      3  N   UNL     1       3.242   1.016  -0.492  1.00  0.00    -0.352 N 
ATOM      4  O   UNL     1       1.146   0.863   0.175  1.00  0.00    -0.269 OA
ATOM      5  C   UNL     1       2.169   0.248  -0.135  1.00  0.00     0.251 C 
ATOM      6  H   UNL     1       3.021   1.973  -0.548  1.00  0.00     0.163 HD
BRANCH   5   7
ATOM      7  C   UNL     1       2.135  -1.242  -0.138  1.00  0.00     0.039 A 
ATOM      8  C   UNL     1       3.214  -2.083  -0.416  1.00  0.00     0.014 A 
ATOM      9  C   UNL     1       0.886  -1.831   0.135  1.00  0.00     0.014 A 
ATOM     10  C   UNL     1       3.040  -3.462  -0.497  1.00  0.00     0.010 A 
ATOM     11  C   UNL     1       0.711  -3.211   0.080  1.00  0.00     0.010 A 
ATOM     12  C   UNL     1       1.785  -4.024  -0.270  1.00  0.00    -0.014 A 
BRANCH  12  13
ATOM     13  C   UNL     1       1.675  -5.481  -0.309  1.00  0.00     0.031 A 
ATOM     14  C   UNL     1       2.413  -6.230   0.754  1.00  0.00     0.074 A 
ATOM     15  C   UNL     1       0.832  -6.130  -1.137  1.00  0.00     0.049 A 
ATOM     16  N   UNL     1       3.238  -7.223   0.633  1.00  0.00    -0.248 NA
ATOM     17  C   UNL     1       2.224  -5.780   2.144  1.00  0.00     0.031 C 
ATOM     18  C   UNL     1      -0.195  -5.554  -2.007  1.00  0.00     0.029 A 
ATOM     19  N   UNL     1       0.646  -7.474  -1.280  1.00  0.00    -0.354 N 
ATOM     20  C   UNL     1       3.548  -7.630   1.932  1.00  0.00     0.074 A 
ATOM     21  C   UNL     1       2.973  -6.652   2.817  1.00  0.00     0.031 C 
ATOM     22  C   UNL     1      -1.031  -6.535  -2.413  1.00  0.00     0.029 A 
ATOM     23  C   UNL     1      -0.525  -7.812  -1.939  1.00  0.00     0.049 A 
ATOM     24  H   UNL     1       1.286  -8.143  -0.945  1.00  0.00     0.167 HD
ATOM     25  C   UNL     1       4.115  -8.837   2.211  1.00  0.00     0.037 A 
ATOM     26  C   UNL     1      -1.080  -9.045  -2.019  1.00  0.00     0.037 A 
ATOM     27  C   UNL     1       4.804  -9.385   1.077  1.00  0.00     0.049 A 
ATOM     28  C   UNL     1      -0.035 -10.044  -1.699  1.00  0.00     0.074 A 
ATOM     29  C   UNL     1       5.865  -8.980   0.290  1.00  0.00     0.029 A 
ATOM     30  N   UNL     1       4.239 -10.439   0.407  1.00  0.00    -0.354 N 
ATOM     31  N   UNL     1       0.988 -10.321  -2.457  1.00  0.00    -0.248 NA
ATOM     32  C   UNL     1       0.062 -10.509  -0.324  1.00  0.00     0.031 C 
ATOM     33  C   UNL     1       5.569  -9.473  -1.014  1.00  0.00     0.029 A 
ATOM     34  C   UNL     1       4.357 -10.158  -0.928  1.00  0.00     0.049 A 
ATOM     35  H   UNL     1       3.829 -11.240   0.807  1.00  0.00     0.167 HD
ATOM     36  C   UNL     1       2.011 -10.626  -1.573  1.00  0.00     0.074 A 
ATOM     37  C   UNL     1       1.354 -10.839  -0.288  1.00  0.00     0.031 C 
ATOM     38  C   UNL     1       3.318 -10.409  -1.899  1.00  0.00     0.037 A 
BRANCH  25  39
ATOM     39  C   UNL     1       3.793  -9.659   3.437  1.00  0.00     0.057 A 
ATOM     40  C   UNL     1       2.603  -9.523   4.180  1.00  0.00     0.134 A 
ATOM     41  C   UNL     1       4.546 -10.813   3.726  1.00  0.00     0.134 A 
ATOM     42  F   UNL     1       1.732  -8.530   3.957  1.00  0.00    -0.206 F 
ATOM     43  C   UNL     1       2.190 -10.460   5.132  1.00  0.00     0.040 A 
ATOM     44  C   UNL     1       4.116 -11.784   4.640  1.00  0.00     0.040 A 
ATOM     45  F   UNL     1       5.686 -11.075   3.070  1.00  0.00    -0.206 F 
ATOM     46  C   UNL     1       2.932 -11.611   5.345  1.00  0.00     0.006 A 
ENDBRANCH  25  39
BRANCH  26  47
ATOM     47  C   UNL     1      -2.516  -9.400  -2.054  1.00  0.00     0.057 A 
ATOM     48  C   UNL     1      -3.490  -8.596  -1.436  1.00  0.00     0.134 A 
ATOM     49  C   UNL     1      -2.935 -10.676  -2.456  1.00  0.00     0.134 A 
ATOM     50  F   UNL     1      -3.181  -7.390  -0.938  1.00  0.00    -0.206 F 
ATOM     51  C   UNL     1      -4.798  -9.036  -1.220  1.00  0.00     0.040 A 
ATOM     52  C   UNL     1      -4.240 -11.134  -2.235  1.00  0.00     0.040 A 
ATOM     53  F   UNL     1      -2.069 -11.533  -3.015  1.00  0.00    -0.206 F 
ATOM     54  C   UNL     1      -5.174 -10.316  -1.606  1.00  0.00     0.006 A 
ENDBRANCH  26  47
BRANCH  38  55
ATOM     55  C   UNL     1       3.649 -10.101  -3.331  1.00  0.00     0.057 A 
ATOM     56  C   UNL     1       4.582 -10.903  -3.999  1.00  0.00     0.134 A 
ATOM     57  C   UNL     1       3.206  -8.950  -4.000  1.00  0.00     0.134 A 
ATOM     58  F   UNL     1       5.098 -11.986  -3.396  1.00  0.00    -0.206 F 
ATOM     59  C   UNL     1       5.050 -10.581  -5.275  1.00  0.00     0.040 A 
ATOM     60  C   UNL     1       3.640  -8.636  -5.290  1.00  0.00     0.040 A 
ATOM     61  F   UNL     1       2.396  -8.069  -3.400  1.00  0.00    -0.206 F 
ATOM     62  C   UNL     1       4.572  -9.448  -5.929  1.00  0.00     0.006 A 
ENDBRANCH  38  55
ENDBRANCH  12  13
ENDBRANCH   5   7
ENDBRANCH   2   3
ENDBRANCH   1   2
BRANCH   1  63
ATOM     63  C   UNL     1       4.336   1.296  -3.315  1.00  0.00     0.023 C 
BRANCH  63  64
ATOM     64  C   UNL     1       4.762   2.749  -3.131  1.00  0.00     0.116 C 
BRANCH  64  65
ATOM     65  N   UNL     1       6.203   2.885  -3.182  1.00  0.00    -0.351 N 
ATOM     66  C   UNL     1       6.961   3.579  -4.097  1.00  0.00     0.271 C 
ATOM     67  H   UNL     1       6.703   2.423  -2.472  1.00  0.00     0.163 HD
ATOM     68  O   UNL     1       8.178   3.476  -4.062  1.00  0.00    -0.267 OA
BRANCH  66  69
ATOM     69  C   UNL     1       6.266   4.466  -5.032  1.00  0.00     0.150 A 
ATOM     70  C   UNL     1       5.670   5.713  -4.720  1.00  0.00     0.056 A 
ATOM     71  N   UNL     1       6.141   4.177  -6.340  1.00  0.00    -0.161 NA
ATOM     72  C   UNL     1       5.315   6.246  -5.933  1.00  0.00     0.118 A 
ATOM     73  N   UNL     1       5.673   5.326  -6.892  1.00  0.00    -0.222 N 
BRANCH  73  74
ATOM     74  C   UNL     1       5.619   5.527  -8.297  1.00  0.00     0.158 A 
ATOM     75  C   UNL     1       5.613   4.432  -9.135  1.00  0.00     0.078 A 
ATOM     76  N   UNL     1       5.589   6.801  -8.745  1.00  0.00    -0.209 NA
ATOM     77  C   UNL     1       5.530   4.707 -10.485  1.00  0.00     0.077 A 
ATOM     78  C   UNL     1       5.597   6.964 -10.077  1.00  0.00     0.165 A 
ATOM     79  N   UNL     1       5.563   5.965 -10.973  1.00  0.00    -0.228 NA
BRANCH  77  80
ATOM     80  C   UNL     1       5.349   3.645 -11.480  1.00  0.00     0.003 A 
ATOM     81  C   UNL     1       4.241   2.790 -11.421  1.00  0.00     0.030 A 
ATOM     82  C   UNL     1       6.256   3.470 -12.530  1.00  0.00     0.030 A 
ATOM     83  C   UNL     1       4.096   1.809 -12.388  1.00  0.00     0.111 A 
ATOM     84  C   UNL     1       6.031   2.453 -13.444  1.00  0.00     0.111 A 
ATOM     85  N   UNL     1       4.973   1.615 -13.393  1.00  0.00    -0.265 NA
ENDBRANCH  77  80
BRANCH  78  86
ATOM     86  C   UNL     1       5.784   8.324 -10.565  1.00  0.00     0.055 A 
ATOM     87  C   UNL     1       6.924   9.065 -10.197  1.00  0.00     0.015 A 
ATOM     88  C   UNL     1       4.844   8.941 -11.392  1.00  0.00     0.134 A 
ATOM     89  C   UNL     1       7.112  10.374 -10.651  1.00  0.00     0.001 A 
ATOM     90  C   UNL     1       5.020  10.250 -11.842  1.00  0.00     0.040 A 
ATOM     91  F   UNL     1       3.723   8.294 -11.747  1.00  0.00    -0.206 F 
ATOM     92  C   UNL     1       6.157  10.967 -11.474  1.00  0.00     0.003 A 
ENDBRANCH  78  86
ENDBRANCH  73  74
ENDBRANCH  66  69
ENDBRANCH  64  65
ENDBRANCH  63  64
ENDBRANCH   1  63
TORSDOF 14
