REMARK SMILES C=C(C)CN(CC)c1ccc(F)cc1C(=O)NCCCCNC(=O)c1ccc(-c2c3nc(c(-c4c(F)cccc4F)c4ccc([nH]4)c(-c4c(F)cccc4F)c4nc(c(-c5c(F)cccc5F)c5ccc2[nH]5)C=C4)C=C3)cc1
REMARK SMILES IDX 19 1 18 2 17 3 15 4 16 5 14 7 8 8 9 9 10 10 13 11 11 12
REMARK SMILES IDX 12 13 5 14 4 15 2 16 1 17 3 18 6 19 7 20 20 21 21 22 22 23
REMARK SMILES IDX 23 24 24 26 25 27 26 28 78 29 27 30 77 31 28 32 29 33 30 34
REMARK SMILES IDX 71 35 31 36 76 37 70 38 72 39 32 40 75 41 69 42 68 43 33 45
REMARK SMILES IDX 59 46 42 47 58 48 43 49 46 50 57 51 73 52 44 53 45 54 56 56
REMARK SMILES IDX 74 57 47 58 34 59 35 60 40 61 36 62 37 63 39 64 41 65 38 66
REMARK SMILES IDX 60 67 61 68 66 69 62 70 63 71 65 72 67 73 64 74 48 75 49 76
REMARK SMILES IDX 54 77 50 78 51 79 53 80 55 81 52 82
REMARK H PARENT 17 6 22 25 72 44 46 55
REMARK Flexibility Score: inf
ROOT
ATOM      1  C   UNL     1       2.380  -4.196   3.875  1.00  0.00     0.023 C 
ENDROOT
BRANCH   1   2
ATOM      2  C   UNL     1       2.169  -4.184   2.369  1.00  0.00     0.116 C 
BRANCH   2   3
ATOM      3  N   UNL     1       2.636  -5.310   1.616  1.00  0.00    -0.352 N 
ATOM      4  C   UNL     1       2.454  -5.558   0.272  1.00  0.00     0.253 C 
ATOM      5  O   UNL     1       3.021  -6.554  -0.187  1.00  0.00    -0.269 OA
ATOM      6  H   UNL     1       3.147  -5.986   2.117  1.00  0.00     0.163 HD
BRANCH   4   7
ATOM      7  C   UNL     1       1.561  -4.763  -0.646  1.00  0.00     0.066 A 
ATOM      8  C   UNL     1       1.443  -3.352  -0.782  1.00  0.00     0.050 A 
ATOM      9  C   UNL     1       0.607  -2.862  -1.816  1.00  0.00     0.030 A 
ATOM     10  C   UNL     1      -0.115  -3.699  -2.664  1.00  0.00     0.041 A 
ATOM     11  C   UNL     1       0.841  -5.595  -1.538  1.00  0.00     0.055 A 
ATOM     12  C   UNL     1       0.014  -5.064  -2.518  1.00  0.00     0.124 A 
ATOM     13  F   UNL     1      -0.653  -5.880  -3.343  1.00  0.00    -0.207 F 
BRANCH   8  14
ATOM     14  N   UNL     1       2.130  -2.406  -0.022  1.00  0.00    -0.367 N 
BRANCH  14  15
ATOM     15  C   UNL     1       1.376  -1.540   0.907  1.00  0.00     0.146 C 
BRANCH  15  16
ATOM     16  C   UNL     1       0.565  -0.439   0.279  1.00  0.00    -0.061 C 
ATOM     17  C   UNL     1       1.112   0.632  -0.320  1.00  0.00     0.009 C 
ATOM     18  C   UNL     1      -0.925  -0.559   0.472  1.00  0.00     0.041 C 
ENDBRANCH  15  16
ENDBRANCH  14  15
BRANCH  14  19
ATOM     19  C   UNL     1       3.464  -1.971  -0.459  1.00  0.00     0.113 C 
ATOM     20  C   UNL     1       4.474  -3.104  -0.589  1.00  0.00     0.027 C 
ENDBRANCH  14  19
ENDBRANCH   8  14
ENDBRANCH   4   7
ENDBRANCH   2   3
ENDBRANCH   1   2
BRANCH   1  21
ATOM     21  C   UNL     1       3.830  -4.275   4.357  1.00  0.00     0.023 C 
BRANCH  21  22
ATOM     22  C   UNL     1       4.860  -3.380   3.667  1.00  0.00     0.116 C 
BRANCH  22  23
ATOM     23  N   UNL     1       4.691  -1.953   3.904  1.00  0.00    -0.352 N 
ATOM     24  C   UNL     1       5.440  -1.058   4.640  1.00  0.00     0.251 C 
ATOM     25  H   UNL     1       3.905  -1.558   3.462  1.00  0.00     0.163 HD
ATOM     26  O   UNL     1       5.072   0.106   4.724  1.00  0.00    -0.269 OA
BRANCH  24  27
ATOM     27  C   UNL     1       6.651  -1.494   5.380  1.00  0.00     0.039 A 
ATOM     28  C   UNL     1       6.809  -1.063   6.702  1.00  0.00     0.014 A 
ATOM     29  C   UNL     1       7.627  -2.307   4.803  1.00  0.00     0.014 A 
ATOM     30  C   UNL     1       7.876  -1.541   7.471  1.00  0.00     0.010 A 
ATOM     31  C   UNL     1       8.641  -2.852   5.594  1.00  0.00     0.010 A 
ATOM     32  C   UNL     1       8.766  -2.492   6.944  1.00  0.00    -0.014 A 
BRANCH  32  33
ATOM     33  C   UNL     1       9.780  -3.154   7.812  1.00  0.00     0.031 A 
ATOM     34  C   UNL     1      11.252  -3.016   7.537  1.00  0.00     0.074 A 
ATOM     35  C   UNL     1       9.365  -3.936   8.831  1.00  0.00     0.049 A 
ATOM     36  N   UNL     1      12.264  -3.549   8.178  1.00  0.00    -0.248 NA
ATOM     37  C   UNL     1      11.644  -2.192   6.384  1.00  0.00     0.031 C 
ATOM     38  C   UNL     1       7.967  -4.204   9.175  1.00  0.00     0.029 A 
ATOM     39  N   UNL     1      10.076  -4.651   9.765  1.00  0.00    -0.354 N 
ATOM     40  C   UNL     1      13.405  -3.131   7.505  1.00  0.00     0.074 A 
ATOM     41  C   UNL     1      12.962  -2.341   6.377  1.00  0.00     0.031 C 
ATOM     42  C   UNL     1       7.923  -4.992  10.260  1.00  0.00     0.029 A 
ATOM     43  C   UNL     1       9.285  -5.323  10.667  1.00  0.00     0.049 A 
ATOM     44  H   UNL     1      11.060  -4.680   9.786  1.00  0.00     0.167 HD
ATOM     45  C   UNL     1      14.703  -3.363   7.814  1.00  0.00     0.037 A 
ATOM     46  C   UNL     1       9.611  -6.119  11.704  1.00  0.00     0.037 A 
ATOM     47  C   UNL     1      15.147  -4.128   8.951  1.00  0.00     0.049 A 
ATOM     48  C   UNL     1      11.060  -6.364  12.021  1.00  0.00     0.074 A 
ATOM     49  C   UNL     1      16.445  -4.357   9.376  1.00  0.00     0.029 A 
ATOM     50  N   UNL     1      14.314  -4.789   9.839  1.00  0.00    -0.354 N 
ATOM     51  N   UNL     1      12.126  -5.900  11.416  1.00  0.00    -0.248 NA
ATOM     52  C   UNL     1      11.352  -7.238  13.167  1.00  0.00     0.031 C 
ATOM     53  C   UNL     1      16.400  -5.200  10.489  1.00  0.00     0.029 A 
ATOM     54  C   UNL     1      15.072  -5.449  10.794  1.00  0.00     0.049 A 
ATOM     55  H   UNL     1      13.330  -4.790   9.798  1.00  0.00     0.167 HD
ATOM     56  C   UNL     1      13.212  -6.408  12.117  1.00  0.00     0.074 A 
ATOM     57  C   UNL     1      12.677  -7.199  13.205  1.00  0.00     0.031 C 
ATOM     58  C   UNL     1      14.534  -6.236  11.875  1.00  0.00     0.037 A 
BRANCH  45  59
ATOM     59  C   UNL     1      15.756  -2.768   6.925  1.00  0.00     0.057 A 
ATOM     60  C   UNL     1      16.580  -3.587   6.142  1.00  0.00     0.134 A 
ATOM     61  C   UNL     1      16.022  -1.392   6.920  1.00  0.00     0.134 A 
ATOM     62  F   UNL     1      16.386  -4.915   6.109  1.00  0.00    -0.206 F 
ATOM     63  C   UNL     1      17.641  -3.063   5.402  1.00  0.00     0.040 A 
ATOM     64  C   UNL     1      17.064  -0.853   6.163  1.00  0.00     0.040 A 
ATOM     65  F   UNL     1      15.266  -0.551   7.641  1.00  0.00    -0.206 F 
ATOM     66  C   UNL     1      17.884  -1.691   5.411  1.00  0.00     0.006 A 
ENDBRANCH  45  59
BRANCH  46  67
ATOM     67  C   UNL     1       8.539  -6.723  12.537  1.00  0.00     0.057 A 
ATOM     68  C   UNL     1       7.694  -7.721  12.033  1.00  0.00     0.134 A 
ATOM     69  C   UNL     1       8.326  -6.306  13.855  1.00  0.00     0.134 A 
ATOM     70  F   UNL     1       7.841  -8.161  10.775  1.00  0.00    -0.206 F 
ATOM     71  C   UNL     1       6.667  -8.268  12.804  1.00  0.00     0.040 A 
ATOM     72  C   UNL     1       7.320  -6.863  14.647  1.00  0.00     0.040 A 
ATOM     73  F   UNL     1       9.114  -5.369  14.402  1.00  0.00    -0.206 F 
ATOM     74  C   UNL     1       6.482  -7.842  14.117  1.00  0.00     0.006 A 
ENDBRANCH  46  67
BRANCH  58  75
ATOM     75  C   UNL     1      15.506  -6.898  12.808  1.00  0.00     0.057 A 
ATOM     76  C   UNL     1      16.304  -6.134  13.671  1.00  0.00     0.134 A 
ATOM     77  C   UNL     1      15.702  -8.285  12.807  1.00  0.00     0.134 A 
ATOM     78  F   UNL     1      16.175  -4.800  13.715  1.00  0.00    -0.206 F 
ATOM     79  C   UNL     1      17.269  -6.724  14.488  1.00  0.00     0.040 A 
ATOM     80  C   UNL     1      16.645  -8.890  13.640  1.00  0.00     0.040 A 
ATOM     81  F   UNL     1      14.965  -9.075  12.012  1.00  0.00    -0.206 F 
ATOM     82  C   UNL     1      17.438  -8.107  14.477  1.00  0.00     0.006 A 
ENDBRANCH  58  75
ENDBRANCH  32  33
ENDBRANCH  24  27
ENDBRANCH  22  23
ENDBRANCH  21  22
ENDBRANCH   1  21
TORSDOF 15
