REMARK SMILES CN(Cc1ccc(Cl)cc1Cl)S(=O)(=O)CCCC(=O)NCCCCNC(=O)c1ccc(-c2c3nc(c(-c4c(F)cccc4F)c4ccc([nH]4)c(-c4c(F)cccc4F)c4nc(c(-c5c(F)cccc5F)c5ccc2[nH]5)C=C4)C=C3)cc1
REMARK SMILES IDX 18 1 19 2 20 3 17 5 16 6 15 7 12 8 13 9 14 10 2 11 1 12 3 13
REMARK SMILES IDX 4 14 5 15 10 16 6 17 9 18 11 19 7 20 8 21 21 22 22 23 23 24
REMARK SMILES IDX 24 25 25 26 26 27 27 29 28 30 29 31 81 32 30 33 80 34 31 35
REMARK SMILES IDX 32 36 33 37 74 38 34 39 79 40 73 41 75 42 35 43 78 44 72 45
REMARK SMILES IDX 71 46 36 48 62 49 45 50 61 51 46 52 49 53 60 54 76 55 47 56
REMARK SMILES IDX 48 57 59 59 77 60 50 61 37 62 38 63 43 64 39 65 40 66 42 67
REMARK SMILES IDX 44 68 41 69 63 70 64 71 69 72 65 73 66 74 68 75 70 76 67 77
REMARK SMILES IDX 51 78 52 79 57 80 53 81 54 82 56 83 58 84 55 85
REMARK H PARENT 20 4 25 28 75 47 49 58
REMARK Flexibility Score: inf
ROOT
ATOM      1  C   UNL     1      -1.154   4.139  -2.341  1.00  0.00     0.220 C 
ATOM      2  O   UNL     1      -1.573   4.524  -3.437  1.00  0.00    -0.275 OA
ATOM      3  N   UNL     1      -1.952   4.383  -1.271  1.00  0.00    -0.356 N 
ATOM      4  H   UNL     1      -2.606   5.105  -1.414  1.00  0.00     0.163 HD
ENDROOT
BRANCH   1   5
ATOM      5  C   UNL     1       0.169   3.389  -2.267  1.00  0.00     0.101 C 
BRANCH   5   6
ATOM      6  C   UNL     1       1.289   3.973  -1.421  1.00  0.00     0.027 C 
BRANCH   6   7
ATOM      7  C   UNL     1       1.295   3.720   0.071  1.00  0.00     0.155 C 
BRANCH   7   8
ATOM      8  S   UNL     1       1.554   2.084   0.770  1.00  0.00     0.214 S 
ATOM      9  O   UNL     1       0.714   1.994   1.938  1.00  0.00    -0.212 OA
ATOM     10  O   UNL     1       3.001   1.976   0.910  1.00  0.00    -0.212 OA
BRANCH   8  11
ATOM     11  N   UNL     1       1.090   0.848  -0.296  1.00  0.00    -0.201 NA
ATOM     12  C   UNL     1       2.004  -0.329  -0.205  1.00  0.00     0.124 C 
BRANCH  11  13
ATOM     13  C   UNL     1      -0.346   0.388  -0.412  1.00  0.00     0.138 C 
BRANCH  13  14
ATOM     14  C   UNL     1      -0.976  -0.276   0.792  1.00  0.00    -0.014 A 
ATOM     15  C   UNL     1      -0.617  -1.542   1.255  1.00  0.00     0.008 A 
ATOM     16  C   UNL     1      -1.976   0.377   1.509  1.00  0.00     0.047 A 
ATOM     17  C   UNL     1      -1.046  -1.979   2.514  1.00  0.00     0.021 A 
ATOM     18  C   UNL     1      -2.205   0.090   2.846  1.00  0.00     0.041 A 
ATOM     19  Cl  UNL     1      -3.385   0.859   0.604  1.00  0.00    -0.084 Cl
ATOM     20  C   UNL     1      -1.746  -1.112   3.347  1.00  0.00     0.042 A 
ATOM     21  Cl  UNL     1      -2.173  -1.578   4.943  1.00  0.00    -0.084 Cl
ENDBRANCH  13  14
ENDBRANCH  11  13
ENDBRANCH   8  11
ENDBRANCH   7   8
ENDBRANCH   6   7
ENDBRANCH   5   6
ENDBRANCH   1   5
BRANCH   3  22
ATOM     22  C   UNL     1      -2.019   3.778   0.041  1.00  0.00     0.116 C 
BRANCH  22  23
ATOM     23  C   UNL     1      -2.015   4.775   1.200  1.00  0.00     0.023 C 
BRANCH  23  24
ATOM     24  C   UNL     1      -3.405   5.045   1.795  1.00  0.00     0.023 C 
BRANCH  24  25
ATOM     25  C   UNL     1      -3.997   3.911   2.638  1.00  0.00     0.116 C 
BRANCH  25  26
ATOM     26  N   UNL     1      -3.215   3.547   3.810  1.00  0.00    -0.352 N 
ATOM     27  C   UNL     1      -3.609   2.812   4.909  1.00  0.00     0.251 C 
ATOM     28  H   UNL     1      -2.284   3.867   3.820  1.00  0.00     0.163 HD
ATOM     29  O   UNL     1      -2.845   2.656   5.856  1.00  0.00    -0.269 OA
BRANCH  27  30
ATOM     30  C   UNL     1      -4.979   2.253   4.971  1.00  0.00     0.039 A 
ATOM     31  C   UNL     1      -5.738   2.507   6.114  1.00  0.00     0.014 A 
ATOM     32  C   UNL     1      -5.541   1.551   3.901  1.00  0.00     0.014 A 
ATOM     33  C   UNL     1      -7.096   2.191   6.119  1.00  0.00     0.010 A 
ATOM     34  C   UNL     1      -6.905   1.281   3.881  1.00  0.00     0.010 A 
ATOM     35  C   UNL     1      -7.700   1.653   4.968  1.00  0.00    -0.014 A 
BRANCH  35  36
ATOM     36  C   UNL     1      -9.175   1.652   4.840  1.00  0.00     0.031 A 
ATOM     37  C   UNL     1      -9.957   0.379   4.782  1.00  0.00     0.074 A 
ATOM     38  C   UNL     1      -9.795   2.844   4.727  1.00  0.00     0.049 A 
ATOM     39  N   UNL     1     -11.254   0.218   4.736  1.00  0.00    -0.248 NA
ATOM     40  C   UNL     1      -9.190  -0.875   4.754  1.00  0.00     0.031 C 
ATOM     41  C   UNL     1      -9.118   4.145   4.695  1.00  0.00     0.029 A 
ATOM     42  N   UNL     1     -11.125   3.163   4.635  1.00  0.00    -0.354 N 
ATOM     43  C   UNL     1     -11.463  -1.153   4.686  1.00  0.00     0.074 A 
ATOM     44  C   UNL     1     -10.157  -1.778   4.652  1.00  0.00     0.031 C 
ATOM     45  C   UNL     1     -10.038   5.120   4.654  1.00  0.00     0.029 A 
ATOM     46  C   UNL     1     -11.364   4.516   4.616  1.00  0.00     0.049 A 
ATOM     47  H   UNL     1     -11.840   2.487   4.588  1.00  0.00     0.167 HD
ATOM     48  C   UNL     1     -12.639  -1.822   4.691  1.00  0.00     0.037 A 
ATOM     49  C   UNL     1     -12.525   5.196   4.585  1.00  0.00     0.037 A 
ATOM     50  C   UNL     1     -13.931  -1.183   4.720  1.00  0.00     0.049 A 
ATOM     51  C   UNL     1     -13.814   4.426   4.583  1.00  0.00     0.074 A 
ATOM     52  C   UNL     1     -15.182  -1.773   4.777  1.00  0.00     0.029 A 
ATOM     53  N   UNL     1     -14.138   0.189   4.681  1.00  0.00    -0.354 N 
ATOM     54  N   UNL     1     -14.000   3.128   4.622  1.00  0.00    -0.248 NA
ATOM     55  C   UNL     1     -15.054   5.212   4.539  1.00  0.00     0.031 C 
ATOM     56  C   UNL     1     -16.145  -0.761   4.715  1.00  0.00     0.029 A 
ATOM     57  C   UNL     1     -15.496   0.463   4.684  1.00  0.00     0.049 A 
ATOM     58  H   UNL     1     -13.425   0.867   4.655  1.00  0.00     0.167 HD
ATOM     59  C   UNL     1     -15.375   2.942   4.635  1.00  0.00     0.074 A 
ATOM     60  C   UNL     1     -15.974   4.261   4.615  1.00  0.00     0.031 C 
ATOM     61  C   UNL     1     -16.077   1.783   4.662  1.00  0.00     0.037 A 
BRANCH  48  62
ATOM     62  C   UNL     1     -12.588  -3.321   4.664  1.00  0.00     0.057 A 
ATOM     63  C   UNL     1     -12.147  -4.064   5.768  1.00  0.00     0.134 A 
ATOM     64  C   UNL     1     -13.037  -4.035   3.545  1.00  0.00     0.134 A 
ATOM     65  F   UNL     1     -11.695  -3.444   6.868  1.00  0.00    -0.206 F 
ATOM     66  C   UNL     1     -12.136  -5.460   5.752  1.00  0.00     0.040 A 
ATOM     67  C   UNL     1     -13.056  -5.430   3.528  1.00  0.00     0.040 A 
ATOM     68  F   UNL     1     -13.478  -3.387   2.457  1.00  0.00    -0.206 F 
ATOM     69  C   UNL     1     -12.600  -6.147   4.632  1.00  0.00     0.006 A 
ENDBRANCH  48  62
BRANCH  49  70
ATOM     70  C   UNL     1     -12.517   6.680   4.601  1.00  0.00     0.057 A 
ATOM     71  C   UNL     1     -12.961   7.392   5.721  1.00  0.00     0.134 A 
ATOM     72  C   UNL     1     -12.053   7.423   3.509  1.00  0.00     0.134 A 
ATOM     73  F   UNL     1     -13.430   6.738   6.794  1.00  0.00    -0.206 F 
ATOM     74  C   UNL     1     -12.960   8.788   5.749  1.00  0.00     0.040 A 
ATOM     75  C   UNL     1     -12.021   8.818   3.533  1.00  0.00     0.040 A 
ATOM     76  F   UNL     1     -11.601   6.801   2.409  1.00  0.00    -0.206 F 
ATOM     77  C   UNL     1     -12.483   9.505   4.654  1.00  0.00     0.006 A 
ENDBRANCH  49  70
BRANCH  61  78
ATOM     78  C   UNL     1     -17.574   1.889   4.701  1.00  0.00     0.057 A 
ATOM     79  C   UNL     1     -18.317   2.314   3.592  1.00  0.00     0.134 A 
ATOM     80  C   UNL     1     -18.283   1.518   5.850  1.00  0.00     0.134 A 
ATOM     81  F   UNL     1     -17.698   2.696   2.464  1.00  0.00    -0.206 F 
ATOM     82  C   UNL     1     -19.710   2.389   3.634  1.00  0.00     0.040 A 
ATOM     83  C   UNL     1     -19.677   1.559   5.894  1.00  0.00     0.040 A 
ATOM     84  F   UNL     1     -17.634   1.092   6.944  1.00  0.00    -0.206 F 
ATOM     85  C   UNL     1     -20.394   2.002   4.785  1.00  0.00     0.006 A 
ENDBRANCH  61  78
ENDBRANCH  35  36
ENDBRANCH  27  30
ENDBRANCH  25  26
ENDBRANCH  24  25
ENDBRANCH  23  24
ENDBRANCH  22  23
ENDBRANCH   3  22
TORSDOF 17
