REMARK SMILES Cc1cnn(C2(C(=O)NCCCCNC(=O)c3ccc(-c4c5nc(c(-c6c(F)cccc6F)c6ccc([nH]6)c(-c6c(F)cccc6F)c6nc(c(-c7c(F)cccc7F)c7ccc4[nH]7)C=C6)C=C5)cc3)CCN(C(=O)c3cc4ccccc4[nH]3)CC2)c1
REMARK SMILES IDX 12 1 11 2 10 3 9 4 7 5 8 6 6 8 71 9 86 10 72 11 85 12 73 13
REMARK SMILES IDX 74 14 75 15 5 16 1 17 2 18 3 19 87 20 4 21 76 22 77 23 84 24
REMARK SMILES IDX 78 25 83 26 79 28 82 29 80 30 81 31 13 32 14 33 15 34 16 36
REMARK SMILES IDX 17 37 18 38 70 39 19 40 69 41 20 42 21 43 22 44 63 45 23 46
REMARK SMILES IDX 68 47 62 48 64 49 24 50 67 51 61 52 60 53 25 55 51 56 34 57
REMARK SMILES IDX 50 58 35 59 38 60 49 61 65 62 36 63 37 64 48 66 66 67 39 68
REMARK SMILES IDX 26 69 27 70 32 71 28 72 29 73 31 74 33 75 30 76 52 77 53 78
REMARK SMILES IDX 58 79 54 80 55 81 57 82 59 83 56 84 40 85 41 86 46 87 42 88
REMARK SMILES IDX 43 89 45 90 47 91 44 92
REMARK H PARENT 9 7 84 27 14 35 64 54 38 65
REMARK Flexibility Score: inf
ROOT
ATOM      1  C   UNL     1      -0.705  -3.881  -8.967  1.00  0.00     0.023 C 
ENDROOT
BRANCH   1   2
ATOM      2  C   UNL     1      -0.870  -2.579  -8.174  1.00  0.00     0.023 C 
BRANCH   2   3
ATOM      3  C   UNL     1      -1.743  -2.659  -6.915  1.00  0.00     0.116 C 
BRANCH   3   4
ATOM      4  N   UNL     1      -1.163  -3.514  -5.887  1.00  0.00    -0.354 N 
ATOM      5  C   UNL     1      -0.653  -3.277  -4.627  1.00  0.00     0.248 C 
ATOM      6  O   UNL     1      -0.248  -4.304  -4.078  1.00  0.00    -0.272 OA
ATOM      7  H   UNL     1      -1.128  -4.463  -6.146  1.00  0.00     0.163 HD
BRANCH   5   8
ATOM      8  C   UNL     1      -0.656  -1.841  -3.991  1.00  0.00     0.144 C 
ATOM      9  C   UNL     1       0.170  -0.920  -4.928  1.00  0.00     0.062 C 
ATOM     10  C   UNL     1      -2.147  -1.465  -3.821  1.00  0.00     0.062 C 
ATOM     11  C   UNL     1      -0.294   0.526  -5.017  1.00  0.00     0.123 C 
ATOM     12  C   UNL     1      -2.447   0.019  -3.897  1.00  0.00     0.123 C 
ATOM     13  N   UNL     1      -1.740   0.673  -4.994  1.00  0.00    -0.337 N 
ATOM     14  C   UNL     1      -2.345   1.510  -5.934  1.00  0.00     0.270 C 
ATOM     15  O   UNL     1      -1.784   1.790  -7.000  1.00  0.00    -0.267 OA
BRANCH   8  16
ATOM     16  N   UNL     1      -0.031  -1.745  -2.629  1.00  0.00    -0.257 N 
ATOM     17  C   UNL     1       1.224  -0.027   0.359  1.00  0.00     0.048 C 
ATOM     18  C   UNL     1       0.787  -0.931  -0.726  1.00  0.00    -0.013 A 
ATOM     19  C   UNL     1       0.925  -2.326  -0.821  1.00  0.00     0.138 A 
ATOM     20  C   UNL     1       0.147  -0.591  -1.895  1.00  0.00     0.113 A 
ATOM     21  N   UNL     1       0.415  -2.816  -1.950  1.00  0.00    -0.180 NA
ENDBRANCH   8  16
BRANCH  14  22
ATOM     22  C   UNL     1      -3.668   2.007  -5.644  1.00  0.00     0.105 A 
ATOM     23  C   UNL     1      -4.231   2.442  -4.454  1.00  0.00     0.042 A 
ATOM     24  N   UNL     1      -4.636   2.173  -6.608  1.00  0.00    -0.351 N 
ATOM     25  C   UNL     1      -5.623   2.607  -4.661  1.00  0.00     0.000 A 
ATOM     26  C   UNL     1      -5.852   2.450  -6.026  1.00  0.00     0.046 A 
ATOM     27  H   UNL     1      -4.481   2.104  -7.578  1.00  0.00     0.167 HD
ATOM     28  C   UNL     1      -6.711   2.856  -3.806  1.00  0.00     0.010 A 
ATOM     29  C   UNL     1      -7.125   2.567  -6.592  1.00  0.00     0.026 A 
ATOM     30  C   UNL     1      -7.997   2.935  -4.349  1.00  0.00     0.001 A 
ATOM     31  C   UNL     1      -8.196   2.804  -5.723  1.00  0.00     0.002 A 
ENDBRANCH  14  22
ENDBRANCH   5   8
ENDBRANCH   3   4
ENDBRANCH   2   3
ENDBRANCH   1   2
BRANCH   1  32
ATOM     32  C   UNL     1      -2.003  -4.453  -9.514  1.00  0.00     0.116 C 
BRANCH  32  33
ATOM     33  N   UNL     1      -2.667  -3.562 -10.467  1.00  0.00    -0.352 N 
ATOM     34  C   UNL     1      -3.846  -3.787 -11.152  1.00  0.00     0.251 C 
ATOM     35  H   UNL     1      -2.222  -2.701 -10.640  1.00  0.00     0.163 HD
ATOM     36  O   UNL     1      -4.121  -3.164 -12.173  1.00  0.00    -0.269 OA
BRANCH  34  37
ATOM     37  C   UNL     1      -4.787  -4.782 -10.616  1.00  0.00     0.039 A 
ATOM     38  C   UNL     1      -5.457  -5.693 -11.440  1.00  0.00     0.014 A 
ATOM     39  C   UNL     1      -4.958  -4.805  -9.236  1.00  0.00     0.014 A 
ATOM     40  C   UNL     1      -6.244  -6.679 -10.848  1.00  0.00     0.010 A 
ATOM     41  C   UNL     1      -5.584  -5.870  -8.652  1.00  0.00     0.010 A 
ATOM     42  C   UNL     1      -6.287  -6.768  -9.449  1.00  0.00    -0.014 A 
BRANCH  42  43
ATOM     43  C   UNL     1      -6.931  -7.886  -8.765  1.00  0.00     0.031 A 
ATOM     44  C   UNL     1      -6.339  -9.207  -9.120  1.00  0.00     0.074 A 
ATOM     45  C   UNL     1      -7.753  -7.675  -7.710  1.00  0.00     0.049 A 
ATOM     46  N   UNL     1      -6.908 -10.199  -9.722  1.00  0.00    -0.248 NA
ATOM     47  C   UNL     1      -4.884  -9.388  -8.946  1.00  0.00     0.031 C 
ATOM     48  C   UNL     1      -8.117  -6.378  -7.114  1.00  0.00     0.029 A 
ATOM     49  N   UNL     1      -8.332  -8.560  -6.850  1.00  0.00    -0.354 N 
ATOM     50  C   UNL     1      -5.952 -11.217  -9.760  1.00  0.00     0.074 A 
ATOM     51  C   UNL     1      -4.690 -10.585  -9.502  1.00  0.00     0.031 C 
ATOM     52  C   UNL     1      -8.627  -6.565  -5.878  1.00  0.00     0.029 A 
ATOM     53  C   UNL     1      -8.793  -7.988  -5.660  1.00  0.00     0.049 A 
ATOM     54  H   UNL     1      -8.418  -9.520  -7.049  1.00  0.00     0.167 HD
ATOM     55  C   UNL     1      -6.334 -12.521  -9.649  1.00  0.00     0.037 A 
ATOM     56  C   UNL     1      -9.257  -8.646  -4.568  1.00  0.00     0.037 A 
ATOM     57  C   UNL     1      -7.755 -12.634  -9.879  1.00  0.00     0.049 A 
ATOM     58  C   UNL     1      -9.614 -10.009  -5.013  1.00  0.00     0.074 A 
ATOM     59  C   UNL     1      -8.620 -12.475 -10.939  1.00  0.00     0.029 A 
ATOM     60  N   UNL     1      -8.501 -12.563  -8.732  1.00  0.00    -0.354 N 
ATOM     61  N   UNL     1     -10.597 -10.267  -5.830  1.00  0.00    -0.248 NA
ATOM     62  C   UNL     1      -8.627 -11.069  -4.866  1.00  0.00     0.031 C 
ATOM     63  C   UNL     1      -9.853 -12.036 -10.367  1.00  0.00     0.029 A 
ATOM     64  C   UNL     1      -9.722 -12.009  -8.978  1.00  0.00     0.049 A 
ATOM     65  H   UNL     1      -8.196 -12.872  -7.849  1.00  0.00     0.167 HD
ATOM     66  C   UNL     1     -10.127 -11.301  -6.619  1.00  0.00     0.074 A 
ATOM     67  C   UNL     1      -8.996 -11.857  -5.879  1.00  0.00     0.031 C 
ATOM     68  C   UNL     1     -10.501 -11.386  -7.930  1.00  0.00     0.037 A 
BRANCH  55  69
ATOM     69  C   UNL     1      -5.613 -13.566  -8.798  1.00  0.00     0.057 A 
ATOM     70  C   UNL     1      -6.192 -14.850  -8.689  1.00  0.00     0.134 A 
ATOM     71  C   UNL     1      -4.616 -13.296  -7.837  1.00  0.00     0.134 A 
ATOM     72  F   UNL     1      -7.139 -15.254  -9.550  1.00  0.00    -0.206 F 
ATOM     73  C   UNL     1      -5.897 -15.731  -7.639  1.00  0.00     0.040 A 
ATOM     74  C   UNL     1      -4.286 -14.187  -6.808  1.00  0.00     0.040 A 
ATOM     75  F   UNL     1      -3.961 -12.135  -7.769  1.00  0.00    -0.206 F 
ATOM     76  C   UNL     1      -4.954 -15.392  -6.681  1.00  0.00     0.006 A 
ENDBRANCH  55  69
BRANCH  56  77
ATOM     77  C   UNL     1      -9.174  -8.296  -3.131  1.00  0.00     0.057 A 
ATOM     78  C   UNL     1      -9.990  -8.929  -2.179  1.00  0.00     0.134 A 
ATOM     79  C   UNL     1      -8.090  -7.563  -2.620  1.00  0.00     0.134 A 
ATOM     80  F   UNL     1     -11.031  -9.680  -2.567  1.00  0.00    -0.206 F 
ATOM     81  C   UNL     1      -9.719  -8.872  -0.804  1.00  0.00     0.040 A 
ATOM     82  C   UNL     1      -7.809  -7.497  -1.250  1.00  0.00     0.040 A 
ATOM     83  F   UNL     1      -7.213  -6.968  -3.442  1.00  0.00    -0.206 F 
ATOM     84  C   UNL     1      -8.614  -8.168  -0.337  1.00  0.00     0.006 A 
ENDBRANCH  56  77
BRANCH  68  85
ATOM     85  C   UNL     1     -11.729 -10.632  -8.347  1.00  0.00     0.057 A 
ATOM     86  C   UNL     1     -11.839  -9.235  -8.390  1.00  0.00     0.134 A 
ATOM     87  C   UNL     1     -12.815 -11.369  -8.831  1.00  0.00     0.134 A 
ATOM     88  F   UNL     1     -10.822  -8.445  -8.022  1.00  0.00    -0.206 F 
ATOM     89  C   UNL     1     -12.993  -8.603  -8.864  1.00  0.00     0.040 A 
ATOM     90  C   UNL     1     -13.958 -10.752  -9.338  1.00  0.00     0.040 A 
ATOM     91  F   UNL     1     -12.759 -12.710  -8.860  1.00  0.00    -0.206 F 
ATOM     92  C   UNL     1     -14.055  -9.364  -9.346  1.00  0.00     0.006 A 
ENDBRANCH  68  85
ENDBRANCH  42  43
ENDBRANCH  34  37
ENDBRANCH  32  33
ENDBRANCH   1  32
TORSDOF 13
