REMARK SMILES O=C(NCCCCNC(=O)[C@@H]1[C@H](C(=O)Nc2ccccc2Cc2ccccc2)[C@H]2C=C[C@@H]1O2)c1ccc(-c2c3nc(c(-c4c(F)cccc4F)c4ccc([nH]4)c(-c4c(F)cccc4F)c4nc(c(-c5c(F)cccc5F)c5ccc2[nH]5)C=C4)C=C3)cc1
REMARK SMILES IDX 6 1 5 2 4 3 3 4 1 5 2 6 34 8 35 9 87 10 36 11 86 12 37 13
REMARK SMILES IDX 38 14 39 15 80 16 40 17 85 18 79 19 81 20 41 21 84 22 78 23
REMARK SMILES IDX 77 24 42 26 68 27 51 28 67 29 52 30 55 31 66 32 82 33 53 34
REMARK SMILES IDX 54 35 65 37 83 38 56 39 43 40 44 41 49 42 45 43 46 44 48 45
REMARK SMILES IDX 50 46 47 47 69 48 70 49 75 50 71 51 72 52 74 53 76 54 73 55
REMARK SMILES IDX 57 56 58 57 63 58 59 59 60 60 62 61 64 62 61 63 7 64 8 65
REMARK SMILES IDX 9 66 10 68 11 69 12 70 32 71 29 72 31 73 33 74 30 75 13 76
REMARK SMILES IDX 14 77 15 78 16 80 17 81 21 82 18 83 20 84 19 85 22 86 23 87
REMARK SMILES IDX 24 88 28 89 25 90 27 91 26 92
REMARK H PARENT 3 7 81 25 55 36 8 67 15 79
REMARK Flexibility Score: inf
ROOT
ATOM      1  C   UNL     1       3.317  -0.950   3.673  1.00  0.00     0.023 C 
ENDROOT
BRANCH   1   2
ATOM      2  C   UNL     1       4.046  -0.141   2.581  1.00  0.00     0.023 C 
BRANCH   2   3
ATOM      3  C   UNL     1       4.068  -0.776   1.191  1.00  0.00     0.116 C 
BRANCH   3   4
ATOM      4  N   UNL     1       2.733  -0.906   0.647  1.00  0.00    -0.352 N 
ATOM      5  O   UNL     1       0.881  -0.209  -0.419  1.00  0.00    -0.269 OA
ATOM      6  C   UNL     1       2.099  -0.135  -0.293  1.00  0.00     0.251 C 
ATOM      7  H   UNL     1       2.204  -1.656   1.002  1.00  0.00     0.163 HD
BRANCH   6   8
ATOM      8  C   UNL     1       2.871   0.782  -1.159  1.00  0.00     0.039 A 
ATOM      9  C   UNL     1       4.026   0.353  -1.821  1.00  0.00     0.014 A 
ATOM     10  C   UNL     1       2.366   2.064  -1.389  1.00  0.00     0.014 A 
ATOM     11  C   UNL     1       4.713   1.228  -2.664  1.00  0.00     0.010 A 
ATOM     12  C   UNL     1       3.024   2.920  -2.274  1.00  0.00     0.010 A 
ATOM     13  C   UNL     1       4.204   2.511  -2.915  1.00  0.00    -0.014 A 
BRANCH  13  14
ATOM     14  C   UNL     1       4.852   3.410  -3.903  1.00  0.00     0.031 A 
ATOM     15  C   UNL     1       5.472   4.704  -3.466  1.00  0.00     0.074 A 
ATOM     16  C   UNL     1       4.805   3.092  -5.210  1.00  0.00     0.049 A 
ATOM     17  N   UNL     1       5.952   5.680  -4.194  1.00  0.00    -0.248 NA
ATOM     18  C   UNL     1       5.548   4.938  -2.017  1.00  0.00     0.031 C 
ATOM     19  C   UNL     1       4.218   1.869  -5.759  1.00  0.00     0.029 A 
ATOM     20  N   UNL     1       5.231   3.784  -6.316  1.00  0.00    -0.354 N 
ATOM     21  C   UNL     1       6.364   6.655  -3.296  1.00  0.00     0.074 A 
ATOM     22  C   UNL     1       6.057   6.161  -1.970  1.00  0.00     0.031 C 
ATOM     23  C   UNL     1       4.311   1.900  -7.096  1.00  0.00     0.029 A 
ATOM     24  C   UNL     1       4.911   3.167  -7.501  1.00  0.00     0.049 A 
ATOM     25  H   UNL     1       5.717   4.638  -6.266  1.00  0.00     0.167 HD
ATOM     26  C   UNL     1       6.945   7.851  -3.557  1.00  0.00     0.037 A 
ATOM     27  C   UNL     1       5.045   3.589  -8.773  1.00  0.00     0.037 A 
ATOM     28  C   UNL     1       7.248   8.332  -4.881  1.00  0.00     0.049 A 
ATOM     29  C   UNL     1       5.657   4.932  -9.042  1.00  0.00     0.074 A 
ATOM     30  C   UNL     1       7.881   9.506  -5.249  1.00  0.00     0.029 A 
ATOM     31  N   UNL     1       6.924   7.668  -6.056  1.00  0.00    -0.354 N 
ATOM     32  N   UNL     1       6.085   5.827  -8.186  1.00  0.00    -0.248 NA
ATOM     33  C   UNL     1       5.806   5.326 -10.450  1.00  0.00     0.031 C 
ATOM     34  C   UNL     1       7.892   9.578  -6.646  1.00  0.00     0.029 A 
ATOM     35  C   UNL     1       7.318   8.422  -7.150  1.00  0.00     0.049 A 
ATOM     36  H   UNL     1       6.480   6.790  -6.106  1.00  0.00     0.167 HD
ATOM     37  C   UNL     1       6.579   6.878  -8.947  1.00  0.00     0.074 A 
ATOM     38  C   UNL     1       6.397   6.508 -10.336  1.00  0.00     0.031 C 
ATOM     39  C   UNL     1       7.139   8.039  -8.529  1.00  0.00     0.037 A 
BRANCH  26  40
ATOM     40  C   UNL     1       7.258   8.736  -2.384  1.00  0.00     0.057 A 
ATOM     41  C   UNL     1       8.265   8.424  -1.462  1.00  0.00     0.134 A 
ATOM     42  C   UNL     1       6.546   9.926  -2.182  1.00  0.00     0.134 A 
ATOM     43  F   UNL     1       8.979   7.295  -1.591  1.00  0.00    -0.206 F 
ATOM     44  C   UNL     1       8.526   9.241  -0.360  1.00  0.00     0.040 A 
ATOM     45  C   UNL     1       6.817  10.766  -1.100  1.00  0.00     0.040 A 
ATOM     46  F   UNL     1       5.575  10.293  -3.032  1.00  0.00    -0.206 F 
ATOM     47  C   UNL     1       7.803  10.418  -0.179  1.00  0.00     0.006 A 
ENDBRANCH  26  40
BRANCH  27  48
ATOM     48  C   UNL     1       4.569   2.719  -9.876  1.00  0.00     0.057 A 
ATOM     49  C   UNL     1       5.470   2.042 -10.704  1.00  0.00     0.134 A 
ATOM     50  C   UNL     1       3.202   2.499 -10.090  1.00  0.00     0.134 A 
ATOM     51  F   UNL     1       6.790   2.225 -10.556  1.00  0.00    -0.206 F 
ATOM     52  C   UNL     1       5.030   1.175 -11.705  1.00  0.00     0.040 A 
ATOM     53  C   UNL     1       2.749   1.617 -11.072  1.00  0.00     0.040 A 
ATOM     54  F   UNL     1       2.290   3.111  -9.322  1.00  0.00    -0.206 F 
ATOM     55  C   UNL     1       3.666   0.953 -11.884  1.00  0.00     0.006 A 
ENDBRANCH  27  48
BRANCH  39  56
ATOM     56  C   UNL     1       7.641   8.985  -9.580  1.00  0.00     0.057 A 
ATOM     57  C   UNL     1       6.772   9.768 -10.349  1.00  0.00     0.134 A 
ATOM     58  C   UNL     1       9.017   9.166  -9.769  1.00  0.00     0.134 A 
ATOM     59  F   UNL     1       5.443   9.632 -10.226  1.00  0.00    -0.206 F 
ATOM     60  C   UNL     1       7.255  10.697 -11.273  1.00  0.00     0.040 A 
ATOM     61  C   UNL     1       9.512  10.107 -10.672  1.00  0.00     0.040 A 
ATOM     62  F   UNL     1       9.902   8.450  -9.059  1.00  0.00    -0.206 F 
ATOM     63  C   UNL     1       8.630  10.876 -11.428  1.00  0.00     0.006 A 
ENDBRANCH  39  56
ENDBRANCH  13  14
ENDBRANCH   6   8
ENDBRANCH   3   4
ENDBRANCH   2   3
ENDBRANCH   1   2
BRANCH   1  64
ATOM     64  C   UNL     1       3.696  -2.438   3.797  1.00  0.00     0.116 C 
BRANCH  64  65
ATOM     65  N   UNL     1       5.126  -2.614   3.749  1.00  0.00    -0.356 N 
ATOM     66  C   UNL     1       6.014  -2.830   4.738  1.00  0.00     0.227 C 
ATOM     67  H   UNL     1       5.517  -2.570   2.847  1.00  0.00     0.163 HD
ATOM     68  O   UNL     1       7.048  -2.178   4.589  1.00  0.00    -0.275 OA
BRANCH  66  69
ATOM     69  C   UNL     1       5.759  -3.803   5.884  1.00  0.00     0.127 C 
ATOM     70  C   UNL     1       6.758  -3.673   7.059  1.00  0.00     0.127 C 
ATOM     71  C   UNL     1       5.915  -5.321   5.588  1.00  0.00     0.155 C 
ATOM     72  C   UNL     1       7.187  -5.101   7.349  1.00  0.00     0.155 C 
ATOM     73  C   UNL     1       5.256  -6.116   6.683  1.00  0.00     0.004 C 
ATOM     74  O   UNL     1       7.289  -5.592   6.000  1.00  0.00    -0.365 OA
ATOM     75  C   UNL     1       6.015  -5.943   7.778  1.00  0.00     0.004 C 
BRANCH  70  76
ATOM     76  C   UNL     1       7.919  -2.719   6.899  1.00  0.00     0.231 C 
ATOM     77  O   UNL     1       7.792  -1.626   7.490  1.00  0.00    -0.274 OA
ATOM     78  N   UNL     1       9.109  -2.861   6.277  1.00  0.00    -0.325 N 
ATOM     79  H   UNL     1       9.603  -2.019   6.406  1.00  0.00     0.169 HD
BRANCH  78  80
ATOM     80  C   UNL     1       9.943  -3.719   5.515  1.00  0.00     0.044 A 
ATOM     81  C   UNL     1      11.271  -3.609   6.008  1.00  0.00     0.026 A 
ATOM     82  C   UNL     1       9.748  -4.539   4.372  1.00  0.00    -0.020 A 
ATOM     83  C   UNL     1      12.347  -4.323   5.487  1.00  0.00     0.002 A 
ATOM     84  C   UNL     1      10.867  -5.258   3.865  1.00  0.00     0.006 A 
ATOM     85  C   UNL     1      12.141  -5.162   4.415  1.00  0.00     0.000 A 
BRANCH  82  86
ATOM     86  C   UNL     1       8.479  -4.820   3.602  1.00  0.00     0.073 C 
BRANCH  86  87
ATOM     87  C   UNL     1       8.349  -4.536   2.107  1.00  0.00    -0.044 A 
ATOM     88  C   UNL     1       7.952  -3.271   1.646  1.00  0.00     0.004 A 
ATOM     89  C   UNL     1       8.426  -5.581   1.170  1.00  0.00     0.004 A 
ATOM     90  C   UNL     1       7.557  -3.078   0.317  1.00  0.00     0.000 A 
ATOM     91  C   UNL     1       8.059  -5.381  -0.166  1.00  0.00     0.000 A 
ATOM     92  C   UNL     1       7.599  -4.137  -0.587  1.00  0.00     0.000 A 
ENDBRANCH  86  87
ENDBRANCH  82  86
ENDBRANCH  78  80
ENDBRANCH  70  76
ENDBRANCH  66  69
ENDBRANCH  64  65
ENDBRANCH   1  64
TORSDOF 15
