REMARK SMILES Cc1ccc(S(=O)(=O)Nc2ccc(N3CCCCCC3)cc2C(=O)NCCCCNC(=O)c2ccc(-c3c4nc(c(-c5c(F)cccc5F)c5ccc([nH]5)c(-c5c(F)cccc5F)c5nc(c(-c6c(F)cccc6F)c6ccc3[nH]6)C=C5)C=C4)cc2)cc1
REMARK SMILES IDX 26 1 25 2 23 3 24 4 22 6 10 7 11 8 12 9 21 10 13 11 9 12
REMARK SMILES IDX 6 14 7 15 8 16 5 17 1 18 2 19 3 20 88 21 4 22 87 23 14 24
REMARK SMILES IDX 15 25 16 26 17 27 18 28 20 30 19 31 27 33 28 34 29 35 30 36
REMARK SMILES IDX 31 37 32 39 33 40 34 41 86 42 35 43 85 44 36 45 37 46 38 47
REMARK SMILES IDX 79 48 39 49 84 50 78 51 80 52 40 53 83 54 77 55 76 56 41 58
REMARK SMILES IDX 67 59 50 60 66 61 51 62 54 63 65 64 81 65 52 66 53 67 64 69
REMARK SMILES IDX 82 70 55 71 42 72 43 73 48 74 44 75 45 76 47 77 49 78 46 79
REMARK SMILES IDX 68 80 69 81 74 82 70 83 71 84 73 85 75 86 72 87 56 88 57 89
REMARK SMILES IDX 62 90 58 91 59 92 61 93 63 94 60 95
REMARK H PARENT 25 5 9 13 30 38 80 57 54 68
REMARK Flexibility Score: 90.00
ROOT
ATOM      1  C   UNL     1       0.661   2.837  -2.898  1.00  0.00     0.116 C 
ENDROOT
BRANCH   1   2
ATOM      2  N   UNL     1      -0.554   2.029  -2.989  1.00  0.00    -0.352 N 
ATOM      3  C   UNL     1      -1.823   2.087  -2.441  1.00  0.00     0.253 C 
ATOM      4  O   UNL     1      -2.636   1.261  -2.855  1.00  0.00    -0.269 OA
ATOM      5  H   UNL     1      -0.443   1.255  -3.587  1.00  0.00     0.163 HD
BRANCH   3   6
ATOM      6  C   UNL     1      -2.209   3.051  -1.370  1.00  0.00     0.066 A 
ATOM      7  C   UNL     1      -3.096   2.711  -0.332  1.00  0.00     0.062 A 
ATOM      8  C   UNL     1      -3.270   3.596   0.738  1.00  0.00     0.030 A 
ATOM      9  C   UNL     1      -2.524   4.781   0.800  1.00  0.00     0.028 A 
ATOM     10  C   UNL     1      -1.666   4.335  -1.379  1.00  0.00     0.042 A 
ATOM     11  C   UNL     1      -1.697   5.171  -0.258  1.00  0.00     0.038 A 
BRANCH   7  12
ATOM     12  N   UNL     1      -3.850   1.493  -0.365  1.00  0.00    -0.279 N 
ATOM     13  H   UNL     1      -4.577   1.378  -1.019  1.00  0.00     0.180 HD
BRANCH  12  14
ATOM     14  S   UNL     1      -3.485   0.257   0.721  1.00  0.00     0.261 S 
ATOM     15  O   UNL     1      -4.144  -0.941   0.228  1.00  0.00    -0.201 OA
ATOM     16  O   UNL     1      -3.766   0.738   2.053  1.00  0.00    -0.201 OA
BRANCH  14  17
ATOM     17  C   UNL     1      -1.732   0.029   0.584  1.00  0.00     0.087 A 
ATOM     18  C   UNL     1       2.516  -0.586   0.598  1.00  0.00     0.044 C 
ATOM     19  C   UNL     1       1.033  -0.364   0.558  1.00  0.00    -0.051 A 
ATOM     20  C   UNL     1       0.183  -1.260  -0.108  1.00  0.00     0.005 A 
ATOM     21  C   UNL     1       0.484   0.724   1.246  1.00  0.00     0.005 A 
ATOM     22  C   UNL     1      -1.201  -1.061  -0.105  1.00  0.00     0.022 A 
ATOM     23  C   UNL     1      -0.894   0.911   1.273  1.00  0.00     0.022 A 
ENDBRANCH  14  17
ENDBRANCH  12  14
ENDBRANCH   7  12
BRANCH  11  24
ATOM     24  N   UNL     1      -0.885   6.308  -0.175  1.00  0.00    -0.372 N 
BRANCH  24  25
ATOM     25  C   UNL     1       0.066   6.333   0.944  1.00  0.00     0.116 C 
BRANCH  25  26
ATOM     26  C   UNL     1      -0.165   7.553   1.831  1.00  0.00     0.021 C 
BRANCH  26  27
ATOM     27  C   UNL     1       0.303   8.874   1.225  1.00  0.00     0.002 C 
BRANCH  27  28
ATOM     28  C   UNL     1      -0.311   9.207  -0.134  1.00  0.00     0.002 CG0
ATOM     29  G   UNL     1       0.223   8.311  -1.244  1.00  0.00     0.000 G0
ENDBRANCH  27  28
ENDBRANCH  26  27
ENDBRANCH  25  26
ENDBRANCH  24  25
BRANCH  24  30
ATOM     30  C   UNL     1      -0.526   6.994  -1.422  1.00  0.00     0.116 C 
BRANCH  30  31
ATOM     31  C   UNL     1       0.223   8.311  -1.244  1.00  0.00     0.021 CG0
ATOM     32  G   UNL     1      -0.311   9.207  -0.134  1.00  0.00     0.000 G0
ENDBRANCH  30  31
ENDBRANCH  24  30
ENDBRANCH  11  24
ENDBRANCH   3   6
ENDBRANCH   1   2
BRANCH   1  33
ATOM     33  C   UNL     1       1.819   2.220  -2.112  1.00  0.00     0.023 C 
BRANCH  33  34
ATOM     34  C   UNL     1       2.317   0.865  -2.603  1.00  0.00     0.023 C 
BRANCH  34  35
ATOM     35  C   UNL     1       2.924   0.865  -3.997  1.00  0.00     0.116 C 
BRANCH  35  36
ATOM     36  N   UNL     1       4.358   1.138  -4.052  1.00  0.00    -0.352 N 
ATOM     37  C   UNL     1       5.157   1.317  -5.172  1.00  0.00     0.251 C 
ATOM     38  H   UNL     1       4.817   1.202  -3.183  1.00  0.00     0.163 HD
ATOM     39  O   UNL     1       6.359   1.529  -5.055  1.00  0.00    -0.269 OA
BRANCH  37  40
ATOM     40  C   UNL     1       4.510   1.405  -6.504  1.00  0.00     0.039 A 
ATOM     41  C   UNL     1       4.769   2.544  -7.272  1.00  0.00     0.014 A 
ATOM     42  C   UNL     1       3.448   0.566  -6.824  1.00  0.00     0.014 A 
ATOM     43  C   UNL     1       3.789   3.004  -8.147  1.00  0.00     0.010 A 
ATOM     44  C   UNL     1       2.426   1.078  -7.598  1.00  0.00     0.010 A 
ATOM     45  C   UNL     1       2.566   2.337  -8.193  1.00  0.00    -0.014 A 
BRANCH  45  46
ATOM     46  C   UNL     1       1.357   2.930  -8.752  1.00  0.00     0.031 A 
ATOM     47  C   UNL     1       0.833   2.462 -10.047  1.00  0.00     0.074 A 
ATOM     48  C   UNL     1       0.670   3.866  -8.059  1.00  0.00     0.049 A 
ATOM     49  N   UNL     1       0.067   3.160 -10.815  1.00  0.00    -0.248 NA
ATOM     50  C   UNL     1       1.167   1.155 -10.595  1.00  0.00     0.031 C 
ATOM     51  C   UNL     1      -0.661   4.391  -8.354  1.00  0.00     0.029 A 
ATOM     52  N   UNL     1       1.155   4.707  -7.049  1.00  0.00    -0.354 N 
ATOM     53  C   UNL     1      -0.422   2.322 -11.788  1.00  0.00     0.074 A 
ATOM     54  C   UNL     1       0.343   1.103 -11.644  1.00  0.00     0.031 C 
ATOM     55  C   UNL     1      -0.773   5.612  -7.810  1.00  0.00     0.029 A 
ATOM     56  C   UNL     1       0.520   5.957  -7.250  1.00  0.00     0.049 A 
ATOM     57  H   UNL     1       1.802   4.476  -6.345  1.00  0.00     0.167 HD
ATOM     58  C   UNL     1      -1.506   2.711 -12.520  1.00  0.00     0.037 A 
ATOM     59  C   UNL     1       1.256   7.062  -7.567  1.00  0.00     0.037 A 
ATOM     60  C   UNL     1      -1.908   4.085 -12.207  1.00  0.00     0.049 A 
ATOM     61  C   UNL     1       0.971   7.632  -8.944  1.00  0.00     0.074 A 
ATOM     62  C   UNL     1      -2.909   4.663 -11.444  1.00  0.00     0.029 A 
ATOM     63  N   UNL     1      -1.024   5.109 -12.496  1.00  0.00    -0.354 N 
ATOM     64  N   UNL     1       0.063   7.177  -9.764  1.00  0.00    -0.248 NA
ATOM     65  C   UNL     1       1.768   8.705  -9.543  1.00  0.00     0.031 C 
ATOM     66  C   UNL     1      -2.604   6.046 -11.273  1.00  0.00     0.029 A 
ATOM     67  C   UNL     1      -1.418   6.308 -11.933  1.00  0.00     0.049 A 
ATOM     68  H   UNL     1      -0.210   4.998 -13.039  1.00  0.00     0.167 HD
ATOM     69  C   UNL     1       0.193   7.801 -10.978  1.00  0.00     0.074 A 
ATOM     70  C   UNL     1       1.266   8.758 -10.787  1.00  0.00     0.031 C 
ATOM     71  C   UNL     1      -0.545   7.461 -12.076  1.00  0.00     0.037 A 
BRANCH  58  72
ATOM     72  C   UNL     1      -2.341   1.746 -13.331  1.00  0.00     0.057 A 
ATOM     73  C   UNL     1      -3.724   1.948 -13.499  1.00  0.00     0.134 A 
ATOM     74  C   UNL     1      -1.857   0.566 -13.921  1.00  0.00     0.134 A 
ATOM     75  F   UNL     1      -4.324   3.081 -13.113  1.00  0.00    -0.206 F 
ATOM     76  C   UNL     1      -4.570   0.992 -14.077  1.00  0.00     0.040 A 
ATOM     77  C   UNL     1      -2.696  -0.430 -14.443  1.00  0.00     0.040 A 
ATOM     78  F   UNL     1      -0.545   0.349 -14.079  1.00  0.00    -0.206 F 
ATOM     79  C   UNL     1      -4.065  -0.225 -14.507  1.00  0.00     0.006 A 
ENDBRANCH  58  72
BRANCH  59  80
ATOM     80  C   UNL     1       2.578   7.057  -6.881  1.00  0.00     0.057 A 
ATOM     81  C   UNL     1       2.593   7.056  -5.472  1.00  0.00     0.134 A 
ATOM     82  C   UNL     1       3.739   6.635  -7.531  1.00  0.00     0.134 A 
ATOM     83  F   UNL     1       1.510   7.455  -4.782  1.00  0.00    -0.206 F 
ATOM     84  C   UNL     1       3.654   6.509  -4.748  1.00  0.00     0.040 A 
ATOM     85  C   UNL     1       4.819   6.112  -6.813  1.00  0.00     0.040 A 
ATOM     86  F   UNL     1       3.800   6.595  -8.870  1.00  0.00    -0.206 F 
ATOM     87  C   UNL     1       4.756   5.997  -5.425  1.00  0.00     0.006 A 
ENDBRANCH  59  80
BRANCH  71  88
ATOM     88  C   UNL     1      -0.462   8.191 -13.390  1.00  0.00     0.057 A 
ATOM     89  C   UNL     1      -0.412   9.591 -13.470  1.00  0.00     0.134 A 
ATOM     90  C   UNL     1      -0.553   7.519 -14.625  1.00  0.00     0.134 A 
ATOM     91  F   UNL     1      -0.407  10.347 -12.362  1.00  0.00    -0.206 F 
ATOM     92  C   UNL     1      -0.392  10.272 -14.694  1.00  0.00     0.040 A 
ATOM     93  C   UNL     1      -0.584   8.189 -15.851  1.00  0.00     0.040 A 
ATOM     94  F   UNL     1      -0.595   6.181 -14.701  1.00  0.00    -0.206 F 
ATOM     95  C   UNL     1      -0.487   9.572 -15.890  1.00  0.00     0.006 A 
ENDBRANCH  71  88
ENDBRANCH  45  46
ENDBRANCH  37  40
ENDBRANCH  35  36
ENDBRANCH  34  35
ENDBRANCH  33  34
ENDBRANCH   1  33
TORSDOF 15
