REMARK SMILES O=C(NCCCCNC(=O)c1cccc2c1cc(Br)c1ccccc12)c1ccc(-c2c3nc(c(-c4c(F)cccc4F)c4ccc([nH]4)c(-c4c(F)cccc4F)c4nc(c(-c5c(F)cccc5F)c5ccc2[nH]5)C=C4)C=C3)cc1
REMARK SMILES IDX 4 1 3 2 1 3 2 4 26 6 27 7 79 8 28 9 78 10 29 11 30 12 31 13
REMARK SMILES IDX 72 14 32 15 77 16 71 17 73 18 33 19 76 20 70 21 69 22 34 24
REMARK SMILES IDX 60 25 43 26 59 27 44 28 47 29 58 30 74 31 45 32 46 33 57 35
REMARK SMILES IDX 75 36 48 37 35 38 36 39 41 40 37 41 38 42 40 43 42 44 39 45
REMARK SMILES IDX 61 46 62 47 67 48 63 49 64 50 66 51 68 52 65 53 49 54 50 55
REMARK SMILES IDX 55 56 51 57 52 58 54 59 56 60 53 61 5 62 6 63 7 64 8 65 9 66
REMARK SMILES IDX 10 68 11 69 12 70 16 71 13 72 15 73 17 74 14 75 25 76 18 77
REMARK SMILES IDX 20 78 24 79 19 80 21 81 23 82 22 83
REMARK H PARENT 3 5 73 23 47 34 8 67
REMARK Flexibility Score: inf
ROOT
ATOM      1  C   UNL     1       4.617   1.235  -0.614  1.00  0.00     0.116 C 
ENDROOT
BRANCH   1   2
ATOM      2  N   UNL     1       3.182   1.186  -0.395  1.00  0.00    -0.352 N 
ATOM      3  O   UNL     1       1.167   0.277   0.022  1.00  0.00    -0.269 OA
ATOM      4  C   UNL     1       2.389   0.145   0.020  1.00  0.00     0.251 C 
ATOM      5  H   UNL     1       2.704   2.029  -0.570  1.00  0.00     0.163 HD
BRANCH   4   6
ATOM      6  C   UNL     1       2.987  -1.143   0.443  1.00  0.00     0.039 A 
ATOM      7  C   UNL     1       2.359  -2.330   0.053  1.00  0.00     0.014 A 
ATOM      8  C   UNL     1       4.130  -1.193   1.244  1.00  0.00     0.014 A 
ATOM      9  C   UNL     1       2.899  -3.560   0.433  1.00  0.00     0.010 A 
ATOM     10  C   UNL     1       4.717  -2.420   1.548  1.00  0.00     0.010 A 
ATOM     11  C   UNL     1       4.095  -3.617   1.168  1.00  0.00    -0.014 A 
BRANCH  11  12
ATOM     12  C   UNL     1       4.667  -4.923   1.588  1.00  0.00     0.031 A 
ATOM     13  C   UNL     1       4.755  -5.276   3.049  1.00  0.00     0.074 A 
ATOM     14  C   UNL     1       5.121  -5.787   0.661  1.00  0.00     0.049 A 
ATOM     15  N   UNL     1       5.202  -6.370   3.613  1.00  0.00    -0.248 NA
ATOM     16  C   UNL     1       4.303  -4.253   4.005  1.00  0.00     0.031 C 
ATOM     17  C   UNL     1       5.133  -5.552  -0.784  1.00  0.00     0.029 A 
ATOM     18  N   UNL     1       5.651  -7.046   0.798  1.00  0.00    -0.354 N 
ATOM     19  C   UNL     1       5.094  -6.161   4.982  1.00  0.00     0.074 A 
ATOM     20  C   UNL     1       4.605  -4.813   5.165  1.00  0.00     0.031 C 
ATOM     21  C   UNL     1       5.600  -6.649  -1.402  1.00  0.00     0.029 A 
ATOM     22  C   UNL     1       5.949  -7.650  -0.399  1.00  0.00     0.049 A 
ATOM     23  H   UNL     1       5.803  -7.474   1.671  1.00  0.00     0.167 HD
ATOM     24  C   UNL     1       5.346  -7.022   5.998  1.00  0.00     0.037 A 
ATOM     25  C   UNL     1       6.437  -8.878  -0.656  1.00  0.00     0.037 A 
ATOM     26  C   UNL     1       5.817  -8.370   5.818  1.00  0.00     0.049 A 
ATOM     27  C   UNL     1       6.732  -9.808   0.488  1.00  0.00     0.074 A 
ATOM     28  C   UNL     1       6.051  -9.340   6.776  1.00  0.00     0.029 A 
ATOM     29  N   UNL     1       6.130  -8.937   4.591  1.00  0.00    -0.354 N 
ATOM     30  N   UNL     1       6.558  -9.623   1.774  1.00  0.00    -0.248 NA
ATOM     31  C   UNL     1       7.288 -11.123   0.139  1.00  0.00     0.031 C 
ATOM     32  C   UNL     1       6.551 -10.479   6.133  1.00  0.00     0.029 A 
ATOM     33  C   UNL     1       6.582 -10.235   4.770  1.00  0.00     0.049 A 
ATOM     34  H   UNL     1       6.044  -8.484   3.721  1.00  0.00     0.167 HD
ATOM     35  C   UNL     1       6.960 -10.804   2.386  1.00  0.00     0.074 A 
ATOM     36  C   UNL     1       7.364 -11.705   1.326  1.00  0.00     0.031 C 
ATOM     37  C   UNL     1       6.992 -11.116   3.705  1.00  0.00     0.037 A 
BRANCH  24  38
ATOM     38  C   UNL     1       5.118  -6.514   7.394  1.00  0.00     0.057 A 
ATOM     39  C   UNL     1       6.195  -6.287   8.259  1.00  0.00     0.134 A 
ATOM     40  C   UNL     1       3.832  -6.236   7.879  1.00  0.00     0.134 A 
ATOM     41  F   UNL     1       7.452  -6.537   7.864  1.00  0.00    -0.206 F 
ATOM     42  C   UNL     1       6.003  -5.790   9.550  1.00  0.00     0.040 A 
ATOM     43  C   UNL     1       3.629  -5.710   9.156  1.00  0.00     0.040 A 
ATOM     44  F   UNL     1       2.756  -6.417   7.097  1.00  0.00    -0.206 F 
ATOM     45  C   UNL     1       4.718  -5.488   9.997  1.00  0.00     0.006 A 
ENDBRANCH  24  38
BRANCH  25  46
ATOM     46  C   UNL     1       6.640  -9.322  -2.058  1.00  0.00     0.057 A 
ATOM     47  C   UNL     1       7.657  -8.791  -2.859  1.00  0.00     0.134 A 
ATOM     48  C   UNL     1       5.823 -10.309  -2.622  1.00  0.00     0.134 A 
ATOM     49  F   UNL     1       8.470  -7.840  -2.378  1.00  0.00    -0.206 F 
ATOM     50  C   UNL     1       7.853  -9.223  -4.172  1.00  0.00     0.040 A 
ATOM     51  C   UNL     1       6.022 -10.768  -3.925  1.00  0.00     0.040 A 
ATOM     52  F   UNL     1       4.844 -10.871  -1.897  1.00  0.00    -0.206 F 
ATOM     53  C   UNL     1       7.038 -10.220  -4.706  1.00  0.00     0.006 A 
ENDBRANCH  25  46
BRANCH  37  54
ATOM     54  C   UNL     1       7.462 -12.496   4.064  1.00  0.00     0.057 A 
ATOM     55  C   UNL     1       6.563 -13.453   4.551  1.00  0.00     0.134 A 
ATOM     56  C   UNL     1       8.802 -12.880   3.924  1.00  0.00     0.134 A 
ATOM     57  F   UNL     1       5.267 -13.149   4.717  1.00  0.00    -0.206 F 
ATOM     58  C   UNL     1       6.978 -14.745   4.878  1.00  0.00     0.040 A 
ATOM     59  C   UNL     1       9.224 -14.178   4.221  1.00  0.00     0.040 A 
ATOM     60  F   UNL     1       9.711 -12.015   3.449  1.00  0.00    -0.206 F 
ATOM     61  C   UNL     1       8.310 -15.113   4.703  1.00  0.00     0.006 A 
ENDBRANCH  37  54
ENDBRANCH  11  12
ENDBRANCH   4   6
ENDBRANCH   1   2
BRANCH   1  62
ATOM     62  C   UNL     1       4.995   1.780  -1.986  1.00  0.00     0.023 C 
BRANCH  62  63
ATOM     63  C   UNL     1       4.511   3.196  -2.293  1.00  0.00     0.023 C 
BRANCH  63  64
ATOM     64  C   UNL     1       4.845   4.249  -1.241  1.00  0.00     0.116 C 
BRANCH  64  65
ATOM     65  N   UNL     1       6.274   4.383  -1.006  1.00  0.00    -0.352 N 
ATOM     66  C   UNL     1       7.069   5.497  -1.106  1.00  0.00     0.251 C 
ATOM     67  H   UNL     1       6.737   3.557  -0.738  1.00  0.00     0.163 HD
ATOM     68  O   UNL     1       8.277   5.411  -0.883  1.00  0.00    -0.269 OA
BRANCH  66  69
ATOM     69  C   UNL     1       6.465   6.799  -1.473  1.00  0.00     0.047 A 
ATOM     70  C   UNL     1       5.484   7.300  -0.609  1.00  0.00     0.014 A 
ATOM     71  C   UNL     1       6.868   7.511  -2.637  1.00  0.00    -0.004 A 
ATOM     72  C   UNL     1       4.819   8.464  -0.938  1.00  0.00     0.002 A 
ATOM     73  C   UNL     1       6.204   8.720  -2.976  1.00  0.00    -0.010 A 
ATOM     74  C   UNL     1       7.906   7.065  -3.475  1.00  0.00     0.026 A 
ATOM     75  C   UNL     1       5.166   9.147  -2.105  1.00  0.00     0.009 A 
ATOM     76  C   UNL     1       6.601   9.458  -4.154  1.00  0.00    -0.009 A 
ATOM     77  C   UNL     1       8.311   7.788  -4.598  1.00  0.00     0.026 A 
ATOM     78  C   UNL     1       7.677   8.993  -4.960  1.00  0.00    -0.004 A 
ATOM     79  C   UNL     1       5.968  10.664  -4.560  1.00  0.00     0.009 A 
ATOM     80  Br  UNL     1       9.764   7.042  -5.589  1.00  0.00    -0.050 Br
ATOM     81  C   UNL     1       8.070   9.759  -6.090  1.00  0.00     0.010 A 
ATOM     82  C   UNL     1       6.370  11.394  -5.681  1.00  0.00     0.001 A 
ATOM     83  C   UNL     1       7.429  10.943  -6.444  1.00  0.00     0.001 A 
ENDBRANCH  66  69
ENDBRANCH  64  65
ENDBRANCH  63  64
ENDBRANCH  62  63
ENDBRANCH   1  62
TORSDOF 11
