REMARK SMILES [NH3+]CC(=O)N1C[C@H](O)C[C@H]1C(=O)NCCCCNC(=O)c1ccc(-c2c3nc(c(-c4c(F)cccc4F)c4ccc([nH]4)c(-c4c(F)cccc4F)c4nc(c(-c5c(F)cccc5F)c5ccc2[nH]5)C=C4)C=C3)cc1
REMARK SMILES IDX 15 1 14 2 13 3 11 4 12 5 10 7 5 8 6 9 7 10 9 11 3 12 4 13
REMARK SMILES IDX 2 14 1 15 8 19 16 21 17 22 18 23 19 24 20 26 21 27 22 28
REMARK SMILES IDX 74 29 23 30 73 31 24 32 25 33 26 34 67 35 27 36 72 37 66 38
REMARK SMILES IDX 68 39 28 40 71 41 65 42 64 43 29 45 55 46 38 47 54 48 39 49
REMARK SMILES IDX 42 50 53 51 69 52 40 53 41 54 52 56 70 57 43 58 30 59 31 60
REMARK SMILES IDX 36 61 32 62 33 63 35 64 37 65 34 66 56 67 57 68 62 69 58 70
REMARK SMILES IDX 59 71 61 72 63 73 60 74 44 75 45 76 50 77 46 78 47 79 49 80
REMARK SMILES IDX 51 81 48 82
REMARK H PARENT 13 6 1 16 1 17 1 18 8 20 18 25 68 44 42 55
REMARK Flexibility Score: inf
ROOT
ATOM      1  C   UNL     1       1.529  -4.780   0.052  1.00  0.00     0.023 C 
ENDROOT
BRANCH   1   2
ATOM      2  C   UNL     1       2.784  -4.708  -0.808  1.00  0.00     0.116 C 
BRANCH   2   3
ATOM      3  N   UNL     1       2.496  -4.815  -2.219  1.00  0.00    -0.354 N 
ATOM      4  C   UNL     1       2.636  -3.901  -3.220  1.00  0.00     0.242 C 
ATOM      5  O   UNL     1       2.535  -4.327  -4.377  1.00  0.00    -0.273 OA
ATOM      6  H   UNL     1       2.141  -5.688  -2.504  1.00  0.00     0.163 HD
BRANCH   4   7
ATOM      7  C   UNL     1       3.128  -2.463  -2.963  1.00  0.00     0.177 C 
ATOM      8  N   UNL     1       2.526  -1.681  -1.876  1.00  0.00    -0.323 N 
ATOM      9  C   UNL     1       3.538  -1.061  -1.032  1.00  0.00     0.152 C 
ATOM     10  C   UNL     1       4.855  -1.252  -1.779  1.00  0.00     0.136 C 
ATOM     11  C   UNL     1       4.634  -2.472  -2.663  1.00  0.00     0.069 C 
BRANCH   8  12
ATOM     12  C   UNL     1       1.179  -1.378  -1.928  1.00  0.00     0.278 C 
ATOM     13  O   UNL     1       0.423  -1.993  -2.682  1.00  0.00    -0.268 OA
BRANCH  12  14
ATOM     14  C   UNL     1       0.638  -0.218  -1.079  1.00  0.00     0.360 C 
BRANCH  14  15
ATOM     15  N   UNL     1       0.738  -0.454   0.365  1.00  0.00    -0.350 N 
ATOM     16  H   UNL     1       0.364   0.351   0.867  1.00  0.00     0.344 HD
ATOM     17  H   UNL     1       1.716  -0.589   0.620  1.00  0.00     0.344 HD
ATOM     18  H   UNL     1       0.204  -1.287   0.611  1.00  0.00     0.344 HD
ENDBRANCH  14  15
ENDBRANCH  12  14
ENDBRANCH   8  12
BRANCH  10  19
ATOM     19  O   UNL     1       5.146  -0.112  -2.581  1.00  0.00    -0.391 OA
ATOM     20  H   UNL     1       4.419   0.039  -3.205  1.00  0.00     0.211 HD
ENDBRANCH  10  19
ENDBRANCH   4   7
ENDBRANCH   2   3
ENDBRANCH   1   2
BRANCH   1  21
ATOM     21  C   UNL     1       0.781  -6.112  -0.020  1.00  0.00     0.023 C 
BRANCH  21  22
ATOM     22  C   UNL     1       1.626  -7.355   0.235  1.00  0.00     0.116 C 
BRANCH  22  23
ATOM     23  N   UNL     1       2.293  -7.343   1.529  1.00  0.00    -0.352 N 
ATOM     24  C   UNL     1       2.423  -8.368   2.436  1.00  0.00     0.251 C 
ATOM     25  H   UNL     1       2.706  -6.488   1.789  1.00  0.00     0.163 HD
ATOM     26  O   UNL     1       2.926  -8.167   3.537  1.00  0.00    -0.269 OA
BRANCH  24  27
ATOM     27  C   UNL     1       1.918  -9.711   2.084  1.00  0.00     0.039 A 
ATOM     28  C   UNL     1       1.070 -10.372   2.975  1.00  0.00     0.014 A 
ATOM     29  C   UNL     1       2.252 -10.292   0.858  1.00  0.00     0.014 A 
ATOM     30  C   UNL     1       0.497 -11.591   2.606  1.00  0.00     0.010 A 
ATOM     31  C   UNL     1       1.626 -11.469   0.464  1.00  0.00     0.010 A 
ATOM     32  C   UNL     1       0.744 -12.131   1.333  1.00  0.00    -0.014 A 
BRANCH  32  33
ATOM     33  C   UNL     1       0.113 -13.398   0.886  1.00  0.00     0.031 A 
ATOM     34  C   UNL     1       0.977 -14.588   0.577  1.00  0.00     0.074 A 
ATOM     35  C   UNL     1      -1.216 -13.452   0.670  1.00  0.00     0.049 A 
ATOM     36  N   UNL     1       0.649 -15.734   0.038  1.00  0.00    -0.248 NA
ATOM     37  C   UNL     1       2.411 -14.456   0.886  1.00  0.00     0.031 C 
ATOM     38  C   UNL     1      -2.159 -12.356   0.897  1.00  0.00     0.029 A 
ATOM     39  N   UNL     1      -2.001 -14.470   0.189  1.00  0.00    -0.354 N 
ATOM     40  C   UNL     1       1.836 -16.446  -0.081  1.00  0.00     0.074 A 
ATOM     41  C   UNL     1       2.897 -15.587   0.397  1.00  0.00     0.031 C 
ATOM     42  C   UNL     1      -3.395 -12.764   0.566  1.00  0.00     0.029 A 
ATOM     43  C   UNL     1      -3.327 -14.133   0.065  1.00  0.00     0.049 A 
ATOM     44  H   UNL     1      -1.647 -15.358  -0.046  1.00  0.00     0.167 HD
ATOM     45  C   UNL     1       2.022 -17.709  -0.531  1.00  0.00     0.037 A 
ATOM     46  C   UNL     1      -4.367 -14.843  -0.414  1.00  0.00     0.037 A 
ATOM     47  C   UNL     1       0.959 -18.573  -0.972  1.00  0.00     0.049 A 
ATOM     48  C   UNL     1      -4.135 -16.245  -0.907  1.00  0.00     0.074 A 
ATOM     49  C   UNL     1       1.037 -19.888  -1.395  1.00  0.00     0.029 A 
ATOM     50  N   UNL     1      -0.376 -18.206  -1.044  1.00  0.00    -0.354 N 
ATOM     51  N   UNL     1      -3.016 -16.926  -0.967  1.00  0.00    -0.248 NA
ATOM     52  C   UNL     1      -5.311 -16.981  -1.394  1.00  0.00     0.031 C 
ATOM     53  C   UNL     1      -0.247 -20.307  -1.757  1.00  0.00     0.029 A 
ATOM     54  C   UNL     1      -1.131 -19.267  -1.515  1.00  0.00     0.049 A 
ATOM     55  H   UNL     1      -0.734 -17.323  -0.797  1.00  0.00     0.167 HD
ATOM     56  C   UNL     1      -3.358 -18.179  -1.460  1.00  0.00     0.074 A 
ATOM     57  C   UNL     1      -4.789 -18.165  -1.682  1.00  0.00     0.031 C 
ATOM     58  C   UNL     1      -2.558 -19.245  -1.702  1.00  0.00     0.037 A 
BRANCH  45  59
ATOM     59  C   UNL     1       3.428 -18.232  -0.563  1.00  0.00     0.057 A 
ATOM     60  C   UNL     1       4.134 -18.528   0.611  1.00  0.00     0.134 A 
ATOM     61  C   UNL     1       4.075 -18.467  -1.783  1.00  0.00     0.134 A 
ATOM     62  F   UNL     1       3.576 -18.312   1.812  1.00  0.00    -0.206 F 
ATOM     63  C   UNL     1       5.442 -19.011   0.573  1.00  0.00     0.040 A 
ATOM     64  C   UNL     1       5.373 -18.977  -1.833  1.00  0.00     0.040 A 
ATOM     65  F   UNL     1       3.455 -18.210  -2.944  1.00  0.00    -0.206 F 
ATOM     66  C   UNL     1       6.063 -19.244  -0.652  1.00  0.00     0.006 A 
ENDBRANCH  45  59
BRANCH  46  67
ATOM     67  C   UNL     1      -5.728 -14.250  -0.432  1.00  0.00     0.057 A 
ATOM     68  C   UNL     1      -6.725 -14.712   0.434  1.00  0.00     0.134 A 
ATOM     69  C   UNL     1      -6.068 -13.220  -1.316  1.00  0.00     0.134 A 
ATOM     70  F   UNL     1      -6.465 -15.710   1.292  1.00  0.00    -0.206 F 
ATOM     71  C   UNL     1      -8.018 -14.185   0.410  1.00  0.00     0.040 A 
ATOM     72  C   UNL     1      -7.350 -12.667  -1.335  1.00  0.00     0.040 A 
ATOM     73  F   UNL     1      -5.155 -12.728  -2.167  1.00  0.00    -0.206 F 
ATOM     74  C   UNL     1      -8.331 -13.155  -0.475  1.00  0.00     0.006 A 
ENDBRANCH  46  67
BRANCH  58  75
ATOM     75  C   UNL     1      -3.213 -20.509  -2.175  1.00  0.00     0.057 A 
ATOM     76  C   UNL     1      -3.692 -20.654  -3.482  1.00  0.00     0.134 A 
ATOM     77  C   UNL     1      -3.302 -21.619  -1.324  1.00  0.00     0.134 A 
ATOM     78  F   UNL     1      -3.646 -19.625  -4.341  1.00  0.00    -0.206 F 
ATOM     79  C   UNL     1      -4.249 -21.856  -3.923  1.00  0.00     0.040 A 
ATOM     80  C   UNL     1      -3.834 -22.832  -1.760  1.00  0.00     0.040 A 
ATOM     81  F   UNL     1      -2.853 -21.547  -0.062  1.00  0.00    -0.206 F 
ATOM     82  C   UNL     1      -4.312 -22.952  -3.063  1.00  0.00     0.006 A 
ENDBRANCH  58  75
ENDBRANCH  32  33
ENDBRANCH  24  27
ENDBRANCH  22  23
ENDBRANCH  21  22
ENDBRANCH   1  21
TORSDOF 15
