REMARK SMILES O=C(NCCCCNC(=O)[C@@H]1CC=CC[C@@H]1C(=O)Nc1sc2c(c1C(=O)N1CCCCC1)CCCC2)c1ccc(-c2c3nc(c(-c4c(F)cccc4F)c4ccc([nH]4)c(-c4c(F)cccc4F)c4nc(c(-c5c(F)cccc5F)c5ccc2[nH]5)C=C4)C=C3)cc1
REMARK SMILES IDX 6 1 5 2 4 3 3 4 1 5 2 6 37 8 38 9 90 10 39 11 89 12 40 13
REMARK SMILES IDX 41 14 42 15 83 16 43 17 88 18 82 19 84 20 44 21 87 22 81 23
REMARK SMILES IDX 80 24 45 26 71 27 54 28 70 29 55 30 58 31 69 32 85 33 56 34
REMARK SMILES IDX 57 35 68 37 86 38 59 39 46 40 47 41 52 42 48 43 49 44 51 45
REMARK SMILES IDX 53 46 50 47 72 48 73 49 78 50 74 51 75 52 77 53 79 54 76 55
REMARK SMILES IDX 60 56 61 57 66 58 62 59 63 60 65 61 67 62 64 63 7 64 8 65
REMARK SMILES IDX 9 66 10 68 11 69 12 70 16 71 13 72 15 73 14 74 17 75 18 76
REMARK SMILES IDX 19 77 20 79 21 80 24 81 22 82 23 83 36 84 33 85 35 86 34 87
REMARK SMILES IDX 25 88 26 89 27 90 28 91 32 92 29 93 31 94 30 95
REMARK H PARENT 3 7 84 25 58 36 8 67 19 78
REMARK Flexibility Score: inf
ROOT
ATOM      1  C   UNL     1       9.139  -6.370   3.483  1.00  0.00     0.023 C 
ENDROOT
BRANCH   1   2
ATOM      2  C   UNL     1       8.894  -7.744   2.861  1.00  0.00     0.023 C 
BRANCH   2   3
ATOM      3  C   UNL     1       8.396  -7.730   1.420  1.00  0.00     0.116 C 
BRANCH   3   4
ATOM      4  N   UNL     1       9.370  -7.175   0.494  1.00  0.00    -0.352 N 
ATOM      5  O   UNL     1      10.904  -7.176  -1.156  1.00  0.00    -0.269 OA
ATOM      6  C   UNL     1       9.983  -7.759  -0.586  1.00  0.00     0.251 C 
ATOM      7  H   UNL     1       9.628  -6.241   0.668  1.00  0.00     0.163 HD
BRANCH   6   8
ATOM      8  C   UNL     1       9.562  -9.096  -1.057  1.00  0.00     0.039 A 
ATOM      9  C   UNL     1       8.209  -9.419  -1.203  1.00  0.00     0.014 A 
ATOM     10  C   UNL     1      10.544 -10.031  -1.392  1.00  0.00     0.014 A 
ATOM     11  C   UNL     1       7.838 -10.713  -1.564  1.00  0.00     0.010 A 
ATOM     12  C   UNL     1      10.171 -11.306  -1.825  1.00  0.00     0.010 A 
ATOM     13  C   UNL     1       8.815 -11.665  -1.891  1.00  0.00    -0.014 A 
BRANCH  13  14
ATOM     14  C   UNL     1       8.421 -13.018  -2.356  1.00  0.00     0.031 A 
ATOM     15  C   UNL     1       8.776 -14.239  -1.557  1.00  0.00     0.074 A 
ATOM     16  C   UNL     1       7.780 -13.146  -3.532  1.00  0.00     0.049 A 
ATOM     17  N   UNL     1       8.604 -15.502  -1.856  1.00  0.00    -0.248 NA
ATOM     18  C   UNL     1       9.421 -14.011  -0.256  1.00  0.00     0.031 C 
ATOM     19  C   UNL     1       7.387 -12.036  -4.401  1.00  0.00     0.029 A 
ATOM     20  N   UNL     1       7.364 -14.264  -4.209  1.00  0.00    -0.354 N 
ATOM     21  C   UNL     1       9.138 -16.220  -0.795  1.00  0.00     0.074 A 
ATOM     22  C   UNL     1       9.665 -15.251   0.144  1.00  0.00     0.031 C 
ATOM     23  C   UNL     1       6.790 -12.527  -5.496  1.00  0.00     0.029 A 
ATOM     24  C   UNL     1       6.814 -13.985  -5.436  1.00  0.00     0.049 A 
ATOM     25  H   UNL     1       7.452 -15.178  -3.852  1.00  0.00     0.167 HD
ATOM     26  C   UNL     1       9.183 -17.564  -0.620  1.00  0.00     0.037 A 
ATOM     27  C   UNL     1       6.410 -14.805  -6.423  1.00  0.00     0.037 A 
ATOM     28  C   UNL     1       8.655 -18.519  -1.562  1.00  0.00     0.049 A 
ATOM     29  C   UNL     1       6.508 -16.290  -6.232  1.00  0.00     0.074 A 
ATOM     30  C   UNL     1       8.607 -19.898  -1.456  1.00  0.00     0.029 A 
ATOM     31  N   UNL     1       8.101 -18.194  -2.793  1.00  0.00    -0.354 N 
ATOM     32  N   UNL     1       6.972 -16.959  -5.204  1.00  0.00    -0.248 NA
ATOM     33  C   UNL     1       6.028 -17.136  -7.332  1.00  0.00     0.031 C 
ATOM     34  C   UNL     1       8.084 -20.411  -2.647  1.00  0.00     0.029 A 
ATOM     35  C   UNL     1       7.742 -19.349  -3.470  1.00  0.00     0.049 A 
ATOM     36  H   UNL     1       7.981 -17.279  -3.134  1.00  0.00     0.167 HD
ATOM     37  C   UNL     1       6.816 -18.301  -5.520  1.00  0.00     0.074 A 
ATOM     38  C   UNL     1       6.213 -18.353  -6.836  1.00  0.00     0.031 C 
ATOM     39  C   UNL     1       7.136 -19.390  -4.779  1.00  0.00     0.037 A 
BRANCH  26  40
ATOM     40  C   UNL     1       9.861 -18.078   0.619  1.00  0.00     0.057 A 
ATOM     41  C   UNL     1       9.322 -17.892   1.899  1.00  0.00     0.134 A 
ATOM     42  C   UNL     1      11.070 -18.781   0.527  1.00  0.00     0.134 A 
ATOM     43  F   UNL     1       8.170 -17.224   2.062  1.00  0.00    -0.206 F 
ATOM     44  C   UNL     1       9.981 -18.348   3.043  1.00  0.00     0.040 A 
ATOM     45  C   UNL     1      11.723 -19.268   1.661  1.00  0.00     0.040 A 
ATOM     46  F   UNL     1      11.638 -19.008  -0.667  1.00  0.00    -0.206 F 
ATOM     47  C   UNL     1      11.184 -19.041   2.925  1.00  0.00     0.006 A 
ENDBRANCH  26  40
BRANCH  27  48
ATOM     48  C   UNL     1       5.895 -14.217  -7.684  1.00  0.00     0.057 A 
ATOM     49  C   UNL     1       4.536 -14.269  -8.008  1.00  0.00     0.134 A 
ATOM     50  C   UNL     1       6.745 -13.534  -8.564  1.00  0.00     0.134 A 
ATOM     51  F   UNL     1       3.677 -14.920  -7.211  1.00  0.00    -0.206 F 
ATOM     52  C   UNL     1       4.039 -13.664  -9.163  1.00  0.00     0.040 A 
ATOM     53  C   UNL     1       6.258 -12.902  -9.708  1.00  0.00     0.040 A 
ATOM     54  F   UNL     1       8.057 -13.439  -8.301  1.00  0.00    -0.206 F 
ATOM     55  C   UNL     1       4.900 -12.969 -10.011  1.00  0.00     0.006 A 
ENDBRANCH  27  48
BRANCH  39  56
ATOM     56  C   UNL     1       6.806 -20.739  -5.346  1.00  0.00     0.057 A 
ATOM     57  C   UNL     1       7.543 -21.308  -6.390  1.00  0.00     0.134 A 
ATOM     58  C   UNL     1       5.783 -21.512  -4.779  1.00  0.00     0.134 A 
ATOM     59  F   UNL     1       8.526 -20.616  -6.986  1.00  0.00    -0.206 F 
ATOM     60  C   UNL     1       7.273 -22.597  -6.855  1.00  0.00     0.040 A 
ATOM     61  C   UNL     1       5.520 -22.811  -5.217  1.00  0.00     0.040 A 
ATOM     62  F   UNL     1       5.042 -21.028  -3.771  1.00  0.00    -0.206 F 
ATOM     63  C   UNL     1       6.267 -23.356  -6.259  1.00  0.00     0.006 A 
ENDBRANCH  39  56
ENDBRANCH  13  14
ENDBRANCH   6   8
ENDBRANCH   3   4
ENDBRANCH   2   3
ENDBRANCH   1   2
BRANCH   1  64
ATOM     64  C   UNL     1       7.962  -5.401   3.426  1.00  0.00     0.116 C 
BRANCH  64  65
ATOM     65  N   UNL     1       6.743  -5.928   4.018  1.00  0.00    -0.356 N 
ATOM     66  C   UNL     1       5.822  -5.290   4.809  1.00  0.00     0.224 C 
ATOM     67  H   UNL     1       6.552  -6.875   3.825  1.00  0.00     0.163 HD
ATOM     68  O   UNL     1       4.702  -5.786   4.892  1.00  0.00    -0.275 OA
BRANCH  66  69
ATOM     69  C   UNL     1       6.237  -4.010   5.515  1.00  0.00     0.095 C 
ATOM     70  C   UNL     1       7.167  -4.300   6.710  1.00  0.00     0.041 C 
ATOM     71  C   UNL     1       5.084  -3.039   5.889  1.00  0.00     0.095 C 
ATOM     72  C   UNL     1       7.495  -3.059   7.494  1.00  0.00    -0.030 C 
ATOM     73  C   UNL     1       5.791  -1.712   6.268  1.00  0.00     0.041 C 
ATOM     74  C   UNL     1       6.897  -1.881   7.270  1.00  0.00    -0.030 C 
BRANCH  71  75
ATOM     75  C   UNL     1       4.152  -3.570   6.998  1.00  0.00     0.229 C 
ATOM     76  O   UNL     1       4.328  -4.686   7.501  1.00  0.00    -0.274 OA
ATOM     77  N   UNL     1       3.122  -2.838   7.529  1.00  0.00    -0.317 N 
ATOM     78  H   UNL     1       2.530  -3.328   8.144  1.00  0.00     0.170 HD
BRANCH  77  79
ATOM     79  C   UNL     1       2.795  -1.513   7.325  1.00  0.00     0.108 A 
ATOM     80  S   UNL     1       2.514  -0.961   5.747  1.00  0.00    -0.122 S 
ATOM     81  C   UNL     1       2.610  -0.538   8.307  1.00  0.00     0.078 A 
ATOM     82  C   UNL     1       2.577   0.651   6.271  1.00  0.00     0.011 A 
ATOM     83  C   UNL     1       2.525   0.768   7.654  1.00  0.00    -0.019 A 
ATOM     84  C   UNL     1       2.673   1.782   5.289  1.00  0.00     0.047 C 
ATOM     85  C   UNL     1       2.519   2.134   8.284  1.00  0.00     0.037 C 
ATOM     86  C   UNL     1       3.087   3.078   5.997  1.00  0.00     0.006 C 
ATOM     87  C   UNL     1       2.285   3.273   7.281  1.00  0.00     0.005 C 
BRANCH  81  88
ATOM     88  C   UNL     1       2.741  -0.914   9.740  1.00  0.00     0.257 C 
ATOM     89  O   UNL     1       2.917  -2.087  10.077  1.00  0.00    -0.269 OA
ATOM     90  N   UNL     1       2.808   0.091  10.696  1.00  0.00    -0.339 N 
ATOM     91  C   UNL     1       3.868   0.013  11.696  1.00  0.00     0.120 C 
ATOM     92  C   UNL     1       1.627   0.864  11.059  1.00  0.00     0.120 C 
ATOM     93  C   UNL     1       3.349  -0.342  13.087  1.00  0.00     0.022 C 
ATOM     94  C   UNL     1       1.091   0.505  12.443  1.00  0.00     0.022 C 
ATOM     95  C   UNL     1       2.202   0.581  13.487  1.00  0.00     0.004 C 
ENDBRANCH  81  88
ENDBRANCH  77  79
ENDBRANCH  71  75
ENDBRANCH  66  69
ENDBRANCH  64  65
ENDBRANCH   1  64
TORSDOF 14
