REMARK SMILES Cc1ccc(-c2nnc(S[C@@H](C)C(=O)NCCCCNC(=O)c3ccc(-c4c5nc(c(-c6c(F)cccc6F)c6ccc([nH]6)c(-c6c(F)cccc6F)c6nc(c(-c7c(F)cccc7F)c7ccc4[nH]7)C=C6)C=C5)cc3)n2C)cc1
REMARK SMILES IDX 17 1 16 2 15 3 13 4 14 5 11 7 12 8 10 9 9 10 6 11 7 12 77 13
REMARK SMILES IDX 8 14 78 15 5 16 1 17 2 18 3 19 80 20 4 21 79 22 18 23 19 24
REMARK SMILES IDX 20 25 21 26 22 28 23 29 24 30 76 31 25 32 75 33 26 34 27 35
REMARK SMILES IDX 28 36 69 37 29 38 74 39 68 40 70 41 30 42 73 43 67 44 66 45
REMARK SMILES IDX 31 47 57 48 40 49 56 50 41 51 44 52 55 53 71 54 42 55 43 56
REMARK SMILES IDX 54 58 72 59 45 60 32 61 33 62 38 63 34 64 35 65 37 66 39 67
REMARK SMILES IDX 36 68 58 69 59 70 64 71 60 72 61 73 63 74 65 75 62 76 46 77
REMARK SMILES IDX 47 78 52 79 48 80 49 81 51 82 53 83 50 84
REMARK H PARENT 15 6 20 27 70 46 44 57
REMARK Flexibility Score: inf
ROOT
ATOM      1  C   UNL     1      -4.283  -2.225  -2.004  1.00  0.00     0.023 C 
ENDROOT
BRANCH   1   2
ATOM      2  C   UNL     1      -4.373  -0.758  -2.404  1.00  0.00     0.116 C 
BRANCH   2   3
ATOM      3  N   UNL     1      -5.021  -0.373  -3.632  1.00  0.00    -0.355 N 
ATOM      4  C   UNL     1      -5.668   0.788  -3.950  1.00  0.00     0.233 C 
ATOM      5  O   UNL     1      -5.724   1.007  -5.174  1.00  0.00    -0.274 OA
ATOM      6  H   UNL     1      -4.993  -1.046  -4.349  1.00  0.00     0.163 HD
BRANCH   4   7
ATOM      7  C   UNL     1      -6.355   1.812  -3.015  1.00  0.00     0.141 C 
ATOM      8  C   UNL     1      -6.008   3.284  -3.261  1.00  0.00     0.030 C 
BRANCH   7   9
ATOM      9  S   UNL     1      -6.716   1.561  -1.292  1.00  0.00    -0.073 SA
BRANCH   9  10
ATOM     10  C   UNL     1      -5.347   1.383  -0.252  1.00  0.00     0.191 A 
ATOM     11  C   UNL     1      -3.364   0.951   0.630  1.00  0.00     0.164 A 
ATOM     12  N   UNL     1      -4.317   0.421   1.381  1.00  0.00    -0.129 NA
ATOM     13  N   UNL     1      -3.994   1.639  -0.399  1.00  0.00    -0.305 N 
ATOM     14  N   UNL     1      -5.529   0.705   0.856  1.00  0.00    -0.123 NA
ATOM     15  C   UNL     1      -3.328   2.344  -1.453  1.00  0.00     0.154 C 
BRANCH  11  16
ATOM     16  C   UNL     1      -1.952   0.724   1.002  1.00  0.00     0.019 A 
ATOM     17  C   UNL     1       2.534  -0.577   3.008  1.00  0.00     0.044 C 
ATOM     18  C   UNL     1       1.186   0.132   2.973  1.00  0.00    -0.051 A 
ATOM     19  C   UNL     1      -0.304  -0.747   3.248  1.00  0.00     0.004 A 
ATOM     20  C   UNL     1       1.183   1.400   1.720  1.00  0.00     0.004 A 
ATOM     21  C   UNL     1      -1.796  -0.455   2.329  1.00  0.00     0.012 A 
ATOM     22  C   UNL     1      -0.467   1.675   0.573  1.00  0.00     0.012 A 
ENDBRANCH  11  16
ENDBRANCH   9  10
ENDBRANCH   7   9
ENDBRANCH   4   7
ENDBRANCH   2   3
ENDBRANCH   1   2
BRANCH   1  23
ATOM     23  C   UNL     1      -3.263  -3.098  -2.709  1.00  0.00     0.023 C 
BRANCH  23  24
ATOM     24  C   UNL     1      -1.810  -2.652  -2.656  1.00  0.00     0.116 C 
BRANCH  24  25
ATOM     25  N   UNL     1      -0.968  -3.137  -1.569  1.00  0.00    -0.352 N 
ATOM     26  C   UNL     1       0.426  -3.149  -1.468  1.00  0.00     0.251 C 
ATOM     27  H   UNL     1      -1.450  -3.510  -0.796  1.00  0.00     0.163 HD
ATOM     28  O   UNL     1       0.941  -3.644  -0.466  1.00  0.00    -0.269 OA
BRANCH  26  29
ATOM     29  C   UNL     1       1.303  -2.418  -2.454  1.00  0.00     0.039 A 
ATOM     30  C   UNL     1       2.526  -1.887  -2.020  1.00  0.00     0.014 A 
ATOM     31  C   UNL     1       0.740  -1.863  -3.586  1.00  0.00     0.014 A 
ATOM     32  C   UNL     1       2.877  -0.594  -2.442  1.00  0.00     0.010 A 
ATOM     33  C   UNL     1       0.907  -0.526  -3.824  1.00  0.00     0.010 A 
ATOM     34  C   UNL     1       1.934   0.144  -3.184  1.00  0.00    -0.014 A 
BRANCH  34  35
ATOM     35  C   UNL     1       2.133   1.493  -3.709  1.00  0.00     0.031 A 
ATOM     36  C   UNL     1       3.205   1.464  -4.728  1.00  0.00     0.074 A 
ATOM     37  C   UNL     1       1.320   2.540  -3.381  1.00  0.00     0.049 A 
ATOM     38  N   UNL     1       4.130   2.338  -4.895  1.00  0.00    -0.248 NA
ATOM     39  C   UNL     1       3.421   0.256  -5.557  1.00  0.00     0.031 C 
ATOM     40  C   UNL     1       1.183   3.857  -3.984  1.00  0.00     0.029 A 
ATOM     41  N   UNL     1       0.486   2.677  -2.258  1.00  0.00    -0.354 N 
ATOM     42  C   UNL     1       4.688   2.026  -6.122  1.00  0.00     0.074 A 
ATOM     43  C   UNL     1       4.440   0.627  -6.325  1.00  0.00     0.031 C 
ATOM     44  C   UNL     1       0.642   4.720  -3.088  1.00  0.00     0.029 A 
ATOM     45  C   UNL     1       0.511   4.029  -1.802  1.00  0.00     0.049 A 
ATOM     46  H   UNL     1      -0.035   1.950  -1.847  1.00  0.00     0.167 HD
ATOM     47  C   UNL     1       4.935   3.034  -7.005  1.00  0.00     0.037 A 
ATOM     48  C   UNL     1       1.103   4.426  -0.595  1.00  0.00     0.037 A 
ATOM     49  C   UNL     1       4.594   4.313  -6.378  1.00  0.00     0.049 A 
ATOM     50  C   UNL     1       2.396   5.207  -0.938  1.00  0.00     0.074 A 
ATOM     51  C   UNL     1       3.445   5.086  -6.431  1.00  0.00     0.029 A 
ATOM     52  N   UNL     1       5.257   4.693  -5.213  1.00  0.00    -0.354 N 
ATOM     53  N   UNL     1       3.022   5.115  -2.086  1.00  0.00    -0.248 NA
ATOM     54  C   UNL     1       3.068   6.137  -0.030  1.00  0.00     0.031 C 
ATOM     55  C   UNL     1       3.389   5.879  -5.252  1.00  0.00     0.029 A 
ATOM     56  C   UNL     1       4.482   5.565  -4.464  1.00  0.00     0.049 A 
ATOM     57  H   UNL     1       6.155   4.383  -4.955  1.00  0.00     0.167 HD
ATOM     58  C   UNL     1       4.119   5.934  -2.100  1.00  0.00     0.074 A 
ATOM     59  C   UNL     1       4.103   6.554  -0.785  1.00  0.00     0.031 C 
ATOM     60  C   UNL     1       4.959   6.051  -3.175  1.00  0.00     0.037 A 
BRANCH  47  61
ATOM     61  C   UNL     1       5.037   2.780  -8.494  1.00  0.00     0.057 A 
ATOM     62  C   UNL     1       4.521   3.701  -9.424  1.00  0.00     0.134 A 
ATOM     63  C   UNL     1       5.606   1.628  -9.075  1.00  0.00     0.134 A 
ATOM     64  F   UNL     1       4.008   4.875  -9.041  1.00  0.00    -0.206 F 
ATOM     65  C   UNL     1       4.504   3.467 -10.805  1.00  0.00     0.040 A 
ATOM     66  C   UNL     1       5.551   1.357 -10.452  1.00  0.00     0.040 A 
ATOM     67  F   UNL     1       6.277   0.731  -8.339  1.00  0.00    -0.206 F 
ATOM     68  C   UNL     1       4.997   2.281 -11.325  1.00  0.00     0.006 A 
ENDBRANCH  47  61
BRANCH  48  69
ATOM     69  C   UNL     1       1.117   3.344   0.546  1.00  0.00     0.057 A 
ATOM     70  C   UNL     1       0.036   3.146   1.977  1.00  0.00     0.134 A 
ATOM     71  C   UNL     1       1.721   1.932  -0.306  1.00  0.00     0.134 A 
ATOM     72  F   UNL     1      -0.549   4.204   2.555  1.00  0.00    -0.206 F 
ATOM     73  C   UNL     1      -0.534   1.458   2.444  1.00  0.00     0.040 A 
ATOM     74  C   UNL     1       1.157   0.335  -0.097  1.00  0.00     0.040 A 
ATOM     75  F   UNL     1       2.867   2.104  -0.989  1.00  0.00    -0.206 F 
ATOM     76  C   UNL     1       0.043  -0.024   1.198  1.00  0.00     0.006 A 
ENDBRANCH  48  69
BRANCH  60  77
ATOM     77  C   UNL     1       6.302   6.734  -3.138  1.00  0.00     0.057 A 
ATOM     78  C   UNL     1       7.123   6.763  -2.005  1.00  0.00     0.134 A 
ATOM     79  C   UNL     1       6.874   7.267  -4.315  1.00  0.00     0.134 A 
ATOM     80  F   UNL     1       6.766   6.154  -0.865  1.00  0.00    -0.206 F 
ATOM     81  C   UNL     1       8.377   7.383  -2.010  1.00  0.00     0.040 A 
ATOM     82  C   UNL     1       8.154   7.820  -4.351  1.00  0.00     0.040 A 
ATOM     83  F   UNL     1       6.225   7.253  -5.489  1.00  0.00    -0.206 F 
ATOM     84  C   UNL     1       8.897   7.912  -3.186  1.00  0.00     0.006 A 
ENDBRANCH  60  77
ENDBRANCH  34  35
ENDBRANCH  26  29
ENDBRANCH  24  25
ENDBRANCH  23  24
ENDBRANCH   1  23
TORSDOF 14
