REMARK SMILES CC1=C2C(CSc3c(Cl)cccc3Cl)=CC(=O)N=C2S[C@H]1C(=O)NCCCCNC(=O)c1ccc(-c2c3nc(c(-c4c(F)cccc4F)c4ccc([nH]4)c(-c4c(F)cccc4F)c4nc(c(-c5c(F)cccc5F)c5ccc2[nH]5)C=C4)C=C3)cc1
REMARK SMILES IDX 26 1 25 2 24 3 22 4 23 5 21 7 1 8 2 9 3 10 4 11 19 12 20 13
REMARK SMILES IDX 15 14 18 15 16 16 17 17 5 18 6 19 7 20 8 21 13 22 9 23 10 24
REMARK SMILES IDX 12 25 14 26 11 27 27 28 28 29 29 30 30 31 31 33 32 34 33 35
REMARK SMILES IDX 85 36 34 37 84 38 35 39 36 40 37 41 78 42 38 43 83 44 77 45
REMARK SMILES IDX 79 46 39 47 82 48 76 49 75 50 40 52 66 53 49 54 65 55 50 56
REMARK SMILES IDX 53 57 64 58 80 59 51 60 52 61 63 63 81 64 54 65 41 66 42 67
REMARK SMILES IDX 47 68 43 69 44 70 46 71 48 72 45 73 67 74 68 75 73 76 69 77
REMARK SMILES IDX 70 78 72 79 74 80 71 81 55 82 56 83 61 84 57 85 58 86 60 87
REMARK SMILES IDX 62 88 59 89
REMARK H PARENT 24 6 29 32 79 51 53 62
REMARK Flexibility Score: inf
ROOT
ATOM      1  C   UNL     1       2.197  -3.699   3.349  1.00  0.00     0.023 C 
ENDROOT
BRANCH   1   2
ATOM      2  C   UNL     1       0.785  -3.239   3.705  1.00  0.00     0.116 C 
BRANCH   2   3
ATOM      3  N   UNL     1       0.672  -1.795   3.805  1.00  0.00    -0.355 N 
ATOM      4  C   UNL     1      -0.082  -0.852   3.181  1.00  0.00     0.237 C 
ATOM      5  O   UNL     1      -0.056   0.266   3.721  1.00  0.00    -0.273 OA
ATOM      6  H   UNL     1       1.280  -1.412   4.477  1.00  0.00     0.163 HD
BRANCH   4   7
ATOM      7  C   UNL     1      -0.793  -0.995   1.819  1.00  0.00     0.168 C 
ATOM      8  C   UNL     1       0.734   0.508   0.455  1.00  0.00     0.042 C 
ATOM      9  C   UNL     1       0.230  -0.873   0.712  1.00  0.00    -0.040 C 
ATOM     10  C   UNL     1       0.585  -2.021   0.110  1.00  0.00     0.012 C 
ATOM     11  C   UNL     1       1.550  -2.400  -0.898  1.00  0.00    -0.022 C 
ATOM     12  C   UNL     1      -0.280  -3.129   0.592  1.00  0.00     0.109 C 
ATOM     13  S   UNL     1      -1.646  -2.542   1.505  1.00  0.00    -0.088 SA
ATOM     14  C   UNL     1       1.753  -3.726  -1.054  1.00  0.00     0.079 C 
ATOM     15  N   UNL     1      -0.073  -4.385   0.434  1.00  0.00    -0.202 NA
ATOM     16  C   UNL     1       1.088  -4.749  -0.199  1.00  0.00     0.271 C 
ATOM     17  O   UNL     1       1.590  -5.861  -0.097  1.00  0.00    -0.267 OA
BRANCH  11  18
ATOM     18  C   UNL     1       2.217  -1.410  -1.819  1.00  0.00     0.111 C 
BRANCH  18  19
ATOM     19  S   UNL     1       4.045  -1.464  -1.757  1.00  0.00    -0.118 SA
BRANCH  19  20
ATOM     20  C   UNL     1       4.388  -0.601  -0.214  1.00  0.00     0.045 A 
ATOM     21  C   UNL     1       4.785  -1.316   0.935  1.00  0.00     0.056 A 
ATOM     22  C   UNL     1       4.323   0.805  -0.118  1.00  0.00     0.056 A 
ATOM     23  Cl  UNL     1       4.991  -3.037   0.940  1.00  0.00    -0.083 Cl
ATOM     24  C   UNL     1       5.043  -0.655   2.143  1.00  0.00     0.022 A 
ATOM     25  C   UNL     1       4.568   1.458   1.099  1.00  0.00     0.022 A 
ATOM     26  Cl  UNL     1       3.905   1.818  -1.462  1.00  0.00    -0.083 Cl
ATOM     27  C   UNL     1       4.920   0.728   2.231  1.00  0.00     0.003 A 
ENDBRANCH  19  20
ENDBRANCH  18  19
ENDBRANCH  11  18
ENDBRANCH   4   7
ENDBRANCH   2   3
ENDBRANCH   1   2
BRANCH   1  28
ATOM     28  C   UNL     1       2.850  -4.583   4.407  1.00  0.00     0.023 C 
BRANCH  28  29
ATOM     29  C   UNL     1       2.006  -5.733   4.937  1.00  0.00     0.116 C 
BRANCH  29  30
ATOM     30  N   UNL     1       1.517  -6.672   3.940  1.00  0.00    -0.352 N 
ATOM     31  C   UNL     1       1.341  -8.033   4.099  1.00  0.00     0.251 C 
ATOM     32  H   UNL     1       1.288  -6.299   3.058  1.00  0.00     0.163 HD
ATOM     33  O   UNL     1       0.916  -8.742   3.196  1.00  0.00    -0.269 OA
BRANCH  31  34
ATOM     34  C   UNL     1       1.750  -8.642   5.382  1.00  0.00     0.039 A 
ATOM     35  C   UNL     1       2.724  -9.642   5.366  1.00  0.00     0.014 A 
ATOM     36  C   UNL     1       1.294  -8.110   6.589  1.00  0.00     0.014 A 
ATOM     37  C   UNL     1       3.317 -10.036   6.565  1.00  0.00     0.010 A 
ATOM     38  C   UNL     1       1.966  -8.421   7.764  1.00  0.00     0.010 A 
ATOM     39  C   UNL     1       2.988  -9.385   7.766  1.00  0.00    -0.014 A 
BRANCH  39  40
ATOM     40  C   UNL     1       3.704  -9.694   9.032  1.00  0.00     0.031 A 
ATOM     41  C   UNL     1       2.938 -10.198  10.224  1.00  0.00     0.074 A 
ATOM     42  C   UNL     1       5.029  -9.458   9.132  1.00  0.00     0.049 A 
ATOM     43  N   UNL     1       3.369 -10.472  11.430  1.00  0.00    -0.248 NA
ATOM     44  C   UNL     1       1.488 -10.380  10.053  1.00  0.00     0.031 C 
ATOM     45  C   UNL     1       5.877  -8.902   8.074  1.00  0.00     0.029 A 
ATOM     46  N   UNL     1       5.896  -9.655  10.178  1.00  0.00    -0.354 N 
ATOM     47  C   UNL     1       2.244 -10.837  12.157  1.00  0.00     0.074 A 
ATOM     48  C   UNL     1       1.104 -10.678  11.283  1.00  0.00     0.031 C 
ATOM     49  C   UNL     1       7.145  -8.842   8.511  1.00  0.00     0.029 A 
ATOM     50  C   UNL     1       7.197  -9.318   9.889  1.00  0.00     0.049 A 
ATOM     51  H   UNL     1       5.613 -10.006  11.053  1.00  0.00     0.167 HD
ATOM     52  C   UNL     1       2.168 -11.300  13.427  1.00  0.00     0.037 A 
ATOM     53  C   UNL     1       8.307  -9.387  10.649  1.00  0.00     0.037 A 
ATOM     54  C   UNL     1       3.307 -11.493  14.283  1.00  0.00     0.049 A 
ATOM     55  C   UNL     1       8.200  -9.921  12.052  1.00  0.00     0.074 A 
ATOM     56  C   UNL     1       3.346 -12.021  15.561  1.00  0.00     0.029 A 
ATOM     57  N   UNL     1       4.612 -11.166  13.944  1.00  0.00    -0.354 N 
ATOM     58  N   UNL     1       7.140 -10.339  12.700  1.00  0.00    -0.248 NA
ATOM     59  C   UNL     1       9.447 -10.002  12.825  1.00  0.00     0.031 C 
ATOM     60  C   UNL     1       4.668 -11.969  16.014  1.00  0.00     0.029 A 
ATOM     61  C   UNL     1       5.461 -11.461  14.997  1.00  0.00     0.049 A 
ATOM     62  H   UNL     1       4.892 -10.781  13.082  1.00  0.00     0.167 HD
ATOM     63  C   UNL     1       7.594 -10.759  13.944  1.00  0.00     0.074 A 
ATOM     64  C   UNL     1       9.029 -10.562  13.951  1.00  0.00     0.031 C 
ATOM     65  C   UNL     1       6.888 -11.262  14.986  1.00  0.00     0.037 A 
BRANCH  52  66
ATOM     66  C   UNL     1       0.803 -11.637  13.956  1.00  0.00     0.057 A 
ATOM     67  C   UNL     1       0.063 -12.720  13.461  1.00  0.00     0.134 A 
ATOM     68  C   UNL     1       0.226 -10.878  14.982  1.00  0.00     0.134 A 
ATOM     69  F   UNL     1       0.550 -13.479  12.468  1.00  0.00    -0.206 F 
ATOM     70  C   UNL     1      -1.214 -13.014  13.942  1.00  0.00     0.040 A 
ATOM     71  C   UNL     1      -1.037 -11.182  15.493  1.00  0.00     0.040 A 
ATOM     72  F   UNL     1       0.879  -9.830  15.506  1.00  0.00    -0.206 F 
ATOM     73  C   UNL     1      -1.764 -12.248  14.966  1.00  0.00     0.006 A 
ENDBRANCH  52  66
BRANCH  53  74
ATOM     74  C   UNL     1       9.622  -8.975  10.094  1.00  0.00     0.057 A 
ATOM     75  C   UNL     1      10.624  -9.918   9.833  1.00  0.00     0.134 A 
ATOM     76  C   UNL     1       9.917  -7.633   9.823  1.00  0.00     0.134 A 
ATOM     77  F   UNL     1      10.411 -11.217  10.089  1.00  0.00    -0.206 F 
ATOM     78  C   UNL     1      11.877  -9.541   9.346  1.00  0.00     0.040 A 
ATOM     79  C   UNL     1      11.156  -7.245   9.311  1.00  0.00     0.040 A 
ATOM     80  F   UNL     1       8.999  -6.680  10.043  1.00  0.00    -0.206 F 
ATOM     81  C   UNL     1      12.144  -8.200   9.079  1.00  0.00     0.006 A 
ENDBRANCH  53  74
BRANCH  65  82
ATOM     82  C   UNL     1       7.663 -11.666  16.207  1.00  0.00     0.057 A 
ATOM     83  C   UNL     1       8.255 -10.723  17.056  1.00  0.00     0.134 A 
ATOM     84  C   UNL     1       7.793 -13.018  16.551  1.00  0.00     0.134 A 
ATOM     85  F   UNL     1       8.178  -9.413  16.777  1.00  0.00    -0.206 F 
ATOM     86  C   UNL     1       8.975 -11.111  18.188  1.00  0.00     0.040 A 
ATOM     87  C   UNL     1       8.483 -13.417  17.696  1.00  0.00     0.040 A 
ATOM     88  F   UNL     1       7.240 -13.972  15.787  1.00  0.00    -0.206 F 
ATOM     89  C   UNL     1       9.084 -12.462  18.513  1.00  0.00     0.006 A 
ENDBRANCH  65  82
ENDBRANCH  39  40
ENDBRANCH  31  34
ENDBRANCH  29  30
ENDBRANCH  28  29
ENDBRANCH   1  28
TORSDOF 14
