REMARK SMILES CCOc1cc(/C=C2/SC(=S)N([C@H](CC)C(=O)NCCCCNC(=O)c3ccc(-c4c5nc(c(-c6c(F)cccc6F)c6ccc([nH]6)c(-c6c(F)cccc6F)c6nc(c(-c7c(F)cccc7F)c7ccc4[nH]7)C=C6)C=C5)cc3)C2=O)ccc1O
REMARK SMILES IDX 19 1 18 2 16 3 17 4 13 6 12 7 7 8 8 9 9 10 80 11 10 12 81 13
REMARK SMILES IDX 11 14 6 15 4 16 5 17 84 18 83 19 82 20 3 21 2 22 1 23 85 24
REMARK SMILES IDX 14 26 15 27 20 28 21 29 22 30 23 31 24 32 25 34 26 35 27 36
REMARK SMILES IDX 79 37 28 38 78 39 29 40 30 41 31 42 72 43 32 44 77 45 71 46
REMARK SMILES IDX 73 47 33 48 76 49 70 50 69 51 34 53 60 54 43 55 59 56 44 57
REMARK SMILES IDX 47 58 58 59 74 60 45 61 46 62 57 64 75 65 48 66 35 67 36 68
REMARK SMILES IDX 41 69 37 70 38 71 40 72 42 73 39 74 61 75 62 76 67 77 63 78
REMARK SMILES IDX 64 79 66 80 68 81 65 82 49 83 50 84 55 85 51 86 52 87 54 88
REMARK SMILES IDX 56 89 53 90
REMARK H PARENT 18 5 85 25 23 33 73 52 47 63
REMARK Flexibility Score: inf
ROOT
ATOM      1  C   UNL     1      -1.320   2.122   5.337  1.00  0.00     0.116 C 
ENDROOT
BRANCH   1   2
ATOM      2  N   UNL     1      -2.065   1.806   6.536  1.00  0.00    -0.354 N 
ATOM      3  C   UNL     1      -2.019   2.336   7.789  1.00  0.00     0.243 C 
ATOM      4  O   UNL     1      -2.618   1.707   8.671  1.00  0.00    -0.273 OA
ATOM      5  H   UNL     1      -2.720   1.080   6.426  1.00  0.00     0.163 HD
BRANCH   3   6
ATOM      6  C   UNL     1      -1.125   3.554   8.175  1.00  0.00     0.181 C 
BRANCH   6   7
ATOM      7  N   UNL     1      -1.144   4.698   7.218  1.00  0.00    -0.280 N 
ATOM      8  C   UNL     1      -3.248   6.599   4.869  1.00  0.00     0.029 C 
ATOM      9  C   UNL     1      -2.306   6.152   5.718  1.00  0.00     0.081 C 
ATOM     10  S   UNL     1      -0.751   6.865   5.853  1.00  0.00    -0.054 SA
ATOM     11  C   UNL     1      -2.385   5.000   6.663  1.00  0.00     0.266 C 
ATOM     12  C   UNL     1      -0.261   5.757   7.141  1.00  0.00     0.149 C 
ATOM     13  O   UNL     1      -3.431   4.447   6.968  1.00  0.00    -0.268 OA
ATOM     14  S   UNL     1       1.071   6.132   8.072  1.00  0.00    -0.052 S 
BRANCH   8  15
ATOM     15  C   UNL     1      -4.567   5.981   4.686  1.00  0.00    -0.020 A 
ATOM     16  C   UNL     1      -6.067   4.626   3.321  1.00  0.00     0.161 A 
ATOM     17  C   UNL     1      -4.894   5.380   3.462  1.00  0.00     0.058 A 
ATOM     18  C   UNL     1      -6.872   4.438   4.446  1.00  0.00     0.157 A 
ATOM     19  C   UNL     1      -6.622   5.128   5.628  1.00  0.00     0.051 A 
ATOM     20  C   UNL     1      -5.484   5.922   5.739  1.00  0.00     0.012 A 
BRANCH  16  21
ATOM     21  O   UNL     1      -6.261   4.120   2.067  1.00  0.00    -0.490 OA
BRANCH  21  22
ATOM     22  C   UNL     1      -7.573   3.748   1.635  1.00  0.00     0.226 C 
ATOM     23  C   UNL     1      -8.614   4.858   1.687  1.00  0.00     0.049 C 
ENDBRANCH  21  22
ENDBRANCH  16  21
BRANCH  18  24
ATOM     24  O   UNL     1      -7.887   3.528   4.494  1.00  0.00    -0.504 OA
ATOM     25  H   UNL     1      -8.107   3.030   3.732  1.00  0.00     0.293 HD
ENDBRANCH  18  24
ENDBRANCH   8  15
ENDBRANCH   6   7
BRANCH   6  26
ATOM     26  C   UNL     1       0.238   2.966   8.619  1.00  0.00     0.032 C 
ATOM     27  C   UNL     1       1.226   2.586   7.524  1.00  0.00     0.006 C 
ENDBRANCH   6  26
ENDBRANCH   3   6
ENDBRANCH   1   2
BRANCH   1  28
ATOM     28  C   UNL     1      -0.545   0.897   4.853  1.00  0.00     0.023 C 
BRANCH  28  29
ATOM     29  C   UNL     1      -1.389  -0.137   4.112  1.00  0.00     0.023 C 
BRANCH  29  30
ATOM     30  C   UNL     1      -2.006   0.358   2.812  1.00  0.00     0.116 C 
BRANCH  30  31
ATOM     31  N   UNL     1      -1.019   0.845   1.857  1.00  0.00    -0.352 N 
ATOM     32  C   UNL     1      -0.934   0.593   0.509  1.00  0.00     0.251 C 
ATOM     33  H   UNL     1      -0.321   1.433   2.227  1.00  0.00     0.163 HD
ATOM     34  O   UNL     1       0.025   0.990  -0.144  1.00  0.00    -0.269 OA
BRANCH  32  35
ATOM     35  C   UNL     1      -1.998  -0.201  -0.134  1.00  0.00     0.039 A 
ATOM     36  C   UNL     1      -1.645  -1.311  -0.903  1.00  0.00     0.014 A 
ATOM     37  C   UNL     1      -3.341   0.118   0.086  1.00  0.00     0.014 A 
ATOM     38  C   UNL     1      -2.645  -2.152  -1.392  1.00  0.00     0.010 A 
ATOM     39  C   UNL     1      -4.329  -0.762  -0.334  1.00  0.00     0.010 A 
ATOM     40  C   UNL     1      -3.991  -1.906  -1.076  1.00  0.00    -0.014 A 
BRANCH  40  41
ATOM     41  C   UNL     1      -5.074  -2.812  -1.527  1.00  0.00     0.031 A 
ATOM     42  C   UNL     1      -6.127  -2.293  -2.465  1.00  0.00     0.074 A 
ATOM     43  C   UNL     1      -5.154  -4.066  -1.040  1.00  0.00     0.049 A 
ATOM     44  N   UNL     1      -7.232  -2.866  -2.869  1.00  0.00    -0.248 NA
ATOM     45  C   UNL     1      -5.927  -0.933  -2.993  1.00  0.00     0.031 C 
ATOM     46  C   UNL     1      -4.214  -4.675  -0.096  1.00  0.00     0.029 A 
ATOM     47  N   UNL     1      -6.082  -5.051  -1.264  1.00  0.00    -0.354 N 
ATOM     48  C   UNL     1      -7.863  -1.933  -3.680  1.00  0.00     0.074 A 
ATOM     49  C   UNL     1      -7.050  -0.737  -3.668  1.00  0.00     0.031 C 
ATOM     50  C   UNL     1      -4.603  -5.935   0.161  1.00  0.00     0.029 A 
ATOM     51  C   UNL     1      -5.837  -6.210  -0.568  1.00  0.00     0.049 A 
ATOM     52  H   UNL     1      -6.852  -4.938  -1.868  1.00  0.00     0.167 HD
ATOM     53  C   UNL     1      -9.004  -2.069  -4.396  1.00  0.00     0.037 A 
ATOM     54  C   UNL     1      -6.537  -7.359  -0.519  1.00  0.00     0.037 A 
ATOM     55  C   UNL     1      -9.792  -3.270  -4.438  1.00  0.00     0.049 A 
ATOM     56  C   UNL     1      -7.800  -7.484  -1.326  1.00  0.00     0.074 A 
ATOM     57  C   UNL     1     -10.954  -3.516  -5.147  1.00  0.00     0.029 A 
ATOM     58  N   UNL     1      -9.485  -4.435  -3.753  1.00  0.00    -0.354 N 
ATOM     59  N   UNL     1      -8.372  -6.601  -2.108  1.00  0.00    -0.248 NA
ATOM     60  C   UNL     1      -8.513  -8.767  -1.247  1.00  0.00     0.031 C 
ATOM     61  C   UNL     1     -11.360  -4.827  -4.878  1.00  0.00     0.029 A 
ATOM     62  C   UNL     1     -10.432  -5.406  -4.027  1.00  0.00     0.049 A 
ATOM     63  H   UNL     1      -8.708  -4.554  -3.159  1.00  0.00     0.167 HD
ATOM     64  C   UNL     1      -9.487  -7.233  -2.642  1.00  0.00     0.074 A 
ATOM     65  C   UNL     1      -9.509  -8.575  -2.100  1.00  0.00     0.031 C 
ATOM     66  C   UNL     1     -10.414  -6.745  -3.502  1.00  0.00     0.037 A 
BRANCH  53  67
ATOM     67  C   UNL     1      -9.449  -0.892  -5.210  1.00  0.00     0.057 A 
ATOM     68  C   UNL     1      -8.769  -0.510  -6.375  1.00  0.00     0.134 A 
ATOM     69  C   UNL     1     -10.579  -0.150  -4.847  1.00  0.00     0.134 A 
ATOM     70  F   UNL     1      -7.668  -1.170  -6.766  1.00  0.00    -0.206 F 
ATOM     71  C   UNL     1      -9.186   0.581  -7.138  1.00  0.00     0.040 A 
ATOM     72  C   UNL     1     -11.020   0.928  -5.617  1.00  0.00     0.040 A 
ATOM     73  F   UNL     1     -11.275  -0.464  -3.744  1.00  0.00    -0.206 F 
ATOM     74  C   UNL     1     -10.320   1.299  -6.763  1.00  0.00     0.006 A 
ENDBRANCH  53  67
BRANCH  54  75
ATOM     75  C   UNL     1      -6.057  -8.498   0.303  1.00  0.00     0.057 A 
ATOM     76  C   UNL     1      -5.567  -9.663  -0.300  1.00  0.00     0.134 A 
ATOM     77  C   UNL     1      -6.112  -8.470   1.701  1.00  0.00     0.134 A 
ATOM     78  F   UNL     1      -5.509  -9.756  -1.637  1.00  0.00    -0.206 F 
ATOM     79  C   UNL     1      -5.176 -10.770   0.454  1.00  0.00     0.040 A 
ATOM     80  C   UNL     1      -5.702  -9.562   2.470  1.00  0.00     0.040 A 
ATOM     81  F   UNL     1      -6.565  -7.382   2.340  1.00  0.00    -0.206 F 
ATOM     82  C   UNL     1      -5.242 -10.720   1.845  1.00  0.00     0.006 A 
ENDBRANCH  54  75
BRANCH  66  83
ATOM     83  C   UNL     1     -11.490  -7.684  -3.955  1.00  0.00     0.057 A 
ATOM     84  C   UNL     1     -12.556  -8.043  -3.122  1.00  0.00     0.134 A 
ATOM     85  C   UNL     1     -11.479  -8.197  -5.258  1.00  0.00     0.134 A 
ATOM     86  F   UNL     1     -12.614  -7.594  -1.860  1.00  0.00    -0.206 F 
ATOM     87  C   UNL     1     -13.567  -8.896  -3.565  1.00  0.00     0.040 A 
ATOM     88  C   UNL     1     -12.496  -9.033  -5.719  1.00  0.00     0.040 A 
ATOM     89  F   UNL     1     -10.488  -7.884  -6.106  1.00  0.00    -0.206 F 
ATOM     90  C   UNL     1     -13.542  -9.388  -4.870  1.00  0.00     0.006 A 
ENDBRANCH  66  83
ENDBRANCH  40  41
ENDBRANCH  32  35
ENDBRANCH  30  31
ENDBRANCH  29  30
ENDBRANCH  28  29
ENDBRANCH   1  28
TORSDOF 17
