REMARK SMILES CC(=O)N[C@H](CC(=O)NCC(=O)NCCCCNC(=O)c1ccc(-c2c3nc(c(-c4c(F)cccc4F)c4ccc([nH]4)c(-c4c(F)cccc4F)c4nc(c(-c5c(F)cccc5F)c5ccc2[nH]5)C=C4)C=C3)cc1)c1cccs1
REMARK SMILES IDX 14 1 13 2 11 3 12 4 10 6 9 7 7 8 8 9 6 11 5 12 4 13 1 14
REMARK SMILES IDX 2 15 3 16 75 18 76 19 79 20 77 21 78 22 15 23 16 24 17 25
REMARK SMILES IDX 18 26 19 27 20 29 21 30 22 31 74 32 23 33 73 34 24 35 25 36
REMARK SMILES IDX 26 37 67 38 27 39 72 40 66 41 68 42 28 43 71 44 65 45 64 46
REMARK SMILES IDX 29 48 55 49 38 50 54 51 39 52 42 53 53 54 69 55 40 56 41 57
REMARK SMILES IDX 52 59 70 60 43 61 30 62 31 63 36 64 32 65 33 66 35 67 37 68
REMARK SMILES IDX 34 69 56 70 57 71 62 72 58 73 59 74 61 75 63 76 60 77 44 78
REMARK SMILES IDX 45 79 50 80 46 81 47 82 49 83 51 84 48 85
REMARK H PARENT 13 5 9 10 4 17 18 28 68 47 42 58
REMARK Flexibility Score: inf
ROOT
ATOM      1  C   UNL     1       4.069   3.133  -3.693  1.00  0.00     0.116 C 
ENDROOT
BRANCH   1   2
ATOM      2  N   UNL     1       3.522   4.031  -4.690  1.00  0.00    -0.355 N 
ATOM      3  C   UNL     1       2.219   4.351  -4.958  1.00  0.00     0.239 C 
ATOM      4  O   UNL     1       2.022   5.398  -5.585  1.00  0.00    -0.273 OA
ATOM      5  H   UNL     1       4.189   4.478  -5.260  1.00  0.00     0.163 HD
BRANCH   3   6
ATOM      6  C   UNL     1       1.011   3.544  -4.417  1.00  0.00     0.216 C 
BRANCH   6   7
ATOM      7  N   UNL     1       1.219   2.119  -4.248  1.00  0.00    -0.347 N 
ATOM      8  C   UNL     1       1.091   1.315  -3.163  1.00  0.00     0.222 C 
ATOM      9  O   UNL     1       1.613   0.199  -3.237  1.00  0.00    -0.275 OA
ATOM     10  H   UNL     1       1.503   1.652  -5.067  1.00  0.00     0.164 HD
BRANCH   8  11
ATOM     11  C   UNL     1       0.323   1.708  -1.916  1.00  0.00     0.130 C 
BRANCH  11  12
ATOM     12  C   UNL     1       0.990   2.584  -0.830  1.00  0.00     0.131 C 
BRANCH  12  13
ATOM     13  N   UNL     1       2.438   2.557  -0.832  1.00  0.00    -0.348 N 
ATOM     14  C   UNL     1       2.862   3.470   1.440  1.00  0.00     0.114 C 
ATOM     15  C   UNL     1       3.327   3.002   0.093  1.00  0.00     0.217 C 
ATOM     16  O   UNL     1       4.519   2.990  -0.207  1.00  0.00    -0.275 OA
ATOM     17  H   UNL     1       2.842   2.151  -1.632  1.00  0.00     0.164 HD
ENDBRANCH  12  13
BRANCH  12  18
ATOM     18  C   UNL     1       0.410   3.991  -0.842  1.00  0.00     0.027 A 
ATOM     19  C   UNL     1      -0.900   4.318  -0.525  1.00  0.00     0.017 A 
ATOM     20  S   UNL     1       1.302   5.407  -1.245  1.00  0.00    -0.147 S 
ATOM     21  C   UNL     1      -1.177   5.705  -0.663  1.00  0.00     0.012 A 
ATOM     22  C   UNL     1      -0.065   6.412  -1.053  1.00  0.00     0.065 A 
ENDBRANCH  12  18
ENDBRANCH  11  12
ENDBRANCH   8  11
ENDBRANCH   6   7
ENDBRANCH   3   6
ENDBRANCH   1   2
BRANCH   1  23
ATOM     23  C   UNL     1       5.332   2.393  -4.117  1.00  0.00     0.023 C 
BRANCH  23  24
ATOM     24  C   UNL     1       6.644   3.127  -3.856  1.00  0.00     0.023 C 
BRANCH  24  25
ATOM     25  C   UNL     1       6.964   3.463  -2.397  1.00  0.00     0.116 C 
BRANCH  25  26
ATOM     26  N   UNL     1       6.889   2.341  -1.473  1.00  0.00    -0.352 N 
ATOM     27  C   UNL     1       7.602   2.121  -0.315  1.00  0.00     0.251 C 
ATOM     28  H   UNL     1       6.237   1.641  -1.708  1.00  0.00     0.163 HD
ATOM     29  O   UNL     1       7.376   1.147   0.398  1.00  0.00    -0.269 OA
BRANCH  27  30
ATOM     30  C   UNL     1       8.704   3.036   0.034  1.00  0.00     0.039 A 
ATOM     31  C   UNL     1       9.974   2.493   0.239  1.00  0.00     0.014 A 
ATOM     32  C   UNL     1       8.506   4.418   0.072  1.00  0.00     0.014 A 
ATOM     33  C   UNL     1      11.073   3.343   0.347  1.00  0.00     0.010 A 
ATOM     34  C   UNL     1       9.610   5.265   0.114  1.00  0.00     0.010 A 
ATOM     35  C   UNL     1      10.905   4.731   0.212  1.00  0.00    -0.014 A 
BRANCH  35  36
ATOM     36  C   UNL     1      12.080   5.627   0.078  1.00  0.00     0.031 A 
ATOM     37  C   UNL     1      12.375   6.666   1.116  1.00  0.00     0.074 A 
ATOM     38  C   UNL     1      12.835   5.551  -1.037  1.00  0.00     0.049 A 
ATOM     39  N   UNL     1      13.320   7.572   1.130  1.00  0.00    -0.248 NA
ATOM     40  C   UNL     1      11.478   6.710   2.280  1.00  0.00     0.031 C 
ATOM     41  C   UNL     1      12.611   4.624  -2.150  1.00  0.00     0.029 A 
ATOM     42  N   UNL     1      13.934   6.273  -1.425  1.00  0.00    -0.354 N 
ATOM     43  C   UNL     1      13.127   8.299   2.296  1.00  0.00     0.074 A 
ATOM     44  C   UNL     1      11.947   7.760   2.940  1.00  0.00     0.031 C 
ATOM     45  C   UNL     1      13.554   4.822  -3.084  1.00  0.00     0.029 A 
ATOM     46  C   UNL     1      14.428   5.908  -2.654  1.00  0.00     0.049 A 
ATOM     47  H   UNL     1      14.332   6.986  -0.875  1.00  0.00     0.167 HD
ATOM     48  C   UNL     1      13.878   9.309   2.795  1.00  0.00     0.037 A 
ATOM     49  C   UNL     1      15.466   6.396  -3.359  1.00  0.00     0.037 A 
ATOM     50  C   UNL     1      15.058   9.835   2.160  1.00  0.00     0.049 A 
ATOM     51  C   UNL     1      16.285   7.514  -2.781  1.00  0.00     0.074 A 
ATOM     52  C   UNL     1      15.916  10.821   2.615  1.00  0.00     0.029 A 
ATOM     53  N   UNL     1      15.545   9.420   0.929  1.00  0.00    -0.354 N 
ATOM     54  N   UNL     1      16.136   8.144  -1.641  1.00  0.00    -0.248 NA
ATOM     55  C   UNL     1      17.423   7.986  -3.583  1.00  0.00     0.031 C 
ATOM     56  C   UNL     1      16.902  11.027   1.645  1.00  0.00     0.029 A 
ATOM     57  C   UNL     1      16.681  10.141   0.603  1.00  0.00     0.049 A 
ATOM     58  H   UNL     1      15.142   8.716   0.371  1.00  0.00     0.167 HD
ATOM     59  C   UNL     1      17.170   9.067  -1.578  1.00  0.00     0.074 A 
ATOM     60  C   UNL     1      17.949   8.906  -2.788  1.00  0.00     0.031 C 
ATOM     61  C   UNL     1      17.450   9.966  -0.604  1.00  0.00     0.037 A 
BRANCH  48  62
ATOM     62  C   UNL     1      13.443   9.906   4.100  1.00  0.00     0.057 A 
ATOM     63  C   UNL     1      13.576   9.206   5.307  1.00  0.00     0.134 A 
ATOM     64  C   UNL     1      12.911  11.199   4.157  1.00  0.00     0.134 A 
ATOM     65  F   UNL     1      14.068   7.958   5.319  1.00  0.00    -0.206 F 
ATOM     66  C   UNL     1      13.169   9.762   6.521  1.00  0.00     0.040 A 
ATOM     67  C   UNL     1      12.523  11.775   5.368  1.00  0.00     0.040 A 
ATOM     68  F   UNL     1      12.763  11.925   3.038  1.00  0.00    -0.206 F 
ATOM     69  C   UNL     1      12.646  11.053   6.553  1.00  0.00     0.006 A 
ENDBRANCH  48  62
BRANCH  49  70
ATOM     70  C   UNL     1      15.804   5.813  -4.680  1.00  0.00     0.057 A 
ATOM     71  C   UNL     1      16.946   5.022  -4.846  1.00  0.00     0.134 A 
ATOM     72  C   UNL     1      15.000   6.033  -5.805  1.00  0.00     0.134 A 
ATOM     73  F   UNL     1      17.764   4.792  -3.809  1.00  0.00    -0.206 F 
ATOM     74  C   UNL     1      17.288   4.484  -6.088  1.00  0.00     0.040 A 
ATOM     75  C   UNL     1      15.318   5.483  -7.047  1.00  0.00     0.040 A 
ATOM     76  F   UNL     1      13.889   6.777  -5.708  1.00  0.00    -0.206 F 
ATOM     77  C   UNL     1      16.469   4.711  -7.192  1.00  0.00     0.006 A 
ENDBRANCH  49  70
BRANCH  61  78
ATOM     78  C   UNL     1      18.664  10.825  -0.793  1.00  0.00     0.057 A 
ATOM     79  C   UNL     1      18.683  11.883  -1.711  1.00  0.00     0.134 A 
ATOM     80  C   UNL     1      19.813  10.614  -0.022  1.00  0.00     0.134 A 
ATOM     81  F   UNL     1      17.619  12.127  -2.490  1.00  0.00    -0.206 F 
ATOM     82  C   UNL     1      19.812  12.689  -1.868  1.00  0.00     0.040 A 
ATOM     83  C   UNL     1      20.939  11.428  -0.154  1.00  0.00     0.040 A 
ATOM     84  F   UNL     1      19.857   9.621   0.879  1.00  0.00    -0.206 F 
ATOM     85  C   UNL     1      20.941  12.467  -1.083  1.00  0.00     0.006 A 
ENDBRANCH  61  78
ENDBRANCH  35  36
ENDBRANCH  27  30
ENDBRANCH  25  26
ENDBRANCH  24  25
ENDBRANCH  23  24
ENDBRANCH   1  23
TORSDOF 16
