REMARK SMILES O=C(C[C@H]1C[N@@H+](Cc2ccncc2)CCO1)NCCCCNC(=O)c1ccc(-c2c3nc(c(-c4c(F)cccc4F)c4ccc([nH]4)c(-c4c(F)cccc4F)c4nc(c(-c5c(F)cccc5F)c5ccc2[nH]5)C=C4)C=C3)cc1
REMARK SMILES IDX 19 1 18 2 17 3 1 4 2 5 3 7 4 8 5 9 16 10 6 11 15 12 14 13
REMARK SMILES IDX 7 15 8 16 9 17 13 18 10 19 12 20 11 21 20 22 21 23 22 24
REMARK SMILES IDX 23 25 24 27 25 28 26 29 78 30 27 31 77 32 28 33 29 34 30 35
REMARK SMILES IDX 71 36 31 37 76 38 70 39 72 40 32 41 75 42 69 43 68 44 33 46
REMARK SMILES IDX 59 47 42 48 58 49 43 50 46 51 57 52 73 53 44 54 45 55 56 57
REMARK SMILES IDX 74 58 47 59 34 60 35 61 40 62 36 63 37 64 39 65 41 66 38 67
REMARK SMILES IDX 60 68 61 69 66 70 62 71 63 72 65 73 67 74 64 75 48 76 49 77
REMARK SMILES IDX 54 78 50 79 51 80 53 81 55 82 52 83
REMARK H PARENT 17 6 6 14 22 26 72 45 46 56
REMARK Flexibility Score: inf
ROOT
ATOM      1  C   UNL     1       9.117   3.054   2.326  1.00  0.00     0.023 C 
ENDROOT
BRANCH   1   2
ATOM      2  C   UNL     1       8.234   1.796   2.355  1.00  0.00     0.116 C 
BRANCH   2   3
ATOM      3  N   UNL     1       7.504   1.511   1.131  1.00  0.00    -0.356 N 
ATOM      4  O   UNL     1       6.250  -0.166   2.068  1.00  0.00    -0.275 OA
ATOM      5  C   UNL     1       6.484   0.575   1.117  1.00  0.00     0.222 C 
ATOM      6  H   UNL     1       7.738   1.989   0.302  1.00  0.00     0.163 HD
BRANCH   5   7
ATOM      7  C   UNL     1       5.562   0.611  -0.087  1.00  0.00     0.138 C 
BRANCH   7   8
ATOM      8  C   UNL     1       4.249   1.388   0.174  1.00  0.00     0.182 C 
ATOM      9  C   UNL     1       4.245   2.327   1.409  1.00  0.00     0.295 C 
ATOM     10  O   UNL     1       3.907   2.101  -1.036  1.00  0.00    -0.366 OA
ATOM     11  N   UNL     1       4.244   3.767   1.113  1.00  0.00    -0.327 N 
ATOM     12  C   UNL     1       2.861   3.076  -0.876  1.00  0.00     0.222 C 
ATOM     13  C   UNL     1       3.068   4.052   0.301  1.00  0.00     0.291 C 
ATOM     14  H   UNL     1       4.167   4.296   1.982  1.00  0.00     0.348 HD
BRANCH  11  15
ATOM     15  C   UNL     1       5.517   4.294   0.609  1.00  0.00     0.299 C 
BRANCH  15  16
ATOM     16  C   UNL     1       5.760   4.563  -0.861  1.00  0.00     0.009 A 
ATOM     17  C   UNL     1       5.295   5.736  -1.459  1.00  0.00     0.029 A 
ATOM     18  C   UNL     1       6.518   3.703  -1.662  1.00  0.00     0.029 A 
ATOM     19  C   UNL     1       5.559   5.961  -2.803  1.00  0.00     0.111 A 
ATOM     20  C   UNL     1       6.720   4.000  -3.001  1.00  0.00     0.111 A 
ATOM     21  N   UNL     1       6.256   5.116  -3.590  1.00  0.00    -0.265 NA
ENDBRANCH  15  16
ENDBRANCH  11  15
ENDBRANCH   7   8
ENDBRANCH   5   7
ENDBRANCH   2   3
ENDBRANCH   1   2
BRANCH   1  22
ATOM     22  C   UNL     1       8.470   4.450   2.431  1.00  0.00     0.023 C 
BRANCH  22  23
ATOM     23  C   UNL     1       7.435   4.693   3.539  1.00  0.00     0.116 C 
BRANCH  23  24
ATOM     24  N   UNL     1       8.049   4.768   4.853  1.00  0.00    -0.352 N 
ATOM     25  C   UNL     1       7.994   5.735   5.829  1.00  0.00     0.251 C 
ATOM     26  H   UNL     1       8.603   3.988   5.086  1.00  0.00     0.163 HD
ATOM     27  O   UNL     1       8.778   5.652   6.773  1.00  0.00    -0.269 OA
BRANCH  25  28
ATOM     28  C   UNL     1       7.039   6.878   5.797  1.00  0.00     0.039 A 
ATOM     29  C   UNL     1       7.477   8.112   6.299  1.00  0.00     0.014 A 
ATOM     30  C   UNL     1       5.701   6.744   5.414  1.00  0.00     0.014 A 
ATOM     31  C   UNL     1       6.603   9.206   6.386  1.00  0.00     0.010 A 
ATOM     32  C   UNL     1       4.834   7.851   5.468  1.00  0.00     0.010 A 
ATOM     33  C   UNL     1       5.273   9.095   5.954  1.00  0.00    -0.014 A 
BRANCH  33  34
ATOM     34  C   UNL     1       4.359  10.276   5.983  1.00  0.00     0.031 A 
ATOM     35  C   UNL     1       3.172  10.329   6.911  1.00  0.00     0.074 A 
ATOM     36  C   UNL     1       4.576  11.311   5.146  1.00  0.00     0.049 A 
ATOM     37  N   UNL     1       2.249  11.254   7.026  1.00  0.00    -0.248 NA
ATOM     38  C   UNL     1       2.992   9.188   7.820  1.00  0.00     0.031 C 
ATOM     39  C   UNL     1       5.674  11.399   4.183  1.00  0.00     0.029 A 
ATOM     40  N   UNL     1       3.877  12.481   4.960  1.00  0.00    -0.354 N 
ATOM     41  C   UNL     1       1.377  10.807   8.011  1.00  0.00     0.074 A 
ATOM     42  C   UNL     1       1.861   9.509   8.435  1.00  0.00     0.031 C 
ATOM     43  C   UNL     1       5.580  12.559   3.514  1.00  0.00     0.029 A 
ATOM     44  C   UNL     1       4.396  13.282   3.971  1.00  0.00     0.049 A 
ATOM     45  H   UNL     1       3.080  12.721   5.486  1.00  0.00     0.167 HD
ATOM     46  C   UNL     1       0.282  11.422   8.527  1.00  0.00     0.037 A 
ATOM     47  C   UNL     1       3.965  14.458   3.473  1.00  0.00     0.037 A 
ATOM     48  C   UNL     1      -0.204  12.718   8.120  1.00  0.00     0.049 A 
ATOM     49  C   UNL     1       2.730  15.104   4.036  1.00  0.00     0.074 A 
ATOM     50  C   UNL     1      -1.282  13.431   8.619  1.00  0.00     0.029 A 
ATOM     51  N   UNL     1       0.351  13.493   7.113  1.00  0.00    -0.354 N 
ATOM     52  N   UNL     1       1.945  14.688   4.998  1.00  0.00    -0.248 NA
ATOM     53  C   UNL     1       2.325  16.390   3.446  1.00  0.00     0.031 C 
ATOM     54  C   UNL     1      -1.407  14.616   7.886  1.00  0.00     0.029 A 
ATOM     55  C   UNL     1      -0.377  14.665   6.962  1.00  0.00     0.049 A 
ATOM     56  H   UNL     1       1.144  13.249   6.584  1.00  0.00     0.167 HD
ATOM     57  C   UNL     1       0.971  15.668   5.147  1.00  0.00     0.074 A 
ATOM     58  C   UNL     1       1.272  16.707   4.186  1.00  0.00     0.031 C 
ATOM     59  C   UNL     1      -0.076  15.701   6.007  1.00  0.00     0.037 A 
BRANCH  46  60
ATOM     60  C   UNL     1      -0.482  10.695   9.597  1.00  0.00     0.057 A 
ATOM     61  C   UNL     1       0.028  10.540  10.893  1.00  0.00     0.134 A 
ATOM     62  C   UNL     1      -1.766  10.191   9.346  1.00  0.00     0.134 A 
ATOM     63  F   UNL     1       1.251  10.997  11.200  1.00  0.00    -0.206 F 
ATOM     64  C   UNL     1      -0.697   9.886  11.891  1.00  0.00     0.040 A 
ATOM     65  C   UNL     1      -2.511   9.558  10.343  1.00  0.00     0.040 A 
ATOM     66  F   UNL     1      -2.322  10.318   8.132  1.00  0.00    -0.206 F 
ATOM     67  C   UNL     1      -1.974   9.398  11.618  1.00  0.00     0.006 A 
ENDBRANCH  46  60
BRANCH  47  68
ATOM     68  C   UNL     1       4.715  15.110   2.369  1.00  0.00     0.057 A 
ATOM     69  C   UNL     1       5.441  16.287   2.583  1.00  0.00     0.134 A 
ATOM     70  C   UNL     1       4.714  14.578   1.073  1.00  0.00     0.134 A 
ATOM     71  F   UNL     1       5.459  16.856   3.797  1.00  0.00    -0.206 F 
ATOM     72  C   UNL     1       6.127  16.921   1.546  1.00  0.00     0.040 A 
ATOM     73  C   UNL     1       5.417  15.187   0.033  1.00  0.00     0.040 A 
ATOM     74  F   UNL     1       4.039  13.450   0.804  1.00  0.00    -0.206 F 
ATOM     75  C   UNL     1       6.121  16.366   0.267  1.00  0.00     0.006 A 
ENDBRANCH  47  68
BRANCH  59  76
ATOM     76  C   UNL     1      -0.960  16.914   5.972  1.00  0.00     0.057 A 
ATOM     77  C   UNL     1      -1.850  17.153   4.917  1.00  0.00     0.134 A 
ATOM     78  C   UNL     1      -0.943  17.840   7.024  1.00  0.00     0.134 A 
ATOM     79  F   UNL     1      -1.907  16.314   3.872  1.00  0.00    -0.206 F 
ATOM     80  C   UNL     1      -2.676  18.280   4.899  1.00  0.00     0.040 A 
ATOM     81  C   UNL     1      -1.781  18.957   7.029  1.00  0.00     0.040 A 
ATOM     82  F   UNL     1      -0.119  17.669   8.069  1.00  0.00    -0.206 F 
ATOM     83  C   UNL     1      -2.647  19.182   5.961  1.00  0.00     0.006 A 
ENDBRANCH  59  76
ENDBRANCH  33  34
ENDBRANCH  25  28
ENDBRANCH  23  24
ENDBRANCH  22  23
ENDBRANCH   1  22
TORSDOF 14
