REMARK SMILES N#C[C@H]1CN(C(=O)[C@H]([NH3+])CC(=O)NCCCCNC(=O)c2ccc(-c3c4nc(c(-c5c(F)cccc5F)c5ccc([nH]5)c(-c5c(F)cccc5F)c5nc(c(-c6c(F)cccc6F)c6ccc3[nH]6)C=C5)C=C4)cc2)CCO1
REMARK SMILES IDX 14 1 13 2 11 3 12 4 10 6 8 7 6 8 7 9 5 10 3 11 4 12 77 13
REMARK SMILES IDX 76 14 75 15 2 16 1 17 9 18 15 22 16 23 17 24 18 25 19 26
REMARK SMILES IDX 20 28 21 29 22 30 74 31 23 32 73 33 24 34 25 35 26 36 67 37
REMARK SMILES IDX 27 38 72 39 66 40 68 41 28 42 71 43 65 44 64 45 29 47 55 48
REMARK SMILES IDX 38 49 54 50 39 51 42 52 53 53 69 54 40 55 41 56 52 58 70 59
REMARK SMILES IDX 43 60 30 61 31 62 36 63 32 64 33 65 35 66 37 67 34 68 56 69
REMARK SMILES IDX 57 70 62 71 58 72 59 73 61 74 63 75 60 76 44 77 45 78 50 79
REMARK SMILES IDX 46 80 47 81 49 82 51 83 48 84
REMARK H PARENT 13 5 9 19 9 20 9 21 18 27 68 46 42 57
REMARK Flexibility Score: inf
ROOT
ATOM      1  C   UNL     1       5.304   1.456  -3.881  1.00  0.00     0.116 C 
ENDROOT
BRANCH   1   2
ATOM      2  N   UNL     1       5.220   2.836  -4.309  1.00  0.00    -0.356 N 
ATOM      3  C   UNL     1       4.417   3.833  -3.837  1.00  0.00     0.226 C 
ATOM      4  O   UNL     1       4.365   4.891  -4.466  1.00  0.00    -0.275 OA
ATOM      5  H   UNL     1       5.826   3.090  -5.042  1.00  0.00     0.163 HD
BRANCH   3   6
ATOM      6  C   UNL     1       3.715   3.679  -2.504  1.00  0.00     0.175 C 
BRANCH   6   7
ATOM      7  C   UNL     1       2.357   2.970  -2.509  1.00  0.00     0.280 C 
BRANCH   7   8
ATOM      8  C   UNL     1       1.694   3.002  -1.108  1.00  0.00     0.281 C 
ATOM      9  O   UNL     1       0.710   3.722  -0.922  1.00  0.00    -0.268 OA
BRANCH   8  10
ATOM     10  N   UNL     1       2.166   2.162  -0.102  1.00  0.00    -0.332 N 
ATOM     11  C   UNL     1       4.279   2.344   1.128  1.00  0.00     0.240 C 
ATOM     12  C   UNL     1       3.509   1.579   0.032  1.00  0.00     0.167 C 
ATOM     13  O   UNL     1       3.554   2.247   2.377  1.00  0.00    -0.360 OA
ATOM     14  C   UNL     1       2.224   2.795   2.257  1.00  0.00     0.183 C 
ATOM     15  C   UNL     1       1.423   2.087   1.157  1.00  0.00     0.148 C 
BRANCH  11  16
ATOM     16  C   UNL     1       5.636   1.789   1.258  1.00  0.00     0.096 C 
ATOM     17  N   UNL     1       6.713   1.353   1.292  1.00  0.00    -0.195 NA
ENDBRANCH  11  16
ENDBRANCH   8  10
ENDBRANCH   7   8
BRANCH   7  18
ATOM     18  N   UNL     1       2.280   1.581  -2.997  1.00  0.00    -0.347 N 
ATOM     19  H   UNL     1       2.757   0.964  -2.340  1.00  0.00     0.345 HD
ATOM     20  H   UNL     1       2.727   1.517  -3.911  1.00  0.00     0.345 HD
ATOM     21  H   UNL     1       1.302   1.303  -3.076  1.00  0.00     0.345 HD
ENDBRANCH   7  18
ENDBRANCH   6   7
ENDBRANCH   3   6
ENDBRANCH   1   2
BRANCH   1  22
ATOM     22  C   UNL     1       4.465   0.552  -4.786  1.00  0.00     0.023 C 
BRANCH  22  23
ATOM     23  C   UNL     1       5.107   0.226  -6.125  1.00  0.00     0.023 C 
BRANCH  23  24
ATOM     24  C   UNL     1       6.413  -0.538  -6.018  1.00  0.00     0.116 C 
BRANCH  24  25
ATOM     25  N   UNL     1       6.276  -1.816  -5.333  1.00  0.00    -0.352 N 
ATOM     26  C   UNL     1       6.833  -3.024  -5.678  1.00  0.00     0.251 C 
ATOM     27  H   UNL     1       5.715  -1.815  -4.524  1.00  0.00     0.163 HD
ATOM     28  O   UNL     1       6.523  -4.053  -5.090  1.00  0.00    -0.269 OA
BRANCH  26  29
ATOM     29  C   UNL     1       7.784  -3.059  -6.806  1.00  0.00     0.039 A 
ATOM     30  C   UNL     1       7.590  -3.986  -7.829  1.00  0.00     0.014 A 
ATOM     31  C   UNL     1       8.801  -2.104  -6.890  1.00  0.00     0.014 A 
ATOM     32  C   UNL     1       8.378  -3.909  -8.976  1.00  0.00     0.010 A 
ATOM     33  C   UNL     1       9.506  -1.961  -8.076  1.00  0.00     0.010 A 
ATOM     34  C   UNL     1       9.310  -2.868  -9.128  1.00  0.00    -0.014 A 
BRANCH  34  35
ATOM     35  C   UNL     1      10.099  -2.717 -10.374  1.00  0.00     0.031 A 
ATOM     36  C   UNL     1      11.600  -2.799 -10.325  1.00  0.00     0.074 A 
ATOM     37  C   UNL     1       9.471  -2.452 -11.536  1.00  0.00     0.049 A 
ATOM     38  N   UNL     1      12.468  -2.646 -11.292  1.00  0.00    -0.248 NA
ATOM     39  C   UNL     1      12.208  -3.057  -9.009  1.00  0.00     0.031 C 
ATOM     40  C   UNL     1       8.024  -2.299 -11.703  1.00  0.00     0.029 A 
ATOM     41  N   UNL     1       9.971  -2.259 -12.799  1.00  0.00    -0.354 N 
ATOM     42  C   UNL     1      13.717  -2.782 -10.700  1.00  0.00     0.074 A 
ATOM     43  C   UNL     1      13.499  -2.956  -9.282  1.00  0.00     0.031 C 
ATOM     44  C   UNL     1       7.751  -2.073 -12.998  1.00  0.00     0.029 A 
ATOM     45  C   UNL     1       9.004  -2.013 -13.744  1.00  0.00     0.049 A 
ATOM     46  H   UNL     1      10.932  -2.293 -13.009  1.00  0.00     0.167 HD
ATOM     47  C   UNL     1      14.935  -2.790 -11.290  1.00  0.00     0.037 A 
ATOM     48  C   UNL     1       9.116  -1.758 -15.061  1.00  0.00     0.037 A 
ATOM     49  C   UNL     1      15.144  -2.625 -12.704  1.00  0.00     0.049 A 
ATOM     50  C   UNL     1      10.484  -1.735 -15.686  1.00  0.00     0.074 A 
ATOM     51  C   UNL     1      16.334  -2.667 -13.408  1.00  0.00     0.029 A 
ATOM     52  N   UNL     1      14.140  -2.374 -13.627  1.00  0.00    -0.354 N 
ATOM     53  N   UNL     1      11.653  -1.940 -15.128  1.00  0.00    -0.248 NA
ATOM     54  C   UNL     1      10.549  -1.450 -17.126  1.00  0.00     0.031 C 
ATOM     55  C   UNL     1      16.058  -2.371 -14.746  1.00  0.00     0.029 A 
ATOM     56  C   UNL     1      14.688  -2.224 -14.890  1.00  0.00     0.049 A 
ATOM     57  H   UNL     1      13.180  -2.312 -13.416  1.00  0.00     0.167 HD
ATOM     58  C   UNL     1      12.587  -1.843 -16.153  1.00  0.00     0.074 A 
ATOM     59  C   UNL     1      11.846  -1.578 -17.368  1.00  0.00     0.031 C 
ATOM     60  C   UNL     1      13.936  -1.966 -16.093  1.00  0.00     0.037 A 
BRANCH  47  61
ATOM     61  C   UNL     1      16.134  -2.977 -10.403  1.00  0.00     0.057 A 
ATOM     62  C   UNL     1      16.381  -4.183  -9.732  1.00  0.00     0.134 A 
ATOM     63  C   UNL     1      17.068  -1.947 -10.239  1.00  0.00     0.134 A 
ATOM     64  F   UNL     1      15.521  -5.208  -9.834  1.00  0.00    -0.206 F 
ATOM     65  C   UNL     1      17.494  -4.346  -8.905  1.00  0.00     0.040 A 
ATOM     66  C   UNL     1      18.203  -2.109  -9.444  1.00  0.00     0.040 A 
ATOM     67  F   UNL     1      16.898  -0.767 -10.855  1.00  0.00    -0.206 F 
ATOM     68  C   UNL     1      18.414  -3.308  -8.767  1.00  0.00     0.006 A 
ENDBRANCH  47  61
BRANCH  48  69
ATOM     69  C   UNL     1       7.901  -1.514 -15.882  1.00  0.00     0.057 A 
ATOM     70  C   UNL     1       7.507  -2.413 -16.881  1.00  0.00     0.134 A 
ATOM     71  C   UNL     1       7.113  -0.370 -15.702  1.00  0.00     0.134 A 
ATOM     72  F   UNL     1       8.228  -3.520 -17.115  1.00  0.00    -0.206 F 
ATOM     73  C   UNL     1       6.394  -2.171 -17.688  1.00  0.00     0.040 A 
ATOM     74  C   UNL     1       5.979  -0.132 -16.479  1.00  0.00     0.040 A 
ATOM     75  F   UNL     1       7.427   0.527 -14.756  1.00  0.00    -0.206 F 
ATOM     76  C   UNL     1       5.623  -1.029 -17.484  1.00  0.00     0.006 A 
ENDBRANCH  48  69
BRANCH  60  77
ATOM     77  C   UNL     1      14.698  -1.860 -17.384  1.00  0.00     0.057 A 
ATOM     78  C   UNL     1      14.818  -0.653 -18.084  1.00  0.00     0.134 A 
ATOM     79  C   UNL     1      15.358  -2.979 -17.911  1.00  0.00     0.134 A 
ATOM     80  F   UNL     1      14.203   0.455 -17.642  1.00  0.00    -0.206 F 
ATOM     81  C   UNL     1      15.541  -0.569 -19.276  1.00  0.00     0.040 A 
ATOM     82  C   UNL     1      16.113  -2.900 -19.081  1.00  0.00     0.040 A 
ATOM     83  F   UNL     1      15.296  -4.165 -17.286  1.00  0.00    -0.206 F 
ATOM     84  C   UNL     1      16.198  -1.693 -19.772  1.00  0.00     0.006 A 
ENDBRANCH  60  77
ENDBRANCH  34  35
ENDBRANCH  26  29
ENDBRANCH  24  25
ENDBRANCH  23  24
ENDBRANCH  22  23
ENDBRANCH   1  22
TORSDOF 16
