REMARK SMILES CC[C@]1(C(=O)NCCCCNC(=O)c2ccc(-c3c4nc(c(-c5c(F)cccc5F)c5ccc([nH]5)c(-c5c(F)cccc5F)c5nc(c(-c6c(F)cccc6F)c6ccc3[nH]6)C=C5)C=C4)cc2)CCCN(C(=O)C[C@H](C)COC)C1
REMARK SMILES IDX 7 1 6 2 4 3 5 4 3 6 68 7 80 8 69 9 71 10 70 11 2 12 1 13
REMARK SMILES IDX 72 14 73 15 74 16 75 17 76 18 77 19 78 20 79 21 8 22 9 23
REMARK SMILES IDX 10 24 11 25 12 26 13 28 14 29 15 30 67 31 16 32 66 33 17 34
REMARK SMILES IDX 18 35 19 36 60 37 20 38 65 39 59 40 61 41 21 42 64 43 58 44
REMARK SMILES IDX 57 45 22 47 48 48 31 49 47 50 32 51 35 52 46 53 62 54 33 55
REMARK SMILES IDX 34 56 45 58 63 59 36 60 23 61 24 62 29 63 25 64 26 65 28 66
REMARK SMILES IDX 30 67 27 68 49 69 50 70 55 71 51 72 52 73 54 74 56 75 53 76
REMARK SMILES IDX 37 77 38 78 43 79 39 80 40 81 42 82 44 83 41 84
REMARK H PARENT 6 5 11 27 61 46 35 57
REMARK Flexibility Score: inf
ROOT
ATOM      1  C   UNL     1       3.412   8.113  -5.059  1.00  0.00     0.116 C 
ENDROOT
BRANCH   1   2
ATOM      2  N   UNL     1       4.206   9.088  -4.331  1.00  0.00    -0.356 N 
ATOM      3  C   UNL     1       4.365   9.342  -3.001  1.00  0.00     0.228 C 
ATOM      4  O   UNL     1       5.153  10.251  -2.726  1.00  0.00    -0.274 OA
ATOM      5  H   UNL     1       4.733   9.682  -4.913  1.00  0.00     0.163 HD
BRANCH   3   6
ATOM      6  C   UNL     1       3.636   8.533  -1.900  1.00  0.00     0.066 C 
ATOM      7  C   UNL     1       2.098   8.582  -2.108  1.00  0.00     0.020 C 
ATOM      8  C   UNL     1       4.214   7.085  -1.937  1.00  0.00     0.136 C 
ATOM      9  C   UNL     1       1.338   7.448  -1.430  1.00  0.00     0.023 C 
ATOM     10  N   UNL     1       3.339   6.101  -1.284  1.00  0.00    -0.342 N 
ATOM     11  C   UNL     1       1.968   6.103  -1.764  1.00  0.00     0.119 C 
BRANCH   6  12
ATOM     12  C   UNL     1       4.013   9.111  -0.492  1.00  0.00     0.015 C 
ATOM     13  C   UNL     1       3.442  10.479  -0.129  1.00  0.00     0.005 C 
ENDBRANCH   6  12
BRANCH  10  14
ATOM     14  C   UNL     1       3.847   5.295  -0.279  1.00  0.00     0.222 C 
ATOM     15  O   UNL     1       5.017   5.395   0.100  1.00  0.00    -0.275 OA
BRANCH  14  16
ATOM     16  C   UNL     1       2.942   4.275   0.406  1.00  0.00     0.106 C 
BRANCH  16  17
ATOM     17  C   UNL     1       2.063   4.794   1.568  1.00  0.00     0.021 C 
ATOM     18  C   UNL     1       0.588   4.928   1.180  1.00  0.00     0.010 C 
BRANCH  17  19
ATOM     19  C   UNL     1       2.635   6.050   2.245  1.00  0.00     0.163 C 
BRANCH  19  20
ATOM     20  O   UNL     1       1.739   6.594   3.215  1.00  0.00    -0.384 OA
ATOM     21  C   UNL     1       1.167   7.831   2.800  1.00  0.00     0.194 C 
ENDBRANCH  19  20
ENDBRANCH  17  19
ENDBRANCH  16  17
ENDBRANCH  14  16
ENDBRANCH  10  14
ENDBRANCH   3   6
ENDBRANCH   1   2
BRANCH   1  22
ATOM     22  C   UNL     1       2.219   8.752  -5.771  1.00  0.00     0.023 C 
BRANCH  22  23
ATOM     23  C   UNL     1       2.581   9.646  -6.953  1.00  0.00     0.023 C 
BRANCH  23  24
ATOM     24  C   UNL     1       3.419   8.973  -8.028  1.00  0.00     0.116 C 
BRANCH  24  25
ATOM     25  N   UNL     1       2.797   7.783  -8.590  1.00  0.00    -0.352 N 
ATOM     26  C   UNL     1       2.843   7.351  -9.896  1.00  0.00     0.251 C 
ATOM     27  H   UNL     1       2.284   7.222  -7.963  1.00  0.00     0.163 HD
ATOM     28  O   UNL     1       2.208   6.376 -10.268  1.00  0.00    -0.269 OA
BRANCH  26  29
ATOM     29  C   UNL     1       3.654   8.133 -10.848  1.00  0.00     0.039 A 
ATOM     30  C   UNL     1       3.033   8.700 -11.963  1.00  0.00     0.014 A 
ATOM     31  C   UNL     1       4.993   8.400 -10.555  1.00  0.00     0.014 A 
ATOM     32  C   UNL     1       3.741   9.608 -12.750  1.00  0.00     0.010 A 
ATOM     33  C   UNL     1       5.671   9.355 -11.298  1.00  0.00     0.010 A 
ATOM     34  C   UNL     1       5.051   9.972 -12.397  1.00  0.00    -0.014 A 
BRANCH  34  35
ATOM     35  C   UNL     1       5.822  10.978 -13.165  1.00  0.00     0.031 A 
ATOM     36  C   UNL     1       7.079  10.551 -13.865  1.00  0.00     0.074 A 
ATOM     37  C   UNL     1       5.457  12.274 -13.147  1.00  0.00     0.049 A 
ATOM     38  N   UNL     1       8.013  11.284 -14.413  1.00  0.00    -0.248 NA
ATOM     39  C   UNL     1       7.337   9.102 -13.921  1.00  0.00     0.031 C 
ATOM     40  C   UNL     1       4.269  12.817 -12.486  1.00  0.00     0.029 A 
ATOM     41  N   UNL     1       6.069  13.377 -13.688  1.00  0.00    -0.354 N 
ATOM     42  C   UNL     1       8.983  10.389 -14.846  1.00  0.00     0.074 A 
ATOM     43  C   UNL     1       8.544   9.065 -14.463  1.00  0.00     0.031 C 
ATOM     44  C   UNL     1       4.233  14.148 -12.670  1.00  0.00     0.029 A 
ATOM     45  C   UNL     1       5.416  14.556 -13.421  1.00  0.00     0.049 A 
ATOM     46  H   UNL     1       6.898  13.328 -14.216  1.00  0.00     0.167 HD
ATOM     47  C   UNL     1      10.128  10.648 -15.518  1.00  0.00     0.037 A 
ATOM     48  C   UNL     1       5.747  15.823 -13.735  1.00  0.00     0.037 A 
ATOM     49  C   UNL     1      10.540  11.961 -15.932  1.00  0.00     0.049 A 
ATOM     50  C   UNL     1       7.023  16.084 -14.488  1.00  0.00     0.074 A 
ATOM     51  C   UNL     1      11.670  12.328 -16.641  1.00  0.00     0.029 A 
ATOM     52  N   UNL     1       9.824  13.122 -15.685  1.00  0.00    -0.354 N 
ATOM     53  N   UNL     1       7.925  15.229 -14.904  1.00  0.00    -0.248 NA
ATOM     54  C   UNL     1       7.327  17.485 -14.814  1.00  0.00     0.031 C 
ATOM     55  C   UNL     1      11.645  13.716 -16.811  1.00  0.00     0.029 A 
ATOM     56  C   UNL     1      10.485  14.207 -16.234  1.00  0.00     0.049 A 
ATOM     57  H   UNL     1       8.972  13.168 -15.194  1.00  0.00     0.167 HD
ATOM     58  C   UNL     1       8.882  15.982 -15.572  1.00  0.00     0.074 A 
ATOM     59  C   UNL     1       8.452  17.363 -15.505  1.00  0.00     0.031 C 
ATOM     60  C   UNL     1      10.016  15.567 -16.187  1.00  0.00     0.037 A 
BRANCH  47  61
ATOM     61  C   UNL     1      11.006   9.481 -15.851  1.00  0.00     0.057 A 
ATOM     62  C   UNL     1      10.648   8.549 -16.834  1.00  0.00     0.134 A 
ATOM     63  C   UNL     1      12.228   9.292 -15.193  1.00  0.00     0.134 A 
ATOM     64  F   UNL     1       9.481   8.665 -17.486  1.00  0.00    -0.206 F 
ATOM     65  C   UNL     1      11.462   7.457 -17.134  1.00  0.00     0.040 A 
ATOM     66  C   UNL     1      13.062   8.217 -15.502  1.00  0.00     0.040 A 
ATOM     67  F   UNL     1      12.630  10.148 -14.242  1.00  0.00    -0.206 F 
ATOM     68  C   UNL     1      12.677   7.292 -16.471  1.00  0.00     0.006 A 
ENDBRANCH  47  61
BRANCH  48  69
ATOM     69  C   UNL     1       4.853  16.946 -13.358  1.00  0.00     0.057 A 
ATOM     70  C   UNL     1       4.118  17.632 -14.332  1.00  0.00     0.134 A 
ATOM     71  C   UNL     1       4.728  17.376 -12.033  1.00  0.00     0.134 A 
ATOM     72  F   UNL     1       4.212  17.278 -15.622  1.00  0.00    -0.206 F 
ATOM     73  C   UNL     1       3.306  18.719 -14.005  1.00  0.00     0.040 A 
ATOM     74  C   UNL     1       3.903  18.449 -11.688  1.00  0.00     0.040 A 
ATOM     75  F   UNL     1       5.402  16.756 -11.053  1.00  0.00    -0.206 F 
ATOM     76  C   UNL     1       3.195  19.128 -12.678  1.00  0.00     0.006 A 
ENDBRANCH  48  69
BRANCH  60  77
ATOM     77  C   UNL     1      10.834  16.603 -16.894  1.00  0.00     0.057 A 
ATOM     78  C   UNL     1      11.663  17.491 -16.199  1.00  0.00     0.134 A 
ATOM     79  C   UNL     1      10.838  16.666 -18.293  1.00  0.00     0.134 A 
ATOM     80  F   UNL     1      11.692  17.486 -14.858  1.00  0.00    -0.206 F 
ATOM     81  C   UNL     1      12.462  18.415 -16.874  1.00  0.00     0.040 A 
ATOM     82  C   UNL     1      11.647  17.571 -18.978  1.00  0.00     0.040 A 
ATOM     83  F   UNL     1      10.069  15.835 -19.014  1.00  0.00    -0.206 F 
ATOM     84  C   UNL     1      12.461  18.451 -18.267  1.00  0.00     0.006 A 
ENDBRANCH  60  77
ENDBRANCH  34  35
ENDBRANCH  26  29
ENDBRANCH  24  25
ENDBRANCH  23  24
ENDBRANCH  22  23
ENDBRANCH   1  22
TORSDOF 17
