REMARK SMILES CCOC(=O)c1c(NC(=O)[C@H]2[C@@H]3CC[C@@H](C3)[C@@H]2C(=O)NCCCCNC(=O)c2ccc(-c3c4nc(c(-c5c(F)cccc5F)c5ccc([nH]5)c(-c5c(F)cccc5F)c5nc(c(-c6c(F)cccc6F)c6ccc3[nH]6)C=C5)C=C4)cc2)sc2c1CCCC2
REMARK SMILES IDX 21 1 20 2 18 3 19 4 17 6 11 7 12 8 13 9 16 10 15 11 14 12
REMARK SMILES IDX 9 13 8 14 10 16 7 17 6 18 84 19 82 20 83 21 85 22 88 23
REMARK SMILES IDX 86 24 87 25 4 26 5 27 3 28 2 29 1 30 22 31 23 32 24 33 25 34
REMARK SMILES IDX 26 35 27 37 28 38 29 39 81 40 30 41 80 42 31 43 32 44 33 45
REMARK SMILES IDX 74 46 34 47 79 48 73 49 75 50 35 51 78 52 72 53 71 54 36 56
REMARK SMILES IDX 62 57 45 58 61 59 46 60 49 61 60 62 76 63 47 64 48 65 59 67
REMARK SMILES IDX 77 68 50 69 37 70 38 71 43 72 39 73 40 74 42 75 44 76 41 77
REMARK SMILES IDX 63 78 64 79 69 80 65 81 66 82 68 83 70 84 67 85 51 86 52 87
REMARK SMILES IDX 57 88 53 89 54 90 56 91 58 92 55 93
REMARK H PARENT 20 5 8 15 25 36 75 55 49 66
REMARK Flexibility Score: inf
ROOT
ATOM      1  C   UNL     1       4.443  -0.254   1.596  1.00  0.00     0.116 C 
ENDROOT
BRANCH   1   2
ATOM      2  N   UNL     1       3.188  -0.976   1.505  1.00  0.00    -0.356 N 
ATOM      3  C   UNL     1       2.299  -1.088   0.479  1.00  0.00     0.224 C 
ATOM      4  O   UNL     1       1.308  -1.790   0.688  1.00  0.00    -0.275 OA
ATOM      5  H   UNL     1       2.937  -1.468   2.320  1.00  0.00     0.163 HD
BRANCH   3   6
ATOM      6  C   UNL     1       2.575  -0.448  -0.883  1.00  0.00     0.094 C 
ATOM      7  C   UNL     1       2.597   1.108  -0.970  1.00  0.00     0.094 C 
ATOM      8  C   UNL     1       1.717   1.394  -2.222  1.00  0.00     0.002 C 
ATOM      9  C   UNL     1       0.242   1.256  -1.833  1.00  0.00     0.005 C 
ATOM     10  C   UNL     1       1.909   0.139  -3.080  1.00  0.00     0.009 C 
ATOM     11  C   UNL     1       1.501  -0.806  -1.951  1.00  0.00     0.002 C 
ATOM     12  C   UNL     1       0.102  -0.250  -1.595  1.00  0.00     0.005 C 
BRANCH   7  13
ATOM     13  C   UNL     1       3.987   1.685  -1.204  1.00  0.00     0.229 C 
ATOM     14  N   UNL     1       4.232   3.022  -1.215  1.00  0.00    -0.317 N 
ATOM     15  H   UNL     1       5.155   3.249  -1.470  1.00  0.00     0.170 HD
ATOM     16  O   UNL     1       4.942   0.955  -1.495  1.00  0.00    -0.274 OA
BRANCH  14  17
ATOM     17  C   UNL     1       3.454   4.119  -0.941  1.00  0.00     0.110 A 
ATOM     18  C   UNL     1       2.415   4.481  -0.104  1.00  0.00     0.098 A 
ATOM     19  C   UNL     1       1.941   5.812  -0.423  1.00  0.00    -0.017 A 
ATOM     20  S   UNL     1       3.994   5.437  -1.898  1.00  0.00    -0.122 S 
ATOM     21  C   UNL     1       2.746   6.438  -1.351  1.00  0.00     0.011 A 
ATOM     22  C   UNL     1       0.812   6.534   0.258  1.00  0.00     0.038 C 
ATOM     23  C   UNL     1       2.590   7.850  -1.821  1.00  0.00     0.047 C 
ATOM     24  C   UNL     1       0.442   7.834  -0.469  1.00  0.00     0.005 C 
ATOM     25  C   UNL     1       1.691   8.637  -0.855  1.00  0.00     0.006 C 
BRANCH  18  26
ATOM     26  C   UNL     1       1.946   3.788   1.081  1.00  0.00     0.341 C 
ATOM     27  O   UNL     1       2.610   3.719   2.108  1.00  0.00    -0.246 OA
BRANCH  26  28
ATOM     28  O   UNL     1       0.656   3.374   0.961  1.00  0.00    -0.462 OA
BRANCH  28  29
ATOM     29  C   UNL     1       0.008   2.918   2.159  1.00  0.00     0.230 C 
ATOM     30  C   UNL     1       0.225   1.435   2.378  1.00  0.00     0.049 C 
ENDBRANCH  28  29
ENDBRANCH  26  28
ENDBRANCH  18  26
ENDBRANCH  14  17
ENDBRANCH   7  13
ENDBRANCH   3   6
ENDBRANCH   1   2
BRANCH   1  31
ATOM     31  C   UNL     1       4.210   1.151   2.137  1.00  0.00     0.023 C 
BRANCH  31  32
ATOM     32  C   UNL     1       4.027   1.219   3.655  1.00  0.00     0.023 C 
BRANCH  32  33
ATOM     33  C   UNL     1       5.331   1.413   4.419  1.00  0.00     0.116 C 
BRANCH  33  34
ATOM     34  N   UNL     1       5.900   2.742   4.235  1.00  0.00    -0.352 N 
ATOM     35  C   UNL     1       6.487   3.592   5.142  1.00  0.00     0.251 C 
ATOM     36  H   UNL     1       5.857   3.087   3.313  1.00  0.00     0.163 HD
ATOM     37  O   UNL     1       6.831   4.718   4.792  1.00  0.00    -0.269 OA
BRANCH  35  38
ATOM     38  C   UNL     1       6.658   3.188   6.557  1.00  0.00     0.039 A 
ATOM     39  C   UNL     1       6.366   4.124   7.556  1.00  0.00     0.014 A 
ATOM     40  C   UNL     1       7.081   1.906   6.912  1.00  0.00     0.014 A 
ATOM     41  C   UNL     1       6.396   3.746   8.901  1.00  0.00     0.010 A 
ATOM     42  C   UNL     1       7.048   1.510   8.248  1.00  0.00     0.010 A 
ATOM     43  C   UNL     1       6.680   2.418   9.252  1.00  0.00    -0.014 A 
BRANCH  43  44
ATOM     44  C   UNL     1       6.537   1.931  10.648  1.00  0.00     0.031 A 
ATOM     45  C   UNL     1       7.724   1.392  11.393  1.00  0.00     0.074 A 
ATOM     46  C   UNL     1       5.311   1.861  11.202  1.00  0.00     0.049 A 
ATOM     47  N   UNL     1       7.761   0.743  12.529  1.00  0.00    -0.248 NA
ATOM     48  C   UNL     1       9.039   1.581  10.762  1.00  0.00     0.031 C 
ATOM     49  C   UNL     1       4.066   2.307  10.571  1.00  0.00     0.029 A 
ATOM     50  N   UNL     1       4.906   1.359  12.414  1.00  0.00    -0.354 N 
ATOM     51  C   UNL     1       9.092   0.402  12.725  1.00  0.00     0.074 A 
ATOM     52  C   UNL     1       9.832   0.914  11.590  1.00  0.00     0.031 C 
ATOM     53  C   UNL     1       3.040   2.066  11.402  1.00  0.00     0.029 A 
ATOM     54  C   UNL     1       3.547   1.411  12.604  1.00  0.00     0.049 A 
ATOM     55  H   UNL     1       5.530   0.996  13.083  1.00  0.00     0.167 HD
ATOM     56  C   UNL     1       9.647  -0.275  13.758  1.00  0.00     0.037 A 
ATOM     57  C   UNL     1       2.787   0.961  13.619  1.00  0.00     0.037 A 
ATOM     58  C   UNL     1       8.927  -0.731  14.917  1.00  0.00     0.049 A 
ATOM     59  C   UNL     1       3.433   0.258  14.775  1.00  0.00     0.074 A 
ATOM     60  C   UNL     1       9.424  -1.345  16.055  1.00  0.00     0.029 A 
ATOM     61  N   UNL     1       7.558  -0.615  15.090  1.00  0.00    -0.354 N 
ATOM     62  N   UNL     1       4.697  -0.032  14.960  1.00  0.00    -0.248 NA
ATOM     63  C   UNL     1       2.546  -0.190  15.859  1.00  0.00     0.031 C 
ATOM     64  C   UNL     1       8.349  -1.616  16.911  1.00  0.00     0.029 A 
ATOM     65  C   UNL     1       7.189  -1.155  16.312  1.00  0.00     0.049 A 
ATOM     66  H   UNL     1       6.938  -0.210  14.442  1.00  0.00     0.167 HD
ATOM     67  C   UNL     1       4.759  -0.690  16.180  1.00  0.00     0.074 A 
ATOM     68  C   UNL     1       3.408  -0.746  16.699  1.00  0.00     0.031 C 
ATOM     69  C   UNL     1       5.841  -1.205  16.811  1.00  0.00     0.037 A 
BRANCH  56  70
ATOM     70  C   UNL     1      11.113  -0.567  13.678  1.00  0.00     0.057 A 
ATOM     71  C   UNL     1      12.076   0.416  13.932  1.00  0.00     0.134 A 
ATOM     72  C   UNL     1      11.564  -1.856  13.370  1.00  0.00     0.134 A 
ATOM     73  F   UNL     1      11.704   1.673  14.219  1.00  0.00    -0.206 F 
ATOM     74  C   UNL     1      13.441   0.132  13.864  1.00  0.00     0.040 A 
ATOM     75  C   UNL     1      12.926  -2.157  13.316  1.00  0.00     0.040 A 
ATOM     76  F   UNL     1      10.690  -2.842  13.119  1.00  0.00    -0.206 F 
ATOM     77  C   UNL     1      13.868  -1.160  13.560  1.00  0.00     0.006 A 
ENDBRANCH  56  70
BRANCH  57  78
ATOM     78  C   UNL     1       1.320   1.161  13.584  1.00  0.00     0.057 A 
ATOM     79  C   UNL     1       0.716   2.157  14.357  1.00  0.00     0.134 A 
ATOM     80  C   UNL     1       0.494   0.372  12.776  1.00  0.00     0.134 A 
ATOM     81  F   UNL     1       1.459   2.929  15.163  1.00  0.00    -0.206 F 
ATOM     82  C   UNL     1      -0.664   2.359  14.335  1.00  0.00     0.040 A 
ATOM     83  C   UNL     1      -0.886   0.572  12.733  1.00  0.00     0.040 A 
ATOM     84  F   UNL     1       1.020  -0.596  12.011  1.00  0.00    -0.206 F 
ATOM     85  C   UNL     1      -1.468   1.567  13.517  1.00  0.00     0.006 A 
ENDBRANCH  57  78
BRANCH  69  86
ATOM     86  C   UNL     1       5.605  -1.862  18.134  1.00  0.00     0.057 A 
ATOM     87  C   UNL     1       5.112  -3.169  18.220  1.00  0.00     0.134 A 
ATOM     88  C   UNL     1       5.898  -1.194  19.328  1.00  0.00     0.134 A 
ATOM     89  F   UNL     1       4.799  -3.852  17.109  1.00  0.00    -0.206 F 
ATOM     90  C   UNL     1       4.911  -3.789  19.454  1.00  0.00     0.040 A 
ATOM     91  C   UNL     1       5.713  -1.807  20.567  1.00  0.00     0.040 A 
ATOM     92  F   UNL     1       6.372   0.061  19.307  1.00  0.00    -0.206 F 
ATOM     93  C   UNL     1       5.216  -3.108  20.632  1.00  0.00     0.006 A 
ENDBRANCH  69  86
ENDBRANCH  43  44
ENDBRANCH  35  38
ENDBRANCH  33  34
ENDBRANCH  32  33
ENDBRANCH  31  32
ENDBRANCH   1  31
TORSDOF 16
