REMARK SMILES O=C(N/N=C/c1ccccc1O)C(=O)Nc1cccc(C(=O)NCCCCNC(=O)c2ccc(-c3c4nc(c(-c5c(F)cccc5F)c5ccc([nH]5)c(-c5c(F)cccc5F)c5nc(c(-c6c(F)cccc6F)c6ccc3[nH]6)C=C5)C=C4)cc2)c1
REMARK SMILES IDX 24 1 23 2 21 3 22 4 20 6 16 7 17 8 85 9 18 10 19 11 15 12
REMARK SMILES IDX 13 13 14 14 2 16 1 17 3 18 4 20 5 21 6 22 7 23 11 24 8 25
REMARK SMILES IDX 10 26 9 27 12 28 25 30 26 31 27 32 28 33 29 34 30 36 31 37
REMARK SMILES IDX 32 38 84 39 33 40 83 41 34 42 35 43 36 44 77 45 37 46 82 47
REMARK SMILES IDX 76 48 78 49 38 50 81 51 75 52 74 53 39 55 65 56 48 57 64 58
REMARK SMILES IDX 49 59 52 60 63 61 79 62 50 63 51 64 62 66 80 67 53 68 40 69
REMARK SMILES IDX 41 70 46 71 42 72 43 73 45 74 47 75 44 76 66 77 67 78 72 79
REMARK SMILES IDX 68 80 69 81 71 82 73 83 70 84 54 85 55 86 60 87 56 88 57 89
REMARK SMILES IDX 59 90 61 91 58 92
REMARK H PARENT 23 5 15 15 3 19 12 29 28 35 78 54 52 65
REMARK Flexibility Score: inf
ROOT
ATOM      1  C   UNL     1       3.097  -2.322   2.773  1.00  0.00     0.116 C 
ENDROOT
BRANCH   1   2
ATOM      2  N   UNL     1       4.251  -2.092   3.620  1.00  0.00    -0.352 N 
ATOM      3  C   UNL     1       5.307  -1.231   3.471  1.00  0.00     0.251 C 
ATOM      4  O   UNL     1       6.094  -1.070   4.407  1.00  0.00    -0.269 OA
ATOM      5  H   UNL     1       4.281  -2.644   4.435  1.00  0.00     0.163 HD
BRANCH   3   6
ATOM      6  C   UNL     1       5.603  -0.493   2.215  1.00  0.00     0.041 A 
ATOM      7  C   UNL     1       5.265   0.054  -0.877  1.00  0.00     0.042 A 
ATOM      8  C   UNL     1       6.011   1.717  -0.687  1.00  0.00     0.026 A 
ATOM      9  C   UNL     1       5.137  -1.079   0.539  1.00  0.00     0.040 A 
ATOM     10  C   UNL     1       6.643   2.221   0.956  1.00  0.00     0.003 A 
ATOM     11  C   UNL     1       6.396   1.141   2.395  1.00  0.00     0.014 A 
BRANCH   7  12
ATOM     12  N   UNL     1       4.290  -0.021  -1.871  1.00  0.00    -0.318 N 
ATOM     13  C   UNL     1       2.922   0.137  -1.685  1.00  0.00     0.315 C 
ATOM     14  O   UNL     1       2.221   0.250  -2.694  1.00  0.00    -0.263 OA
ATOM     15  H   UNL     1       4.599  -0.203  -2.788  1.00  0.00     0.170 HD
BRANCH  13  16
ATOM     16  C   UNL     1       2.209   0.247  -0.312  1.00  0.00     0.329 C 
ATOM     17  O   UNL     1       1.109  -0.284  -0.169  1.00  0.00    -0.262 OA
ATOM     18  N   UNL     1       2.728   1.061   0.705  1.00  0.00    -0.239 N 
ATOM     19  H   UNL     1       2.344   1.941   0.923  1.00  0.00     0.194 HD
BRANCH  18  20
ATOM     20  N   UNL     1       3.813   0.542   1.379  1.00  0.00    -0.180 NA
ATOM     21  C   UNL     1       5.036   0.946   0.897  1.00  0.00     0.145 C 
BRANCH  21  22
ATOM     22  C   UNL     1       6.959   0.094   0.555  1.00  0.00     0.036 A 
ATOM     23  C   UNL     1       7.913   0.362  -0.610  1.00  0.00     0.013 A 
ATOM     24  C   UNL     1       7.864  -0.860   1.336  1.00  0.00     0.124 A 
ATOM     25  C   UNL     1       9.316   0.148  -0.750  1.00  0.00     0.001 A 
ATOM     26  C   UNL     1       9.287  -1.040   1.243  1.00  0.00     0.047 A 
ATOM     27  C   UNL     1      10.024  -0.476   0.235  1.00  0.00     0.004 A 
BRANCH  24  28
ATOM     28  O   UNL     1       7.430  -1.929   2.126  1.00  0.00    -0.507 OA
ATOM     29  H   UNL     1       6.520  -2.024   2.327  1.00  0.00     0.293 HD
ENDBRANCH  24  28
ENDBRANCH  21  22
ENDBRANCH  18  20
ENDBRANCH  13  16
ENDBRANCH   7  12
ENDBRANCH   3   6
ENDBRANCH   1   2
BRANCH   1  30
ATOM     30  C   UNL     1       3.151  -3.674   2.066  1.00  0.00     0.023 C 
BRANCH  30  31
ATOM     31  C   UNL     1       2.605  -4.845   2.884  1.00  0.00     0.023 C 
BRANCH  31  32
ATOM     32  C   UNL     1       1.154  -4.704   3.335  1.00  0.00     0.116 C 
BRANCH  32  33
ATOM     33  N   UNL     1       0.215  -4.473   2.249  1.00  0.00    -0.352 N 
ATOM     34  C   UNL     1      -1.116  -4.811   2.190  1.00  0.00     0.251 C 
ATOM     35  H   UNL     1       0.579  -4.018   1.456  1.00  0.00     0.163 HD
ATOM     36  O   UNL     1      -1.758  -4.645   1.158  1.00  0.00    -0.269 OA
BRANCH  34  37
ATOM     37  C   UNL     1      -1.767  -5.418   3.369  1.00  0.00     0.039 A 
ATOM     38  C   UNL     1      -2.547  -6.562   3.187  1.00  0.00     0.014 A 
ATOM     39  C   UNL     1      -1.607  -4.868   4.644  1.00  0.00     0.014 A 
ATOM     40  C   UNL     1      -3.123  -7.188   4.293  1.00  0.00     0.010 A 
ATOM     41  C   UNL     1      -2.126  -5.529   5.753  1.00  0.00     0.010 A 
ATOM     42  C   UNL     1      -2.896  -6.690   5.586  1.00  0.00    -0.014 A 
BRANCH  42  43
ATOM     43  C   UNL     1      -3.481  -7.359   6.771  1.00  0.00     0.031 A 
ATOM     44  C   UNL     1      -4.546  -6.667   7.574  1.00  0.00     0.074 A 
ATOM     45  C   UNL     1      -3.021  -8.566   7.150  1.00  0.00     0.049 A 
ATOM     46  N   UNL     1      -5.163  -7.075   8.654  1.00  0.00    -0.248 NA
ATOM     47  C   UNL     1      -4.950  -5.327   7.122  1.00  0.00     0.031 C 
ATOM     48  C   UNL     1      -1.949  -9.311   6.487  1.00  0.00     0.029 A 
ATOM     49  N   UNL     1      -3.398  -9.377   8.189  1.00  0.00    -0.354 N 
ATOM     50  C   UNL     1      -6.010  -6.037   9.018  1.00  0.00     0.074 A 
ATOM     51  C   UNL     1      -5.795  -4.963   8.074  1.00  0.00     0.031 C 
ATOM     52  C   UNL     1      -1.774 -10.483   7.120  1.00  0.00     0.029 A 
ATOM     53  C   UNL     1      -2.707 -10.563   8.239  1.00  0.00     0.049 A 
ATOM     54  H   UNL     1      -4.097  -9.133   8.838  1.00  0.00     0.167 HD
ATOM     55  C   UNL     1      -6.905  -5.992  10.033  1.00  0.00     0.037 A 
ATOM     56  C   UNL     1      -2.827 -11.602   9.086  1.00  0.00     0.037 A 
ATOM     57  C   UNL     1      -7.146  -7.076  10.947  1.00  0.00     0.049 A 
ATOM     58  C   UNL     1      -3.869 -11.553  10.166  1.00  0.00     0.074 A 
ATOM     59  C   UNL     1      -8.066  -7.150  11.978  1.00  0.00     0.029 A 
ATOM     60  N   UNL     1      -6.466  -8.284  10.929  1.00  0.00    -0.354 N 
ATOM     61  N   UNL     1      -4.707 -10.590  10.462  1.00  0.00    -0.248 NA
ATOM     62  C   UNL     1      -3.994 -12.744  11.019  1.00  0.00     0.031 C 
ATOM     63  C   UNL     1      -7.931  -8.399  12.596  1.00  0.00     0.029 A 
ATOM     64  C   UNL     1      -6.946  -9.111  11.930  1.00  0.00     0.049 A 
ATOM     65  H   UNL     1      -5.748  -8.519  10.298  1.00  0.00     0.167 HD
ATOM     66  C   UNL     1      -5.478 -11.067  11.514  1.00  0.00     0.074 A 
ATOM     67  C   UNL     1      -5.013 -12.409  11.798  1.00  0.00     0.031 C 
ATOM     68  C   UNL     1      -6.481 -10.450  12.183  1.00  0.00     0.037 A 
BRANCH  55  69
ATOM     69  C   UNL     1      -7.696  -4.728  10.192  1.00  0.00     0.057 A 
ATOM     70  C   UNL     1      -8.713  -4.380   9.294  1.00  0.00     0.134 A 
ATOM     71  C   UNL     1      -7.444  -3.854  11.256  1.00  0.00     0.134 A 
ATOM     72  F   UNL     1      -8.991  -5.168   8.244  1.00  0.00    -0.206 F 
ATOM     73  C   UNL     1      -9.434  -3.194   9.432  1.00  0.00     0.040 A 
ATOM     74  C   UNL     1      -8.175  -2.676  11.419  1.00  0.00     0.040 A 
ATOM     75  F   UNL     1      -6.486  -4.130  12.153  1.00  0.00    -0.206 F 
ATOM     76  C   UNL     1      -9.168  -2.340  10.500  1.00  0.00     0.006 A 
ENDBRANCH  55  69
BRANCH  56  77
ATOM     77  C   UNL     1      -1.977 -12.804   8.907  1.00  0.00     0.057 A 
ATOM     78  C   UNL     1      -2.511 -13.989   8.387  1.00  0.00     0.134 A 
ATOM     79  C   UNL     1      -0.621 -12.800   9.247  1.00  0.00     0.134 A 
ATOM     80  F   UNL     1      -3.810 -14.055   8.059  1.00  0.00    -0.206 F 
ATOM     81  C   UNL     1      -1.731 -15.134   8.230  1.00  0.00     0.040 A 
ATOM     82  C   UNL     1       0.176 -13.933   9.078  1.00  0.00     0.040 A 
ATOM     83  F   UNL     1      -0.050 -11.691   9.742  1.00  0.00    -0.206 F 
ATOM     84  C   UNL     1      -0.381 -15.107   8.573  1.00  0.00     0.006 A 
ENDBRANCH  56  77
BRANCH  68  85
ATOM     85  C   UNL     1      -7.167 -11.236  13.258  1.00  0.00     0.057 A 
ATOM     86  C   UNL     1      -6.569 -11.460  14.503  1.00  0.00     0.134 A 
ATOM     87  C   UNL     1      -8.454 -11.749  13.051  1.00  0.00     0.134 A 
ATOM     88  F   UNL     1      -5.332 -11.005  14.755  1.00  0.00    -0.206 F 
ATOM     89  C   UNL     1      -7.219 -12.187  15.501  1.00  0.00     0.040 A 
ATOM     90  C   UNL     1      -9.122 -12.460  14.048  1.00  0.00     0.040 A 
ATOM     91  F   UNL     1      -9.082 -11.562  11.881  1.00  0.00    -0.206 F 
ATOM     92  C   UNL     1      -8.502 -12.685  15.276  1.00  0.00     0.006 A 
ENDBRANCH  68  85
ENDBRANCH  42  43
ENDBRANCH  34  37
ENDBRANCH  32  33
ENDBRANCH  31  32
ENDBRANCH  30  31
ENDBRANCH   1  30
TORSDOF 16
