REMARK SMILES COc1ccc(-c2nc(NCC(=O)NCCCCNC(=O)c3ccc(-c4c5nc(c(-c6c(F)cccc6F)c6ccc([nH]6)c(-c6c(F)cccc6F)c6nc(c(-c7c(F)cccc7F)c7ccc4[nH]7)C=C6)C=C5)cc3)sc2-c2ccc(OC)cc2)cc1
REMARK SMILES IDX 15 1 14 2 12 3 13 4 11 6 10 7 9 9 7 10 8 11 77 12 76 13 6 14
REMARK SMILES IDX 3 15 4 16 87 17 5 18 86 19 2 20 1 21 78 22 79 23 85 24 80 25
REMARK SMILES IDX 84 26 81 27 82 28 83 29 16 30 17 31 18 32 19 33 20 34 21 36
REMARK SMILES IDX 22 37 23 38 75 39 24 40 74 41 25 42 26 43 27 44 68 45 28 46
REMARK SMILES IDX 73 47 67 48 69 49 29 50 72 51 66 52 65 53 30 55 56 56 39 57
REMARK SMILES IDX 55 58 40 59 43 60 54 61 70 62 41 63 42 64 53 66 71 67 44 68
REMARK SMILES IDX 31 69 32 70 37 71 33 72 34 73 36 74 38 75 35 76 57 77 58 78
REMARK SMILES IDX 63 79 59 80 60 81 62 82 64 83 61 84 45 85 46 86 51 87 47 88
REMARK SMILES IDX 48 89 50 90 52 91 49 92
REMARK H PARENT 14 5 10 8 19 35 69 54 43 65
REMARK Flexibility Score: inf
ROOT
ATOM      1  C   UNL     1       4.975  -5.421  -7.511  1.00  0.00     0.116 C 
ENDROOT
BRANCH   1   2
ATOM      2  N   UNL     1       5.558  -6.737  -7.680  1.00  0.00    -0.355 N 
ATOM      3  C   UNL     1       4.995  -7.956  -7.419  1.00  0.00     0.239 C 
ATOM      4  O   UNL     1       5.691  -8.963  -7.566  1.00  0.00    -0.273 OA
ATOM      5  H   UNL     1       6.479  -6.756  -8.027  1.00  0.00     0.163 HD
BRANCH   3   6
ATOM      6  C   UNL     1       3.520  -8.052  -7.003  1.00  0.00     0.215 C 
BRANCH   6   7
ATOM      7  N   UNL     1       3.294  -7.468  -5.691  1.00  0.00    -0.352 N 
ATOM      8  H   UNL     1       3.842  -7.808  -4.947  1.00  0.00     0.163 HD
BRANCH   7   9
ATOM      9  C   UNL     1       2.397  -6.501  -5.405  1.00  0.00     0.184 A 
ATOM     10  C   UNL     1       1.482  -4.862  -4.226  1.00  0.00     0.091 A 
ATOM     11  N   UNL     1       2.414  -5.886  -4.245  1.00  0.00    -0.220 NA
ATOM     12  C   UNL     1       0.799  -4.654  -5.416  1.00  0.00     0.064 A 
ATOM     13  S   UNL     1       1.192  -5.922  -6.496  1.00  0.00    -0.096 S 
BRANCH  10  14
ATOM     14  C   UNL     1       1.294  -4.031  -3.047  1.00  0.00     0.002 A 
ATOM     15  C   UNL     1       0.867  -2.240  -0.940  1.00  0.00     0.118 A 
ATOM     16  C   UNL     1      -0.186  -3.020  -1.414  1.00  0.00     0.047 A 
ATOM     17  C   UNL     1       2.148  -2.398  -1.471  1.00  0.00     0.047 A 
ATOM     18  C   UNL     1       0.023  -3.907  -2.470  1.00  0.00     0.014 A 
ATOM     19  C   UNL     1       2.363  -3.297  -2.522  1.00  0.00     0.014 A 
BRANCH  15  20
ATOM     20  O   UNL     1       0.571  -1.385   0.086  1.00  0.00    -0.497 OA
ATOM     21  C   UNL     1       1.081  -0.069  -0.115  1.00  0.00     0.278 C 
ENDBRANCH  15  20
ENDBRANCH  10  14
BRANCH  12  22
ATOM     22  C   UNL     1      -0.097  -3.568  -5.830  1.00  0.00    -0.006 A 
ATOM     23  C   UNL     1      -1.344  -3.817  -6.411  1.00  0.00     0.013 A 
ATOM     24  C   UNL     1       0.289  -2.234  -5.624  1.00  0.00     0.013 A 
ATOM     25  C   UNL     1      -2.189  -2.756  -6.753  1.00  0.00     0.047 A 
ATOM     26  C   UNL     1      -0.560  -1.174  -5.957  1.00  0.00     0.047 A 
ATOM     27  C   UNL     1      -1.811  -1.433  -6.512  1.00  0.00     0.118 A 
BRANCH  27  28
ATOM     28  O   UNL     1      -2.738  -0.492  -6.865  1.00  0.00    -0.497 OA
ATOM     29  C   UNL     1      -2.482   0.842  -6.443  1.00  0.00     0.278 C 
ENDBRANCH  27  28
ENDBRANCH  12  22
ENDBRANCH   7   9
ENDBRANCH   6   7
ENDBRANCH   3   6
ENDBRANCH   1   2
BRANCH   1  30
ATOM     30  C   UNL     1       5.460  -4.751  -6.226  1.00  0.00     0.023 C 
BRANCH  30  31
ATOM     31  C   UNL     1       6.913  -4.270  -6.282  1.00  0.00     0.023 C 
BRANCH  31  32
ATOM     32  C   UNL     1       7.217  -3.250  -7.376  1.00  0.00     0.116 C 
BRANCH  32  33
ATOM     33  N   UNL     1       6.426  -2.035  -7.263  1.00  0.00    -0.352 N 
ATOM     34  C   UNL     1       6.810  -0.736  -7.491  1.00  0.00     0.251 C 
ATOM     35  H   UNL     1       5.489  -2.160  -6.987  1.00  0.00     0.163 HD
ATOM     36  O   UNL     1       6.047   0.191  -7.231  1.00  0.00    -0.269 OA
BRANCH  34  37
ATOM     37  C   UNL     1       8.164  -0.455  -8.015  1.00  0.00     0.039 A 
ATOM     38  C   UNL     1       8.938   0.524  -7.387  1.00  0.00     0.014 A 
ATOM     39  C   UNL     1       8.676  -1.168  -9.102  1.00  0.00     0.014 A 
ATOM     40  C   UNL     1      10.254   0.737  -7.804  1.00  0.00     0.010 A 
ATOM     41  C   UNL     1      10.008  -1.001  -9.473  1.00  0.00     0.010 A 
ATOM     42  C   UNL     1      10.812  -0.051  -8.825  1.00  0.00    -0.014 A 
BRANCH  42  43
ATOM     43  C   UNL     1      12.236   0.097  -9.220  1.00  0.00     0.031 A 
ATOM     44  C   UNL     1      12.593   0.568 -10.603  1.00  0.00     0.074 A 
ATOM     45  C   UNL     1      13.208  -0.252  -8.355  1.00  0.00     0.049 A 
ATOM     46  N   UNL     1      13.772   0.682 -11.159  1.00  0.00    -0.248 NA
ATOM     47  C   UNL     1      11.475   0.936 -11.487  1.00  0.00     0.031 C 
ATOM     48  C   UNL     1      12.994  -0.763  -6.999  1.00  0.00     0.029 A 
ATOM     49  N   UNL     1      14.574  -0.242  -8.492  1.00  0.00    -0.354 N 
ATOM     50  C   UNL     1      13.539   1.125 -12.454  1.00  0.00     0.074 A 
ATOM     51  C   UNL     1      12.104   1.210 -12.620  1.00  0.00     0.031 C 
ATOM     52  C   UNL     1      14.184  -1.000  -6.424  1.00  0.00     0.029 A 
ATOM     53  C   UNL     1      15.244  -0.695  -7.380  1.00  0.00     0.049 A 
ATOM     54  H   UNL     1      15.031   0.061  -9.310  1.00  0.00     0.167 HD
ATOM     55  C   UNL     1      14.439   1.456 -13.410  1.00  0.00     0.037 A 
ATOM     56  C   UNL     1      16.563  -0.855  -7.161  1.00  0.00     0.037 A 
ATOM     57  C   UNL     1      15.867   1.393 -13.239  1.00  0.00     0.049 A 
ATOM     58  C   UNL     1      17.539  -0.494  -8.247  1.00  0.00     0.074 A 
ATOM     59  C   UNL     1      16.859   1.747 -14.136  1.00  0.00     0.029 A 
ATOM     60  N   UNL     1      16.505   0.951 -12.091  1.00  0.00    -0.354 N 
ATOM     61  N   UNL     1      17.304  -0.021  -9.447  1.00  0.00    -0.248 NA
ATOM     62  C   UNL     1      18.965  -0.683  -7.946  1.00  0.00     0.031 C 
ATOM     63  C   UNL     1      18.098   1.486 -13.545  1.00  0.00     0.029 A 
ATOM     64  C   UNL     1      17.878   1.010 -12.262  1.00  0.00     0.049 A 
ATOM     65  H   UNL     1      16.050   0.640 -11.275  1.00  0.00     0.167 HD
ATOM     66  C   UNL     1      18.550   0.174 -10.029  1.00  0.00     0.074 A 
ATOM     67  C   UNL     1      19.538  -0.218  -9.047  1.00  0.00     0.031 C 
ATOM     68  C   UNL     1      18.849   0.635 -11.268  1.00  0.00     0.037 A 
BRANCH  55  69
ATOM     69  C   UNL     1      13.906   1.933 -14.729  1.00  0.00     0.057 A 
ATOM     70  C   UNL     1      13.309   3.193 -14.867  1.00  0.00     0.134 A 
ATOM     71  C   UNL     1      14.041   1.152 -15.884  1.00  0.00     0.134 A 
ATOM     72  F   UNL     1      13.139   3.985 -13.797  1.00  0.00    -0.206 F 
ATOM     73  C   UNL     1      12.850   3.652 -16.102  1.00  0.00     0.040 A 
ATOM     74  C   UNL     1      13.608   1.611 -17.129  1.00  0.00     0.040 A 
ATOM     75  F   UNL     1      14.610  -0.062 -15.823  1.00  0.00    -0.206 F 
ATOM     76  C   UNL     1      13.007   2.863 -17.240  1.00  0.00     0.006 A 
ENDBRANCH  55  69
BRANCH  56  77
ATOM     77  C   UNL     1      17.050  -1.372  -5.856  1.00  0.00     0.057 A 
ATOM     78  C   UNL     1      17.762  -0.551  -4.975  1.00  0.00     0.134 A 
ATOM     79  C   UNL     1      16.849  -2.704  -5.476  1.00  0.00     0.134 A 
ATOM     80  F   UNL     1      18.003   0.730  -5.292  1.00  0.00    -0.206 F 
ATOM     81  C   UNL     1      18.283  -1.041  -3.776  1.00  0.00     0.040 A 
ATOM     82  C   UNL     1      17.342  -3.202  -4.269  1.00  0.00     0.040 A 
ATOM     83  F   UNL     1      16.169  -3.542  -6.273  1.00  0.00    -0.206 F 
ATOM     84  C   UNL     1      18.070  -2.371  -3.420  1.00  0.00     0.006 A 
ENDBRANCH  56  77
BRANCH  68  85
ATOM     85  C   UNL     1      20.301   0.786 -11.613  1.00  0.00     0.057 A 
ATOM     86  C   UNL     1      21.122  -0.321 -11.860  1.00  0.00     0.134 A 
ATOM     87  C   UNL     1      20.874   2.058 -11.737  1.00  0.00     0.134 A 
ATOM     88  F   UNL     1      20.637  -1.567 -11.745  1.00  0.00    -0.206 F 
ATOM     89  C   UNL     1      22.468  -0.169 -12.196  1.00  0.00     0.040 A 
ATOM     90  C   UNL     1      22.211   2.224 -12.097  1.00  0.00     0.040 A 
ATOM     91  F   UNL     1      20.139   3.160 -11.522  1.00  0.00    -0.206 F 
ATOM     92  C   UNL     1      23.014   1.107 -12.322  1.00  0.00     0.006 A 
ENDBRANCH  68  85
ENDBRANCH  42  43
ENDBRANCH  34  37
ENDBRANCH  32  33
ENDBRANCH  31  32
ENDBRANCH  30  31
ENDBRANCH   1  30
TORSDOF 17
