REMARK SMILES [NH3+][C@@H](Cc1cccc(O)c1)C(=O)NCCCCNC(=O)c1ccc(-c2c3nc(c(-c4c(F)cccc4F)c4ccc([nH]4)c(-c4c(F)cccc4F)c4nc(c(-c5c(F)cccc5F)c5ccc2[nH]5)C=C4)C=C3)cc1
REMARK SMILES IDX 15 1 14 2 13 3 11 4 12 5 2 7 1 8 3 12 4 13 5 14 10 15 6 16
REMARK SMILES IDX 8 17 7 18 9 19 16 21 17 22 18 23 19 24 20 26 21 27 22 28
REMARK SMILES IDX 74 29 23 30 73 31 24 32 25 33 26 34 67 35 27 36 72 37 66 38
REMARK SMILES IDX 68 39 28 40 71 41 65 42 64 43 29 45 55 46 38 47 54 48 39 49
REMARK SMILES IDX 42 50 53 51 69 52 40 53 41 54 52 56 70 57 43 58 30 59 31 60
REMARK SMILES IDX 36 61 32 62 33 63 35 64 37 65 34 66 56 67 57 68 62 69 58 70
REMARK SMILES IDX 59 71 61 72 63 73 60 74 44 75 45 76 50 77 46 78 47 79 49 80
REMARK SMILES IDX 51 81 48 82
REMARK H PARENT 13 6 1 9 1 10 1 11 9 20 18 25 68 44 42 55
REMARK Flexibility Score: inf
ROOT
ATOM      1  C   UNL     1      -1.918  -1.091  -2.112  1.00  0.00     0.023 C 
ENDROOT
BRANCH   1   2
ATOM      2  C   UNL     1      -1.225   0.198  -1.702  1.00  0.00     0.116 C 
BRANCH   2   3
ATOM      3  N   UNL     1      -1.578   0.698  -0.396  1.00  0.00    -0.351 N 
ATOM      4  C   UNL     1      -0.797   1.358   0.513  1.00  0.00     0.278 C 
ATOM      5  O   UNL     1      -1.389   1.959   1.418  1.00  0.00    -0.268 OA
ATOM      6  H   UNL     1      -2.511   0.543  -0.120  1.00  0.00     0.163 HD
BRANCH   4   7
ATOM      7  C   UNL     1       0.753   1.379   0.447  1.00  0.00     0.275 C 
BRANCH   7   8
ATOM      8  N   UNL     1       1.337   0.020   0.416  1.00  0.00    -0.347 N 
ATOM      9  H   UNL     1       2.354   0.087   0.373  1.00  0.00     0.345 HD
ATOM     10  H   UNL     1       0.994  -0.479  -0.405  1.00  0.00     0.345 HD
ATOM     11  H   UNL     1       1.065  -0.486   1.259  1.00  0.00     0.345 HD
ENDBRANCH   7   8
BRANCH   7  12
ATOM     12  C   UNL     1       1.382   2.431  -0.501  1.00  0.00     0.111 C 
BRANCH  12  13
ATOM     13  C   UNL     1       1.130   2.350  -1.988  1.00  0.00    -0.038 A 
ATOM     14  C   UNL     1       0.354   3.334  -2.622  1.00  0.00     0.004 A 
ATOM     15  C   UNL     1       1.644   1.302  -2.765  1.00  0.00     0.050 A 
ATOM     16  C   UNL     1       0.044   3.235  -3.982  1.00  0.00     0.004 A 
ATOM     17  C   UNL     1       1.280   1.182  -4.106  1.00  0.00     0.115 A 
ATOM     18  C   UNL     1       0.486   2.141  -4.723  1.00  0.00     0.046 A 
BRANCH  17  19
ATOM     19  O   UNL     1       1.681   0.062  -4.774  1.00  0.00    -0.508 OA
ATOM     20  H   UNL     1       1.454  -0.052  -5.676  1.00  0.00     0.293 HD
ENDBRANCH  17  19
ENDBRANCH  12  13
ENDBRANCH   7  12
ENDBRANCH   4   7
ENDBRANCH   2   3
ENDBRANCH   1   2
BRANCH   1  21
ATOM     21  C   UNL     1      -3.374  -0.950  -2.536  1.00  0.00     0.023 C 
BRANCH  21  22
ATOM     22  C   UNL     1      -3.678   0.145  -3.555  1.00  0.00     0.116 C 
BRANCH  22  23
ATOM     23  N   UNL     1      -2.861   0.094  -4.762  1.00  0.00    -0.352 N 
ATOM     24  C   UNL     1      -3.247   0.200  -6.080  1.00  0.00     0.251 C 
ATOM     25  H   UNL     1      -1.896  -0.034  -4.614  1.00  0.00     0.163 HD
ATOM     26  O   UNL     1      -2.416   0.115  -6.979  1.00  0.00    -0.269 OA
BRANCH  24  27
ATOM     27  C   UNL     1      -4.681   0.369  -6.401  1.00  0.00     0.039 A 
ATOM     28  C   UNL     1      -5.288  -0.517  -7.295  1.00  0.00     0.014 A 
ATOM     29  C   UNL     1      -5.442   1.345  -5.753  1.00  0.00     0.014 A 
ATOM     30  C   UNL     1      -6.677  -0.499  -7.449  1.00  0.00     0.010 A 
ATOM     31  C   UNL     1      -6.830   1.308  -5.845  1.00  0.00     0.010 A 
ATOM     32  C   UNL     1      -7.465   0.373  -6.678  1.00  0.00    -0.014 A 
BRANCH  32  33
ATOM     33  C   UNL     1      -8.950   0.302  -6.692  1.00  0.00     0.031 A 
ATOM     34  C   UNL     1      -9.762   1.487  -7.137  1.00  0.00     0.074 A 
ATOM     35  C   UNL     1      -9.573  -0.792  -6.208  1.00  0.00     0.049 A 
ATOM     36  N   UNL     1     -11.059   1.659  -7.109  1.00  0.00    -0.248 NA
ATOM     37  C   UNL     1      -9.013   2.645  -7.649  1.00  0.00     0.031 C 
ATOM     38  C   UNL     1      -8.908  -1.987  -5.684  1.00  0.00     0.029 A 
ATOM     39  N   UNL     1     -10.911  -1.068  -6.061  1.00  0.00    -0.354 N 
ATOM     40  C   UNL     1     -11.279   2.948  -7.576  1.00  0.00     0.074 A 
ATOM     41  C   UNL     1      -9.980   3.531  -7.834  1.00  0.00     0.031 C 
ATOM     42  C   UNL     1      -9.838  -2.873  -5.292  1.00  0.00     0.029 A 
ATOM     43  C   UNL     1     -11.162  -2.298  -5.502  1.00  0.00     0.049 A 
ATOM     44  H   UNL     1     -11.622  -0.443  -6.330  1.00  0.00     0.167 HD
ATOM     45  C   UNL     1     -12.456   3.582  -7.794  1.00  0.00     0.037 A 
ATOM     46  C   UNL     1     -12.328  -2.894  -5.187  1.00  0.00     0.037 A 
ATOM     47  C   UNL     1     -13.750   2.994  -7.572  1.00  0.00     0.049 A 
ATOM     48  C   UNL     1     -13.622  -2.179  -5.460  1.00  0.00     0.074 A 
ATOM     49  C   UNL     1     -14.999   3.536  -7.824  1.00  0.00     0.029 A 
ATOM     50  N   UNL     1     -13.962   1.728  -7.048  1.00  0.00    -0.354 N 
ATOM     51  N   UNL     1     -13.815  -0.985  -5.963  1.00  0.00    -0.248 NA
ATOM     52  C   UNL     1     -14.860  -2.898  -5.126  1.00  0.00     0.031 C 
ATOM     53  C   UNL     1     -15.967   2.608  -7.426  1.00  0.00     0.029 A 
ATOM     54  C   UNL     1     -15.321   1.475  -6.959  1.00  0.00     0.049 A 
ATOM     55  H   UNL     1     -13.252   1.101  -6.779  1.00  0.00     0.167 HD
ATOM     56  C   UNL     1     -15.192  -0.818  -6.029  1.00  0.00     0.074 A 
ATOM     57  C   UNL     1     -15.787  -2.038  -5.527  1.00  0.00     0.031 C 
ATOM     58  C   UNL     1     -15.899   0.252  -6.467  1.00  0.00     0.037 A 
BRANCH  45  59
ATOM     59  C   UNL     1     -12.393   4.988  -8.314  1.00  0.00     0.057 A 
ATOM     60  C   UNL     1     -11.995   5.268  -9.627  1.00  0.00     0.134 A 
ATOM     61  C   UNL     1     -12.755   6.070  -7.503  1.00  0.00     0.134 A 
ATOM     62  F   UNL     1     -11.622   4.276 -10.451  1.00  0.00    -0.206 F 
ATOM     63  C   UNL     1     -11.933   6.577 -10.108  1.00  0.00     0.040 A 
ATOM     64  C   UNL     1     -12.722   7.381  -7.979  1.00  0.00     0.040 A 
ATOM     65  F   UNL     1     -13.151   5.870  -6.236  1.00  0.00    -0.206 F 
ATOM     66  C   UNL     1     -12.303   7.638  -9.284  1.00  0.00     0.006 A 
ENDBRANCH  45  59
BRANCH  46  67
ATOM     67  C   UNL     1     -12.331  -4.257  -4.600  1.00  0.00     0.057 A 
ATOM     68  C   UNL     1     -12.749  -5.362  -5.351  1.00  0.00     0.134 A 
ATOM     69  C   UNL     1     -11.927  -4.489  -3.281  1.00  0.00     0.134 A 
ATOM     70  F   UNL     1     -13.167  -5.199  -6.615  1.00  0.00    -0.206 F 
ATOM     71  C   UNL     1     -12.783  -6.646  -4.806  1.00  0.00     0.040 A 
ATOM     72  C   UNL     1     -11.935  -5.771  -2.729  1.00  0.00     0.040 A 
ATOM     73  F   UNL     1     -11.509  -3.472  -2.512  1.00  0.00    -0.206 F 
ATOM     74  C   UNL     1     -12.371  -6.854  -3.492  1.00  0.00     0.006 A 
ENDBRANCH  46  67
BRANCH  58  75
ATOM     75  C   UNL     1     -17.394   0.138  -6.454  1.00  0.00     0.057 A 
ATOM     76  C   UNL     1     -18.129   0.211  -5.265  1.00  0.00     0.134 A 
ATOM     77  C   UNL     1     -18.107  -0.007  -7.650  1.00  0.00     0.134 A 
ATOM     78  F   UNL     1     -17.502   0.336  -4.085  1.00  0.00    -0.206 F 
ATOM     79  C   UNL     1     -19.522   0.127  -5.264  1.00  0.00     0.040 A 
ATOM     80  C   UNL     1     -19.501  -0.070  -7.665  1.00  0.00     0.040 A 
ATOM     81  F   UNL     1     -17.462  -0.077  -8.824  1.00  0.00    -0.206 F 
ATOM     82  C   UNL     1     -20.212  -0.008  -6.468  1.00  0.00     0.006 A 
ENDBRANCH  58  75
ENDBRANCH  32  33
ENDBRANCH  24  27
ENDBRANCH  22  23
ENDBRANCH  21  22
ENDBRANCH   1  21
TORSDOF 15
