REMARK SMILES O=C(NCCCCNC(=O)[C@H]1CC[C@@H](CNC(=O)N2CCO[C@@H]3CCC[C@H]32)O1)c1ccc(-c2c3nc(c(-c4c(F)cccc4F)c4ccc([nH]4)c(-c4c(F)cccc4F)c4nc(c(-c5c(F)cccc5F)c5ccc2[nH]5)C=C4)C=C3)cc1
REMARK SMILES IDX 6 1 5 2 4 3 3 4 1 5 2 6 29 8 30 9 82 10 31 11 81 12 32 13
REMARK SMILES IDX 33 14 34 15 75 16 35 17 80 18 74 19 76 20 36 21 79 22 73 23
REMARK SMILES IDX 72 24 37 26 63 27 46 28 62 29 47 30 50 31 61 32 77 33 48 34
REMARK SMILES IDX 49 35 60 37 78 38 51 39 38 40 39 41 44 42 40 43 41 44 43 45
REMARK SMILES IDX 45 46 42 47 64 48 65 49 70 50 66 51 67 52 69 53 71 54 68 55
REMARK SMILES IDX 52 56 53 57 58 58 54 59 55 60 57 61 59 62 56 63 7 64 8 65
REMARK SMILES IDX 9 66 10 68 11 69 12 70 28 71 13 72 14 73 15 74 16 75 17 76
REMARK SMILES IDX 18 78 19 79 20 80 27 81 21 82 23 83 26 84 22 85 24 86 25 87
REMARK H PARENT 3 7 76 25 50 36 8 67 16 77
REMARK Flexibility Score: inf
ROOT
ATOM      1  C   UNL     1       6.997  -9.750   4.196  1.00  0.00     0.023 C 
ENDROOT
BRANCH   1   2
ATOM      2  C   UNL     1       7.273 -10.272   5.605  1.00  0.00     0.023 C 
BRANCH   2   3
ATOM      3  C   UNL     1       6.062 -10.885   6.297  1.00  0.00     0.116 C 
BRANCH   3   4
ATOM      4  N   UNL     1       5.487 -12.005   5.566  1.00  0.00    -0.352 N 
ATOM      5  O   UNL     1       4.593 -14.069   5.333  1.00  0.00    -0.269 OA
ATOM      6  C   UNL     1       4.952 -13.165   6.073  1.00  0.00     0.251 C 
ATOM      7  H   UNL     1       5.481 -11.920   4.585  1.00  0.00     0.163 HD
BRANCH   6   8
ATOM      8  C   UNL     1       4.859 -13.310   7.538  1.00  0.00     0.039 A 
ATOM      9  C   UNL     1       4.267 -12.304   8.306  1.00  0.00     0.014 A 
ATOM     10  C   UNL     1       5.432 -14.431   8.143  1.00  0.00     0.014 A 
ATOM     11  C   UNL     1       4.369 -12.353   9.690  1.00  0.00     0.010 A 
ATOM     12  C   UNL     1       5.468 -14.511   9.536  1.00  0.00     0.010 A 
ATOM     13  C   UNL     1       4.968 -13.457  10.316  1.00  0.00    -0.014 A 
BRANCH  13  14
ATOM     14  C   UNL     1       5.032 -13.511  11.795  1.00  0.00     0.031 A 
ATOM     15  C   UNL     1       6.349 -13.454  12.514  1.00  0.00     0.074 A 
ATOM     16  C   UNL     1       3.881 -13.601  12.487  1.00  0.00     0.049 A 
ATOM     17  N   UNL     1       6.589 -13.530  13.798  1.00  0.00    -0.248 NA
ATOM     18  C   UNL     1       7.554 -13.298  11.685  1.00  0.00     0.031 C 
ATOM     19  C   UNL     1       2.545 -13.662  11.891  1.00  0.00     0.029 A 
ATOM     20  N   UNL     1       3.649 -13.649  13.835  1.00  0.00    -0.354 N 
ATOM     21  C   UNL     1       7.969 -13.458  13.932  1.00  0.00     0.074 A 
ATOM     22  C   UNL     1       8.517 -13.347  12.596  1.00  0.00     0.031 C 
ATOM     23  C   UNL     1       1.630 -13.707  12.870  1.00  0.00     0.029 A 
ATOM     24  C   UNL     1       2.318 -13.738  14.156  1.00  0.00     0.049 A 
ATOM     25  H   UNL     1       4.367 -13.622  14.509  1.00  0.00     0.167 HD
ATOM     26  C   UNL     1       8.708 -13.482  15.067  1.00  0.00     0.037 A 
ATOM     27  C   UNL     1       1.716 -13.855  15.353  1.00  0.00     0.037 A 
ATOM     28  C   UNL     1       8.153 -13.571  16.393  1.00  0.00     0.049 A 
ATOM     29  C   UNL     1       2.558 -13.893  16.592  1.00  0.00     0.074 A 
ATOM     30  C   UNL     1       8.816 -13.570  17.609  1.00  0.00     0.029 A 
ATOM     31  N   UNL     1       6.800 -13.677  16.677  1.00  0.00    -0.354 N 
ATOM     32  N   UNL     1       3.861 -13.816  16.704  1.00  0.00    -0.248 NA
ATOM     33  C   UNL     1       1.847 -14.042  17.868  1.00  0.00     0.031 C 
ATOM     34  C   UNL     1       7.866 -13.710  18.626  1.00  0.00     0.029 A 
ATOM     35  C   UNL     1       6.608 -13.760  18.047  1.00  0.00     0.049 A 
ATOM     36  H   UNL     1       6.081 -13.692  16.005  1.00  0.00     0.167 HD
ATOM     37  C   UNL     1       4.130 -13.895  18.063  1.00  0.00     0.074 A 
ATOM     38  C   UNL     1       2.850 -14.010  18.735  1.00  0.00     0.031 C 
ATOM     39  C   UNL     1       5.327 -13.876  18.696  1.00  0.00     0.037 A 
BRANCH  26  40
ATOM     40  C   UNL     1      10.201 -13.432  14.924  1.00  0.00     0.057 A 
ATOM     41  C   UNL     1      10.874 -12.256  14.571  1.00  0.00     0.134 A 
ATOM     42  C   UNL     1      10.978 -14.570  15.178  1.00  0.00     0.134 A 
ATOM     43  F   UNL     1      10.188 -11.136  14.300  1.00  0.00    -0.206 F 
ATOM     44  C   UNL     1      12.265 -12.217  14.458  1.00  0.00     0.040 A 
ATOM     45  C   UNL     1      12.371 -14.538  15.089  1.00  0.00     0.040 A 
ATOM     46  F   UNL     1      10.397 -15.728  15.525  1.00  0.00    -0.206 F 
ATOM     47  C   UNL     1      13.018 -13.360  14.724  1.00  0.00     0.006 A 
ENDBRANCH  26  40
BRANCH  27  48
ATOM     48  C   UNL     1       0.239 -13.951  15.417  1.00  0.00     0.057 A 
ATOM     49  C   UNL     1      -0.534 -12.883  15.882  1.00  0.00     0.134 A 
ATOM     50  C   UNL     1      -0.435 -15.094  14.970  1.00  0.00     0.134 A 
ATOM     51  F   UNL     1       0.058 -11.768  16.335  1.00  0.00    -0.206 F 
ATOM     52  C   UNL     1      -1.928 -12.948  15.904  1.00  0.00     0.040 A 
ATOM     53  C   UNL     1      -1.828 -15.164  14.964  1.00  0.00     0.040 A 
ATOM     54  F   UNL     1       0.253 -16.146  14.502  1.00  0.00    -0.206 F 
ATOM     55  C   UNL     1      -2.578 -14.089  15.435  1.00  0.00     0.006 A 
ENDBRANCH  27  48
BRANCH  39  56
ATOM     56  C   UNL     1       5.303 -13.961  20.191  1.00  0.00     0.057 A 
ATOM     57  C   UNL     1       5.047 -15.167  20.854  1.00  0.00     0.134 A 
ATOM     58  C   UNL     1       5.564 -12.830  20.974  1.00  0.00     0.134 A 
ATOM     59  F   UNL     1       4.775 -16.282  20.158  1.00  0.00    -0.206 F 
ATOM     60  C   UNL     1       5.034 -15.242  22.248  1.00  0.00     0.040 A 
ATOM     61  C   UNL     1       5.573 -12.896  22.367  1.00  0.00     0.040 A 
ATOM     62  F   UNL     1       5.821 -11.647  20.396  1.00  0.00    -0.206 F 
ATOM     63  C   UNL     1       5.303 -14.104  23.008  1.00  0.00     0.006 A 
ENDBRANCH  39  56
ENDBRANCH  13  14
ENDBRANCH   6   8
ENDBRANCH   3   4
ENDBRANCH   2   3
ENDBRANCH   1   2
BRANCH   1  64
ATOM     64  C   UNL     1       6.004  -8.592   4.161  1.00  0.00     0.116 C 
BRANCH  64  65
ATOM     65  N   UNL     1       6.667  -7.347   4.479  1.00  0.00    -0.354 N 
ATOM     66  C   UNL     1       7.041  -6.332   3.645  1.00  0.00     0.249 C 
ATOM     67  H   UNL     1       6.877  -7.211   5.431  1.00  0.00     0.163 HD
ATOM     68  O   UNL     1       7.742  -5.431   4.113  1.00  0.00    -0.272 OA
BRANCH  66  69
ATOM     69  C   UNL     1       6.595  -6.310   2.174  1.00  0.00     0.207 C 
ATOM     70  C   UNL     1       7.198  -7.378   1.273  1.00  0.00     0.045 C 
ATOM     71  O   UNL     1       5.174  -6.434   2.092  1.00  0.00    -0.363 OA
ATOM     72  C   UNL     1       6.017  -8.029   0.576  1.00  0.00     0.037 C 
ATOM     73  C   UNL     1       4.846  -7.103   0.866  1.00  0.00     0.138 C 
BRANCH  73  74
ATOM     74  C   UNL     1       3.515  -7.841   1.054  1.00  0.00     0.149 C 
BRANCH  74  75
ATOM     75  N   UNL     1       2.506  -6.960   1.629  1.00  0.00    -0.335 N 
ATOM     76  C   UNL     1       1.678  -6.092   0.994  1.00  0.00     0.317 C 
ATOM     77  H   UNL     1       2.411  -7.001   2.608  1.00  0.00     0.165 HD
ATOM     78  O   UNL     1       1.252  -5.125   1.618  1.00  0.00    -0.249 OA
BRANCH  76  79
ATOM     79  N   UNL     1       1.397  -6.342  -0.320  1.00  0.00    -0.317 N 
ATOM     80  C   UNL     1       0.854  -7.652  -0.713  1.00  0.00     0.150 C 
ATOM     81  C   UNL     1       1.012  -5.296  -1.258  1.00  0.00     0.116 C 
ATOM     82  C   UNL     1      -0.655  -7.565  -1.032  1.00  0.00     0.182 C 
ATOM     83  C   UNL     1      -0.503  -5.270  -1.460  1.00  0.00     0.141 C 
ATOM     84  C   UNL     1       1.336  -3.825  -1.023  1.00  0.00     0.028 C 
ATOM     85  O   UNL     1      -0.953  -6.522  -1.982  1.00  0.00    -0.374 OA
ATOM     86  C   UNL     1      -0.659  -4.118  -2.440  1.00  0.00     0.034 C 
ATOM     87  C   UNL     1       0.386  -3.089  -1.986  1.00  0.00     0.005 C 
ENDBRANCH  76  79
ENDBRANCH  74  75
ENDBRANCH  73  74
ENDBRANCH  66  69
ENDBRANCH  64  65
ENDBRANCH   1  64
TORSDOF 14
