REMARK SMILES O=C(NCCCCNC(=O)[C@@H](Cc1ccncc1)c1ccc(Cl)cc1)c1ccc(-c2c3nc(c(-c4c(F)cccc4F)c4ccc([nH]4)c(-c4c(F)cccc4F)c4nc(c(-c5c(F)cccc5F)c5ccc2[nH]5)C=C4)C=C3)cc1
REMARK SMILES IDX 5 1 4 2 3 3 1 4 2 5 26 7 27 8 79 9 28 10 78 11 29 12 30 13
REMARK SMILES IDX 31 14 72 15 32 16 77 17 71 18 73 19 33 20 76 21 70 22 69 23
REMARK SMILES IDX 34 25 60 26 43 27 59 28 44 29 47 30 58 31 74 32 45 33 46 34
REMARK SMILES IDX 57 36 75 37 48 38 35 39 36 40 41 41 37 42 38 43 40 44 42 45
REMARK SMILES IDX 39 46 61 47 62 48 67 49 63 50 64 51 66 52 68 53 65 54 49 55
REMARK SMILES IDX 50 56 55 57 51 58 52 59 54 60 56 61 53 62 6 63 7 64 8 65
REMARK SMILES IDX 9 66 10 68 11 69 12 70 13 71 14 72 18 73 15 74 17 75 16 76
REMARK SMILES IDX 19 77 20 78 25 79 21 80 24 81 22 82 23 83
REMARK H PARENT 3 6 73 24 47 35 8 67
REMARK Flexibility Score: inf
ROOT
ATOM      1  C   UNL     1       5.557   2.334   0.704  1.00  0.00     0.023 C 
ENDROOT
BRANCH   1   2
ATOM      2  C   UNL     1       4.862   1.010   0.418  1.00  0.00     0.116 C 
BRANCH   2   3
ATOM      3  N   UNL     1       3.411   1.040   0.543  1.00  0.00    -0.352 N 
ATOM      4  O   UNL     1       1.291   0.429  -0.014  1.00  0.00    -0.269 OA
ATOM      5  C   UNL     1       2.499   0.313  -0.190  1.00  0.00     0.251 C 
ATOM      6  H   UNL     1       3.042   1.647   1.226  1.00  0.00     0.163 HD
BRANCH   5   7
ATOM      7  C   UNL     1       3.010  -0.578  -1.251  1.00  0.00     0.039 A 
ATOM      8  C   UNL     1       4.008  -1.512  -0.964  1.00  0.00     0.014 A 
ATOM      9  C   UNL     1       2.562  -0.393  -2.561  1.00  0.00     0.014 A 
ATOM     10  C   UNL     1       4.672  -2.142  -2.007  1.00  0.00     0.010 A 
ATOM     11  C   UNL     1       3.172  -1.095  -3.601  1.00  0.00     0.010 A 
ATOM     12  C   UNL     1       4.258  -1.945  -3.335  1.00  0.00    -0.014 A 
BRANCH  12  13
ATOM     13  C   UNL     1       4.929  -2.690  -4.427  1.00  0.00     0.031 A 
ATOM     14  C   UNL     1       5.700  -1.977  -5.502  1.00  0.00     0.074 A 
ATOM     15  C   UNL     1       4.830  -4.033  -4.437  1.00  0.00     0.049 A 
ATOM     16  N   UNL     1       6.295  -2.478  -6.555  1.00  0.00    -0.248 NA
ATOM     17  C   UNL     1       5.816  -0.514  -5.390  1.00  0.00     0.031 C 
ATOM     18  C   UNL     1       4.096  -4.829  -3.449  1.00  0.00     0.029 A 
ATOM     19  N   UNL     1       5.343  -4.965  -5.300  1.00  0.00    -0.354 N 
ATOM     20  C   UNL     1       6.823  -1.397  -7.248  1.00  0.00     0.074 A 
ATOM     21  C   UNL     1       6.479  -0.207  -6.498  1.00  0.00     0.031 C 
ATOM     22  C   UNL     1       4.226  -6.128  -3.748  1.00  0.00     0.029 A 
ATOM     23  C   UNL     1       4.991  -6.253  -4.982  1.00  0.00     0.049 A 
ATOM     24  H   UNL     1       5.909  -4.733  -6.072  1.00  0.00     0.167 HD
ATOM     25  C   UNL     1       7.529  -1.403  -8.404  1.00  0.00     0.037 A 
ATOM     26  C   UNL     1       5.221  -7.407  -5.631  1.00  0.00     0.037 A 
ATOM     27  C   UNL     1       7.902  -2.596  -9.119  1.00  0.00     0.049 A 
ATOM     28  C   UNL     1       5.987  -7.379  -6.918  1.00  0.00     0.074 A 
ATOM     29  C   UNL     1       8.699  -2.711 -10.246  1.00  0.00     0.029 A 
ATOM     30  N   UNL     1       7.498  -3.879  -8.783  1.00  0.00    -0.354 N 
ATOM     31  N   UNL     1       6.519  -6.353  -7.535  1.00  0.00    -0.248 NA
ATOM     32  C   UNL     1       6.169  -8.662  -7.607  1.00  0.00     0.031 C 
ATOM     33  C   UNL     1       8.740  -4.060 -10.617  1.00  0.00     0.029 A 
ATOM     34  C   UNL     1       7.997  -4.787  -9.702  1.00  0.00     0.049 A 
ATOM     35  H   UNL     1       6.939  -4.110  -8.006  1.00  0.00     0.167 HD
ATOM     36  C   UNL     1       7.095  -6.863  -8.688  1.00  0.00     0.074 A 
ATOM     37  C   UNL     1       6.872  -8.295  -8.670  1.00  0.00     0.031 C 
ATOM     38  C   UNL     1       7.745  -6.204  -9.677  1.00  0.00     0.037 A 
BRANCH  25  39
ATOM     39  C   UNL     1       7.939  -0.086  -8.990  1.00  0.00     0.057 A 
ATOM     40  C   UNL     1       9.011   0.654  -8.477  1.00  0.00     0.134 A 
ATOM     41  C   UNL     1       7.307   0.403 -10.141  1.00  0.00     0.134 A 
ATOM     42  F   UNL     1       9.653   0.243  -7.373  1.00  0.00    -0.206 F 
ATOM     43  C   UNL     1       9.438   1.836  -9.086  1.00  0.00     0.040 A 
ATOM     44  C   UNL     1       7.735   1.574 -10.768  1.00  0.00     0.040 A 
ATOM     45  F   UNL     1       6.278  -0.263 -10.687  1.00  0.00    -0.206 F 
ATOM     46  C   UNL     1       8.805   2.294 -10.241  1.00  0.00     0.006 A 
ENDBRANCH  25  39
BRANCH  26  47
ATOM     47  C   UNL     1       4.671  -8.671  -5.088  1.00  0.00     0.057 A 
ATOM     48  C   UNL     1       5.504  -9.639  -4.520  1.00  0.00     0.134 A 
ATOM     49  C   UNL     1       3.294  -8.924  -5.098  1.00  0.00     0.134 A 
ATOM     50  F   UNL     1       6.833  -9.458  -4.497  1.00  0.00    -0.206 F 
ATOM     51  C   UNL     1       4.987 -10.818  -3.982  1.00  0.00     0.040 A 
ATOM     52  C   UNL     1       2.761 -10.086  -4.542  1.00  0.00     0.040 A 
ATOM     53  F   UNL     1       2.445  -8.027  -5.622  1.00  0.00    -0.206 F 
ATOM     54  C   UNL     1       3.610 -11.040  -3.985  1.00  0.00     0.006 A 
ENDBRANCH  26  47
BRANCH  38  55
ATOM     55  C   UNL     1       8.247  -7.029 -10.820  1.00  0.00     0.057 A 
ATOM     56  C   UNL     1       7.377  -7.504 -11.809  1.00  0.00     0.134 A 
ATOM     57  C   UNL     1       9.607  -7.332 -10.946  1.00  0.00     0.134 A 
ATOM     58  F   UNL     1       6.061  -7.260 -11.731  1.00  0.00    -0.206 F 
ATOM     59  C   UNL     1       7.843  -8.267 -12.880  1.00  0.00     0.040 A 
ATOM     60  C   UNL     1      10.088  -8.078 -12.022  1.00  0.00     0.040 A 
ATOM     61  F   UNL     1      10.489  -6.902 -10.031  1.00  0.00    -0.206 F 
ATOM     62  C   UNL     1       9.204  -8.551 -12.991  1.00  0.00     0.006 A 
ENDBRANCH  38  55
ENDBRANCH  12  13
ENDBRANCH   5   7
ENDBRANCH   2   3
ENDBRANCH   1   2
BRANCH   1  63
ATOM     63  C   UNL     1       5.383   2.832   2.132  1.00  0.00     0.023 C 
BRANCH  63  64
ATOM     64  C   UNL     1       5.970   1.916   3.204  1.00  0.00     0.116 C 
BRANCH  64  65
ATOM     65  N   UNL     1       7.114   2.518   3.850  1.00  0.00    -0.356 N 
ATOM     66  C   UNL     1       7.246   3.118   5.061  1.00  0.00     0.227 C 
ATOM     67  H   UNL     1       7.943   2.489   3.320  1.00  0.00     0.163 HD
ATOM     68  O   UNL     1       8.390   3.473   5.367  1.00  0.00    -0.274 OA
BRANCH  66  69
ATOM     69  C   UNL     1       6.078   3.376   6.024  1.00  0.00     0.113 C 
BRANCH  69  70
ATOM     70  C   UNL     1       5.063   4.431   5.499  1.00  0.00     0.054 C 
BRANCH  70  71
ATOM     71  C   UNL     1       3.805   4.097   4.719  1.00  0.00    -0.044 A 
ATOM     72  C   UNL     1       3.315   5.059   3.820  1.00  0.00     0.024 A 
ATOM     73  C   UNL     1       3.044   2.935   4.876  1.00  0.00     0.024 A 
ATOM     74  C   UNL     1       2.164   4.792   3.090  1.00  0.00     0.111 A 
ATOM     75  C   UNL     1       1.905   2.753   4.101  1.00  0.00     0.111 A 
ATOM     76  N   UNL     1       1.461   3.648   3.199  1.00  0.00    -0.265 NA
ENDBRANCH  70  71
ENDBRANCH  69  70
BRANCH  69  77
ATOM     77  C   UNL     1       5.542   2.191   6.818  1.00  0.00    -0.035 A 
ATOM     78  C   UNL     1       4.624   2.432   7.862  1.00  0.00     0.006 A 
ATOM     79  C   UNL     1       5.926   0.864   6.574  1.00  0.00     0.006 A 
ATOM     80  C   UNL     1       4.045   1.379   8.573  1.00  0.00     0.021 A 
ATOM     81  C   UNL     1       5.349  -0.192   7.289  1.00  0.00     0.021 A 
ATOM     82  C   UNL     1       4.401   0.069   8.274  1.00  0.00     0.041 A 
ATOM     83  Cl  UNL     1       3.663  -1.232   9.121  1.00  0.00    -0.084 Cl
ENDBRANCH  69  77
ENDBRANCH  66  69
ENDBRANCH  64  65
ENDBRANCH  63  64
ENDBRANCH   1  63
TORSDOF 14
