REMARK SMILES CC(=O)Nc1nc(C[N@@H+]2CCO[C@@H](CC(=O)NCCCCNC(=O)c3ccc(-c4c5nc(c(-c6c(F)cccc6F)c6ccc([nH]6)c(-c6c(F)cccc6F)c6nc(c(-c7c(F)cccc7F)c7ccc4[nH]7)C=C6)C=C5)cc3)C2)cs1
REMARK SMILES IDX 18 1 17 2 15 3 16 4 14 6 13 7 9 8 10 9 79 10 11 12 12 13
REMARK SMILES IDX 8 14 7 15 5 16 6 17 81 18 80 19 4 20 1 21 2 22 3 23 19 25
REMARK SMILES IDX 20 26 21 27 22 28 23 29 24 31 25 32 26 33 78 34 27 35 77 36
REMARK SMILES IDX 28 37 29 38 30 39 71 40 31 41 76 42 70 43 72 44 32 45 75 46
REMARK SMILES IDX 69 47 68 48 33 50 59 51 42 52 58 53 43 54 46 55 57 56 73 57
REMARK SMILES IDX 44 58 45 59 56 61 74 62 47 63 34 64 35 65 40 66 36 67 37 68
REMARK SMILES IDX 39 69 41 70 38 71 60 72 61 73 66 74 62 75 63 76 65 77 67 78
REMARK SMILES IDX 64 79 48 80 49 81 54 82 50 83 51 84 53 85 55 86 52 87
REMARK H PARENT 17 5 9 11 4 24 22 30 72 49 46 60
REMARK Flexibility Score: inf
ROOT
ATOM      1  C   UNL     1       8.984   2.999   0.246  1.00  0.00     0.116 C 
ENDROOT
BRANCH   1   2
ATOM      2  N   UNL     1       8.360   3.223  -1.048  1.00  0.00    -0.356 N 
ATOM      3  C   UNL     1       7.539   4.227  -1.474  1.00  0.00     0.222 C 
ATOM      4  O   UNL     1       7.043   4.136  -2.598  1.00  0.00    -0.275 OA
ATOM      5  H   UNL     1       8.563   2.540  -1.728  1.00  0.00     0.163 HD
BRANCH   3   6
ATOM      6  C   UNL     1       7.247   5.420  -0.592  1.00  0.00     0.138 C 
BRANCH   6   7
ATOM      7  C   UNL     1       5.908   5.337   0.151  1.00  0.00     0.182 C 
ATOM      8  N   UNL     1       4.927   4.118   2.186  1.00  0.00    -0.326 N 
ATOM      9  C   UNL     1       4.741   5.416   2.801  1.00  0.00     0.291 C 
ATOM     10  C   UNL     1       5.839   4.090   1.060  1.00  0.00     0.295 C 
ATOM     11  H   UNL     1       5.457   3.670   2.934  1.00  0.00     0.348 HD
ATOM     12  C   UNL     1       4.632   6.529   1.753  1.00  0.00     0.222 C 
ATOM     13  O   UNL     1       5.796   6.553   0.920  1.00  0.00    -0.366 OA
BRANCH   8  14
ATOM     14  C   UNL     1       3.953   3.055   2.348  1.00  0.00     0.320 C 
BRANCH  14  15
ATOM     15  C   UNL     1       2.722   3.265   1.517  1.00  0.00     0.108 A 
ATOM     16  C   UNL     1       1.278   2.688  -0.048  1.00  0.00     0.189 A 
ATOM     17  N   UNL     1       2.340   2.286   0.601  1.00  0.00    -0.219 NA
ATOM     18  S   UNL     1       0.667   4.226   0.358  1.00  0.00    -0.105 S 
ATOM     19  C   UNL     1       1.839   4.329   1.599  1.00  0.00     0.098 A 
BRANCH  16  20
ATOM     20  N   UNL     1       0.559   2.052  -1.013  1.00  0.00    -0.302 N 
ATOM     21  C   UNL     1       1.342  -0.222  -0.396  1.00  0.00     0.114 C 
ATOM     22  C   UNL     1       0.609   0.726  -1.307  1.00  0.00     0.223 C 
ATOM     23  O   UNL     1      -0.008   0.308  -2.290  1.00  0.00    -0.275 OA
ATOM     24  H   UNL     1      -0.055   2.604  -1.549  1.00  0.00     0.172 HD
ENDBRANCH  16  20
ENDBRANCH  14  15
ENDBRANCH   8  14
ENDBRANCH   6   7
ENDBRANCH   3   6
ENDBRANCH   1   2
BRANCH   1  25
ATOM     25  C   UNL     1       8.257   1.898   1.025  1.00  0.00     0.023 C 
BRANCH  25  26
ATOM     26  C   UNL     1       8.716   0.482   0.719  1.00  0.00     0.023 C 
BRANCH  26  27
ATOM     27  C   UNL     1      10.112   0.162   1.221  1.00  0.00     0.116 C 
BRANCH  27  28
ATOM     28  N   UNL     1      10.248   0.282   2.668  1.00  0.00    -0.352 N 
ATOM     29  C   UNL     1      10.757  -0.626   3.569  1.00  0.00     0.251 C 
ATOM     30  H   UNL     1       9.931   1.130   3.055  1.00  0.00     0.163 HD
ATOM     31  O   UNL     1      10.703  -0.417   4.772  1.00  0.00    -0.269 OA
BRANCH  29  32
ATOM     32  C   UNL     1      11.328  -1.886   3.053  1.00  0.00     0.039 A 
ATOM     33  C   UNL     1      10.873  -3.099   3.574  1.00  0.00     0.014 A 
ATOM     34  C   UNL     1      12.221  -1.859   1.980  1.00  0.00     0.014 A 
ATOM     35  C   UNL     1      11.230  -4.289   2.940  1.00  0.00     0.010 A 
ATOM     36  C   UNL     1      12.493  -3.033   1.294  1.00  0.00     0.010 A 
ATOM     37  C   UNL     1      11.988  -4.258   1.758  1.00  0.00    -0.014 A 
BRANCH  37  38
ATOM     38  C   UNL     1      12.250  -5.484   0.966  1.00  0.00     0.031 A 
ATOM     39  C   UNL     1      13.664  -5.933   0.736  1.00  0.00     0.074 A 
ATOM     40  C   UNL     1      11.226  -6.123   0.368  1.00  0.00     0.049 A 
ATOM     41  N   UNL     1      14.112  -6.890  -0.035  1.00  0.00    -0.248 NA
ATOM     42  C   UNL     1      14.719  -5.181   1.436  1.00  0.00     0.031 C 
ATOM     43  C   UNL     1       9.814  -5.745   0.465  1.00  0.00     0.029 A 
ATOM     44  N   UNL     1      11.218  -7.217  -0.461  1.00  0.00    -0.354 N 
ATOM     45  C   UNL     1      15.495  -6.838   0.068  1.00  0.00     0.074 A 
ATOM     46  C   UNL     1      15.816  -5.724   0.933  1.00  0.00     0.031 C 
ATOM     47  C   UNL     1       9.076  -6.605  -0.256  1.00  0.00     0.029 A 
ATOM     48  C   UNL     1       9.964  -7.567  -0.900  1.00  0.00     0.049 A 
ATOM     49  H   UNL     1      12.034  -7.705  -0.716  1.00  0.00     0.167 HD
ATOM     50  C   UNL     1      16.414  -7.661  -0.487  1.00  0.00     0.037 A 
ATOM     51  C   UNL     1       9.576  -8.545  -1.740  1.00  0.00     0.037 A 
ATOM     52  C   UNL     1      16.087  -8.793  -1.311  1.00  0.00     0.049 A 
ATOM     53  C   UNL     1      10.616  -9.445  -2.345  1.00  0.00     0.074 A 
ATOM     54  C   UNL     1      16.937  -9.745  -1.844  1.00  0.00     0.029 A 
ATOM     55  N   UNL     1      14.804  -9.125  -1.720  1.00  0.00    -0.354 N 
ATOM     56  N   UNL     1      11.916  -9.432  -2.178  1.00  0.00    -0.248 NA
ATOM     57  C   UNL     1      10.137 -10.491  -3.260  1.00  0.00     0.031 C 
ATOM     58  C   UNL     1      16.173 -10.632  -2.609  1.00  0.00     0.029 A 
ATOM     59  C   UNL     1      14.843 -10.251  -2.524  1.00  0.00     0.049 A 
ATOM     60  H   UNL     1      13.988  -8.632  -1.476  1.00  0.00     0.167 HD
ATOM     61  C   UNL     1      12.409 -10.472  -2.955  1.00  0.00     0.074 A 
ATOM     62  C   UNL     1      11.267 -11.107  -3.579  1.00  0.00     0.031 C 
ATOM     63  C   UNL     1      13.693 -10.863  -3.139  1.00  0.00     0.037 A 
BRANCH  50  64
ATOM     64  C   UNL     1      17.858  -7.371  -0.208  1.00  0.00     0.057 A 
ATOM     65  C   UNL     1      18.422  -7.588   1.056  1.00  0.00     0.134 A 
ATOM     66  C   UNL     1      18.699  -6.891  -1.219  1.00  0.00     0.134 A 
ATOM     67  F   UNL     1      17.665  -8.031   2.071  1.00  0.00    -0.206 F 
ATOM     68  C   UNL     1      19.766  -7.313   1.312  1.00  0.00     0.040 A 
ATOM     69  C   UNL     1      20.051  -6.636  -0.982  1.00  0.00     0.040 A 
ATOM     70  F   UNL     1      18.222  -6.664  -2.452  1.00  0.00    -0.206 F 
ATOM     71  C   UNL     1      20.586  -6.841   0.289  1.00  0.00     0.006 A 
ENDBRANCH  50  64
BRANCH  51  72
ATOM     72  C   UNL     1       8.137  -8.730  -2.053  1.00  0.00     0.057 A 
ATOM     73  C   UNL     1       7.429  -9.829  -1.552  1.00  0.00     0.134 A 
ATOM     74  C   UNL     1       7.437  -7.822  -2.856  1.00  0.00     0.134 A 
ATOM     75  F   UNL     1       8.052 -10.742  -0.793  1.00  0.00    -0.206 F 
ATOM     76  C   UNL     1       6.080 -10.026  -1.849  1.00  0.00     0.040 A 
ATOM     77  C   UNL     1       6.082  -7.996  -3.144  1.00  0.00     0.040 A 
ATOM     78  F   UNL     1       8.058  -6.747  -3.361  1.00  0.00    -0.206 F 
ATOM     79  C   UNL     1       5.402  -9.104  -2.644  1.00  0.00     0.006 A 
ENDBRANCH  51  72
BRANCH  63  80
ATOM     80  C   UNL     1      13.928 -12.031  -4.047  1.00  0.00     0.057 A 
ATOM     81  C   UNL     1      13.831 -11.907  -5.438  1.00  0.00     0.134 A 
ATOM     82  C   UNL     1      14.303 -13.277  -3.529  1.00  0.00     0.134 A 
ATOM     83  F   UNL     1      13.462 -10.742  -5.992  1.00  0.00    -0.206 F 
ATOM     84  C   UNL     1      14.088 -12.987  -6.284  1.00  0.00     0.040 A 
ATOM     85  C   UNL     1      14.583 -14.358  -4.366  1.00  0.00     0.040 A 
ATOM     86  F   UNL     1      14.420 -13.457  -2.205  1.00  0.00    -0.206 F 
ATOM     87  C   UNL     1      14.473 -14.214  -5.747  1.00  0.00     0.006 A 
ENDBRANCH  63  80
ENDBRANCH  37  38
ENDBRANCH  29  32
ENDBRANCH  27  28
ENDBRANCH  26  27
ENDBRANCH  25  26
ENDBRANCH   1  25
TORSDOF 15
