REMARK SMILES O=C(NCCCCNC(=O)c1ccc(-c2c3nc(c(-c4c(F)cccc4F)c4ccc([nH]4)c(-c4c(F)cccc4F)c4nc(c(-c5c(F)cccc5F)c5ccc2[nH]5)C=C4)C=C3)cc1)C1=N[C@@H]2NC=NN2[C@@H]([C@H]2C=NN=C2c2ccc(F)cc2)C1
REMARK SMILES IDX 5 1 4 2 3 3 1 4 2 5 65 7 66 8 85 9 67 10 72 11 68 12 71 13
REMARK SMILES IDX 69 14 70 16 73 17 74 18 77 19 75 20 76 21 78 22 79 23 84 24
REMARK SMILES IDX 80 25 83 26 81 27 82 28 6 29 7 30 8 31 9 32 10 34 11 35
REMARK SMILES IDX 12 36 64 37 13 38 63 39 14 40 15 41 16 42 57 43 17 44 62 45
REMARK SMILES IDX 56 46 58 47 18 48 61 49 55 50 54 51 19 53 45 54 28 55 44 56
REMARK SMILES IDX 29 57 32 58 43 59 59 60 30 61 31 62 42 64 60 65 33 66 20 67
REMARK SMILES IDX 21 68 26 69 22 70 23 71 25 72 27 73 24 74 46 75 47 76 52 77
REMARK SMILES IDX 48 78 49 79 51 80 53 81 50 82 34 83 35 84 40 85 36 86 37 87
REMARK SMILES IDX 39 88 41 89 38 90
REMARK H PARENT 3 6 68 15 8 33 58 52 32 63
REMARK Flexibility Score: inf
ROOT
ATOM      1  C   UNL     1      11.751  -0.328  -5.655  1.00  0.00     0.023 C 
ENDROOT
BRANCH   1   2
ATOM      2  C   UNL     1      10.329  -0.713  -5.262  1.00  0.00     0.116 C 
BRANCH   2   3
ATOM      3  N   UNL     1      10.172  -1.965  -4.552  1.00  0.00    -0.351 N 
ATOM      4  O   UNL     1       9.073  -3.561  -3.399  1.00  0.00    -0.268 OA
ATOM      5  C   UNL     1       9.131  -2.386  -3.747  1.00  0.00     0.265 C 
ATOM      6  H   UNL     1      10.911  -2.607  -4.659  1.00  0.00     0.163 HD
BRANCH   5   7
ATOM      7  C   UNL     1       8.090  -1.399  -3.189  1.00  0.00     0.106 C 
ATOM      8  N   UNL     1       7.840  -1.481  -1.928  1.00  0.00    -0.237 NA
ATOM      9  C   UNL     1       7.392  -0.460  -4.130  1.00  0.00     0.090 C 
ATOM     10  C   UNL     1       7.089  -0.431  -1.287  1.00  0.00     0.319 C 
ATOM     11  C   UNL     1       6.394   0.445  -3.414  1.00  0.00     0.127 C 
ATOM     12  N   UNL     1       5.843  -0.730  -0.641  1.00  0.00    -0.335 N 
ATOM     13  N   UNL     1       6.810   0.815  -2.042  1.00  0.00    -0.249 NA
ATOM     14  C   UNL     1       5.189   0.467  -0.642  1.00  0.00     0.217 C 
ATOM     15  H   UNL     1       5.535  -1.593  -0.281  1.00  0.00     0.165 HD
ATOM     16  N   UNL     1       5.721   1.423  -1.362  1.00  0.00    -0.164 NA
BRANCH  11  17
ATOM     17  C   UNL     1       6.019   1.727  -4.181  1.00  0.00     0.109 C 
ATOM     18  C   UNL     1       7.167   2.656  -4.394  1.00  0.00     0.120 C 
ATOM     19  C   UNL     1       5.700   1.485  -5.624  1.00  0.00     0.081 C 
ATOM     20  N   UNL     1       7.429   2.866  -5.642  1.00  0.00    -0.162 NA
ATOM     21  N   UNL     1       6.505   2.113  -6.428  1.00  0.00    -0.155 NA
BRANCH  19  22
ATOM     22  C   UNL     1       4.668   0.524  -6.048  1.00  0.00    -0.001 A 
ATOM     23  C   UNL     1       3.606   0.175  -5.203  1.00  0.00     0.013 A 
ATOM     24  C   UNL     1       4.864  -0.154  -7.256  1.00  0.00     0.013 A 
ATOM     25  C   UNL     1       2.780  -0.897  -5.542  1.00  0.00     0.040 A 
ATOM     26  C   UNL     1       4.033  -1.222  -7.590  1.00  0.00     0.040 A 
ATOM     27  C   UNL     1       3.009  -1.592  -6.725  1.00  0.00     0.123 A 
ATOM     28  F   UNL     1       2.240  -2.645  -7.027  1.00  0.00    -0.207 F 
ENDBRANCH  19  22
ENDBRANCH  11  17
ENDBRANCH   5   7
ENDBRANCH   2   3
ENDBRANCH   1   2
BRANCH   1  29
ATOM     29  C   UNL     1      12.545  -1.313  -6.503  1.00  0.00     0.023 C 
BRANCH  29  30
ATOM     30  C   UNL     1      11.886  -1.796  -7.788  1.00  0.00     0.116 C 
BRANCH  30  31
ATOM     31  N   UNL     1      11.589  -0.732  -8.735  1.00  0.00    -0.352 N 
ATOM     32  C   UNL     1      12.018  -0.536 -10.025  1.00  0.00     0.251 C 
ATOM     33  H   UNL     1      10.980  -0.036  -8.394  1.00  0.00     0.163 HD
ATOM     34  O   UNL     1      11.711   0.504 -10.613  1.00  0.00    -0.269 OA
BRANCH  32  35
ATOM     35  C   UNL     1      12.866  -1.532 -10.720  1.00  0.00     0.039 A 
ATOM     36  C   UNL     1      13.905  -1.078 -11.539  1.00  0.00     0.014 A 
ATOM     37  C   UNL     1      12.633  -2.904 -10.604  1.00  0.00     0.014 A 
ATOM     38  C   UNL     1      14.741  -1.995 -12.185  1.00  0.00     0.010 A 
ATOM     39  C   UNL     1      13.527  -3.815 -11.164  1.00  0.00     0.010 A 
ATOM     40  C   UNL     1      14.581  -3.374 -11.977  1.00  0.00    -0.014 A 
BRANCH  40  41
ATOM     41  C   UNL     1      15.471  -4.365 -12.642  1.00  0.00     0.031 A 
ATOM     42  C   UNL     1      14.893  -5.372 -13.604  1.00  0.00     0.074 A 
ATOM     43  C   UNL     1      16.789  -4.387 -12.360  1.00  0.00     0.049 A 
ATOM     44  N   UNL     1      15.490  -6.348 -14.241  1.00  0.00    -0.248 NA
ATOM     45  C   UNL     1      13.446  -5.290 -13.862  1.00  0.00     0.031 C 
ATOM     46  C   UNL     1      17.471  -3.502 -11.413  1.00  0.00     0.029 A 
ATOM     47  N   UNL     1      17.793  -5.192 -12.841  1.00  0.00    -0.354 N 
ATOM     48  C   UNL     1      14.495  -6.990 -14.969  1.00  0.00     0.074 A 
ATOM     49  C   UNL     1      13.245  -6.346 -14.635  1.00  0.00     0.031 C 
ATOM     50  C   UNL     1      18.781  -3.797 -11.400  1.00  0.00     0.029 A 
ATOM     51  C   UNL     1      19.029  -4.912 -12.307  1.00  0.00     0.049 A 
ATOM     52  H   UNL     1      17.642  -5.903 -13.505  1.00  0.00     0.167 HD
ATOM     53  C   UNL     1      14.612  -7.998 -15.867  1.00  0.00     0.037 A 
ATOM     54  C   UNL     1      20.225  -5.494 -12.522  1.00  0.00     0.037 A 
ATOM     55  C   UNL     1      15.856  -8.632 -16.214  1.00  0.00     0.049 A 
ATOM     56  C   UNL     1      20.325  -6.622 -13.515  1.00  0.00     0.074 A 
ATOM     57  C   UNL     1      16.081  -9.654 -17.120  1.00  0.00     0.029 A 
ATOM     58  N   UNL     1      17.089  -8.297 -15.675  1.00  0.00    -0.354 N 
ATOM     59  N   UNL     1      19.380  -7.184 -14.231  1.00  0.00    -0.248 NA
ATOM     60  C   UNL     1      21.663  -7.183 -13.746  1.00  0.00     0.031 C 
ATOM     61  C   UNL     1      17.446  -9.961 -17.104  1.00  0.00     0.029 A 
ATOM     62  C   UNL     1      18.078  -9.092 -16.230  1.00  0.00     0.049 A 
ATOM     63  H   UNL     1      17.239  -7.597 -14.999  1.00  0.00     0.167 HD
ATOM     64  C   UNL     1      20.017  -8.130 -15.025  1.00  0.00     0.074 A 
ATOM     65  C   UNL     1      21.429  -8.053 -14.716  1.00  0.00     0.031 C 
ATOM     66  C   UNL     1      19.483  -8.987 -15.931  1.00  0.00     0.037 A 
BRANCH  53  67
ATOM     67  C   UNL     1      13.359  -8.459 -16.556  1.00  0.00     0.057 A 
ATOM     68  C   UNL     1      12.696  -7.650 -17.490  1.00  0.00     0.134 A 
ATOM     69  C   UNL     1      12.832  -9.735 -16.320  1.00  0.00     0.134 A 
ATOM     70  F   UNL     1      13.139  -6.411 -17.753  1.00  0.00    -0.206 F 
ATOM     71  C   UNL     1      11.541  -8.083 -18.144  1.00  0.00     0.040 A 
ATOM     72  C   UNL     1      11.695 -10.190 -16.991  1.00  0.00     0.040 A 
ATOM     73  F   UNL     1      13.418 -10.564 -15.443  1.00  0.00    -0.206 F 
ATOM     74  C   UNL     1      11.044  -9.361 -17.902  1.00  0.00     0.006 A 
ENDBRANCH  53  67
BRANCH  54  75
ATOM     75  C   UNL     1      21.437  -5.020 -11.801  1.00  0.00     0.057 A 
ATOM     76  C   UNL     1      22.496  -4.406 -12.481  1.00  0.00     0.134 A 
ATOM     77  C   UNL     1      21.589  -5.220 -10.424  1.00  0.00     0.134 A 
ATOM     78  F   UNL     1      22.420  -4.201 -13.805  1.00  0.00    -0.206 F 
ATOM     79  C   UNL     1      23.678  -4.050 -11.829  1.00  0.00     0.040 A 
ATOM     80  C   UNL     1      22.752  -4.839  -9.752  1.00  0.00     0.040 A 
ATOM     81  F   UNL     1      20.609  -5.792  -9.709  1.00  0.00    -0.206 F 
ATOM     82  C   UNL     1      23.808  -4.266 -10.459  1.00  0.00     0.006 A 
ENDBRANCH  54  75
BRANCH  66  83
ATOM     83  C   UNL     1      20.437  -9.854 -16.702  1.00  0.00     0.057 A 
ATOM     84  C   UNL     1      21.158 -10.894 -16.102  1.00  0.00     0.134 A 
ATOM     85  C   UNL     1      20.631  -9.643 -18.074  1.00  0.00     0.134 A 
ATOM     86  F   UNL     1      21.028 -11.144 -14.790  1.00  0.00    -0.206 F 
ATOM     87  C   UNL     1      22.070 -11.664 -16.828  1.00  0.00     0.040 A 
ATOM     88  C   UNL     1      21.512 -10.429 -18.817  1.00  0.00     0.040 A 
ATOM     89  F   UNL     1      19.962  -8.674 -18.717  1.00  0.00    -0.206 F 
ATOM     90  C   UNL     1      22.245 -11.434 -18.191  1.00  0.00     0.006 A 
ENDBRANCH  66  83
ENDBRANCH  40  41
ENDBRANCH  32  35
ENDBRANCH  30  31
ENDBRANCH  29  30
ENDBRANCH   1  29
TORSDOF 13
