REMARK SMILES COc1ccc(N2C(=O)/C(=C/c3c(C(=O)NCCCCNC(=O)c4ccc(-c5c6nc(c(-c7c(F)cccc7F)c7ccc([nH]7)c(-c7c(F)cccc7F)c7nc(c(-c8c(F)cccc8F)c8ccc5[nH]8)C=C7)C=C6)cc4)[nH]c4cc(OC)ccc34)SC2=S)cc1
REMARK SMILES IDX 18 1 17 2 16 3 14 4 15 5 13 7 12 8 86 9 78 10 79 11 85 12
REMARK SMILES IDX 80 14 84 15 81 16 11 17 7 18 8 19 88 20 9 21 10 22 87 23
REMARK SMILES IDX 89 24 6 25 3 26 4 27 91 28 5 29 90 30 2 31 1 32 82 33 83 34
REMARK SMILES IDX 19 35 20 36 21 37 22 38 23 40 24 41 25 42 77 43 26 44 76 45
REMARK SMILES IDX 27 46 28 47 29 48 70 49 30 50 75 51 69 52 71 53 31 54 74 55
REMARK SMILES IDX 68 56 67 57 32 59 58 60 41 61 57 62 42 63 45 64 56 65 72 66
REMARK SMILES IDX 43 67 44 68 55 70 73 71 46 72 33 73 34 74 39 75 35 76 36 77
REMARK SMILES IDX 38 78 40 79 37 80 59 81 60 82 65 83 61 84 62 85 64 86 66 87
REMARK SMILES IDX 63 88 47 89 48 90 53 91 49 92 50 93 52 94 54 95 51 96
REMARK H PARENT 16 6 78 13 21 39 71 58 45 69
REMARK Flexibility Score: inf
ROOT
ATOM      1  C   UNL     1      -0.638   6.794  -4.809  1.00  0.00     0.023 C 
ENDROOT
BRANCH   1   2
ATOM      2  C   UNL     1       0.619   7.651  -5.062  1.00  0.00     0.116 C 
BRANCH   2   3
ATOM      3  N   UNL     1       1.580   7.144  -6.044  1.00  0.00    -0.351 N 
ATOM      4  C   UNL     1       2.623   7.806  -6.678  1.00  0.00     0.268 C 
ATOM      5  O   UNL     1       3.176   7.238  -7.618  1.00  0.00    -0.268 OA
ATOM      6  H   UNL     1       1.471   6.197  -6.290  1.00  0.00     0.163 HD
BRANCH   4   7
ATOM      7  C   UNL     1       3.016   9.135  -6.263  1.00  0.00     0.112 A 
ATOM      8  C   UNL     1       3.204   9.739  -5.016  1.00  0.00     0.014 A 
ATOM      9  C   UNL     1       2.984  11.150  -5.275  1.00  0.00     0.008 A 
ATOM     10  N   UNL     1       3.487  10.069  -7.154  1.00  0.00    -0.350 N 
ATOM     11  C   UNL     1       3.206  11.311  -6.649  1.00  0.00     0.050 A 
ATOM     12  C   UNL     1       2.603  12.328  -4.576  1.00  0.00     0.015 A 
ATOM     13  H   UNL     1       3.946   9.879  -8.004  1.00  0.00     0.167 HD
ATOM     14  C   UNL     1       3.102  12.522  -7.337  1.00  0.00     0.073 A 
ATOM     15  C   UNL     1       2.392  13.551  -5.288  1.00  0.00     0.047 A 
ATOM     16  C   UNL     1       2.643  13.644  -6.655  1.00  0.00     0.120 A 
BRANCH   8  17
ATOM     17  C   UNL     1       3.296   8.890  -3.840  1.00  0.00     0.032 C 
ATOM     18  N   UNL     1       3.916   5.365  -4.129  1.00  0.00    -0.261 N 
ATOM     19  C   UNL     1       3.473   6.428  -3.314  1.00  0.00     0.270 C 
ATOM     20  C   UNL     1       4.978   5.652  -4.964  1.00  0.00     0.152 C 
ATOM     21  O   UNL     1       2.742   6.372  -2.335  1.00  0.00    -0.268 OA
ATOM     22  C   UNL     1       4.018   7.734  -3.841  1.00  0.00     0.081 C 
ATOM     23  S   UNL     1       5.386   7.362  -4.837  1.00  0.00    -0.054 SA
ATOM     24  S   UNL     1       5.817   4.620  -5.974  1.00  0.00    -0.051 S 
BRANCH  18  25
ATOM     25  C   UNL     1       3.434   4.032  -3.933  1.00  0.00     0.051 A 
ATOM     26  C   UNL     1       2.122   1.776  -2.886  1.00  0.00     0.119 A 
ATOM     27  C   UNL     1       1.583   2.432  -3.988  1.00  0.00     0.048 A 
ATOM     28  C   UNL     1       3.498   1.986  -2.686  1.00  0.00     0.048 A 
ATOM     29  C   UNL     1       2.281   3.530  -4.548  1.00  0.00     0.030 A 
ATOM     30  C   UNL     1       4.118   3.164  -3.108  1.00  0.00     0.030 A 
BRANCH  26  31
ATOM     31  O   UNL     1       1.166   1.150  -1.969  1.00  0.00    -0.497 OA
ATOM     32  C   UNL     1       0.506   0.580  -0.163  1.00  0.00     0.278 C 
ENDBRANCH  26  31
ENDBRANCH  18  25
ENDBRANCH   8  17
BRANCH  16  33
ATOM     33  O   UNL     1       2.450  14.711  -7.487  1.00  0.00    -0.497 OA
ATOM     34  C   UNL     1       2.198  15.992  -6.936  1.00  0.00     0.278 C 
ENDBRANCH  16  33
ENDBRANCH   4   7
ENDBRANCH   2   3
ENDBRANCH   1   2
BRANCH   1  35
ATOM     35  C   UNL     1      -0.467   5.386  -4.197  1.00  0.00     0.023 C 
BRANCH  35  36
ATOM     36  C   UNL     1       0.022   5.247  -2.738  1.00  0.00     0.116 C 
BRANCH  36  37
ATOM     37  N   UNL     1      -0.958   4.741  -1.784  1.00  0.00    -0.352 N 
ATOM     38  C   UNL     1      -0.812   3.717  -0.868  1.00  0.00     0.251 C 
ATOM     39  H   UNL     1      -1.835   5.187  -1.794  1.00  0.00     0.163 HD
ATOM     40  O   UNL     1      -1.509   3.689   0.144  1.00  0.00    -0.269 OA
BRANCH  38  41
ATOM     41  C   UNL     1       0.040   2.539  -1.127  1.00  0.00     0.039 A 
ATOM     42  C   UNL     1      -0.797   1.145  -1.887  1.00  0.00     0.014 A 
ATOM     43  C   UNL     1       1.694   2.327  -0.456  1.00  0.00     0.014 A 
ATOM     44  C   UNL     1       0.028  -0.431  -2.059  1.00  0.00     0.010 A 
ATOM     45  C   UNL     1       2.546   0.708  -0.629  1.00  0.00     0.010 A 
ATOM     46  C   UNL     1       1.737  -0.668  -1.499  1.00  0.00    -0.014 A 
BRANCH  46  47
ATOM     47  C   UNL     1       2.417  -1.965  -1.877  1.00  0.00     0.031 A 
ATOM     48  C   UNL     1       3.407  -2.655  -0.970  1.00  0.00     0.074 A 
ATOM     49  C   UNL     1       2.172  -2.536  -3.084  1.00  0.00     0.049 A 
ATOM     50  N   UNL     1       4.096  -3.755  -1.171  1.00  0.00    -0.248 NA
ATOM     51  C   UNL     1       3.712  -2.006   0.309  1.00  0.00     0.031 C 
ATOM     52  C   UNL     1       1.362  -1.960  -4.161  1.00  0.00     0.029 A 
ATOM     53  N   UNL     1       2.568  -3.747  -3.619  1.00  0.00    -0.354 N 
ATOM     54  C   UNL     1       4.940  -3.888  -0.073  1.00  0.00     0.074 A 
ATOM     55  C   UNL     1       4.746  -2.710   0.740  1.00  0.00     0.031 C 
ATOM     56  C   UNL     1       1.212  -2.850  -5.151  1.00  0.00     0.029 A 
ATOM     57  C   UNL     1       2.009  -4.028  -4.850  1.00  0.00     0.049 A 
ATOM     58  H   UNL     1       3.193  -4.356  -3.163  1.00  0.00     0.167 HD
ATOM     59  C   UNL     1       5.760  -4.913   0.272  1.00  0.00     0.037 A 
ATOM     60  C   UNL     1       2.125  -5.097  -5.665  1.00  0.00     0.037 A 
ATOM     61  C   UNL     1       5.914  -6.123  -0.490  1.00  0.00     0.049 A 
ATOM     62  C   UNL     1       3.016  -6.236  -5.255  1.00  0.00     0.074 A 
ATOM     63  C   UNL     1       6.667  -7.245  -0.187  1.00  0.00     0.029 A 
ATOM     64  N   UNL     1       5.296  -6.373  -1.706  1.00  0.00    -0.354 N 
ATOM     65  N   UNL     1       3.729  -6.375  -4.165  1.00  0.00    -0.248 NA
ATOM     66  C   UNL     1       3.123  -7.368  -6.189  1.00  0.00     0.031 C 
ATOM     67  C   UNL     1       6.539  -8.156  -1.240  1.00  0.00     0.029 A 
ATOM     68  C   UNL     1       5.665  -7.624  -2.174  1.00  0.00     0.049 A 
ATOM     69  H   UNL     1       4.686  -5.754  -2.168  1.00  0.00     0.167 HD
ATOM     70  C   UNL     1       4.344  -7.615  -4.268  1.00  0.00     0.074 A 
ATOM     71  C   UNL     1       3.904  -8.201  -5.516  1.00  0.00     0.031 C 
ATOM     72  C   UNL     1       5.203  -8.211  -3.406  1.00  0.00     0.037 A 
BRANCH  59  73
ATOM     73  C   UNL     1       6.533  -4.768   1.556  1.00  0.00     0.057 A 
ATOM     74  C   UNL     1       5.894  -4.747   2.805  1.00  0.00     0.134 A 
ATOM     75  C   UNL     1       7.927  -4.632   1.548  1.00  0.00     0.134 A 
ATOM     76  F   UNL     1       4.560  -4.866   2.888  1.00  0.00    -0.206 F 
ATOM     77  C   UNL     1       6.603  -4.531   3.988  1.00  0.00     0.040 A 
ATOM     78  C   UNL     1       8.651  -4.453   2.728  1.00  0.00     0.040 A 
ATOM     79  F   UNL     1       8.609  -4.663   0.393  1.00  0.00    -0.206 F 
ATOM     80  C   UNL     1       7.987  -4.385   3.952  1.00  0.00     0.006 A 
ENDBRANCH  59  73
BRANCH  60  81
ATOM     81  C   UNL     1       1.371  -5.164  -6.951  1.00  0.00     0.057 A 
ATOM     82  C   UNL     1       0.352  -6.108  -7.143  1.00  0.00     0.134 A 
ATOM     83  C   UNL     1       1.666  -4.320  -8.030  1.00  0.00     0.134 A 
ATOM     84  F   UNL     1       0.032  -6.963  -6.161  1.00  0.00    -0.206 F 
ATOM     85  C   UNL     1      -0.321  -6.230  -8.362  1.00  0.00     0.040 A 
ATOM     86  C   UNL     1       0.979  -4.409  -9.243  1.00  0.00     0.040 A 
ATOM     87  F   UNL     1       2.624  -3.388  -7.918  1.00  0.00    -0.206 F 
ATOM     88  C   UNL     1      -0.010  -5.375  -9.416  1.00  0.00     0.006 A 
ENDBRANCH  60  81
BRANCH  72  89
ATOM     89  C   UNL     1       5.688  -9.588  -3.752  1.00  0.00     0.057 A 
ATOM     90  C   UNL     1       6.601  -9.814  -4.789  1.00  0.00     0.134 A 
ATOM     91  C   UNL     1       5.277 -10.694  -2.997  1.00  0.00     0.134 A 
ATOM     92  F   UNL     1       7.022  -8.800  -5.559  1.00  0.00    -0.206 F 
ATOM     93  C   UNL     1       7.076 -11.095  -5.074  1.00  0.00     0.040 A 
ATOM     94  C   UNL     1       5.768 -11.975  -3.254  1.00  0.00     0.040 A 
ATOM     95  F   UNL     1       4.409 -10.545  -1.985  1.00  0.00    -0.206 F 
ATOM     96  C   UNL     1       6.667 -12.178  -4.298  1.00  0.00     0.006 A 
ENDBRANCH  72  89
ENDBRANCH  46  47
ENDBRANCH  38  41
ENDBRANCH  36  37
ENDBRANCH  35  36
ENDBRANCH   1  35
TORSDOF 15
