REMARK SMILES O=C(NCCCCNC(=O)[C@@H]1CC[C@@H](CS(=O)(=O)c2cccc(F)c2)O1)c1ccc(-c2c3nc(c(-c4c(F)cccc4F)c4ccc([nH]4)c(-c4c(F)cccc4F)c4nc(c(-c5c(F)cccc5F)c5ccc2[nH]5)C=C4)C=C3)cc1
REMARK SMILES IDX 6 1 5 2 4 3 3 4 1 5 2 6 27 8 28 9 80 10 29 11 79 12 30 13
REMARK SMILES IDX 31 14 32 15 73 16 33 17 78 18 72 19 74 20 34 21 77 22 71 23
REMARK SMILES IDX 70 24 35 26 61 27 44 28 60 29 45 30 48 31 59 32 75 33 46 34
REMARK SMILES IDX 47 35 58 37 76 38 49 39 36 40 37 41 42 42 38 43 39 44 41 45
REMARK SMILES IDX 43 46 40 47 62 48 63 49 68 50 64 51 65 52 67 53 69 54 66 55
REMARK SMILES IDX 50 56 51 57 56 58 52 59 53 60 55 61 57 62 54 63 7 64 8 65
REMARK SMILES IDX 9 66 10 68 11 69 12 70 26 71 13 72 14 73 15 74 16 75 17 76
REMARK SMILES IDX 18 77 19 78 20 79 25 80 21 81 23 82 22 83 24 84
REMARK H PARENT 3 7 74 25 48 36 8 67
REMARK Flexibility Score: inf
ROOT
ATOM      1  C   UNL     1       4.412   3.189   2.081  1.00  0.00     0.023 C 
ENDROOT
BRANCH   1   2
ATOM      2  C   UNL     1       4.857   2.664   0.716  1.00  0.00     0.023 C 
BRANCH   2   3
ATOM      3  C   UNL     1       4.473   1.222   0.435  1.00  0.00     0.116 C 
BRANCH   3   4
ATOM      4  N   UNL     1       3.048   0.970   0.564  1.00  0.00    -0.352 N 
ATOM      5  O   UNL     1       1.089  -0.028   0.036  1.00  0.00    -0.269 OA
ATOM      6  C   UNL     1       2.303   0.019  -0.091  1.00  0.00     0.251 C 
ATOM      7  H   UNL     1       2.559   1.548   1.194  1.00  0.00     0.163 HD
BRANCH   6   8
ATOM      8  C   UNL     1       3.004  -0.926  -0.980  1.00  0.00     0.039 A 
ATOM      9  C   UNL     1       4.112  -1.639  -0.513  1.00  0.00     0.014 A 
ATOM     10  C   UNL     1       2.560  -1.073  -2.295  1.00  0.00     0.014 A 
ATOM     11  C   UNL     1       4.835  -2.434  -1.391  1.00  0.00     0.010 A 
ATOM     12  C   UNL     1       3.246  -1.927  -3.158  1.00  0.00     0.010 A 
ATOM     13  C   UNL     1       4.390  -2.607  -2.711  1.00  0.00    -0.014 A 
BRANCH  13  14
ATOM     14  C   UNL     1       5.048  -3.616  -3.568  1.00  0.00     0.031 A 
ATOM     15  C   UNL     1       5.834  -3.221  -4.780  1.00  0.00     0.074 A 
ATOM     16  C   UNL     1       4.904  -4.912  -3.229  1.00  0.00     0.049 A 
ATOM     17  N   UNL     1       6.422  -3.991  -5.657  1.00  0.00    -0.248 NA
ATOM     18  C   UNL     1       5.980  -1.781  -5.049  1.00  0.00     0.031 C 
ATOM     19  C   UNL     1       4.146  -5.397  -2.071  1.00  0.00     0.029 A 
ATOM     20  N   UNL     1       5.380  -6.054  -3.815  1.00  0.00    -0.354 N 
ATOM     21  C   UNL     1       6.993  -3.138  -6.591  1.00  0.00     0.074 A 
ATOM     22  C   UNL     1       6.675  -1.787  -6.181  1.00  0.00     0.031 C 
ATOM     23  C   UNL     1       4.226  -6.733  -2.021  1.00  0.00     0.029 A 
ATOM     24  C   UNL     1       4.981  -7.202  -3.175  1.00  0.00     0.049 A 
ATOM     25  H   UNL     1       5.952  -6.053  -4.616  1.00  0.00     0.167 HD
ATOM     26  C   UNL     1       7.718  -3.466  -7.685  1.00  0.00     0.037 A 
ATOM     27  C   UNL     1       5.169  -8.493  -3.501  1.00  0.00     0.037 A 
ATOM     28  C   UNL     1       8.046  -4.817  -8.062  1.00  0.00     0.049 A 
ATOM     29  C   UNL     1       5.941  -8.821  -4.742  1.00  0.00     0.074 A 
ATOM     30  C   UNL     1       8.839  -5.245  -9.112  1.00  0.00     0.029 A 
ATOM     31  N   UNL     1       7.593  -5.953  -7.411  1.00  0.00    -0.354 N 
ATOM     32  N   UNL     1       6.513  -8.003  -5.590  1.00  0.00    -0.248 NA
ATOM     33  C   UNL     1       6.081 -10.242  -5.082  1.00  0.00     0.031 C 
ATOM     34  C   UNL     1       8.828  -6.642  -9.125  1.00  0.00     0.029 A 
ATOM     35  C   UNL     1       8.060  -7.084  -8.060  1.00  0.00     0.049 A 
ATOM     36  H   UNL     1       7.025  -5.956  -6.607  1.00  0.00     0.167 HD
ATOM     37  C   UNL     1       7.080  -8.807  -6.567  1.00  0.00     0.074 A 
ATOM     38  C   UNL     1       6.803 -10.179  -6.194  1.00  0.00     0.031 C 
ATOM     39  C   UNL     1       7.761  -8.439  -7.678  1.00  0.00     0.037 A 
BRANCH  26  40
ATOM     40  C   UNL     1       8.216  -2.365  -8.570  1.00  0.00     0.057 A 
ATOM     41  C   UNL     1       7.651  -2.163  -9.837  1.00  0.00     0.134 A 
ATOM     42  C   UNL     1       9.335  -1.598  -8.229  1.00  0.00     0.134 A 
ATOM     43  F   UNL     1       6.581  -2.873 -10.226  1.00  0.00    -0.206 F 
ATOM     44  C   UNL     1       8.198  -1.253 -10.743  1.00  0.00     0.040 A 
ATOM     45  C   UNL     1       9.882  -0.673  -9.122  1.00  0.00     0.040 A 
ATOM     46  F   UNL     1       9.918  -1.742  -7.030  1.00  0.00    -0.206 F 
ATOM     47  C   UNL     1       9.321  -0.508 -10.387  1.00  0.00     0.006 A 
ENDBRANCH  26  40
BRANCH  27  48
ATOM     48  C   UNL     1       4.575  -9.552  -2.651  1.00  0.00     0.057 A 
ATOM     49  C   UNL     1       3.187  -9.738  -2.587  1.00  0.00     0.134 A 
ATOM     50  C   UNL     1       5.374 -10.371  -1.847  1.00  0.00     0.134 A 
ATOM     51  F   UNL     1       2.368  -8.975  -3.327  1.00  0.00    -0.206 F 
ATOM     52  C   UNL     1       2.614 -10.683  -1.738  1.00  0.00     0.040 A 
ATOM     53  C   UNL     1       4.815 -11.338  -1.011  1.00  0.00     0.040 A 
ATOM     54  F   UNL     1       6.709 -10.248  -1.876  1.00  0.00    -0.206 F 
ATOM     55  C   UNL     1       3.430 -11.490  -0.948  1.00  0.00     0.006 A 
ENDBRANCH  27  48
BRANCH  39  56
ATOM     56  C   UNL     1       8.243  -9.532  -8.579  1.00  0.00     0.057 A 
ATOM     57  C   UNL     1       9.600  -9.869  -8.636  1.00  0.00     0.134 A 
ATOM     58  C   UNL     1       7.369 -10.192  -9.450  1.00  0.00     0.134 A 
ATOM     59  F   UNL     1      10.487  -9.264  -7.832  1.00  0.00    -0.206 F 
ATOM     60  C   UNL     1      10.075 -10.815  -9.544  1.00  0.00     0.040 A 
ATOM     61  C   UNL     1       7.829 -11.155 -10.348  1.00  0.00     0.040 A 
ATOM     62  F   UNL     1       6.055  -9.919  -9.431  1.00  0.00    -0.206 F 
ATOM     63  C   UNL     1       9.188 -11.460 -10.404  1.00  0.00     0.006 A 
ENDBRANCH  39  56
ENDBRANCH  13  14
ENDBRANCH   6   8
ENDBRANCH   3   4
ENDBRANCH   2   3
ENDBRANCH   1   2
BRANCH   1  64
ATOM     64  C   UNL     1       4.980   2.424   3.278  1.00  0.00     0.116 C 
BRANCH  64  65
ATOM     65  N   UNL     1       6.349   2.808   3.530  1.00  0.00    -0.354 N 
ATOM     66  C   UNL     1       6.870   3.818   4.276  1.00  0.00     0.249 C 
ATOM     67  H   UNL     1       7.019   2.241   3.085  1.00  0.00     0.163 HD
ATOM     68  O   UNL     1       8.095   3.970   4.185  1.00  0.00    -0.272 OA
BRANCH  66  69
ATOM     69  C   UNL     1       6.036   4.673   5.263  1.00  0.00     0.207 C 
ATOM     70  C   UNL     1       4.565   4.964   5.026  1.00  0.00     0.045 C 
ATOM     71  O   UNL     1       6.661   5.973   5.388  1.00  0.00    -0.364 OA
ATOM     72  C   UNL     1       4.386   6.342   5.612  1.00  0.00     0.036 C 
ATOM     73  C   UNL     1       5.684   7.005   5.195  1.00  0.00     0.134 C 
BRANCH  73  74
ATOM     74  C   UNL     1       6.023   8.203   6.055  1.00  0.00     0.174 C 
BRANCH  74  75
ATOM     75  S   UNL     1       7.098   9.365   5.264  1.00  0.00     0.181 S 
ATOM     76  O   UNL     1       6.488   9.705   3.990  1.00  0.00    -0.224 OA
ATOM     77  O   UNL     1       7.383  10.407   6.234  1.00  0.00    -0.224 OA
BRANCH  75  78
ATOM     78  C   UNL     1       8.659   8.605   4.905  1.00  0.00     0.070 A 
ATOM     79  C   UNL     1       9.146   7.527   5.646  1.00  0.00     0.020 A 
ATOM     80  C   UNL     1       9.406   9.128   3.844  1.00  0.00     0.059 A 
ATOM     81  C   UNL     1      10.364   6.938   5.294  1.00  0.00     0.004 A 
ATOM     82  C   UNL     1      10.628   8.550   3.527  1.00  0.00     0.124 A 
ATOM     83  C   UNL     1      11.108   7.453   4.235  1.00  0.00     0.039 A 
ATOM     84  F   UNL     1      11.355   9.054   2.522  1.00  0.00    -0.207 F 
ENDBRANCH  75  78
ENDBRANCH  74  75
ENDBRANCH  73  74
ENDBRANCH  66  69
ENDBRANCH  64  65
ENDBRANCH   1  64
TORSDOF 14
