REMARK SMILES Cc1ccccc1C(=O)Nc1cc(NC(=O)c2ccccc2C)cc(C(=O)NCCCCNC(=O)c2ccc(-c3c4nc(c(-c5c(F)cccc5F)c5ccc([nH]5)c(-c5c(F)cccc5F)c5nc(c(-c6c(F)cccc6F)c6ccc3[nH]6)C=C5)C=C4)cc2)c1
REMARK SMILES IDX 30 1 29 2 28 3 26 4 27 5 25 7 11 8 12 9 90 10 13 11 24 12
REMARK SMILES IDX 10 13 8 14 9 15 7 17 1 18 2 19 3 20 4 21 6 22 5 23 14 24
REMARK SMILES IDX 15 25 16 27 17 28 18 29 22 30 19 31 21 32 23 33 20 34 31 35
REMARK SMILES IDX 32 36 33 37 34 38 35 40 36 41 37 42 89 43 38 44 88 45 39 46
REMARK SMILES IDX 40 47 41 48 82 49 42 50 87 51 81 52 83 53 43 54 86 55 80 56
REMARK SMILES IDX 79 57 44 59 70 60 53 61 69 62 54 63 57 64 68 65 84 66 55 67
REMARK SMILES IDX 56 68 67 70 85 71 58 72 45 73 46 74 51 75 47 76 48 77 50 78
REMARK SMILES IDX 52 79 49 80 71 81 72 82 77 83 73 84 74 85 76 86 78 87 75 88
REMARK SMILES IDX 59 89 60 90 65 91 61 92 62 93 64 94 66 95 63 96
REMARK H PARENT 28 6 10 16 14 26 33 39 83 58 57 69
REMARK Flexibility Score: inf
ROOT
ATOM      1  C   UNL     1       8.048  -2.655  -0.377  1.00  0.00     0.023 C 
ENDROOT
BRANCH   1   2
ATOM      2  C   UNL     1       6.988  -2.748   0.722  1.00  0.00     0.116 C 
BRANCH   2   3
ATOM      3  N   UNL     1       6.871  -1.530   1.509  1.00  0.00    -0.352 N 
ATOM      4  C   UNL     1       6.058  -0.425   1.517  1.00  0.00     0.251 C 
ATOM      5  O   UNL     1       6.320   0.429   2.368  1.00  0.00    -0.269 OA
ATOM      6  H   UNL     1       7.551  -1.489   2.219  1.00  0.00     0.163 HD
BRANCH   4   7
ATOM      7  C   UNL     1       4.907  -0.174   0.601  1.00  0.00     0.043 A 
ATOM      8  C   UNL     1       3.084   1.311  -0.017  1.00  0.00     0.044 A 
ATOM      9  C   UNL     1       2.655   0.413  -0.994  1.00  0.00     0.052 A 
ATOM     10  C   UNL     1       4.278   1.079   0.677  1.00  0.00     0.040 A 
ATOM     11  C   UNL     1       3.296  -0.812  -1.115  1.00  0.00     0.044 A 
ATOM     12  C   UNL     1       4.341  -1.123  -0.244  1.00  0.00     0.040 A 
BRANCH   8  13
ATOM     13  N   UNL     1       2.286   2.378   0.422  1.00  0.00    -0.322 N 
ATOM     14  C   UNL     1       0.913   2.427   0.588  1.00  0.00     0.255 C 
ATOM     15  O   UNL     1       0.388   3.495   0.905  1.00  0.00    -0.269 OA
ATOM     16  H   UNL     1       2.770   3.206   0.642  1.00  0.00     0.170 HD
BRANCH  14  17
ATOM     17  C   UNL     1       0.040   1.223   0.440  1.00  0.00     0.043 A 
ATOM     18  C   UNL     1       1.337  -0.326   2.056  1.00  0.00     0.045 C 
ATOM     19  C   UNL     1       0.264  -0.034   1.043  1.00  0.00    -0.038 A 
ATOM     20  C   UNL     1      -0.594  -1.103   0.719  1.00  0.00     0.004 A 
ATOM     21  C   UNL     1      -1.711  -0.909  -0.092  1.00  0.00     0.000 A 
ATOM     22  C   UNL     1      -1.117   1.414  -0.336  1.00  0.00     0.014 A 
ATOM     23  C   UNL     1      -1.992   0.357  -0.591  1.00  0.00     0.001 A 
ENDBRANCH  14  17
ENDBRANCH   8  13
BRANCH  11  24
ATOM     24  N   UNL     1       2.941  -1.821  -2.021  1.00  0.00    -0.322 N 
ATOM     25  C   UNL     1       2.336  -1.774  -3.250  1.00  0.00     0.255 C 
ATOM     26  H   UNL     1       3.168  -2.730  -1.719  1.00  0.00     0.170 HD
ATOM     27  O   UNL     1       2.005  -2.824  -3.799  1.00  0.00    -0.269 OA
BRANCH  25  28
ATOM     28  C   UNL     1       2.131  -0.498  -3.966  1.00  0.00     0.043 A 
ATOM     29  C   UNL     1       0.818  -0.251  -4.391  1.00  0.00     0.014 A 
ATOM     30  C   UNL     1       3.166   0.410  -4.267  1.00  0.00    -0.038 A 
ATOM     31  C   UNL     1       0.508   0.930  -5.058  1.00  0.00     0.001 A 
ATOM     32  C   UNL     1       2.824   1.611  -4.911  1.00  0.00     0.004 A 
ATOM     33  C   UNL     1       4.613   0.184  -3.929  1.00  0.00     0.045 C 
ATOM     34  C   UNL     1       1.508   1.868  -5.302  1.00  0.00     0.000 A 
ENDBRANCH  25  28
ENDBRANCH  11  24
ENDBRANCH   4   7
ENDBRANCH   2   3
ENDBRANCH   1   2
BRANCH   1  35
ATOM     35  C   UNL     1       9.485  -2.826   0.121  1.00  0.00     0.023 C 
BRANCH  35  36
ATOM     36  C   UNL     1       9.765  -4.171   0.782  1.00  0.00     0.116 C 
BRANCH  36  37
ATOM     37  N   UNL     1       9.841  -5.310  -0.115  1.00  0.00    -0.352 N 
ATOM     38  C   UNL     1       9.985  -6.666   0.158  1.00  0.00     0.251 C 
ATOM     39  H   UNL     1       9.780  -5.086  -1.072  1.00  0.00     0.163 HD
ATOM     40  O   UNL     1      10.171  -7.435  -0.768  1.00  0.00    -0.269 OA
BRANCH  38  41
ATOM     41  C   UNL     1       9.742  -7.210   1.529  1.00  0.00     0.039 A 
ATOM     42  C   UNL     1       9.198  -8.502   1.622  1.00  0.00     0.014 A 
ATOM     43  C   UNL     1       9.775  -6.410   2.661  1.00  0.00     0.014 A 
ATOM     44  C   UNL     1       8.421  -8.846   2.726  1.00  0.00     0.010 A 
ATOM     45  C   UNL     1       8.894  -6.679   3.682  1.00  0.00     0.010 A 
ATOM     46  C   UNL     1       8.158  -7.865   3.671  1.00  0.00    -0.014 A 
BRANCH  46  47
ATOM     47  C   UNL     1       7.074  -7.915   4.637  1.00  0.00     0.031 A 
ATOM     48  C   UNL     1       7.384  -8.060   6.069  1.00  0.00     0.074 A 
ATOM     49  C   UNL     1       5.832  -7.585   4.220  1.00  0.00     0.049 A 
ATOM     50  N   UNL     1       6.509  -8.278   6.986  1.00  0.00    -0.248 NA
ATOM     51  C   UNL     1       8.748  -8.017   6.579  1.00  0.00     0.031 C 
ATOM     52  C   UNL     1       4.697  -7.157   5.031  1.00  0.00     0.029 A 
ATOM     53  N   UNL     1       5.290  -7.786   2.943  1.00  0.00    -0.354 N 
ATOM     54  C   UNL     1       7.123  -8.102   8.205  1.00  0.00     0.074 A 
ATOM     55  C   UNL     1       8.530  -8.048   7.895  1.00  0.00     0.031 C 
ATOM     56  C   UNL     1       3.564  -7.397   4.351  1.00  0.00     0.029 A 
ATOM     57  C   UNL     1       3.940  -8.142   3.163  1.00  0.00     0.049 A 
ATOM     58  H   UNL     1       5.750  -7.697   2.077  1.00  0.00     0.167 HD
ATOM     59  C   UNL     1       6.333  -7.885   9.297  1.00  0.00     0.037 A 
ATOM     60  C   UNL     1       3.493  -9.398   2.869  1.00  0.00     0.037 A 
ATOM     61  C   UNL     1       4.927  -8.143   8.962  1.00  0.00     0.049 A 
ATOM     62  C   UNL     1       2.937 -10.141   4.062  1.00  0.00     0.074 A 
ATOM     63  C   UNL     1       3.845  -7.322   8.684  1.00  0.00     0.029 A 
ATOM     64  N   UNL     1       4.554  -9.425   8.562  1.00  0.00    -0.354 N 
ATOM     65  N   UNL     1       3.232  -9.867   5.304  1.00  0.00    -0.248 NA
ATOM     66  C   UNL     1       1.989 -11.243   3.945  1.00  0.00     0.031 C 
ATOM     67  C   UNL     1       2.839  -8.112   8.065  1.00  0.00     0.029 A 
ATOM     68  C   UNL     1       3.298  -9.417   7.988  1.00  0.00     0.049 A 
ATOM     69  H   UNL     1       5.111 -10.229   8.674  1.00  0.00     0.167 HD
ATOM     70  C   UNL     1       2.547 -10.714   6.142  1.00  0.00     0.074 A 
ATOM     71  C   UNL     1       1.767 -11.540   5.238  1.00  0.00     0.031 C 
ATOM     72  C   UNL     1       2.691 -10.654   7.503  1.00  0.00     0.037 A 
BRANCH  59  73
ATOM     73  C   UNL     1       6.777  -7.186  10.575  1.00  0.00     0.057 A 
ATOM     74  C   UNL     1       5.821  -6.617  11.445  1.00  0.00     0.134 A 
ATOM     75  C   UNL     1       8.105  -6.951  10.977  1.00  0.00     0.134 A 
ATOM     76  F   UNL     1       4.507  -6.805  11.270  1.00  0.00    -0.206 F 
ATOM     77  C   UNL     1       6.160  -5.813  12.546  1.00  0.00     0.040 A 
ATOM     78  C   UNL     1       8.459  -6.131  12.060  1.00  0.00     0.040 A 
ATOM     79  F   UNL     1       9.149  -7.531  10.385  1.00  0.00    -0.206 F 
ATOM     80  C   UNL     1       7.484  -5.544  12.844  1.00  0.00     0.006 A 
ENDBRANCH  59  73
BRANCH  60  81
ATOM     81  C   UNL     1       4.213 -10.014   1.720  1.00  0.00     0.057 A 
ATOM     82  C   UNL     1       4.099  -9.400   0.458  1.00  0.00     0.134 A 
ATOM     83  C   UNL     1       5.290 -10.884   1.907  1.00  0.00     0.134 A 
ATOM     84  F   UNL     1       3.087  -8.553   0.212  1.00  0.00    -0.206 F 
ATOM     85  C   UNL     1       5.083  -9.538  -0.524  1.00  0.00     0.040 A 
ATOM     86  C   UNL     1       6.273 -11.046   0.921  1.00  0.00     0.040 A 
ATOM     87  F   UNL     1       5.482 -11.489   3.088  1.00  0.00    -0.206 F 
ATOM     88  C   UNL     1       6.196 -10.336  -0.277  1.00  0.00     0.006 A 
ENDBRANCH  60  81
BRANCH  72  89
ATOM     89  C   UNL     1       2.223 -11.675   8.532  1.00  0.00     0.057 A 
ATOM     90  C   UNL     1       1.838 -12.994   8.252  1.00  0.00     0.134 A 
ATOM     91  C   UNL     1       2.277 -11.373   9.918  1.00  0.00     0.134 A 
ATOM     92  F   UNL     1       1.849 -13.490   7.010  1.00  0.00    -0.206 F 
ATOM     93  C   UNL     1       1.477 -13.913   9.252  1.00  0.00     0.040 A 
ATOM     94  C   UNL     1       1.982 -12.300  10.925  1.00  0.00     0.040 A 
ATOM     95  F   UNL     1       2.649 -10.168  10.373  1.00  0.00    -0.206 F 
ATOM     96  C   UNL     1       1.562 -13.573  10.594  1.00  0.00     0.006 A 
ENDBRANCH  72  89
ENDBRANCH  46  47
ENDBRANCH  38  41
ENDBRANCH  36  37
ENDBRANCH  35  36
ENDBRANCH   1  35
TORSDOF 15
