REMARK SMILES C[C@H]1[C@@H](C(=O)NCCCCNC(=O)c2ccc(-c3c4nc(c(-c5c(F)cccc5F)c5ccc([nH]5)c(-c5c(F)cccc5F)c5nc(c(-c6c(F)cccc6F)c6ccc3[nH]6)C=C5)C=C4)cc2)CCN1C(=O)N1CCn2cnnc2C1
REMARK SMILES IDX 8 1 7 2 6 3 4 4 5 5 3 7 1 8 2 9 70 10 68 11 69 12 71 13
REMARK SMILES IDX 72 14 73 15 74 16 81 17 75 18 80 19 76 20 79 21 77 22 78 23
REMARK SMILES IDX 9 24 10 25 11 26 12 27 13 29 14 30 15 31 67 32 16 33 66 34
REMARK SMILES IDX 17 35 18 36 19 37 60 38 20 39 65 40 59 41 61 42 21 43 64 44
REMARK SMILES IDX 58 45 57 46 22 48 48 49 31 50 47 51 32 52 35 53 46 54 62 55
REMARK SMILES IDX 33 56 34 57 45 59 63 60 36 61 23 62 24 63 29 64 25 65 26 66
REMARK SMILES IDX 28 67 30 68 27 69 49 70 50 71 55 72 51 73 52 74 54 75 56 76
REMARK SMILES IDX 53 77 37 78 38 79 43 80 39 81 40 82 42 83 44 84 41 85
REMARK H PARENT 6 6 11 28 61 47 35 58
REMARK Flexibility Score: inf
ROOT
ATOM      1  C   UNL     1       3.389   0.629  -1.976  1.00  0.00     0.023 C 
ENDROOT
BRANCH   1   2
ATOM      2  C   UNL     1       2.721   1.921  -1.497  1.00  0.00     0.116 C 
BRANCH   2   3
ATOM      3  N   UNL     1       1.383   1.969  -2.022  1.00  0.00    -0.356 N 
ATOM      4  C   UNL     1       0.234   1.407  -1.576  1.00  0.00     0.225 C 
ATOM      5  O   UNL     1      -0.657   1.347  -2.432  1.00  0.00    -0.275 OA
ATOM      6  H   UNL     1       1.286   2.501  -2.844  1.00  0.00     0.163 HD
BRANCH   4   7
ATOM      7  C   UNL     1      -0.034   1.044  -0.097  1.00  0.00     0.102 C 
ATOM      8  C   UNL     1       2.040  -0.485   0.596  1.00  0.00     0.032 C 
ATOM      9  C   UNL     1       0.557  -0.192   0.637  1.00  0.00     0.096 C 
ATOM     10  N   UNL     1      -0.285  -1.314   0.203  1.00  0.00    -0.321 N 
ATOM     11  C   UNL     1      -1.534   0.641  -0.023  1.00  0.00     0.037 C 
ATOM     12  C   UNL     1      -1.487  -0.828  -0.444  1.00  0.00     0.122 C 
BRANCH  10  13
ATOM     13  C   UNL     1      -0.013  -2.658   0.262  1.00  0.00     0.320 C 
ATOM     14  O   UNL     1      -0.400  -3.444  -0.601  1.00  0.00    -0.248 OA
BRANCH  13  15
ATOM     15  N   UNL     1       0.719  -3.085   1.359  1.00  0.00    -0.315 N 
ATOM     16  C   UNL     1       1.439  -4.364   1.268  1.00  0.00     0.144 C 
ATOM     17  C   UNL     1       0.224  -2.725   2.695  1.00  0.00     0.199 C 
ATOM     18  C   UNL     1       0.865  -5.477   2.164  1.00  0.00     0.146 C 
ATOM     19  C   UNL     1      -0.708  -3.817   3.074  1.00  0.00     0.152 A 
ATOM     20  N   UNL     1      -0.400  -5.107   2.746  1.00  0.00    -0.314 N 
ATOM     21  N   UNL     1      -1.927  -3.777   3.560  1.00  0.00    -0.134 NA
ATOM     22  C   UNL     1      -1.514  -5.838   2.965  1.00  0.00     0.226 A 
ATOM     23  N   UNL     1      -2.436  -5.062   3.494  1.00  0.00    -0.139 NA
ENDBRANCH  13  15
ENDBRANCH  10  13
ENDBRANCH   4   7
ENDBRANCH   2   3
ENDBRANCH   1   2
BRANCH   1  24
ATOM     24  C   UNL     1       4.232   0.777  -3.232  1.00  0.00     0.023 C 
BRANCH  24  25
ATOM     25  C   UNL     1       5.540   1.505  -2.987  1.00  0.00     0.116 C 
BRANCH  25  26
ATOM     26  N   UNL     1       6.422   0.832  -2.037  1.00  0.00    -0.352 N 
ATOM     27  C   UNL     1       7.795   0.750  -2.070  1.00  0.00     0.251 C 
ATOM     28  H   UNL     1       5.980   0.382  -1.281  1.00  0.00     0.163 HD
ATOM     29  O   UNL     1       8.414   0.096  -1.238  1.00  0.00    -0.269 OA
BRANCH  27  30
ATOM     30  C   UNL     1       8.496   1.426  -3.175  1.00  0.00     0.039 A 
ATOM     31  C   UNL     1       9.331   0.676  -4.004  1.00  0.00     0.014 A 
ATOM     32  C   UNL     1       8.182   2.752  -3.478  1.00  0.00     0.014 A 
ATOM     33  C   UNL     1       9.778   1.235  -5.200  1.00  0.00     0.010 A 
ATOM     34  C   UNL     1       8.532   3.261  -4.718  1.00  0.00     0.010 A 
ATOM     35  C   UNL     1       9.334   2.510  -5.591  1.00  0.00    -0.014 A 
BRANCH  35  36
ATOM     36  C   UNL     1       9.704   3.094  -6.903  1.00  0.00     0.031 A 
ATOM     37  C   UNL     1      10.457   4.394  -6.946  1.00  0.00     0.074 A 
ATOM     38  C   UNL     1       9.285   2.512  -8.044  1.00  0.00     0.049 A 
ATOM     39  N   UNL     1      10.773   5.134  -7.976  1.00  0.00    -0.248 NA
ATOM     40  C   UNL     1      10.865   4.964  -5.650  1.00  0.00     0.031 C 
ATOM     41  C   UNL     1       8.481   1.290  -8.135  1.00  0.00     0.029 A 
ATOM     42  N   UNL     1       9.472   2.881  -9.352  1.00  0.00    -0.354 N 
ATOM     43  C   UNL     1      11.379   6.267  -7.450  1.00  0.00     0.074 A 
ATOM     44  C   UNL     1      11.329   6.149  -6.010  1.00  0.00     0.031 C 
ATOM     45  C   UNL     1       8.277   0.992  -9.429  1.00  0.00     0.029 A 
ATOM     46  C   UNL     1       8.903   2.017 -10.257  1.00  0.00     0.049 A 
ATOM     47  H   UNL     1       9.967   3.689  -9.618  1.00  0.00     0.167 HD
ATOM     48  C   UNL     1      11.958   7.299  -8.106  1.00  0.00     0.037 A 
ATOM     49  C   UNL     1       8.895   2.049 -11.603  1.00  0.00     0.037 A 
ATOM     50  C   UNL     1      12.067   7.379  -9.536  1.00  0.00     0.049 A 
ATOM     51  C   UNL     1       9.597   3.174 -12.311  1.00  0.00     0.074 A 
ATOM     52  C   UNL     1      12.709   8.336 -10.300  1.00  0.00     0.029 A 
ATOM     53  N   UNL     1      11.529   6.453 -10.417  1.00  0.00    -0.354 N 
ATOM     54  N   UNL     1      10.228   4.205 -11.801  1.00  0.00    -0.248 NA
ATOM     55  C   UNL     1       9.594   3.137 -13.780  1.00  0.00     0.031 C 
ATOM     56  C   UNL     1      12.541   8.001 -11.648  1.00  0.00     0.029 A 
ATOM     57  C   UNL     1      11.820   6.819 -11.719  1.00  0.00     0.049 A 
ATOM     58  H   UNL     1      11.017   5.654 -10.155  1.00  0.00     0.167 HD
ATOM     59  C   UNL     1      10.716   4.924 -12.883  1.00  0.00     0.074 A 
ATOM     60  C   UNL     1      10.320   4.205 -14.077  1.00  0.00     0.031 C 
ATOM     61  C   UNL     1      11.427   6.078 -12.890  1.00  0.00     0.037 A 
BRANCH  48  62
ATOM     62  C   UNL     1      12.535   8.404  -7.273  1.00  0.00     0.057 A 
ATOM     63  C   UNL     1      13.687   8.218  -6.497  1.00  0.00     0.134 A 
ATOM     64  C   UNL     1      11.934   9.668  -7.245  1.00  0.00     0.134 A 
ATOM     65  F   UNL     1      14.299   7.024  -6.465  1.00  0.00    -0.206 F 
ATOM     66  C   UNL     1      14.203   9.239  -5.698  1.00  0.00     0.040 A 
ATOM     67  C   UNL     1      12.457  10.706  -6.472  1.00  0.00     0.040 A 
ATOM     68  F   UNL     1      10.830   9.914  -7.965  1.00  0.00    -0.206 F 
ATOM     69  C   UNL     1      13.589  10.490  -5.689  1.00  0.00     0.006 A 
ENDBRANCH  48  62
BRANCH  49  70
ATOM     70  C   UNL     1       8.241   0.961 -12.371  1.00  0.00     0.057 A 
ATOM     71  C   UNL     1       9.004   0.017 -13.068  1.00  0.00     0.134 A 
ATOM     72  C   UNL     1       6.848   0.841 -12.437  1.00  0.00     0.134 A 
ATOM     73  F   UNL     1      10.343   0.091 -13.056  1.00  0.00    -0.206 F 
ATOM     74  C   UNL     1       8.408  -0.998 -13.819  1.00  0.00     0.040 A 
ATOM     75  C   UNL     1       6.238  -0.181 -13.166  1.00  0.00     0.040 A 
ATOM     76  F   UNL     1       6.062   1.709 -11.784  1.00  0.00    -0.206 F 
ATOM     77  C   UNL     1       7.019  -1.100 -13.866  1.00  0.00     0.006 A 
ENDBRANCH  49  70
BRANCH  61  78
ATOM     78  C   UNL     1      11.848   6.614 -14.223  1.00  0.00     0.057 A 
ATOM     79  C   UNL     1      10.940   7.244 -15.083  1.00  0.00     0.134 A 
ATOM     80  C   UNL     1      13.187   6.542 -14.629  1.00  0.00     0.134 A 
ATOM     81  F   UNL     1       9.643   7.332 -14.755  1.00  0.00    -0.206 F 
ATOM     82  C   UNL     1      11.347   7.770 -16.309  1.00  0.00     0.040 A 
ATOM     83  C   UNL     1      13.609   7.084 -15.842  1.00  0.00     0.040 A 
ATOM     84  F   UNL     1      14.105   5.958 -13.845  1.00  0.00    -0.206 F 
ATOM     85  C   UNL     1      12.687   7.697 -16.688  1.00  0.00     0.006 A 
ENDBRANCH  61  78
ENDBRANCH  35  36
ENDBRANCH  27  30
ENDBRANCH  25  26
ENDBRANCH  24  25
ENDBRANCH   1  24
TORSDOF 13
