REMARK SMILES COc1ccc(NC2=[NH+]C(=O)/C(=C\c3ccccc3C(=O)NCCCCNC(=O)c3ccc(-c4c5nc(c(-c6c(F)cccc6F)c6ccc([nH]6)c(-c6c(F)cccc6F)c6nc(c(-c7c(F)cccc7F)c7ccc4[nH]7)C=C6)C=C5)cc3)S2)cc1
REMARK SMILES IDX 24 1 23 2 22 3 20 4 21 5 19 7 14 8 15 9 16 10 18 11 17 12
REMARK SMILES IDX 13 13 7 14 8 15 9 17 84 18 10 19 12 21 11 22 6 23 3 24 4 25
REMARK SMILES IDX 86 26 5 27 85 28 2 29 1 30 25 31 26 32 27 33 28 34 29 36
REMARK SMILES IDX 30 37 31 38 83 39 32 40 82 41 33 42 34 43 35 44 76 45 36 46
REMARK SMILES IDX 81 47 75 48 77 49 37 50 80 51 74 52 73 53 38 55 64 56 47 57
REMARK SMILES IDX 63 58 48 59 51 60 62 61 78 62 49 63 50 64 61 66 79 67 52 68
REMARK SMILES IDX 39 69 40 70 45 71 41 72 42 73 44 74 46 75 43 76 65 77 66 78
REMARK SMILES IDX 71 79 67 80 68 81 70 82 72 83 69 84 53 85 54 86 59 87 55 88
REMARK SMILES IDX 56 89 58 90 60 91 57 92
REMARK H PARENT 22 6 7 16 9 20 27 35 77 54 51 65
REMARK Flexibility Score: inf
ROOT
ATOM      1  C   UNL     1      -3.660  -4.433  -4.228  1.00  0.00     0.023 C 
ENDROOT
BRANCH   1   2
ATOM      2  C   UNL     1      -3.036  -5.721  -4.764  1.00  0.00     0.116 C 
BRANCH   2   3
ATOM      3  N   UNL     1      -2.960  -6.819  -3.821  1.00  0.00    -0.352 N 
ATOM      4  C   UNL     1      -3.039  -8.183  -4.014  1.00  0.00     0.251 C 
ATOM      5  O   UNL     1      -2.972  -8.892  -3.008  1.00  0.00    -0.269 OA
ATOM      6  H   UNL     1      -2.829  -6.545  -2.884  1.00  0.00     0.163 HD
BRANCH   4   7
ATOM      7  C   UNL     1      -3.298  -8.829  -5.343  1.00  0.00     0.047 A 
ATOM      8  C   UNL     1      -2.712  -8.493  -6.583  1.00  0.00    -0.011 A 
ATOM      9  C   UNL     1      -3.180  -9.129  -7.751  1.00  0.00     0.009 A 
ATOM     10  C   UNL     1      -4.116 -10.163  -7.689  1.00  0.00     0.001 A 
ATOM     11  C   UNL     1      -4.191  -9.921  -5.296  1.00  0.00     0.014 A 
ATOM     12  C   UNL     1      -4.590 -10.588  -6.456  1.00  0.00     0.001 A 
BRANCH   8  13
ATOM     13  C   UNL     1      -1.611  -7.539  -6.793  1.00  0.00     0.032 C 
ATOM     14  N   UNL     1       1.965  -5.837  -3.885  1.00  0.00    -0.235 N 
ATOM     15  C   UNL     1       1.230  -6.749  -4.582  1.00  0.00     0.322 C 
ATOM     16  H   UNL     1       2.786  -5.493  -4.306  1.00  0.00     0.313 HD
ATOM     17  N   UNL     1       0.808  -7.900  -4.178  1.00  0.00    -0.199 N 
ATOM     18  S   UNL     1       0.719  -6.272  -6.198  1.00  0.00     0.006 SA
ATOM     19  C   UNL     1       0.014  -8.527  -5.109  1.00  0.00     0.346 C 
ATOM     20  H   UNL     1       1.030  -8.286  -3.300  1.00  0.00     0.316 HD
ATOM     21  C   UNL     1      -0.438  -7.553  -6.144  1.00  0.00     0.110 C 
ATOM     22  O   UNL     1      -0.272  -9.714  -5.121  1.00  0.00    -0.240 OA
BRANCH  14  23
ATOM     23  C   UNL     1       1.631  -5.350  -2.605  1.00  0.00     0.125 A 
ATOM     24  C   UNL     1       0.903  -4.015  -0.246  1.00  0.00     0.119 A 
ATOM     25  C   UNL     1      -0.008  -4.854  -0.872  1.00  0.00     0.051 A 
ATOM     26  C   UNL     1       2.223  -3.985  -0.682  1.00  0.00     0.051 A 
ATOM     27  C   UNL     1       0.367  -5.544  -2.029  1.00  0.00     0.055 A 
ATOM     28  C   UNL     1       2.578  -4.621  -1.878  1.00  0.00     0.055 A 
BRANCH  24  29
ATOM     29  O   UNL     1       0.556  -3.235   0.821  1.00  0.00    -0.497 OA
ATOM     30  C   UNL     1      -0.446  -2.272   0.477  1.00  0.00     0.278 C 
ENDBRANCH  24  29
ENDBRANCH  14  23
ENDBRANCH   8  13
ENDBRANCH   4   7
ENDBRANCH   2   3
ENDBRANCH   1   2
BRANCH   1  31
ATOM     31  C   UNL     1      -2.833  -3.602  -3.238  1.00  0.00     0.023 C 
BRANCH  31  32
ATOM     32  C   UNL     1      -1.431  -3.145  -3.662  1.00  0.00     0.116 C 
BRANCH  32  33
ATOM     33  N   UNL     1      -1.383  -2.196  -4.762  1.00  0.00    -0.352 N 
ATOM     34  C   UNL     1      -0.632  -1.045  -4.915  1.00  0.00     0.251 C 
ATOM     35  H   UNL     1      -1.979  -2.405  -5.517  1.00  0.00     0.163 HD
ATOM     36  O   UNL     1      -0.734  -0.396  -5.954  1.00  0.00    -0.269 OA
BRANCH  34  37
ATOM     37  C   UNL     1       0.267  -0.544  -3.840  1.00  0.00     0.039 A 
ATOM     38  C   UNL     1       0.226   0.810  -3.485  1.00  0.00     0.014 A 
ATOM     39  C   UNL     1       1.167  -1.374  -3.186  1.00  0.00     0.014 A 
ATOM     40  C   UNL     1       0.980   1.291  -2.396  1.00  0.00     0.010 A 
ATOM     41  C   UNL     1       1.871  -0.899  -2.071  1.00  0.00     0.010 A 
ATOM     42  C   UNL     1       1.757   0.421  -1.614  1.00  0.00    -0.014 A 
BRANCH  42  43
ATOM     43  C   UNL     1       2.338   0.819  -0.280  1.00  0.00     0.031 A 
ATOM     44  C   UNL     1       3.783   0.548   0.100  1.00  0.00     0.074 A 
ATOM     45  C   UNL     1       1.521   1.281   0.696  1.00  0.00     0.049 A 
ATOM     46  N   UNL     1       4.401   0.783   1.237  1.00  0.00    -0.248 NA
ATOM     47  C   UNL     1       4.631  -0.117  -0.900  1.00  0.00     0.031 C 
ATOM     48  C   UNL     1       0.072   1.461   0.586  1.00  0.00     0.029 A 
ATOM     49  N   UNL     1       1.792   1.648   1.998  1.00  0.00    -0.354 N 
ATOM     50  C   UNL     1       5.691   0.285   1.090  1.00  0.00     0.074 A 
ATOM     51  C   UNL     1       5.736  -0.355  -0.208  1.00  0.00     0.031 C 
ATOM     52  C   UNL     1      -0.413   1.904   1.757  1.00  0.00     0.029 A 
ATOM     53  C   UNL     1       0.682   2.035   2.711  1.00  0.00     0.049 A 
ATOM     54  H   UNL     1       2.699   1.635   2.381  1.00  0.00     0.167 HD
ATOM     55  C   UNL     1       6.763   0.394   1.918  1.00  0.00     0.037 A 
ATOM     56  C   UNL     1       0.541   2.461   3.982  1.00  0.00     0.037 A 
ATOM     57  C   UNL     1       6.760   1.073   3.190  1.00  0.00     0.049 A 
ATOM     58  C   UNL     1       1.744   2.646   4.862  1.00  0.00     0.074 A 
ATOM     59  C   UNL     1       7.835   1.371   4.013  1.00  0.00     0.029 A 
ATOM     60  N   UNL     1       5.630   1.553   3.829  1.00  0.00    -0.354 N 
ATOM     61  N   UNL     1       2.996   2.346   4.625  1.00  0.00    -0.248 NA
ATOM     62  C   UNL     1       1.517   3.275   6.173  1.00  0.00     0.031 C 
ATOM     63  C   UNL     1       7.352   2.006   5.164  1.00  0.00     0.029 A 
ATOM     64  C   UNL     1       5.981   2.141   5.036  1.00  0.00     0.049 A 
ATOM     65  H   UNL     1       4.712   1.487   3.479  1.00  0.00     0.167 HD
ATOM     66  C   UNL     1       3.711   2.807   5.725  1.00  0.00     0.074 A 
ATOM     67  C   UNL     1       2.753   3.397   6.634  1.00  0.00     0.031 C 
ATOM     68  C   UNL     1       5.047   2.759   5.941  1.00  0.00     0.037 A 
BRANCH  55  69
ATOM     69  C   UNL     1       8.073  -0.176   1.438  1.00  0.00     0.057 A 
ATOM     70  C   UNL     1       8.751   0.378   0.342  1.00  0.00     0.134 A 
ATOM     71  C   UNL     1       8.697  -1.236   2.108  1.00  0.00     0.134 A 
ATOM     72  F   UNL     1       8.216   1.401  -0.342  1.00  0.00    -0.206 F 
ATOM     73  C   UNL     1       9.974  -0.130  -0.099  1.00  0.00     0.040 A 
ATOM     74  C   UNL     1       9.938  -1.731   1.697  1.00  0.00     0.040 A 
ATOM     75  F   UNL     1       8.122  -1.800   3.181  1.00  0.00    -0.206 F 
ATOM     76  C   UNL     1      10.574  -1.184   0.584  1.00  0.00     0.006 A 
ENDBRANCH  55  69
BRANCH  56  77
ATOM     77  C   UNL     1      -0.803   2.839   4.487  1.00  0.00     0.057 A 
ATOM     78  C   UNL     1      -1.161   4.184   4.633  1.00  0.00     0.134 A 
ATOM     79  C   UNL     1      -1.746   1.873   4.852  1.00  0.00     0.134 A 
ATOM     80  F   UNL     1      -0.288   5.152   4.315  1.00  0.00    -0.206 F 
ATOM     81  C   UNL     1      -2.400   4.558   5.152  1.00  0.00     0.040 A 
ATOM     82  C   UNL     1      -2.998   2.233   5.354  1.00  0.00     0.040 A 
ATOM     83  F   UNL     1      -1.465   0.568   4.723  1.00  0.00    -0.206 F 
ATOM     84  C   UNL     1      -3.324   3.580   5.512  1.00  0.00     0.006 A 
ENDBRANCH  56  77
BRANCH  68  85
ATOM     85  C   UNL     1       5.578   3.442   7.169  1.00  0.00     0.057 A 
ATOM     86  C   UNL     1       5.363   2.944   8.461  1.00  0.00     0.134 A 
ATOM     87  C   UNL     1       6.326   4.622   7.052  1.00  0.00     0.134 A 
ATOM     88  F   UNL     1       4.643   1.828   8.648  1.00  0.00    -0.206 F 
ATOM     89  C   UNL     1       5.845   3.611   9.591  1.00  0.00     0.040 A 
ATOM     90  C   UNL     1       6.836   5.282   8.171  1.00  0.00     0.040 A 
ATOM     91  F   UNL     1       6.575   5.153   5.845  1.00  0.00    -0.206 F 
ATOM     92  C   UNL     1       6.588   4.781   9.447  1.00  0.00     0.006 A 
ENDBRANCH  68  85
ENDBRANCH  42  43
ENDBRANCH  34  37
ENDBRANCH  32  33
ENDBRANCH  31  32
ENDBRANCH   1  31
TORSDOF 14
