REMARK SMILES COc1ccc(C2=NN(C(=O)CCC(=O)NCCCCNC(=O)c3ccc(-c4c5nc(c(-c6c(F)cccc6F)c6ccc([nH]6)c(-c6c(F)cccc6F)c6nc(c(-c7c(F)cccc7F)c7ccc4[nH]7)C=C6)C=C5)cc3)[C@H](c3ccc(Cl)cc3Cl)C2)cc1
REMARK SMILES IDX 17 1 16 2 14 3 15 4 13 6 12 7 10 8 11 9 9 10 7 11 8 12 87 13
REMARK SMILES IDX 78 14 6 15 3 16 4 17 89 18 5 19 88 20 2 21 1 22 79 23 80 24
REMARK SMILES IDX 85 25 81 26 84 27 86 28 82 29 83 30 18 31 19 32 20 33 21 34
REMARK SMILES IDX 22 35 23 37 24 38 25 39 77 40 26 41 76 42 27 43 28 44 29 45
REMARK SMILES IDX 70 46 30 47 75 48 69 49 71 50 31 51 74 52 68 53 67 54 32 56
REMARK SMILES IDX 58 57 41 58 57 59 42 60 45 61 56 62 72 63 43 64 44 65 55 67
REMARK SMILES IDX 73 68 46 69 33 70 34 71 39 72 35 73 36 74 38 75 40 76 37 77
REMARK SMILES IDX 59 78 60 79 65 80 61 81 62 82 64 83 66 84 63 85 47 86 48 87
REMARK SMILES IDX 53 88 49 89 50 90 52 91 54 92 51 93
REMARK H PARENT 16 5 21 36 71 55 45 66
REMARK Flexibility Score: inf
ROOT
ATOM      1  C   UNL     1       4.148  -5.622   5.351  1.00  0.00     0.116 C 
ENDROOT
BRANCH   1   2
ATOM      2  N   UNL     1       5.316  -6.313   6.071  1.00  0.00    -0.356 N 
ATOM      3  C   UNL     1       5.669  -7.615   6.283  1.00  0.00     0.220 C 
ATOM      4  O   UNL     1       6.794  -7.775   6.773  1.00  0.00    -0.275 OA
ATOM      5  H   UNL     1       5.952  -5.675   6.467  1.00  0.00     0.163 HD
BRANCH   3   6
ATOM      6  C   UNL     1       4.826  -8.839   5.923  1.00  0.00     0.110 C 
BRANCH   6   7
ATOM      7  C   UNL     1       3.337  -8.927   6.235  1.00  0.00     0.112 C 
BRANCH   7   8
ATOM      8  C   UNL     1       2.585  -8.088   5.260  1.00  0.00     0.243 C 
ATOM      9  O   UNL     1       2.049  -8.539   4.257  1.00  0.00    -0.273 OA
BRANCH   8  10
ATOM     10  N   UNL     1       2.697  -6.759   5.596  1.00  0.00    -0.225 N 
ATOM     11  C   UNL     1       3.159  -3.997   4.721  1.00  0.00     0.071 C 
ATOM     12  N   UNL     1       2.741  -5.458   4.160  1.00  0.00    -0.174 NA
ATOM     13  C   UNL     1       3.749  -4.041   6.580  1.00  0.00     0.091 C 
ATOM     14  C   UNL     1       3.300  -5.835   7.224  1.00  0.00     0.149 C 
BRANCH  11  15
ATOM     15  C   UNL     1       2.760  -2.644   4.321  1.00  0.00    -0.002 A 
ATOM     16  C   UNL     1       1.688  -0.714   2.844  1.00  0.00     0.118 A 
ATOM     17  C   UNL     1       0.888  -1.227   3.840  1.00  0.00     0.047 A 
ATOM     18  C   UNL     1       3.082  -0.726   3.051  1.00  0.00     0.047 A 
ATOM     19  C   UNL     1       1.468  -2.178   4.644  1.00  0.00     0.014 A 
ATOM     20  C   UNL     1       3.640  -1.814   3.690  1.00  0.00     0.014 A 
BRANCH  16  21
ATOM     21  O   UNL     1       0.990  -0.647   1.589  1.00  0.00    -0.497 OA
ATOM     22  C   UNL     1       0.744  -0.513  -0.388  1.00  0.00     0.278 C 
ENDBRANCH  16  21
ENDBRANCH  11  15
BRANCH  14  23
ATOM     23  C   UNL     1       2.663  -5.776   8.659  1.00  0.00    -0.004 A 
ATOM     24  C   UNL     1       2.136  -4.546   9.125  1.00  0.00     0.009 A 
ATOM     25  C   UNL     1       3.021  -6.700   9.684  1.00  0.00     0.047 A 
ATOM     26  C   UNL     1       2.026  -4.239  10.491  1.00  0.00     0.021 A 
ATOM     27  C   UNL     1       2.805  -6.429  11.046  1.00  0.00     0.041 A 
ATOM     28  Cl  UNL     1       4.000  -8.110   9.446  1.00  0.00    -0.084 Cl
ATOM     29  C   UNL     1       2.344  -5.189  11.446  1.00  0.00     0.042 A 
ATOM     30  Cl  UNL     1       2.251  -4.805  13.118  1.00  0.00    -0.084 Cl
ENDBRANCH  14  23
ENDBRANCH   8  10
ENDBRANCH   7   8
ENDBRANCH   6   7
ENDBRANCH   3   6
ENDBRANCH   1   2
BRANCH   1  31
ATOM     31  C   UNL     1       2.034  -5.068   5.841  1.00  0.00     0.023 C 
BRANCH  31  32
ATOM     32  C   UNL     1       0.625  -5.083   4.531  1.00  0.00     0.023 C 
BRANCH  32  33
ATOM     33  C   UNL     1       0.844  -4.701   2.925  1.00  0.00     0.116 C 
BRANCH  33  34
ATOM     34  N   UNL     1      -0.278  -4.535   2.004  1.00  0.00    -0.352 N 
ATOM     35  C   UNL     1      -0.311  -3.693   0.890  1.00  0.00     0.251 C 
ATOM     36  H   UNL     1      -1.087  -5.067   2.186  1.00  0.00     0.163 HD
ATOM     37  O   UNL     1      -0.971  -3.998  -0.103  1.00  0.00    -0.269 OA
BRANCH  35  38
ATOM     38  C   UNL     1       0.292  -2.338   0.882  1.00  0.00     0.039 A 
ATOM     39  C   UNL     1      -0.870  -0.982   1.114  1.00  0.00     0.014 A 
ATOM     40  C   UNL     1       2.026  -1.986   0.569  1.00  0.00     0.014 A 
ATOM     41  C   UNL     1      -0.305   0.722   1.136  1.00  0.00     0.010 A 
ATOM     42  C   UNL     1       2.617  -0.251   0.560  1.00  0.00     0.010 A 
ATOM     43  C   UNL     1       1.454   1.112   0.917  1.00  0.00    -0.014 A 
BRANCH  43  44
ATOM     44  C   UNL     1       1.907   2.500   1.217  1.00  0.00     0.031 A 
ATOM     45  C   UNL     1       2.863   3.170   0.284  1.00  0.00     0.074 A 
ATOM     46  C   UNL     1       1.487   3.145   2.333  1.00  0.00     0.049 A 
ATOM     47  N   UNL     1       3.333   4.389   0.314  1.00  0.00    -0.248 NA
ATOM     48  C   UNL     1       3.392   2.356  -0.819  1.00  0.00     0.031 C 
ATOM     49  C   UNL     1       0.645   2.584   3.396  1.00  0.00     0.029 A 
ATOM     50  N   UNL     1       1.706   4.435   2.771  1.00  0.00    -0.354 N 
ATOM     51  C   UNL     1       4.194   4.476  -0.771  1.00  0.00     0.074 A 
ATOM     52  C   UNL     1       4.298   3.159  -1.345  1.00  0.00     0.031 C 
ATOM     53  C   UNL     1       0.377   3.522   4.318  1.00  0.00     0.029 A 
ATOM     54  C   UNL     1       1.044   4.757   3.938  1.00  0.00     0.049 A 
ATOM     55  H   UNL     1       2.286   5.071   2.292  1.00  0.00     0.167 HD
ATOM     56  C   UNL     1       4.780   5.571  -1.301  1.00  0.00     0.037 A 
ATOM     57  C   UNL     1       0.963   5.921   4.616  1.00  0.00     0.037 A 
ATOM     58  C   UNL     1       4.660   6.881  -0.732  1.00  0.00     0.049 A 
ATOM     59  C   UNL     1       1.663   7.123   4.039  1.00  0.00     0.074 A 
ATOM     60  C   UNL     1       5.186   8.072  -1.191  1.00  0.00     0.029 A 
ATOM     61  N   UNL     1       3.972   7.162   0.440  1.00  0.00    -0.354 N 
ATOM     62  N   UNL     1       2.372   7.215   2.938  1.00  0.00    -0.248 NA
ATOM     63  C   UNL     1       1.542   8.386   4.780  1.00  0.00     0.031 C 
ATOM     64  C   UNL     1       4.879   9.063  -0.254  1.00  0.00     0.029 A 
ATOM     65  C   UNL     1       4.095   8.504   0.744  1.00  0.00     0.049 A 
ATOM     66  H   UNL     1       3.471   6.504   0.974  1.00  0.00     0.167 HD
ATOM     67  C   UNL     1       2.749   8.546   2.836  1.00  0.00     0.074 A 
ATOM     68  C   UNL     1       2.174   9.229   3.977  1.00  0.00     0.031 C 
ATOM     69  C   UNL     1       3.503   9.153   1.886  1.00  0.00     0.037 A 
BRANCH  56  70
ATOM     70  C   UNL     1       5.583   5.370  -2.553  1.00  0.00     0.057 A 
ATOM     71  C   UNL     1       4.985   4.975  -3.760  1.00  0.00     0.134 A 
ATOM     72  C   UNL     1       6.972   5.527  -2.542  1.00  0.00     0.134 A 
ATOM     73  F   UNL     1       3.659   4.779  -3.832  1.00  0.00    -0.206 F 
ATOM     74  C   UNL     1       5.746   4.696  -4.896  1.00  0.00     0.040 A 
ATOM     75  C   UNL     1       7.740   5.287  -3.683  1.00  0.00     0.040 A 
ATOM     76  F   UNL     1       7.609   5.897  -1.421  1.00  0.00    -0.206 F 
ATOM     77  C   UNL     1       7.128   4.857  -4.859  1.00  0.00     0.006 A 
ENDBRANCH  56  70
BRANCH  57  78
ATOM     78  C   UNL     1       0.165   6.035   5.874  1.00  0.00     0.057 A 
ATOM     79  C   UNL     1      -0.983   6.838   5.944  1.00  0.00     0.134 A 
ATOM     80  C   UNL     1       0.550   5.381   7.052  1.00  0.00     0.134 A 
ATOM     81  F   UNL     1      -1.403   7.508   4.861  1.00  0.00    -0.206 F 
ATOM     82  C   UNL     1      -1.693   7.013   7.136  1.00  0.00     0.040 A 
ATOM     83  C   UNL     1      -0.168   5.523   8.244  1.00  0.00     0.040 A 
ATOM     84  F   UNL     1       1.632   4.589   7.064  1.00  0.00    -0.206 F 
ATOM     85  C   UNL     1      -1.286   6.352   8.292  1.00  0.00     0.006 A 
ENDBRANCH  57  78
BRANCH  69  86
ATOM     86  C   UNL     1       3.722  10.630   2.022  1.00  0.00     0.057 A 
ATOM     87  C   UNL     1       4.530  11.171   3.029  1.00  0.00     0.134 A 
ATOM     88  C   UNL     1       3.173  11.514   1.083  1.00  0.00     0.134 A 
ATOM     89  F   UNL     1       5.078  10.377   3.962  1.00  0.00    -0.206 F 
ATOM     90  C   UNL     1       4.765  12.543   3.112  1.00  0.00     0.040 A 
ATOM     91  C   UNL     1       3.433  12.882   1.133  1.00  0.00     0.040 A 
ATOM     92  F   UNL     1       2.403  11.057   0.084  1.00  0.00    -0.206 F 
ATOM     93  C   UNL     1       4.225  13.400   2.155  1.00  0.00     0.006 A 
ENDBRANCH  69  86
ENDBRANCH  43  44
ENDBRANCH  35  38
ENDBRANCH  33  34
ENDBRANCH  32  33
ENDBRANCH  31  32
ENDBRANCH   1  31
TORSDOF 17
