REMARK SMILES Cc1cc2c(c(C)c1Cl)C=C(C(=O)NCCCCNC(=O)c1ccc(-c3c4nc(c(-c5c(F)cccc5F)c5ccc([nH]5)c(-c5c(F)cccc5F)c5nc(c(-c6c(F)cccc6F)c6ccc3[nH]6)C=C5)C=C4)cc1)[C@@H](C(F)(F)F)O2
REMARK SMILES IDX 17 1 16 2 15 3 14 4 12 5 13 6 11 8 1 9 2 10 3 11 8 12 4 13
REMARK SMILES IDX 6 14 9 15 5 16 81 17 7 18 10 19 76 20 77 21 78 22 79 23
REMARK SMILES IDX 80 24 18 25 19 26 20 27 21 29 22 30 23 31 75 32 24 33 74 34
REMARK SMILES IDX 25 35 26 36 27 37 68 38 28 39 73 40 67 41 69 42 29 43 72 44
REMARK SMILES IDX 66 45 65 46 30 48 56 49 39 50 55 51 40 52 43 53 54 54 70 55
REMARK SMILES IDX 41 56 42 57 53 59 71 60 44 61 31 62 32 63 37 64 33 65 34 66
REMARK SMILES IDX 36 67 38 68 35 69 57 70 58 71 63 72 59 73 60 74 62 75 64 76
REMARK SMILES IDX 61 77 45 78 46 79 51 80 47 81 48 82 50 83 52 84 49 85
REMARK H PARENT 14 7 19 28 69 47 43 58
REMARK Flexibility Score: inf
ROOT
ATOM      1  C   UNL     1       1.178  -7.447   7.979  1.00  0.00     0.023 C 
ENDROOT
BRANCH   1   2
ATOM      2  C   UNL     1       1.134  -6.685   6.652  1.00  0.00     0.023 C 
BRANCH   2   3
ATOM      3  C   UNL     1      -0.265  -6.237   6.238  1.00  0.00     0.116 C 
BRANCH   3   4
ATOM      4  N   UNL     1      -0.644  -4.989   6.874  1.00  0.00    -0.352 N 
ATOM      5  C   UNL     1      -0.744  -3.688   6.514  1.00  0.00     0.251 C 
ATOM      6  O   UNL     1      -1.111  -2.925   7.414  1.00  0.00    -0.270 OA
ATOM      7  H   UNL     1      -0.894  -5.125   7.817  1.00  0.00     0.163 HD
BRANCH   5   8
ATOM      8  C   UNL     1      -0.453  -3.142   5.155  1.00  0.00     0.067 C 
ATOM      9  C   UNL     1       0.872   0.448  -0.116  1.00  0.00     0.046 C 
ATOM     10  C   UNL     1       0.448  -0.069   1.232  1.00  0.00    -0.028 A 
ATOM     11  C   UNL     1       0.605  -1.435   1.485  1.00  0.00     0.052 A 
ATOM     12  C   UNL     1      -0.029   0.762   2.266  1.00  0.00     0.047 A 
ATOM     13  C   UNL     1       0.273  -1.970   2.725  1.00  0.00     0.128 A 
ATOM     14  C   UNL     1      -0.391   0.226   3.529  1.00  0.00    -0.021 A 
ATOM     15  Cl  UNL     1      -0.135   2.473   1.976  1.00  0.00    -0.084 Cl
ATOM     16  C   UNL     1      -0.213  -1.160   3.756  1.00  0.00     0.022 A 
ATOM     17  O   UNL     1       0.506  -3.307   2.866  1.00  0.00    -0.475 OA
ATOM     18  C   UNL     1      -0.928   1.100   4.638  1.00  0.00     0.047 C 
ATOM     19  C   UNL     1      -0.460  -1.799   5.054  1.00  0.00     0.026 C 
ATOM     20  C   UNL     1      -0.200  -3.981   3.940  1.00  0.00     0.314 C 
BRANCH  20  21
ATOM     21  C   UNL     1      -1.482  -4.626   3.382  1.00  0.00     0.429 C 
ATOM     22  F   UNL     1      -1.172  -5.609   2.501  1.00  0.00    -0.167 F 
ATOM     23  F   UNL     1      -2.233  -5.204   4.349  1.00  0.00    -0.167 F 
ATOM     24  F   UNL     1      -2.276  -3.741   2.742  1.00  0.00    -0.167 F 
ENDBRANCH  20  21
ENDBRANCH   5   8
ENDBRANCH   3   4
ENDBRANCH   2   3
ENDBRANCH   1   2
BRANCH   1  25
ATOM     25  C   UNL     1       0.253  -8.659   8.068  1.00  0.00     0.116 C 
BRANCH  25  26
ATOM     26  N   UNL     1       0.378  -9.581   6.947  1.00  0.00    -0.352 N 
ATOM     27  C   UNL     1       0.233 -10.948   6.959  1.00  0.00     0.251 C 
ATOM     28  H   UNL     1       0.591  -9.176   6.075  1.00  0.00     0.163 HD
ATOM     29  O   UNL     1       0.425 -11.615   5.949  1.00  0.00    -0.269 OA
BRANCH  27  30
ATOM     30  C   UNL     1      -0.110 -11.601   8.234  1.00  0.00     0.039 A 
ATOM     31  C   UNL     1       0.767 -12.552   8.756  1.00  0.00     0.014 A 
ATOM     32  C   UNL     1      -1.237 -11.188   8.950  1.00  0.00     0.014 A 
ATOM     33  C   UNL     1       0.555 -13.036  10.045  1.00  0.00     0.010 A 
ATOM     34  C   UNL     1      -1.411 -11.625  10.258  1.00  0.00     0.010 A 
ATOM     35  C   UNL     1      -0.510 -12.544  10.818  1.00  0.00    -0.014 A 
BRANCH  35  36
ATOM     36  C   UNL     1      -0.686 -12.978  12.222  1.00  0.00     0.031 A 
ATOM     37  C   UNL     1      -1.869 -13.816  12.606  1.00  0.00     0.074 A 
ATOM     38  C   UNL     1       0.201 -12.582  13.155  1.00  0.00     0.049 A 
ATOM     39  N   UNL     1      -2.197 -14.288  13.780  1.00  0.00    -0.248 NA
ATOM     40  C   UNL     1      -2.821 -14.148  11.534  1.00  0.00     0.031 C 
ATOM     41  C   UNL     1       1.363 -11.725  12.910  1.00  0.00     0.029 A 
ATOM     42  N   UNL     1       0.266 -12.854  14.498  1.00  0.00    -0.354 N 
ATOM     43  C   UNL     1      -3.391 -14.970  13.589  1.00  0.00     0.074 A 
ATOM     44  C   UNL     1      -3.761 -14.801  12.201  1.00  0.00     0.031 C 
ATOM     45  C   UNL     1       2.048 -11.576  14.055  1.00  0.00     0.029 A 
ATOM     46  C   UNL     1       1.363 -12.306  15.118  1.00  0.00     0.049 A 
ATOM     47  H   UNL     1      -0.408 -13.391  14.973  1.00  0.00     0.167 HD
ATOM     48  C   UNL     1      -4.098 -15.698  14.482  1.00  0.00     0.037 A 
ATOM     49  C   UNL     1       1.774 -12.396  16.396  1.00  0.00     0.037 A 
ATOM     50  C   UNL     1      -3.712 -15.890  15.853  1.00  0.00     0.049 A 
ATOM     51  C   UNL     1       0.967 -13.204  17.372  1.00  0.00     0.074 A 
ATOM     52  C   UNL     1      -4.330 -16.659  16.823  1.00  0.00     0.029 A 
ATOM     53  N   UNL     1      -2.603 -15.308  16.447  1.00  0.00    -0.354 N 
ATOM     54  N   UNL     1      -0.127 -13.894  17.164  1.00  0.00    -0.248 NA
ATOM     55  C   UNL     1       1.451 -13.246  18.760  1.00  0.00     0.031 C 
ATOM     56  C   UNL     1      -3.608 -16.522  18.012  1.00  0.00     0.029 A 
ATOM     57  C   UNL     1      -2.526 -15.688  17.775  1.00  0.00     0.049 A 
ATOM     58  H   UNL     1      -1.964 -14.713  15.991  1.00  0.00     0.167 HD
ATOM     59  C   UNL     1      -0.454 -14.466  18.385  1.00  0.00     0.074 A 
ATOM     60  C   UNL     1       0.562 -14.050  19.329  1.00  0.00     0.031 C 
ATOM     61  C   UNL     1      -1.504 -15.265  18.696  1.00  0.00     0.037 A 
BRANCH  48  62
ATOM     62  C   UNL     1      -5.346 -16.363  13.990  1.00  0.00     0.057 A 
ATOM     63  C   UNL     1      -5.293 -17.484  13.152  1.00  0.00     0.134 A 
ATOM     64  C   UNL     1      -6.609 -15.896  14.372  1.00  0.00     0.134 A 
ATOM     65  F   UNL     1      -4.112 -17.968  12.739  1.00  0.00    -0.206 F 
ATOM     66  C   UNL     1      -6.454 -18.107  12.694  1.00  0.00     0.040 A 
ATOM     67  C   UNL     1      -7.777 -16.523  13.936  1.00  0.00     0.040 A 
ATOM     68  F   UNL     1      -6.727 -14.827  15.173  1.00  0.00    -0.206 F 
ATOM     69  C   UNL     1      -7.701 -17.629  13.091  1.00  0.00     0.006 A 
ENDBRANCH  48  62
BRANCH  49  70
ATOM     70  C   UNL     1       3.040 -11.747  16.812  1.00  0.00     0.057 A 
ATOM     71  C   UNL     1       4.189 -12.510  17.049  1.00  0.00     0.134 A 
ATOM     72  C   UNL     1       3.140 -10.360  16.965  1.00  0.00     0.134 A 
ATOM     73  F   UNL     1       4.147 -13.845  16.931  1.00  0.00    -0.206 F 
ATOM     74  C   UNL     1       5.393 -11.918  17.433  1.00  0.00     0.040 A 
ATOM     75  C   UNL     1       4.343  -9.752  17.333  1.00  0.00     0.040 A 
ATOM     76  F   UNL     1       2.075  -9.575  16.745  1.00  0.00    -0.206 F 
ATOM     77  C   UNL     1       5.473 -10.534  17.571  1.00  0.00     0.006 A 
ENDBRANCH  49  70
BRANCH  61  78
ATOM     78  C   UNL     1      -1.607 -15.751  20.108  1.00  0.00     0.057 A 
ATOM     79  C   UNL     1      -2.087 -14.924  21.129  1.00  0.00     0.134 A 
ATOM     80  C   UNL     1      -1.306 -17.079  20.430  1.00  0.00     0.134 A 
ATOM     81  F   UNL     1      -2.382 -13.639  20.881  1.00  0.00    -0.206 F 
ATOM     82  C   UNL     1      -2.264 -15.403  22.427  1.00  0.00     0.040 A 
ATOM     83  C   UNL     1      -1.495 -17.574  21.720  1.00  0.00     0.040 A 
ATOM     84  F   UNL     1      -0.849 -17.921  19.491  1.00  0.00    -0.206 F 
ATOM     85  C   UNL     1      -1.977 -16.735  22.723  1.00  0.00     0.006 A 
ENDBRANCH  61  78
ENDBRANCH  35  36
ENDBRANCH  27  30
ENDBRANCH  25  26
ENDBRANCH   1  25
TORSDOF 12
