REMARK SMILES Cc1cc(C(=O)N[C@H]2C=C[C@@H](C(=O)NCCCCNC(=O)c3ccc(-c4c5nc(c(-c6c(F)cccc6F)c6ccc([nH]6)c(-c6c(F)cccc6F)c6nc(c(-c7c(F)cccc7F)c7ccc4[nH]7)C=C6)C=C5)cc3)C2)no1
REMARK SMILES IDX 16 1 15 2 14 3 12 4 13 5 11 7 8 8 9 9 76 10 10 11 7 12 5 13
REMARK SMILES IDX 6 14 4 16 1 17 2 18 3 19 78 20 77 21 17 22 18 23 19 24 20 25
REMARK SMILES IDX 21 27 22 28 23 29 75 30 24 31 74 32 25 33 26 34 27 35 68 36
REMARK SMILES IDX 28 37 73 38 67 39 69 40 29 41 72 42 66 43 65 44 30 46 56 47
REMARK SMILES IDX 39 48 55 49 40 50 43 51 54 52 70 53 41 54 42 55 53 57 71 58
REMARK SMILES IDX 44 59 31 60 32 61 37 62 33 63 34 64 36 65 38 66 35 67 57 68
REMARK SMILES IDX 58 69 63 70 59 71 60 72 62 73 64 74 61 75 45 76 46 77 51 78
REMARK SMILES IDX 47 79 48 80 50 81 52 82 49 83
REMARK H PARENT 14 6 7 15 19 26 69 45 43 56
REMARK Flexibility Score: inf
ROOT
ATOM      1  C   UNL     1      -3.812  -5.251   2.708  1.00  0.00     0.023 C 
ENDROOT
BRANCH   1   2
ATOM      2  C   UNL     1      -2.398  -4.960   3.205  1.00  0.00     0.116 C 
BRANCH   2   3
ATOM      3  N   UNL     1      -1.575  -6.154   3.209  1.00  0.00    -0.356 N 
ATOM      4  C   UNL     1      -0.464  -6.481   2.494  1.00  0.00     0.227 C 
ATOM      5  O   UNL     1       0.047  -7.583   2.721  1.00  0.00    -0.274 OA
ATOM      6  H   UNL     1      -1.871  -6.850   3.840  1.00  0.00     0.163 HD
BRANCH   4   7
ATOM      7  C   UNL     1       0.165  -5.548   1.455  1.00  0.00     0.103 C 
ATOM      8  C   UNL     1      -0.567  -3.654   0.057  1.00  0.00     0.106 C 
ATOM      9  C   UNL     1       0.160  -3.210   1.286  1.00  0.00    -0.006 C 
ATOM     10  C   UNL     1      -0.741  -5.171   0.278  1.00  0.00     0.047 C 
ATOM     11  C   UNL     1       0.580  -4.235   2.033  1.00  0.00    -0.016 C 
BRANCH   8  12
ATOM     12  N   UNL     1      -1.841  -2.981  -0.081  1.00  0.00    -0.344 N 
ATOM     13  C   UNL     1      -2.139  -1.650  -0.280  1.00  0.00     0.273 C 
ATOM     14  O   UNL     1      -3.326  -1.349  -0.410  1.00  0.00    -0.267 OA
ATOM     15  H   UNL     1      -2.626  -3.572  -0.023  1.00  0.00     0.164 HD
BRANCH  13  16
ATOM     16  C   UNL     1      -1.065  -0.659  -0.273  1.00  0.00     0.171 A 
ATOM     17  C   UNL     1       2.214   0.960  -0.636  1.00  0.00     0.091 C 
ATOM     18  C   UNL     1       0.854   0.424  -0.460  1.00  0.00     0.134 A 
ATOM     19  C   UNL     1       0.187  -0.672  -0.946  1.00  0.00     0.082 A 
ATOM     20  O   UNL     1       0.033   1.110   0.375  1.00  0.00    -0.361 OA
ATOM     21  N   UNL     1      -1.172   0.447   0.484  1.00  0.00    -0.074 NA
ENDBRANCH  13  16
ENDBRANCH   8  12
ENDBRANCH   4   7
ENDBRANCH   2   3
ENDBRANCH   1   2
BRANCH   1  22
ATOM     22  C   UNL     1      -4.667  -6.102   3.653  1.00  0.00     0.023 C 
BRANCH  22  23
ATOM     23  C   UNL     1      -4.841  -5.544   5.064  1.00  0.00     0.116 C 
BRANCH  23  24
ATOM     24  N   UNL     1      -5.395  -4.202   5.085  1.00  0.00    -0.352 N 
ATOM     25  C   UNL     1      -6.212  -3.613   6.016  1.00  0.00     0.251 C 
ATOM     26  H   UNL     1      -5.148  -3.633   4.320  1.00  0.00     0.163 HD
ATOM     27  O   UNL     1      -6.663  -2.490   5.807  1.00  0.00    -0.269 OA
BRANCH  25  28
ATOM     28  C   UNL     1      -6.584  -4.329   7.255  1.00  0.00     0.039 A 
ATOM     29  C   UNL     1      -7.918  -4.275   7.673  1.00  0.00     0.014 A 
ATOM     30  C   UNL     1      -5.636  -5.008   8.026  1.00  0.00     0.014 A 
ATOM     31  C   UNL     1      -8.311  -4.937   8.836  1.00  0.00     0.010 A 
ATOM     32  C   UNL     1      -6.036  -5.705   9.165  1.00  0.00     0.010 A 
ATOM     33  C   UNL     1      -7.375  -5.670   9.582  1.00  0.00    -0.014 A 
BRANCH  33  34
ATOM     34  C   UNL     1      -7.789  -6.389  10.808  1.00  0.00     0.031 A 
ATOM     35  C   UNL     1      -7.366  -5.891  12.159  1.00  0.00     0.074 A 
ATOM     36  C   UNL     1      -8.506  -7.523  10.701  1.00  0.00     0.049 A 
ATOM     37  N   UNL     1      -7.618  -6.395  13.340  1.00  0.00    -0.248 NA
ATOM     38  C   UNL     1      -6.527  -4.683  12.184  1.00  0.00     0.031 C 
ATOM     39  C   UNL     1      -8.919  -8.148   9.443  1.00  0.00     0.029 A 
ATOM     40  N   UNL     1      -9.004  -8.357  11.669  1.00  0.00    -0.354 N 
ATOM     41  C   UNL     1      -6.944  -5.588  14.246  1.00  0.00     0.074 A 
ATOM     42  C   UNL     1      -6.258  -4.570  13.477  1.00  0.00     0.031 C 
ATOM     43  C   UNL     1      -9.618  -9.261   9.717  1.00  0.00     0.029 A 
ATOM     44  C   UNL     1      -9.697  -9.428  11.166  1.00  0.00     0.049 A 
ATOM     45  H   UNL     1      -8.876  -8.201  12.632  1.00  0.00     0.167 HD
ATOM     46  C   UNL     1      -6.907  -5.681  15.596  1.00  0.00     0.037 A 
ATOM     47  C   UNL     1     -10.336 -10.426  11.803  1.00  0.00     0.037 A 
ATOM     48  C   UNL     1      -7.626  -6.659  16.366  1.00  0.00     0.049 A 
ATOM     49  C   UNL     1     -10.378 -10.441  13.302  1.00  0.00     0.074 A 
ATOM     50  C   UNL     1      -7.710  -6.787  17.741  1.00  0.00     0.029 A 
ATOM     51  N   UNL     1      -8.395  -7.675  15.821  1.00  0.00    -0.354 N 
ATOM     52  N   UNL     1      -9.796  -9.628  14.150  1.00  0.00    -0.248 NA
ATOM     53  C   UNL     1     -11.181 -11.498  13.933  1.00  0.00     0.031 C 
ATOM     54  C   UNL     1      -8.526  -7.888  18.029  1.00  0.00     0.029 A 
ATOM     55  C   UNL     1      -8.959  -8.434  16.832  1.00  0.00     0.049 A 
ATOM     56  H   UNL     1      -8.522  -7.833  14.858  1.00  0.00     0.167 HD
ATOM     57  C   UNL     1     -10.173 -10.064  15.412  1.00  0.00     0.074 A 
ATOM     58  C   UNL     1     -11.041 -11.208  15.220  1.00  0.00     0.031 C 
ATOM     59  C   UNL     1      -9.828  -9.561  16.622  1.00  0.00     0.037 A 
BRANCH  46  60
ATOM     60  C   UNL     1      -6.053  -4.689  16.322  1.00  0.00     0.057 A 
ATOM     61  C   UNL     1      -6.468  -3.367  16.518  1.00  0.00     0.134 A 
ATOM     62  C   UNL     1      -4.804  -5.063  16.833  1.00  0.00     0.134 A 
ATOM     63  F   UNL     1      -7.647  -2.946  16.035  1.00  0.00    -0.206 F 
ATOM     64  C   UNL     1      -5.660  -2.442  17.181  1.00  0.00     0.040 A 
ATOM     65  C   UNL     1      -3.994  -4.151  17.511  1.00  0.00     0.040 A 
ATOM     66  F   UNL     1      -4.351  -6.315  16.675  1.00  0.00    -0.206 F 
ATOM     67  C   UNL     1      -4.420  -2.835  17.682  1.00  0.00     0.006 A 
ENDBRANCH  46  60
BRANCH  47  68
ATOM     68  C   UNL     1     -11.035 -11.465  11.015  1.00  0.00     0.057 A 
ATOM     69  C   UNL     1     -12.419 -11.413  10.826  1.00  0.00     0.134 A 
ATOM     70  C   UNL     1     -10.334 -12.518  10.418  1.00  0.00     0.134 A 
ATOM     71  F   UNL     1     -13.140 -10.432  11.388  1.00  0.00    -0.206 F 
ATOM     72  C   UNL     1     -13.088 -12.380  10.074  1.00  0.00     0.040 A 
ATOM     73  C   UNL     1     -10.988 -13.485   9.655  1.00  0.00     0.040 A 
ATOM     74  F   UNL     1      -9.004 -12.613  10.562  1.00  0.00    -0.206 F 
ATOM     75  C   UNL     1     -12.370 -13.418   9.483  1.00  0.00     0.006 A 
ENDBRANCH  47  68
BRANCH  59  76
ATOM     76  C   UNL     1     -10.408 -10.234  17.825  1.00  0.00     0.057 A 
ATOM     77  C   UNL     1      -9.869 -11.424  18.327  1.00  0.00     0.134 A 
ATOM     78  C   UNL     1     -11.496  -9.672  18.503  1.00  0.00     0.134 A 
ATOM     79  F   UNL     1      -8.834 -12.014  17.711  1.00  0.00    -0.206 F 
ATOM     80  C   UNL     1     -10.401 -12.040  19.460  1.00  0.00     0.040 A 
ATOM     81  C   UNL     1     -12.029 -10.273  19.643  1.00  0.00     0.040 A 
ATOM     82  F   UNL     1     -12.054  -8.532  18.067  1.00  0.00    -0.206 F 
ATOM     83  C   UNL     1     -11.483 -11.462  20.123  1.00  0.00     0.006 A 
ENDBRANCH  59  76
ENDBRANCH  33  34
ENDBRANCH  25  28
ENDBRANCH  23  24
ENDBRANCH  22  23
ENDBRANCH   1  22
TORSDOF 13
