REMARK SMILES CC[C@H](C)[C@@H](NC(=O)c1csc(NC(C)=O)n1)C(=O)NCCCCNC(=O)c1ccc(-c2c3nc(c(-c4c(F)cccc4F)c4ccc([nH]4)c(-c4c(F)cccc4F)c4nc(c(-c5c(F)cccc5F)c5ccc2[nH]5)C=C4)C=C3)cc1
REMARK SMILES IDX 22 1 21 2 20 3 18 4 19 5 5 7 3 8 4 9 2 10 1 11 6 12 7 13
REMARK SMILES IDX 8 15 9 16 10 17 17 18 11 19 12 20 13 21 14 22 15 24 16 25
REMARK SMILES IDX 23 26 24 27 25 28 26 29 27 31 28 32 29 33 81 34 30 35 80 36
REMARK SMILES IDX 31 37 32 38 33 39 74 40 34 41 79 42 73 43 75 44 35 45 78 46
REMARK SMILES IDX 72 47 71 48 36 50 62 51 45 52 61 53 46 54 49 55 60 56 76 57
REMARK SMILES IDX 47 58 48 59 59 61 77 62 50 63 37 64 38 65 43 66 39 67 40 68
REMARK SMILES IDX 42 69 44 70 41 71 63 72 64 73 69 74 65 75 66 76 68 77 70 78
REMARK SMILES IDX 67 79 51 80 52 81 57 82 53 83 54 84 56 85 58 86 55 87
REMARK H PARENT 20 6 6 14 13 23 25 30 75 49 49 60
REMARK Flexibility Score: inf
ROOT
ATOM      1  C   UNL     1       4.529  -2.902   2.227  1.00  0.00     0.023 C 
ENDROOT
BRANCH   1   2
ATOM      2  C   UNL     1       3.599  -3.851   1.485  1.00  0.00     0.116 C 
BRANCH   2   3
ATOM      3  N   UNL     1       2.565  -4.330   2.378  1.00  0.00    -0.354 N 
ATOM      4  C   UNL     1       1.212  -4.340   2.220  1.00  0.00     0.242 C 
ATOM      5  O   UNL     1       0.521  -4.654   3.196  1.00  0.00    -0.273 OA
ATOM      6  H   UNL     1       2.889  -4.706   3.228  1.00  0.00     0.163 HD
BRANCH   4   7
ATOM      7  C   UNL     1       0.568  -3.827   0.915  1.00  0.00     0.174 C 
BRANCH   7   8
ATOM      8  C   UNL     1       0.661  -2.252   0.912  1.00  0.00     0.018 C 
ATOM      9  C   UNL     1       0.007  -1.627  -0.332  1.00  0.00     0.010 C 
BRANCH   8  10
ATOM     10  C   UNL     1       0.133  -1.609   2.218  1.00  0.00     0.002 C 
ATOM     11  C   UNL     1       0.503  -0.134   2.360  1.00  0.00     0.004 C 
ENDBRANCH   8  10
ENDBRANCH   7   8
BRANCH   7  12
ATOM     12  N   UNL     1       1.163  -4.381  -0.325  1.00  0.00    -0.339 N 
ATOM     13  C   UNL     1       1.553  -5.654  -0.682  1.00  0.00     0.271 C 
ATOM     14  H   UNL     1       1.306  -3.709  -1.031  1.00  0.00     0.164 HD
ATOM     15  O   UNL     1       1.800  -5.854  -1.873  1.00  0.00    -0.267 OA
BRANCH  13  16
ATOM     16  C   UNL     1       1.859  -6.663   0.333  1.00  0.00     0.141 A 
ATOM     17  C   UNL     1       3.031  -7.404   0.300  1.00  0.00     0.102 A 
ATOM     18  N   UNL     1       1.054  -6.938   1.433  1.00  0.00    -0.215 NA
ATOM     19  S   UNL     1       3.200  -8.306   1.742  1.00  0.00    -0.104 S 
ATOM     20  C   UNL     1       1.703  -7.703   2.283  1.00  0.00     0.190 A 
BRANCH  20  21
ATOM     21  N   UNL     1       1.194  -7.974   3.528  1.00  0.00    -0.302 N 
ATOM     22  C   UNL     1       1.855  -8.570   4.577  1.00  0.00     0.223 C 
ATOM     23  H   UNL     1       0.258  -7.716   3.687  1.00  0.00     0.172 HD
ATOM     24  C   UNL     1       0.976  -8.785   5.785  1.00  0.00     0.114 C 
ATOM     25  O   UNL     1       3.034  -8.910   4.611  1.00  0.00    -0.275 OA
ENDBRANCH  20  21
ENDBRANCH  13  16
ENDBRANCH   7  12
ENDBRANCH   4   7
ENDBRANCH   2   3
ENDBRANCH   1   2
BRANCH   1  26
ATOM     26  C   UNL     1       5.367  -3.598   3.300  1.00  0.00     0.023 C 
BRANCH  26  27
ATOM     27  C   UNL     1       6.184  -4.780   2.790  1.00  0.00     0.116 C 
BRANCH  27  28
ATOM     28  N   UNL     1       7.079  -4.401   1.708  1.00  0.00    -0.352 N 
ATOM     29  C   UNL     1       8.415  -4.663   1.566  1.00  0.00     0.251 C 
ATOM     30  H   UNL     1       6.667  -3.885   0.977  1.00  0.00     0.163 HD
ATOM     31  O   UNL     1       9.065  -4.095   0.691  1.00  0.00    -0.269 OA
BRANCH  29  32
ATOM     32  C   UNL     1       9.076  -5.607   2.487  1.00  0.00     0.039 A 
ATOM     33  C   UNL     1      10.314  -5.258   3.025  1.00  0.00     0.014 A 
ATOM     34  C   UNL     1       8.474  -6.824   2.827  1.00  0.00     0.014 A 
ATOM     35  C   UNL     1      10.927  -6.109   3.942  1.00  0.00     0.010 A 
ATOM     36  C   UNL     1       9.047  -7.631   3.805  1.00  0.00     0.010 A 
ATOM     37  C   UNL     1      10.284  -7.287   4.365  1.00  0.00    -0.014 A 
BRANCH  37  38
ATOM     38  C   UNL     1      10.911  -8.142   5.404  1.00  0.00     0.031 A 
ATOM     39  C   UNL     1      11.354  -9.542   5.084  1.00  0.00     0.074 A 
ATOM     40  C   UNL     1      11.079  -7.646   6.646  1.00  0.00     0.049 A 
ATOM     41  N   UNL     1      11.982 -10.401   5.847  1.00  0.00    -0.248 NA
ATOM     42  C   UNL     1      11.036 -10.053   3.742  1.00  0.00     0.031 C 
ATOM     43  C   UNL     1      10.625  -6.329   7.098  1.00  0.00     0.029 A 
ATOM     44  N   UNL     1      11.684  -8.186   7.751  1.00  0.00    -0.354 N 
ATOM     45  C   UNL     1      12.144 -11.544   5.075  1.00  0.00     0.074 A 
ATOM     46  C   UNL     1      11.486 -11.298   3.812  1.00  0.00     0.031 C 
ATOM     47  C   UNL     1      11.005  -6.147   8.372  1.00  0.00     0.029 A 
ATOM     48  C   UNL     1      11.698  -7.344   8.837  1.00  0.00     0.049 A 
ATOM     49  H   UNL     1      12.072  -9.091   7.766  1.00  0.00     0.167 HD
ATOM     50  C   UNL     1      12.809 -12.684   5.380  1.00  0.00     0.037 A 
ATOM     51  C   UNL     1      12.215  -7.515  10.067  1.00  0.00     0.037 A 
ATOM     52  C   UNL     1      13.459 -12.930   6.641  1.00  0.00     0.049 A 
ATOM     53  C   UNL     1      12.946  -8.791  10.380  1.00  0.00     0.074 A 
ATOM     54  C   UNL     1      14.185 -14.039   7.037  1.00  0.00     0.029 A 
ATOM     55  N   UNL     1      13.455 -12.052   7.716  1.00  0.00    -0.354 N 
ATOM     56  N   UNL     1      13.161  -9.832   9.612  1.00  0.00    -0.248 NA
ATOM     57  C   UNL     1      13.520  -8.909  11.726  1.00  0.00     0.031 C 
ATOM     58  C   UNL     1      14.581 -13.853   8.367  1.00  0.00     0.029 A 
ATOM     59  C   UNL     1      14.151 -12.603   8.780  1.00  0.00     0.049 A 
ATOM     60  H   UNL     1      13.021 -11.168   7.721  1.00  0.00     0.167 HD
ATOM     61  C   UNL     1      13.911 -10.719  10.374  1.00  0.00     0.074 A 
ATOM     62  C   UNL     1      14.142 -10.076  11.652  1.00  0.00     0.031 C 
ATOM     63  C   UNL     1      14.363 -11.955  10.050  1.00  0.00     0.037 A 
BRANCH  50  64
ATOM     64  C   UNL     1      12.879 -13.748   4.321  1.00  0.00     0.057 A 
ATOM     65  C   UNL     1      13.634 -13.573   3.152  1.00  0.00     0.134 A 
ATOM     66  C   UNL     1      12.223 -14.974   4.485  1.00  0.00     0.134 A 
ATOM     67  F   UNL     1      14.278 -12.418   2.925  1.00  0.00    -0.206 F 
ATOM     68  C   UNL     1      13.714 -14.568   2.176  1.00  0.00     0.040 A 
ATOM     69  C   UNL     1      12.319 -15.988   3.530  1.00  0.00     0.040 A 
ATOM     70  F   UNL     1      11.488 -15.213   5.582  1.00  0.00    -0.206 F 
ATOM     71  C   UNL     1      13.062 -15.784   2.369  1.00  0.00     0.006 A 
ENDBRANCH  50  64
BRANCH  51  72
ATOM     72  C   UNL     1      12.077  -6.446  11.089  1.00  0.00     0.057 A 
ATOM     73  C   UNL     1      13.188  -5.732  11.554  1.00  0.00     0.134 A 
ATOM     74  C   UNL     1      10.831  -6.126  11.641  1.00  0.00     0.134 A 
ATOM     75  F   UNL     1      14.413  -6.003  11.077  1.00  0.00    -0.206 F 
ATOM     76  C   UNL     1      13.070  -4.762  12.551  1.00  0.00     0.040 A 
ATOM     77  C   UNL     1      10.693  -5.136  12.615  1.00  0.00     0.040 A 
ATOM     78  F   UNL     1       9.725  -6.764  11.231  1.00  0.00    -0.206 F 
ATOM     79  C   UNL     1      11.818  -4.459  13.081  1.00  0.00     0.006 A 
ENDBRANCH  51  72
BRANCH  63  80
ATOM     80  C   UNL     1      15.170 -12.677  11.092  1.00  0.00     0.057 A 
ATOM     81  C   UNL     1      14.594 -13.149  12.280  1.00  0.00     0.134 A 
ATOM     82  C   UNL     1      16.540 -12.901  10.907  1.00  0.00     0.134 A 
ATOM     83  F   UNL     1      13.289 -12.958  12.526  1.00  0.00    -0.206 F 
ATOM     84  C   UNL     1      15.360 -13.777  13.263  1.00  0.00     0.040 A 
ATOM     85  C   UNL     1      17.309 -13.558  11.868  1.00  0.00     0.040 A 
ATOM     86  F   UNL     1      17.154 -12.488   9.788  1.00  0.00    -0.206 F 
ATOM     87  C   UNL     1      16.722 -13.986  13.056  1.00  0.00     0.006 A 
ENDBRANCH  63  80
ENDBRANCH  37  38
ENDBRANCH  29  32
ENDBRANCH  27  28
ENDBRANCH  26  27
ENDBRANCH   1  26
TORSDOF 16
