REMARK SMILES O=C(NCCCCNC(=O)[C@@H]1CS[C@@H](C2CC2)N1C(=O)Cc1ccn[nH]1)c1ccc(-c2c3nc(c(-c4c(F)cccc4F)c4ccc([nH]4)c(-c4c(F)cccc4F)c4nc(c(-c5c(F)cccc5F)c5ccc2[nH]5)C=C4)C=C3)cc1
REMARK SMILES IDX 6 1 5 2 4 3 3 4 1 5 2 6 27 8 28 9 80 10 29 11 79 12 30 13
REMARK SMILES IDX 31 14 32 15 73 16 33 17 78 18 72 19 74 20 34 21 77 22 71 23
REMARK SMILES IDX 70 24 35 26 61 27 44 28 60 29 45 30 48 31 59 32 75 33 46 34
REMARK SMILES IDX 47 35 58 37 76 38 49 39 36 40 37 41 42 42 38 43 39 44 41 45
REMARK SMILES IDX 43 46 40 47 62 48 63 49 68 50 64 51 65 52 67 53 69 54 66 55
REMARK SMILES IDX 50 56 51 57 56 58 52 59 53 60 55 61 57 62 54 63 7 64 8 65
REMARK SMILES IDX 9 66 10 68 11 69 12 70 18 71 13 72 14 73 19 74 20 75 21 76
REMARK SMILES IDX 22 77 23 78 26 79 24 80 25 81 15 83 16 84 17 85
REMARK H PARENT 3 7 74 25 48 36 8 67 26 82
REMARK Flexibility Score: inf
ROOT
ATOM      1  C   UNL     1       3.749   8.153   0.060  1.00  0.00     0.023 C 
ENDROOT
BRANCH   1   2
ATOM      2  C   UNL     1       2.524   7.943  -0.812  1.00  0.00     0.023 C 
BRANCH   2   3
ATOM      3  C   UNL     1       1.314   8.717  -0.338  1.00  0.00     0.116 C 
BRANCH   3   4
ATOM      4  N   UNL     1       1.490  10.165  -0.356  1.00  0.00    -0.352 N 
ATOM      5  O   UNL     1       0.926  12.314  -0.786  1.00  0.00    -0.269 OA
ATOM      6  C   UNL     1       0.603  11.135  -0.767  1.00  0.00     0.251 C 
ATOM      7  H   UNL     1       2.360  10.493  -0.032  1.00  0.00     0.163 HD
BRANCH   6   8
ATOM      8  C   UNL     1      -0.735  10.712  -1.232  1.00  0.00     0.039 A 
ATOM      9  C   UNL     1      -1.440   9.738  -0.528  1.00  0.00     0.014 A 
ATOM     10  C   UNL     1      -1.235  11.219  -2.434  1.00  0.00     0.014 A 
ATOM     11  C   UNL     1      -2.522   9.117  -1.127  1.00  0.00     0.010 A 
ATOM     12  C   UNL     1      -2.411  10.686  -2.969  1.00  0.00     0.010 A 
ATOM     13  C   UNL     1      -3.041   9.602  -2.339  1.00  0.00    -0.014 A 
BRANCH  13  14
ATOM     14  C   UNL     1      -4.290   8.996  -2.861  1.00  0.00     0.031 A 
ATOM     15  C   UNL     1      -4.337   8.301  -4.192  1.00  0.00     0.074 A 
ATOM     16  C   UNL     1      -5.381   9.034  -2.071  1.00  0.00     0.049 A 
ATOM     17  N   UNL     1      -5.354   7.713  -4.771  1.00  0.00    -0.248 NA
ATOM     18  C   UNL     1      -3.097   8.266  -4.984  1.00  0.00     0.031 C 
ATOM     19  C   UNL     1      -5.447   9.694  -0.761  1.00  0.00     0.029 A 
ATOM     20  N   UNL     1      -6.624   8.483  -2.223  1.00  0.00    -0.354 N 
ATOM     21  C   UNL     1      -4.891   7.274  -6.005  1.00  0.00     0.074 A 
ATOM     22  C   UNL     1      -3.500   7.664  -6.096  1.00  0.00     0.031 C 
ATOM     23  C   UNL     1      -6.635   9.441  -0.199  1.00  0.00     0.029 A 
ATOM     24  C   UNL     1      -7.446   8.684  -1.141  1.00  0.00     0.049 A 
ATOM     25  H   UNL     1      -6.902   7.990  -3.029  1.00  0.00     0.167 HD
ATOM     26  C   UNL     1      -5.572   6.608  -6.968  1.00  0.00     0.037 A 
ATOM     27  C   UNL     1      -8.725   8.325  -0.936  1.00  0.00     0.037 A 
ATOM     28  C   UNL     1      -6.946   6.192  -6.848  1.00  0.00     0.049 A 
ATOM     29  C   UNL     1      -9.444   7.583  -2.018  1.00  0.00     0.074 A 
ATOM     30  C   UNL     1      -7.713   5.478  -7.754  1.00  0.00     0.029 A 
ATOM     31  N   UNL     1      -7.757   6.446  -5.753  1.00  0.00    -0.354 N 
ATOM     32  N   UNL     1      -8.990   7.173  -3.177  1.00  0.00    -0.248 NA
ATOM     33  C   UNL     1     -10.857   7.270  -1.775  1.00  0.00     0.031 C 
ATOM     34  C   UNL     1      -8.998   5.332  -7.221  1.00  0.00     0.029 A 
ATOM     35  C   UNL     1      -9.021   5.921  -5.968  1.00  0.00     0.049 A 
ATOM     36  H   UNL     1      -7.476   6.929  -4.942  1.00  0.00     0.167 HD
ATOM     37  C   UNL     1     -10.060   6.556  -3.804  1.00  0.00     0.074 A 
ATOM     38  C   UNL     1     -11.177   6.617  -2.883  1.00  0.00     0.031 C 
ATOM     39  C   UNL     1     -10.118   6.001  -5.038  1.00  0.00     0.037 A 
BRANCH  26  40
ATOM     40  C   UNL     1      -4.857   6.300  -8.251  1.00  0.00     0.057 A 
ATOM     41  C   UNL     1      -3.911   5.273  -8.346  1.00  0.00     0.134 A 
ATOM     42  C   UNL     1      -5.182   6.990  -9.426  1.00  0.00     0.134 A 
ATOM     43  F   UNL     1      -3.550   4.579  -7.256  1.00  0.00    -0.206 F 
ATOM     44  C   UNL     1      -3.309   4.946  -9.564  1.00  0.00     0.040 A 
ATOM     45  C   UNL     1      -4.601   6.661 -10.652  1.00  0.00     0.040 A 
ATOM     46  F   UNL     1      -6.086   7.981  -9.406  1.00  0.00    -0.206 F 
ATOM     47  C   UNL     1      -3.661   5.636 -10.723  1.00  0.00     0.006 A 
ENDBRANCH  26  40
BRANCH  27  48
ATOM     48  C   UNL     1      -9.399   8.696   0.331  1.00  0.00     0.057 A 
ATOM     49  C   UNL     1      -9.752   7.728   1.276  1.00  0.00     0.134 A 
ATOM     50  C   UNL     1      -9.683  10.033   0.637  1.00  0.00     0.134 A 
ATOM     51  F   UNL     1      -9.517   6.430   1.033  1.00  0.00    -0.206 F 
ATOM     52  C   UNL     1     -10.371   8.074   2.478  1.00  0.00     0.040 A 
ATOM     53  C   UNL     1     -10.275  10.397   1.846  1.00  0.00     0.040 A 
ATOM     54  F   UNL     1      -9.358  11.009  -0.224  1.00  0.00    -0.206 F 
ATOM     55  C   UNL     1     -10.627   9.414   2.768  1.00  0.00     0.006 A 
ENDBRANCH  27  48
BRANCH  39  56
ATOM     56  C   UNL     1     -11.433   5.413  -5.446  1.00  0.00     0.057 A 
ATOM     57  C   UNL     1     -12.516   6.225  -5.807  1.00  0.00     0.134 A 
ATOM     58  C   UNL     1     -11.616   4.027  -5.482  1.00  0.00     0.134 A 
ATOM     59  F   UNL     1     -12.405   7.561  -5.774  1.00  0.00    -0.206 F 
ATOM     60  C   UNL     1     -13.745   5.675  -6.170  1.00  0.00     0.040 A 
ATOM     61  C   UNL     1     -12.835   3.465  -5.863  1.00  0.00     0.040 A 
ATOM     62  F   UNL     1     -10.615   3.198  -5.149  1.00  0.00    -0.206 F 
ATOM     63  C   UNL     1     -13.905   4.291  -6.202  1.00  0.00     0.006 A 
ENDBRANCH  39  56
ENDBRANCH  13  14
ENDBRANCH   6   8
ENDBRANCH   3   4
ENDBRANCH   2   3
ENDBRANCH   1   2
BRANCH   1  64
ATOM     64  C   UNL     1       3.735   7.343   1.344  1.00  0.00     0.116 C 
BRANCH  64  65
ATOM     65  N   UNL     1       4.329   6.045   1.125  1.00  0.00    -0.354 N 
ATOM     66  C   UNL     1       5.641   5.671   1.091  1.00  0.00     0.243 C 
ATOM     67  H   UNL     1       3.686   5.314   0.976  1.00  0.00     0.163 HD
ATOM     68  O   UNL     1       5.850   4.456   0.977  1.00  0.00    -0.273 OA
BRANCH  66  69
ATOM     69  C   UNL     1       6.816   6.627   1.470  1.00  0.00     0.185 C 
ATOM     70  C   UNL     1       6.788   6.629   2.997  1.00  0.00     0.107 C 
ATOM     71  N   UNL     1       6.938   8.013   0.898  1.00  0.00    -0.317 N 
ATOM     72  S   UNL     1       7.291   8.253   3.514  1.00  0.00    -0.134 SA
ATOM     73  C   UNL     1       6.807   9.078   1.914  1.00  0.00     0.147 C 
BRANCH  71  74
ATOM     74  C   UNL     1       7.035   8.019  -0.490  1.00  0.00     0.230 C 
ATOM     75  O   UNL     1       6.869   6.952  -1.109  1.00  0.00    -0.274 OA
BRANCH  74  76
ATOM     76  C   UNL     1       7.340   9.223  -1.369  1.00  0.00     0.155 C 
BRANCH  76  77
ATOM     77  C   UNL     1       6.149   9.852  -2.015  1.00  0.00     0.044 A 
ATOM     78  C   UNL     1       5.767  11.173  -2.147  1.00  0.00     0.045 A 
ATOM     79  N   UNL     1       5.241   9.143  -2.757  1.00  0.00    -0.282 N 
ATOM     80  C   UNL     1       4.565  11.139  -2.871  1.00  0.00     0.135 A 
ATOM     81  N   UNL     1       4.239   9.900  -3.239  1.00  0.00    -0.184 NA
ATOM     82  H   UNL     1       5.315   8.175  -2.922  1.00  0.00     0.190 HD
ENDBRANCH  76  77
ENDBRANCH  74  76
ENDBRANCH  71  74
BRANCH  73  83
ATOM     83  C   UNL     1       7.613  10.348   2.056  1.00  0.00     0.022 C 
ATOM     84  C   UNL     1       8.805  10.803   1.265  1.00  0.00     0.007 C 
ATOM     85  C   UNL     1       7.465  11.482   1.086  1.00  0.00     0.007 C 
ENDBRANCH  73  83
ENDBRANCH  66  69
ENDBRANCH  64  65
ENDBRANCH   1  64
TORSDOF 15
