REMARK SMILES CC(=O)N1CCC[C@H]1COCC(=O)NCCCCNC(=O)c1ccc(-c2c3nc(c(-c4c(F)cccc4F)c4ccc([nH]4)c(-c4c(F)cccc4F)c4nc(c(-c5c(F)cccc5F)c5ccc2[nH]5)C=C4)C=C3)cc1
REMARK SMILES IDX 15 1 14 2 12 3 13 4 11 6 10 7 9 8 8 9 4 10 5 11 6 12 7 13
REMARK SMILES IDX 2 14 1 15 3 16 16 17 17 18 18 19 19 20 20 21 21 23 22 24
REMARK SMILES IDX 23 25 75 26 24 27 74 28 25 29 26 30 27 31 68 32 28 33 73 34
REMARK SMILES IDX 67 35 69 36 29 37 72 38 66 39 65 40 30 42 56 43 39 44 55 45
REMARK SMILES IDX 40 46 43 47 54 48 70 49 41 50 42 51 53 53 71 54 44 55 31 56
REMARK SMILES IDX 32 57 37 58 33 59 34 60 36 61 38 62 35 63 57 64 58 65 63 66
REMARK SMILES IDX 59 67 60 68 62 69 64 70 61 71 45 72 46 73 51 74 47 75 48 76
REMARK SMILES IDX 50 77 52 78 49 79
REMARK H PARENT 14 5 19 22 69 41 43 52
REMARK Flexibility Score: inf
ROOT
ATOM      1  C   UNL     1       1.310   4.853   5.959  1.00  0.00     0.116 C 
ENDROOT
BRANCH   1   2
ATOM      2  N   UNL     1       1.667   3.657   6.695  1.00  0.00    -0.354 N 
ATOM      3  C   UNL     1       2.011   2.436   6.201  1.00  0.00     0.245 C 
ATOM      4  O   UNL     1       2.247   1.521   6.992  1.00  0.00    -0.272 OA
ATOM      5  H   UNL     1       1.660   3.738   7.677  1.00  0.00     0.163 HD
BRANCH   3   6
ATOM      6  C   UNL     1       2.146   2.249   4.686  1.00  0.00     0.260 C 
BRANCH   6   7
ATOM      7  O   UNL     1       1.016   2.466   3.869  1.00  0.00    -0.370 OA
BRANCH   7   8
ATOM      8  C   UNL     1      -0.114   1.618   4.090  1.00  0.00     0.185 C 
BRANCH   8   9
ATOM      9  C   UNL     1       0.019   0.151   3.608  1.00  0.00     0.111 C 
ATOM     10  N   UNL     1       0.769  -0.017   2.369  1.00  0.00    -0.338 N 
ATOM     11  C   UNL     1       2.010  -0.731   2.582  1.00  0.00     0.120 C 
ATOM     12  C   UNL     1       1.797  -1.509   3.867  1.00  0.00     0.024 C 
ATOM     13  C   UNL     1       0.704  -0.766   4.627  1.00  0.00     0.029 C 
BRANCH  10  14
ATOM     14  C   UNL     1       0.286   0.448   1.165  1.00  0.00     0.219 C 
ATOM     15  C   UNL     1       1.143   0.189  -0.048  1.00  0.00     0.114 C 
ATOM     16  O   UNL     1      -0.803   1.011   1.061  1.00  0.00    -0.275 OA
ENDBRANCH  10  14
ENDBRANCH   8   9
ENDBRANCH   7   8
ENDBRANCH   6   7
ENDBRANCH   3   6
ENDBRANCH   1   2
BRANCH   1  17
ATOM     17  C   UNL     1      -0.153   5.229   6.176  1.00  0.00     0.023 C 
BRANCH  17  18
ATOM     18  C   UNL     1      -0.547   5.471   7.637  1.00  0.00     0.023 C 
BRANCH  18  19
ATOM     19  C   UNL     1       0.363   6.413   8.418  1.00  0.00     0.116 C 
BRANCH  19  20
ATOM     20  N   UNL     1       0.473   7.732   7.818  1.00  0.00    -0.352 N 
ATOM     21  C   UNL     1       0.420   8.966   8.423  1.00  0.00     0.251 C 
ATOM     22  H   UNL     1       0.603   7.743   6.842  1.00  0.00     0.163 HD
ATOM     23  O   UNL     1       0.427   9.988   7.752  1.00  0.00    -0.269 OA
BRANCH  21  24
ATOM     24  C   UNL     1       0.308   9.046   9.894  1.00  0.00     0.039 A 
ATOM     25  C   UNL     1      -0.706   9.833  10.446  1.00  0.00     0.014 A 
ATOM     26  C   UNL     1       1.167   8.316  10.719  1.00  0.00     0.014 A 
ATOM     27  C   UNL     1      -0.915   9.820  11.826  1.00  0.00     0.010 A 
ATOM     28  C   UNL     1       0.918   8.255  12.087  1.00  0.00     0.010 A 
ATOM     29  C   UNL     1      -0.135   8.994  12.650  1.00  0.00    -0.014 A 
BRANCH  29  30
ATOM     30  C   UNL     1      -0.437   8.845  14.095  1.00  0.00     0.031 A 
ATOM     31  C   UNL     1       0.552   9.294  15.130  1.00  0.00     0.074 A 
ATOM     32  C   UNL     1      -1.566   8.214  14.470  1.00  0.00     0.049 A 
ATOM     33  N   UNL     1       0.505   9.160  16.431  1.00  0.00    -0.248 NA
ATOM     34  C   UNL     1       1.769   9.954  14.635  1.00  0.00     0.031 C 
ATOM     35  C   UNL     1      -2.578   7.680  13.557  1.00  0.00     0.029 A 
ATOM     36  N   UNL     1      -2.039   7.892  15.717  1.00  0.00    -0.354 N 
ATOM     37  C   UNL     1       1.690   9.703  16.909  1.00  0.00     0.074 A 
ATOM     38  C   UNL     1       2.455  10.126  15.755  1.00  0.00     0.031 C 
ATOM     39  C   UNL     1      -3.555   7.103  14.274  1.00  0.00     0.029 A 
ATOM     40  C   UNL     1      -3.219   7.191  15.692  1.00  0.00     0.049 A 
ATOM     41  H   UNL     1      -1.577   8.140  16.551  1.00  0.00     0.167 HD
ATOM     42  C   UNL     1       2.094   9.849  18.193  1.00  0.00     0.037 A 
ATOM     43  C   UNL     1      -3.942   6.658  16.695  1.00  0.00     0.037 A 
ATOM     44  C   UNL     1       1.321   9.441  19.337  1.00  0.00     0.049 A 
ATOM     45  C   UNL     1      -3.470   6.820  18.111  1.00  0.00     0.074 A 
ATOM     46  C   UNL     1       1.597   9.635  20.679  1.00  0.00     0.029 A 
ATOM     47  N   UNL     1       0.125   8.741  19.273  1.00  0.00    -0.354 N 
ATOM     48  N   UNL     1      -2.393   7.420  18.556  1.00  0.00    -0.248 NA
ATOM     49  C   UNL     1      -4.311   6.233  19.163  1.00  0.00     0.031 C 
ATOM     50  C   UNL     1       0.598   9.003  21.427  1.00  0.00     0.029 A 
ATOM     51  C   UNL     1      -0.326   8.455  20.552  1.00  0.00     0.049 A 
ATOM     52  H   UNL     1      -0.335   8.484  18.442  1.00  0.00     0.167 HD
ATOM     53  C   UNL     1      -2.426   7.287  19.938  1.00  0.00     0.074 A 
ATOM     54  C   UNL     1      -3.644   6.569  20.258  1.00  0.00     0.031 C 
ATOM     55  C   UNL     1      -1.528   7.718  20.856  1.00  0.00     0.037 A 
BRANCH  42  56
ATOM     56  C   UNL     1       3.443  10.467  18.422  1.00  0.00     0.057 A 
ATOM     57  C   UNL     1       3.696  11.819  18.155  1.00  0.00     0.134 A 
ATOM     58  C   UNL     1       4.503   9.700  18.922  1.00  0.00     0.134 A 
ATOM     59  F   UNL     1       2.728  12.608  17.664  1.00  0.00    -0.206 F 
ATOM     60  C   UNL     1       4.962  12.377  18.342  1.00  0.00     0.040 A 
ATOM     61  C   UNL     1       5.766  10.253  19.140  1.00  0.00     0.040 A 
ATOM     62  F   UNL     1       4.329   8.400  19.206  1.00  0.00    -0.206 F 
ATOM     63  C   UNL     1       6.001  11.593  18.840  1.00  0.00     0.006 A 
ENDBRANCH  42  56
BRANCH  43  64
ATOM     64  C   UNL     1      -5.191   5.921  16.381  1.00  0.00     0.057 A 
ATOM     65  C   UNL     1      -6.445   6.475  16.657  1.00  0.00     0.134 A 
ATOM     66  C   UNL     1      -5.160   4.665  15.763  1.00  0.00     0.134 A 
ATOM     67  F   UNL     1      -6.537   7.667  17.265  1.00  0.00    -0.206 F 
ATOM     68  C   UNL     1      -7.626   5.806  16.330  1.00  0.00     0.040 A 
ATOM     69  C   UNL     1      -6.332   3.995  15.411  1.00  0.00     0.040 A 
ATOM     70  F   UNL     1      -3.987   4.085  15.466  1.00  0.00    -0.206 F 
ATOM     71  C   UNL     1      -7.571   4.566  15.697  1.00  0.00     0.006 A 
ENDBRANCH  43  64
BRANCH  55  72
ATOM     72  C   UNL     1      -1.821   7.414  22.296  1.00  0.00     0.057 A 
ATOM     73  C   UNL     1      -1.687   6.120  22.814  1.00  0.00     0.134 A 
ATOM     74  C   UNL     1      -2.200   8.430  23.183  1.00  0.00     0.134 A 
ATOM     75  F   UNL     1      -1.342   5.099  22.013  1.00  0.00    -0.206 F 
ATOM     76  C   UNL     1      -1.934   5.843  24.160  1.00  0.00     0.040 A 
ATOM     77  C   UNL     1      -2.425   8.170  24.536  1.00  0.00     0.040 A 
ATOM     78  F   UNL     1      -2.340   9.693  22.753  1.00  0.00    -0.206 F 
ATOM     79  C   UNL     1      -2.296   6.872  25.026  1.00  0.00     0.006 A 
ENDBRANCH  55  72
ENDBRANCH  29  30
ENDBRANCH  21  24
ENDBRANCH  19  20
ENDBRANCH  18  19
ENDBRANCH  17  18
ENDBRANCH   1  17
TORSDOF 15
