REMARK SMILES C[C@@H](C(=O)NCCCCNC(=O)c1ccc(-c2c3nc(c(-c4c(F)cccc4F)c4ccc([nH]4)c(-c4c(F)cccc4F)c4nc(c(-c5c(F)cccc5F)c5ccc2[nH]5)C=C4)C=C3)cc1)c1ccc(=O)n(C(F)F)c1
REMARK SMILES IDX 7 1 6 2 5 3 3 4 4 5 2 7 1 8 67 9 68 10 76 11 69 12 72 13
REMARK SMILES IDX 70 14 71 15 73 16 74 17 75 18 8 19 9 20 10 21 11 22 12 24
REMARK SMILES IDX 13 25 14 26 66 27 15 28 65 29 16 30 17 31 18 32 59 33 19 34
REMARK SMILES IDX 64 35 58 36 60 37 20 38 63 39 57 40 56 41 21 43 47 44 30 45
REMARK SMILES IDX 46 46 31 47 34 48 45 49 61 50 32 51 33 52 44 54 62 55 35 56
REMARK SMILES IDX 22 57 23 58 28 59 24 60 25 61 27 62 29 63 26 64 48 65 49 66
REMARK SMILES IDX 54 67 50 68 51 69 53 70 55 71 52 72 36 73 37 74 42 75 38 76
REMARK SMILES IDX 39 77 41 78 43 79 40 80
REMARK H PARENT 5 6 10 23 60 42 34 53
REMARK Flexibility Score: inf
ROOT
ATOM      1  C   UNL     1       4.215   1.019   0.516  1.00  0.00     0.023 C 
ENDROOT
BRANCH   1   2
ATOM      2  C   UNL     1       3.448   0.515   1.742  1.00  0.00     0.116 C 
BRANCH   2   3
ATOM      3  N   UNL     1       2.446   1.471   2.165  1.00  0.00    -0.356 N 
ATOM      4  C   UNL     1       1.092   1.474   2.008  1.00  0.00     0.227 C 
ATOM      5  O   UNL     1       0.504   2.457   2.464  1.00  0.00    -0.274 OA
ATOM      6  H   UNL     1       2.803   2.252   2.648  1.00  0.00     0.163 HD
BRANCH   4   7
ATOM      7  C   UNL     1       0.370   0.270   1.349  1.00  0.00     0.107 C 
ATOM      8  C   UNL     1       0.751   0.075  -0.122  1.00  0.00     0.023 C 
BRANCH   7   9
ATOM      9  C   UNL     1      -1.155   0.329   1.408  1.00  0.00    -0.019 A 
ATOM     10  C   UNL     1      -1.863  -0.935   1.527  1.00  0.00     0.012 A 
ATOM     11  C   UNL     1      -1.887   1.449   1.265  1.00  0.00     0.099 A 
ATOM     12  C   UNL     1      -3.198  -0.991   1.447  1.00  0.00     0.072 A 
ATOM     13  N   UNL     1      -3.270   1.426   1.228  1.00  0.00    -0.258 N 
ATOM     14  C   UNL     1      -3.998   0.251   1.265  1.00  0.00     0.254 A 
ATOM     15  O   UNL     1      -5.216   0.153   1.160  1.00  0.00    -0.269 OA
BRANCH  13  16
ATOM     16  C   UNL     1      -4.004   2.655   1.063  1.00  0.00     0.451 C 
ATOM     17  F   UNL     1      -4.569   2.713  -0.168  1.00  0.00    -0.185 F 
ATOM     18  F   UNL     1      -4.992   2.772   1.984  1.00  0.00    -0.185 F 
ENDBRANCH  13  16
ENDBRANCH   7   9
ENDBRANCH   4   7
ENDBRANCH   2   3
ENDBRANCH   1   2
BRANCH   1  19
ATOM     19  C   UNL     1       4.992   2.319   0.734  1.00  0.00     0.023 C 
BRANCH  19  20
ATOM     20  C   UNL     1       5.977   2.296   1.893  1.00  0.00     0.116 C 
BRANCH  20  21
ATOM     21  N   UNL     1       6.985   1.258   1.753  1.00  0.00    -0.352 N 
ATOM     22  C   UNL     1       8.337   1.336   1.973  1.00  0.00     0.251 C 
ATOM     23  H   UNL     1       6.652   0.379   1.461  1.00  0.00     0.163 HD
ATOM     24  O   UNL     1       9.065   0.396   1.663  1.00  0.00    -0.269 OA
BRANCH  22  25
ATOM     25  C   UNL     1       8.920   2.561   2.560  1.00  0.00     0.039 A 
ATOM     26  C   UNL     1      10.103   3.071   2.021  1.00  0.00     0.014 A 
ATOM     27  C   UNL     1       8.306   3.201   3.641  1.00  0.00     0.014 A 
ATOM     28  C   UNL     1      10.650   4.245   2.542  1.00  0.00     0.010 A 
ATOM     29  C   UNL     1       8.802   4.416   4.098  1.00  0.00     0.010 A 
ATOM     30  C   UNL     1       9.993   4.938   3.572  1.00  0.00    -0.014 A 
BRANCH  30  31
ATOM     31  C   UNL     1      10.563   6.183   4.145  1.00  0.00     0.031 A 
ATOM     32  C   UNL     1      10.989   6.217   5.588  1.00  0.00     0.074 A 
ATOM     33  C   UNL     1      10.658   7.291   3.387  1.00  0.00     0.049 A 
ATOM     34  N   UNL     1      11.483   7.210   6.283  1.00  0.00    -0.248 NA
ATOM     35  C   UNL     1      10.805   4.979   6.362  1.00  0.00     0.031 C 
ATOM     36  C   UNL     1      10.240   7.400   1.988  1.00  0.00     0.029 A 
ATOM     37  N   UNL     1      11.139   8.540   3.689  1.00  0.00    -0.354 N 
ATOM     38  C   UNL     1      11.648   6.722   7.574  1.00  0.00     0.074 A 
ATOM     39  C   UNL     1      11.142   5.368   7.581  1.00  0.00     0.031 C 
ATOM     40  C   UNL     1      10.518   8.636   1.543  1.00  0.00     0.029 A 
ATOM     41  C   UNL     1      11.098   9.416   2.631  1.00  0.00     0.049 A 
ATOM     42  H   UNL     1      11.480   8.786   4.579  1.00  0.00     0.167 HD
ATOM     43  C   UNL     1      12.197   7.335   8.650  1.00  0.00     0.037 A 
ATOM     44  C   UNL     1      11.491  10.701   2.550  1.00  0.00     0.037 A 
ATOM     45  C   UNL     1      12.723   8.674   8.632  1.00  0.00     0.049 A 
ATOM     46  C   UNL     1      12.093  11.363   3.759  1.00  0.00     0.074 A 
ATOM     47  C   UNL     1      13.355   9.367   9.649  1.00  0.00     0.029 A 
ATOM     48  N   UNL     1      12.670   9.527   7.539  1.00  0.00    -0.354 N 
ATOM     49  N   UNL     1      12.312  10.868   4.953  1.00  0.00    -0.248 NA
ATOM     50  C   UNL     1      12.515  12.762   3.602  1.00  0.00     0.031 C 
ATOM     51  C   UNL     1      13.636  10.658   9.188  1.00  0.00     0.029 A 
ATOM     52  C   UNL     1      13.238  10.748   7.864  1.00  0.00     0.049 A 
ATOM     53  H   UNL     1      12.286   9.299   6.662  1.00  0.00     0.167 HD
ATOM     54  C   UNL     1      12.936  11.877   5.676  1.00  0.00     0.074 A 
ATOM     55  C   UNL     1      13.063  13.011   4.783  1.00  0.00     0.031 C 
ATOM     56  C   UNL     1      13.370  11.864   6.961  1.00  0.00     0.037 A 
BRANCH  43  57
ATOM     57  C   UNL     1      12.241   6.559   9.937  1.00  0.00     0.057 A 
ATOM     58  C   UNL     1      13.047   5.422  10.095  1.00  0.00     0.134 A 
ATOM     59  C   UNL     1      11.467   6.955  11.035  1.00  0.00     0.134 A 
ATOM     60  F   UNL     1      13.804   4.979   9.080  1.00  0.00    -0.206 F 
ATOM     61  C   UNL     1      13.050   4.685  11.281  1.00  0.00     0.040 A 
ATOM     62  C   UNL     1      11.488   6.246  12.238  1.00  0.00     0.040 A 
ATOM     63  F   UNL     1      10.678   8.036  10.959  1.00  0.00    -0.206 F 
ATOM     64  C   UNL     1      12.272   5.101  12.359  1.00  0.00     0.006 A 
ENDBRANCH  43  57
BRANCH  44  65
ATOM     65  C   UNL     1      11.375  11.433   1.263  1.00  0.00     0.057 A 
ATOM     66  C   UNL     1      12.516  11.783   0.530  1.00  0.00     0.134 A 
ATOM     67  C   UNL     1      10.133  11.803   0.735  1.00  0.00     0.134 A 
ATOM     68  F   UNL     1      13.736  11.472   0.993  1.00  0.00    -0.206 F 
ATOM     69  C   UNL     1      12.428  12.492  -0.668  1.00  0.00     0.040 A 
ATOM     70  C   UNL     1      10.028  12.488  -0.476  1.00  0.00     0.040 A 
ATOM     71  F   UNL     1       9.001  11.489   1.383  1.00  0.00    -0.206 F 
ATOM     72  C   UNL     1      11.179  12.842  -1.178  1.00  0.00     0.006 A 
ENDBRANCH  44  65
BRANCH  56  73
ATOM     73  C   UNL     1      14.080  13.091   7.460  1.00  0.00     0.057 A 
ATOM     74  C   UNL     1      13.415  14.302   7.687  1.00  0.00     0.134 A 
ATOM     75  C   UNL     1      15.453  13.046   7.742  1.00  0.00     0.134 A 
ATOM     76  F   UNL     1      12.103  14.417   7.427  1.00  0.00    -0.206 F 
ATOM     77  C   UNL     1      14.094  15.432   8.146  1.00  0.00     0.040 A 
ATOM     78  C   UNL     1      16.135  14.160   8.232  1.00  0.00     0.040 A 
ATOM     79  F   UNL     1      16.150  11.915   7.558  1.00  0.00    -0.206 F 
ATOM     80  C   UNL     1      15.457  15.361   8.426  1.00  0.00     0.006 A 
ENDBRANCH  56  73
ENDBRANCH  30  31
ENDBRANCH  22  25
ENDBRANCH  20  21
ENDBRANCH  19  20
ENDBRANCH   1  19
TORSDOF 13
