REMARK SMILES C[C@H]1CC=C(C2=NN=C(C(=O)NCCCCNC(=O)c3ccc(-c4c5nc(c(-c6c(F)cccc6F)c6ccc([nH]6)c(-c6c(F)cccc6F)c6nc(c(-c7c(F)cccc7F)c7ccc4[nH]7)C=C6)C=C5)cc3)C2)O1
REMARK SMILES IDX 15 1 14 2 13 3 12 4 10 5 11 6 9 8 6 9 7 10 74 11 8 12 5 13
REMARK SMILES IDX 1 14 2 15 3 16 75 17 4 18 16 19 17 20 18 21 19 23 20 24
REMARK SMILES IDX 21 25 73 26 22 27 72 28 23 29 24 30 25 31 66 32 26 33 71 34
REMARK SMILES IDX 65 35 67 36 27 37 70 38 64 39 63 40 28 42 54 43 37 44 53 45
REMARK SMILES IDX 38 46 41 47 52 48 68 49 39 50 40 51 51 53 69 54 42 55 29 56
REMARK SMILES IDX 30 57 35 58 31 59 32 60 34 61 36 62 33 63 55 64 56 65 61 66
REMARK SMILES IDX 57 67 58 68 60 69 62 70 59 71 43 72 44 73 49 74 45 75 46 76
REMARK SMILES IDX 48 77 50 78 47 79
REMARK H PARENT 12 7 17 22 67 41 41 52
REMARK Flexibility Score: inf
ROOT
ATOM      1  C   UNL     1       8.428  -7.853  -3.580  1.00  0.00     0.023 C 
ENDROOT
BRANCH   1   2
ATOM      2  C   UNL     1       6.928  -7.657  -3.317  1.00  0.00     0.023 C 
BRANCH   2   3
ATOM      3  C   UNL     1       6.547  -7.298  -1.879  1.00  0.00     0.116 C 
BRANCH   3   4
ATOM      4  N   UNL     1       7.059  -5.995  -1.484  1.00  0.00    -0.351 N 
ATOM      5  C   UNL     1       6.403  -4.823  -1.197  1.00  0.00     0.267 C 
ATOM      6  O   UNL     1       7.044  -3.820  -0.892  1.00  0.00    -0.268 OA
ATOM      7  H   UNL     1       8.039  -5.945  -1.410  1.00  0.00     0.163 HD
BRANCH   5   8
ATOM      8  C   UNL     1       4.904  -4.703  -1.218  1.00  0.00     0.134 C 
ATOM      9  C   UNL     1       2.845  -3.845  -1.081  1.00  0.00     0.111 C 
ATOM     10  N   UNL     1       2.743  -5.132  -1.227  1.00  0.00    -0.151 NA
ATOM     11  C   UNL     1       4.261  -3.369  -1.057  1.00  0.00     0.126 C 
ATOM     12  N   UNL     1       4.055  -5.678  -1.318  1.00  0.00    -0.149 NA
BRANCH   9  13
ATOM     13  C   UNL     1       1.727  -2.909  -0.905  1.00  0.00     0.139 C 
ATOM     14  C   UNL     1      -0.171  -0.191  -1.932  1.00  0.00     0.053 C 
ATOM     15  C   UNL     1       0.611  -0.980  -0.890  1.00  0.00     0.174 C 
ATOM     16  C   UNL     1      -0.240  -2.025  -0.155  1.00  0.00     0.076 C 
ATOM     17  O   UNL     1       1.725  -1.663  -1.516  1.00  0.00    -0.489 OA
ATOM     18  C   UNL     1       0.686  -3.176  -0.121  1.00  0.00     0.025 C 
ENDBRANCH   9  13
ENDBRANCH   5   8
ENDBRANCH   3   4
ENDBRANCH   2   3
ENDBRANCH   1   2
BRANCH   1  19
ATOM     19  C   UNL     1       9.091  -8.946  -2.747  1.00  0.00     0.116 C 
BRANCH  19  20
ATOM     20  N   UNL     1       8.546 -10.271  -3.013  1.00  0.00    -0.352 N 
ATOM     21  C   UNL     1       8.874 -11.468  -2.407  1.00  0.00     0.251 C 
ATOM     22  H   UNL     1       7.855 -10.319  -3.713  1.00  0.00     0.163 HD
ATOM     23  O   UNL     1       8.653 -12.531  -2.965  1.00  0.00    -0.269 OA
BRANCH  21  24
ATOM     24  C   UNL     1       9.507 -11.452  -1.074  1.00  0.00     0.039 A 
ATOM     25  C   UNL     1      10.567 -12.318  -0.790  1.00  0.00     0.014 A 
ATOM     26  C   UNL     1       9.035 -10.566  -0.107  1.00  0.00     0.014 A 
ATOM     27  C   UNL     1      11.209 -12.221   0.442  1.00  0.00     0.010 A 
ATOM     28  C   UNL     1       9.729 -10.403   1.074  1.00  0.00     0.010 A 
ATOM     29  C   UNL     1      10.807 -11.238   1.361  1.00  0.00    -0.014 A 
BRANCH  29  30
ATOM     30  C   UNL     1      11.664 -10.936   2.513  1.00  0.00     0.031 A 
ATOM     31  C   UNL     1      13.061 -10.584   2.120  1.00  0.00     0.074 A 
ATOM     32  C   UNL     1      11.198 -10.731   3.766  1.00  0.00     0.049 A 
ATOM     33  N   UNL     1      14.155 -11.190   2.440  1.00  0.00    -0.248 NA
ATOM     34  C   UNL     1      13.255  -9.506   1.130  1.00  0.00     0.031 C 
ATOM     35  C   UNL     1       9.789 -10.704   4.175  1.00  0.00     0.029 A 
ATOM     36  N   UNL     1      11.850 -10.369   4.916  1.00  0.00    -0.354 N 
ATOM     37  C   UNL     1      15.185 -10.413   1.907  1.00  0.00     0.074 A 
ATOM     38  C   UNL     1      14.576  -9.543   0.944  1.00  0.00     0.031 C 
ATOM     39  C   UNL     1       9.678 -10.107   5.380  1.00  0.00     0.029 A 
ATOM     40  C   UNL     1      11.008  -9.861   5.906  1.00  0.00     0.049 A 
ATOM     41  H   UNL     1      12.823 -10.459   5.033  1.00  0.00     0.167 HD
ATOM     42  C   UNL     1      16.373 -10.317   2.568  1.00  0.00     0.037 A 
ATOM     43  C   UNL     1      11.361  -9.261   7.070  1.00  0.00     0.037 A 
ATOM     44  C   UNL     1      16.493 -11.385   3.529  1.00  0.00     0.049 A 
ATOM     45  C   UNL     1      12.757  -9.639   7.374  1.00  0.00     0.074 A 
ATOM     46  C   UNL     1      16.768 -12.734   3.524  1.00  0.00     0.029 A 
ATOM     47  N   UNL     1      15.905 -11.093   4.727  1.00  0.00    -0.354 N 
ATOM     48  N   UNL     1      13.123 -10.846   7.702  1.00  0.00    -0.248 NA
ATOM     49  C   UNL     1      13.841  -8.731   7.014  1.00  0.00     0.031 C 
ATOM     50  C   UNL     1      16.230 -13.258   4.739  1.00  0.00     0.029 A 
ATOM     51  C   UNL     1      15.680 -12.213   5.475  1.00  0.00     0.049 A 
ATOM     52  H   UNL     1      15.672 -10.182   5.018  1.00  0.00     0.167 HD
ATOM     53  C   UNL     1      14.386 -10.968   7.165  1.00  0.00     0.074 A 
ATOM     54  C   UNL     1      14.847  -9.605   6.936  1.00  0.00     0.031 C 
ATOM     55  C   UNL     1      14.794 -12.146   6.613  1.00  0.00     0.037 A 
BRANCH  42  56
ATOM     56  C   UNL     1      17.140  -9.014   2.786  1.00  0.00     0.057 A 
ATOM     57  C   UNL     1      18.309  -9.050   3.576  1.00  0.00     0.134 A 
ATOM     58  C   UNL     1      16.633  -7.718   2.557  1.00  0.00     0.134 A 
ATOM     59  F   UNL     1      18.910 -10.213   3.869  1.00  0.00    -0.206 F 
ATOM     60  C   UNL     1      18.862  -7.905   4.170  1.00  0.00     0.040 A 
ATOM     61  C   UNL     1      17.201  -6.565   3.113  1.00  0.00     0.040 A 
ATOM     62  F   UNL     1      15.515  -7.485   1.863  1.00  0.00    -0.206 F 
ATOM     63  C   UNL     1      18.298  -6.657   3.951  1.00  0.00     0.006 A 
ENDBRANCH  42  56
BRANCH  43  64
ATOM     64  C   UNL     1      10.653  -8.232   7.869  1.00  0.00     0.057 A 
ATOM     65  C   UNL     1      11.015  -7.973   9.201  1.00  0.00     0.134 A 
ATOM     66  C   UNL     1       9.805  -7.287   7.268  1.00  0.00     0.134 A 
ATOM     67  F   UNL     1      11.840  -8.802   9.857  1.00  0.00    -0.206 F 
ATOM     68  C   UNL     1      10.600  -6.819   9.878  1.00  0.00     0.040 A 
ATOM     69  C   UNL     1       9.377  -6.134   7.936  1.00  0.00     0.040 A 
ATOM     70  F   UNL     1       9.440  -7.402   5.983  1.00  0.00    -0.206 F 
ATOM     71  C   UNL     1       9.791  -5.886   9.239  1.00  0.00     0.006 A 
ENDBRANCH  43  64
BRANCH  55  72
ATOM     72  C   UNL     1      14.166 -13.406   7.112  1.00  0.00     0.057 A 
ATOM     73  C   UNL     1      12.816 -13.747   6.960  1.00  0.00     0.134 A 
ATOM     74  C   UNL     1      14.996 -14.348   7.731  1.00  0.00     0.134 A 
ATOM     75  F   UNL     1      11.962 -12.940   6.315  1.00  0.00    -0.206 F 
ATOM     76  C   UNL     1      12.310 -14.959   7.441  1.00  0.00     0.040 A 
ATOM     77  C   UNL     1      14.513 -15.574   8.183  1.00  0.00     0.040 A 
ATOM     78  F   UNL     1      16.307 -14.098   7.880  1.00  0.00    -0.206 F 
ATOM     79  C   UNL     1      13.162 -15.878   8.050  1.00  0.00     0.006 A 
ENDBRANCH  55  72
ENDBRANCH  29  30
ENDBRANCH  21  24
ENDBRANCH  19  20
ENDBRANCH   1  19
TORSDOF 12
