REMARK SMILES [NH3+]C[C@@]1([C@@H](O)C(=O)NCCCCNC(=O)c2ccc(-c3c4nc(c(-c5c(F)cccc5F)c5ccc([nH]5)c(-c5c(F)cccc5F)c5nc(c(-c6c(F)cccc6F)c6ccc3[nH]6)C=C5)C=C4)cc2)CCOc2ccccc21
REMARK SMILES IDX 10 1 9 2 8 3 6 4 7 5 4 7 3 8 70 9 78 10 71 11 73 12 77 13
REMARK SMILES IDX 72 14 74 15 76 16 75 17 2 18 1 19 5 23 11 25 12 26 13 27
REMARK SMILES IDX 14 28 15 30 16 31 17 32 69 33 18 34 68 35 19 36 20 37 21 38
REMARK SMILES IDX 62 39 22 40 67 41 61 42 63 43 23 44 66 45 60 46 59 47 24 49
REMARK SMILES IDX 50 50 33 51 49 52 34 53 37 54 48 55 64 56 35 57 36 58 47 60
REMARK SMILES IDX 65 61 38 62 25 63 26 64 31 65 27 66 28 67 30 68 32 69 29 70
REMARK SMILES IDX 51 71 52 72 57 73 53 74 54 75 56 76 58 77 55 78 39 79 40 80
REMARK SMILES IDX 45 81 41 82 42 83 44 84 46 85 43 86
REMARK H PARENT 8 6 1 20 1 21 1 22 5 24 13 29 63 48 37 59
REMARK Flexibility Score: inf
ROOT
ATOM      1  C   UNL     1      -2.219  -3.497  -0.873  1.00  0.00     0.023 C 
ENDROOT
BRANCH   1   2
ATOM      2  C   UNL     1      -2.206  -2.074  -1.421  1.00  0.00     0.116 C 
BRANCH   2   3
ATOM      3  N   UNL     1      -1.790  -1.117  -0.422  1.00  0.00    -0.354 N 
ATOM      4  C   UNL     1      -0.608  -0.468  -0.275  1.00  0.00     0.250 C 
ATOM      5  O   UNL     1      -0.522   0.332   0.666  1.00  0.00    -0.272 OA
ATOM      6  H   UNL     1      -2.470  -0.902   0.257  1.00  0.00     0.163 HD
BRANCH   4   7
ATOM      7  C   UNL     1       0.597  -0.661  -1.229  1.00  0.00     0.219 C 
BRANCH   7   8
ATOM      8  C   UNL     1       1.497  -1.974  -1.150  1.00  0.00     0.086 C 
ATOM      9  C   UNL     1       1.350  -2.750  -2.498  1.00  0.00     0.062 C 
ATOM     10  C   UNL     1       1.187  -2.972  -0.022  1.00  0.00     0.009 A 
ATOM     11  C   UNL     1       2.032  -4.103  -2.440  1.00  0.00     0.231 C 
ATOM     12  C   UNL     1       1.188  -4.361  -0.260  1.00  0.00     0.123 A 
ATOM     13  C   UNL     1       0.900  -2.549   1.292  1.00  0.00     0.008 A 
ATOM     14  O   UNL     1       1.427  -4.947  -1.472  1.00  0.00    -0.493 OA
ATOM     15  C   UNL     1       0.839  -5.269   0.747  1.00  0.00     0.047 A 
ATOM     16  C   UNL     1       0.547  -3.459   2.294  1.00  0.00     0.001 A 
ATOM     17  C   UNL     1       0.506  -4.820   2.019  1.00  0.00     0.004 A 
BRANCH   8  18
ATOM     18  C   UNL     1       3.015  -1.500  -1.072  1.00  0.00     0.274 C 
BRANCH  18  19
ATOM     19  N   UNL     1       3.742  -1.704   0.182  1.00  0.00    -0.357 N 
ATOM     20  H   UNL     1       4.695  -1.354   0.083  1.00  0.00     0.344 HD
ATOM     21  H   UNL     1       3.767  -2.700   0.402  1.00  0.00     0.344 HD
ATOM     22  H   UNL     1       3.271  -1.201   0.934  1.00  0.00     0.344 HD
ENDBRANCH  18  19
ENDBRANCH   8  18
ENDBRANCH   7   8
BRANCH   7  23
ATOM     23  O   UNL     1       0.226  -0.366  -2.586  1.00  0.00    -0.382 OA
ATOM     24  H   UNL     1      -0.392  -1.042  -2.906  1.00  0.00     0.211 HD
ENDBRANCH   7  23
ENDBRANCH   4   7
ENDBRANCH   2   3
ENDBRANCH   1   2
BRANCH   1  25
ATOM     25  C   UNL     1      -3.221  -3.756   0.248  1.00  0.00     0.023 C 
BRANCH  25  26
ATOM     26  C   UNL     1      -4.663  -3.498  -0.147  1.00  0.00     0.116 C 
BRANCH  26  27
ATOM     27  N   UNL     1      -5.057  -4.258  -1.325  1.00  0.00    -0.352 N 
ATOM     28  C   UNL     1      -6.180  -5.015  -1.528  1.00  0.00     0.251 C 
ATOM     29  H   UNL     1      -4.429  -4.222  -2.082  1.00  0.00     0.163 HD
ATOM     30  O   UNL     1      -6.275  -5.739  -2.515  1.00  0.00    -0.269 OA
BRANCH  28  31
ATOM     31  C   UNL     1      -7.266  -4.968  -0.532  1.00  0.00     0.039 A 
ATOM     32  C   UNL     1      -7.858  -6.162  -0.120  1.00  0.00     0.014 A 
ATOM     33  C   UNL     1      -7.671  -3.747   0.015  1.00  0.00     0.014 A 
ATOM     34  C   UNL     1      -8.825  -6.134   0.882  1.00  0.00     0.010 A 
ATOM     35  C   UNL     1      -8.558  -3.732   1.081  1.00  0.00     0.010 A 
ATOM     36  C   UNL     1      -9.158  -4.923   1.513  1.00  0.00    -0.014 A 
BRANCH  36  37
ATOM     37  C   UNL     1     -10.151  -4.883   2.612  1.00  0.00     0.031 A 
ATOM     38  C   UNL     1     -11.421  -4.094   2.446  1.00  0.00     0.074 A 
ATOM     39  C   UNL     1      -9.882  -5.511   3.773  1.00  0.00     0.049 A 
ATOM     40  N   UNL     1     -12.394  -3.909   3.300  1.00  0.00    -0.248 NA
ATOM     41  C   UNL     1     -11.610  -3.394   1.164  1.00  0.00     0.031 C 
ATOM     42  C   UNL     1      -8.653  -6.249   4.073  1.00  0.00     0.029 A 
ATOM     43  N   UNL     1     -10.624  -5.622   4.921  1.00  0.00    -0.354 N 
ATOM     44  C   UNL     1     -13.294  -3.061   2.668  1.00  0.00     0.074 A 
ATOM     45  C   UNL     1     -12.728  -2.720   1.383  1.00  0.00     0.031 C 
ATOM     46  C   UNL     1      -8.738  -6.760   5.312  1.00  0.00     0.029 A 
ATOM     47  C   UNL     1     -10.007  -6.354   5.907  1.00  0.00     0.049 A 
ATOM     48  H   UNL     1     -11.514  -5.216   5.029  1.00  0.00     0.167 HD
ATOM     49  C   UNL     1     -14.498  -2.629   3.110  1.00  0.00     0.037 A 
ATOM     50  C   UNL     1     -10.418  -6.657   7.153  1.00  0.00     0.037 A 
ATOM     51  C   UNL     1     -15.071  -3.005   4.374  1.00  0.00     0.049 A 
ATOM     52  C   UNL     1     -11.769  -6.178   7.610  1.00  0.00     0.074 A 
ATOM     53  C   UNL     1     -16.320  -2.692   4.879  1.00  0.00     0.029 A 
ATOM     54  N   UNL     1     -14.429  -3.773   5.334  1.00  0.00    -0.354 N 
ATOM     55  N   UNL     1     -12.653  -5.457   6.963  1.00  0.00    -0.248 NA
ATOM     56  C   UNL     1     -12.184  -6.562   8.966  1.00  0.00     0.031 C 
ATOM     57  C   UNL     1     -16.413  -3.223   6.169  1.00  0.00     0.029 A 
ATOM     58  C   UNL     1     -15.246  -3.918   6.442  1.00  0.00     0.049 A 
ATOM     59  H   UNL     1     -13.528  -4.158   5.241  1.00  0.00     0.167 HD
ATOM     60  C   UNL     1     -13.738  -5.326   7.820  1.00  0.00     0.074 A 
ATOM     61  C   UNL     1     -13.408  -6.058   9.025  1.00  0.00     0.031 C 
ATOM     62  C   UNL     1     -14.902  -4.658   7.629  1.00  0.00     0.037 A 
BRANCH  49  63
ATOM     63  C   UNL     1     -15.279  -1.704   2.223  1.00  0.00     0.057 A 
ATOM     64  C   UNL     1     -15.861  -2.140   1.025  1.00  0.00     0.134 A 
ATOM     65  C   UNL     1     -15.499  -0.373   2.600  1.00  0.00     0.134 A 
ATOM     66  F   UNL     1     -15.679  -3.398   0.598  1.00  0.00    -0.206 F 
ATOM     67  C   UNL     1     -16.617  -1.280   0.226  1.00  0.00     0.040 A 
ATOM     68  C   UNL     1     -16.277   0.487   1.824  1.00  0.00     0.040 A 
ATOM     69  F   UNL     1     -14.973   0.108   3.736  1.00  0.00    -0.206 F 
ATOM     70  C   UNL     1     -16.835   0.035   0.631  1.00  0.00     0.006 A 
ENDBRANCH  49  63
BRANCH  50  71
ATOM     71  C   UNL     1      -9.550  -7.459   8.053  1.00  0.00     0.057 A 
ATOM     72  C   UNL     1      -9.908  -8.755   8.444  1.00  0.00     0.134 A 
ATOM     73  C   UNL     1      -8.354  -6.941   8.565  1.00  0.00     0.134 A 
ATOM     74  F   UNL     1     -11.049  -9.303   8.001  1.00  0.00    -0.206 F 
ATOM     75  C   UNL     1      -9.125  -9.494   9.333  1.00  0.00     0.040 A 
ATOM     76  C   UNL     1      -7.546  -7.680   9.430  1.00  0.00     0.040 A 
ATOM     77  F   UNL     1      -7.947  -5.709   8.221  1.00  0.00    -0.206 F 
ATOM     78  C   UNL     1      -7.938  -8.957   9.826  1.00  0.00     0.006 A 
ENDBRANCH  50  71
BRANCH  62  79
ATOM     79  C   UNL     1     -15.919  -4.720   8.732  1.00  0.00     0.057 A 
ATOM     80  C   UNL     1     -15.736  -4.050   9.948  1.00  0.00     0.134 A 
ATOM     81  C   UNL     1     -17.118  -5.423   8.554  1.00  0.00     0.134 A 
ATOM     82  F   UNL     1     -14.605  -3.368  10.185  1.00  0.00    -0.206 F 
ATOM     83  C   UNL     1     -16.697  -4.099  10.958  1.00  0.00     0.040 A 
ATOM     84  C   UNL     1     -18.100  -5.453   9.544  1.00  0.00     0.040 A 
ATOM     85  F   UNL     1     -17.362  -6.076   7.408  1.00  0.00    -0.206 F 
ATOM     86  C   UNL     1     -17.887  -4.795  10.754  1.00  0.00     0.006 A 
ENDBRANCH  62  79
ENDBRANCH  36  37
ENDBRANCH  28  31
ENDBRANCH  26  27
ENDBRANCH  25  26
ENDBRANCH   1  25
TORSDOF 15
