REMARK SMILES COc1cccc([C@@H]2CC(c3cccc(C)c3)=NN2C(=O)CCC(=O)NCCCCNC(=O)c2ccc(-c3c4nc(c(-c5c(F)cccc5F)c5ccc([nH]5)c(-c5c(F)cccc5F)c5nc(c(-c6c(F)cccc6F)c6ccc3[nH]6)C=C5)C=C4)cc2)c1
REMARK SMILES IDX 27 1 26 2 24 3 25 4 23 6 22 7 20 8 21 9 19 10 8 11 9 12
REMARK SMILES IDX 10 13 18 14 7 15 3 16 4 17 88 18 5 19 6 20 2 21 1 22 11 23
REMARK SMILES IDX 12 24 17 25 13 26 15 27 14 28 16 29 28 30 29 31 30 32 31 33
REMARK SMILES IDX 32 34 33 36 34 37 35 38 87 39 36 40 86 41 37 42 38 43 39 44
REMARK SMILES IDX 80 45 40 46 85 47 79 48 81 49 41 50 84 51 78 52 77 53 42 55
REMARK SMILES IDX 68 56 51 57 67 58 52 59 55 60 66 61 82 62 53 63 54 64 65 66
REMARK SMILES IDX 83 67 56 68 43 69 44 70 49 71 45 72 46 73 48 74 50 75 47 76
REMARK SMILES IDX 69 77 70 78 75 79 71 80 72 81 74 82 76 83 73 84 57 85 58 86
REMARK SMILES IDX 63 87 59 88 60 89 62 90 64 91 61 92
REMARK H PARENT 26 5 31 35 81 54 55 65
REMARK Flexibility Score: inf
ROOT
ATOM      1  C   UNL     1       4.508  -2.846  -1.998  1.00  0.00     0.116 C 
ENDROOT
BRANCH   1   2
ATOM      2  N   UNL     1       3.085  -3.369  -1.512  1.00  0.00    -0.356 N 
ATOM      3  C   UNL     1       2.485  -4.585  -1.465  1.00  0.00     0.220 C 
ATOM      4  O   UNL     1       1.309  -4.598  -1.091  1.00  0.00    -0.275 OA
ATOM      5  H   UNL     1       2.511  -2.647  -1.168  1.00  0.00     0.163 HD
BRANCH   3   6
ATOM      6  C   UNL     1       3.210  -5.856  -1.840  1.00  0.00     0.110 C 
BRANCH   6   7
ATOM      7  C   UNL     1       3.913  -5.950  -3.197  1.00  0.00     0.112 C 
BRANCH   7   8
ATOM      8  C   UNL     1       5.274  -5.246  -3.232  1.00  0.00     0.243 C 
ATOM      9  O   UNL     1       6.294  -5.819  -2.861  1.00  0.00    -0.273 OA
BRANCH   8  10
ATOM     10  N   UNL     1       5.189  -3.869  -3.542  1.00  0.00    -0.225 N 
ATOM     11  C   UNL     1       3.526  -3.060  -3.833  1.00  0.00     0.147 C 
ATOM     12  C   UNL     1       3.717  -1.341  -2.735  1.00  0.00     0.091 C 
ATOM     13  C   UNL     1       5.802  -1.384  -2.274  1.00  0.00     0.071 C 
ATOM     14  N   UNL     1       6.393  -2.771  -2.691  1.00  0.00    -0.174 NA
BRANCH  11  15
ATOM     15  C   UNL     1       3.333  -3.295  -5.419  1.00  0.00    -0.019 A 
ATOM     16  C   UNL     1       1.943  -3.704  -7.369  1.00  0.00     0.119 A 
ATOM     17  C   UNL     1       3.064  -4.058  -8.126  1.00  0.00     0.046 A 
ATOM     18  C   UNL     1       2.068  -3.313  -6.021  1.00  0.00     0.052 A 
ATOM     19  C   UNL     1       4.325  -4.014  -7.565  1.00  0.00     0.004 A 
ATOM     20  C   UNL     1       4.452  -3.649  -6.231  1.00  0.00     0.006 A 
BRANCH  16  21
ATOM     21  O   UNL     1       0.767  -3.857  -8.052  1.00  0.00    -0.497 OA
ATOM     22  C   UNL     1      -0.318  -3.060  -7.611  1.00  0.00     0.278 C 
ENDBRANCH  16  21
ENDBRANCH  11  15
BRANCH  13  23
ATOM     23  C   UNL     1       7.062  -0.194  -2.211  1.00  0.00    -0.002 A 
ATOM     24  C   UNL     1       8.361  -0.635  -2.357  1.00  0.00     0.010 A 
ATOM     25  C   UNL     1       6.983   1.272  -2.222  1.00  0.00     0.013 A 
ATOM     26  C   UNL     1       9.377   0.324  -2.511  1.00  0.00     0.001 A 
ATOM     27  C   UNL     1       7.899   2.305  -1.700  1.00  0.00    -0.050 A 
ATOM     28  C   UNL     1       9.162   1.722  -2.235  1.00  0.00     0.003 A 
ATOM     29  C   UNL     1       7.541   3.626  -0.056  1.00  0.00     0.044 C 
ENDBRANCH  13  23
ENDBRANCH   8  10
ENDBRANCH   7   8
ENDBRANCH   6   7
ENDBRANCH   3   6
ENDBRANCH   1   2
BRANCH   1  30
ATOM     30  C   UNL     1       5.048  -1.788  -3.884  1.00  0.00     0.023 C 
BRANCH  30  31
ATOM     31  C   UNL     1       4.952   0.117  -3.812  1.00  0.00     0.023 C 
BRANCH  31  32
ATOM     32  C   UNL     1       4.332   0.946  -2.324  1.00  0.00     0.116 C 
BRANCH  32  33
ATOM     33  N   UNL     1       4.700   0.474  -0.808  1.00  0.00    -0.352 N 
ATOM     34  C   UNL     1       5.715   0.666   0.189  1.00  0.00     0.251 C 
ATOM     35  H   UNL     1       4.007  -0.137  -0.468  1.00  0.00     0.163 HD
ATOM     36  O   UNL     1       5.788  -0.075   1.162  1.00  0.00    -0.269 OA
BRANCH  34  37
ATOM     37  C   UNL     1       6.683   1.782   0.037  1.00  0.00     0.039 A 
ATOM     38  C   UNL     1       8.523   1.903   0.278  1.00  0.00     0.014 A 
ATOM     39  C   UNL     1       5.839   2.992  -1.006  1.00  0.00     0.014 A 
ATOM     40  C   UNL     1       9.446   3.303  -0.550  1.00  0.00     0.010 A 
ATOM     41  C   UNL     1       6.750   4.211  -1.920  1.00  0.00     0.010 A 
ATOM     42  C   UNL     1       8.517   4.434  -1.692  1.00  0.00    -0.014 A 
BRANCH  42  43
ATOM     43  C   UNL     1       8.782   5.838  -2.240  1.00  0.00     0.031 A 
ATOM     44  C   UNL     1       8.107   7.077  -1.584  1.00  0.00     0.074 A 
ATOM     45  C   UNL     1       9.025   5.968  -3.566  1.00  0.00     0.049 A 
ATOM     46  N   UNL     1       7.947   8.306  -2.039  1.00  0.00    -0.248 NA
ATOM     47  C   UNL     1       7.441   6.887  -0.288  1.00  0.00     0.031 C 
ATOM     48  C   UNL     1       9.361   4.877  -4.479  1.00  0.00     0.029 A 
ATOM     49  N   UNL     1       8.933   7.070  -4.396  1.00  0.00    -0.354 N 
ATOM     50  C   UNL     1       7.202   8.995  -1.074  1.00  0.00     0.074 A 
ATOM     51  C   UNL     1       6.825   8.034  -0.080  1.00  0.00     0.031 C 
ATOM     52  C   UNL     1       9.459   5.360  -5.731  1.00  0.00     0.029 A 
ATOM     53  C   UNL     1       9.184   6.797  -5.722  1.00  0.00     0.049 A 
ATOM     54  H   UNL     1       8.707   7.970  -4.068  1.00  0.00     0.167 HD
ATOM     55  C   UNL     1       6.873  10.306  -0.956  1.00  0.00     0.037 A 
ATOM     56  C   UNL     1       9.209   7.601  -6.808  1.00  0.00     0.037 A 
ATOM     57  C   UNL     1       7.131  11.293  -1.959  1.00  0.00     0.049 A 
ATOM     58  C   UNL     1       8.908   9.075  -6.691  1.00  0.00     0.074 A 
ATOM     59  C   UNL     1       6.948  12.664  -1.903  1.00  0.00     0.029 A 
ATOM     60  N   UNL     1       7.573  10.993  -3.232  1.00  0.00    -0.354 N 
ATOM     61  N   UNL     1       8.488   9.757  -5.655  1.00  0.00    -0.248 NA
ATOM     62  C   UNL     1       9.106   9.893  -7.901  1.00  0.00     0.031 C 
ATOM     63  C   UNL     1       7.229  13.188  -3.170  1.00  0.00     0.029 A 
ATOM     64  C   UNL     1       7.635  12.147  -3.988  1.00  0.00     0.049 A 
ATOM     65  H   UNL     1       7.809  10.092  -3.552  1.00  0.00     0.167 HD
ATOM     66  C   UNL     1       8.416  11.084  -6.073  1.00  0.00     0.074 A 
ATOM     67  C   UNL     1       8.828  11.113  -7.458  1.00  0.00     0.031 C 
ATOM     68  C   UNL     1       8.052  12.180  -5.363  1.00  0.00     0.037 A 
BRANCH  55  69
ATOM     69  C   UNL     1       6.230  10.747   0.338  1.00  0.00     0.057 A 
ATOM     70  C   UNL     1       6.944  10.706   1.548  1.00  0.00     0.134 A 
ATOM     71  C   UNL     1       4.913  11.219   0.390  1.00  0.00     0.134 A 
ATOM     72  F   UNL     1       8.208  10.257   1.575  1.00  0.00    -0.206 F 
ATOM     73  C   UNL     1       6.360  11.077   2.761  1.00  0.00     0.040 A 
ATOM     74  C   UNL     1       4.327  11.620   1.595  1.00  0.00     0.040 A 
ATOM     75  F   UNL     1       4.169  11.292  -0.723  1.00  0.00    -0.206 F 
ATOM     76  C   UNL     1       5.048  11.540   2.786  1.00  0.00     0.006 A 
ENDBRANCH  55  69
BRANCH  56  77
ATOM     77  C   UNL     1       9.674   7.049  -8.109  1.00  0.00     0.057 A 
ATOM     78  C   UNL     1      10.980   7.305  -8.547  1.00  0.00     0.134 A 
ATOM     79  C   UNL     1       8.862   6.260  -8.930  1.00  0.00     0.134 A 
ATOM     80  F   UNL     1      11.794   8.080  -7.814  1.00  0.00    -0.206 F 
ATOM     81  C   UNL     1      11.463   6.801  -9.754  1.00  0.00     0.040 A 
ATOM     82  C   UNL     1       9.338   5.734 -10.134  1.00  0.00     0.040 A 
ATOM     83  F   UNL     1       7.601   5.980  -8.569  1.00  0.00    -0.206 F 
ATOM     84  C   UNL     1      10.643   6.005 -10.549  1.00  0.00     0.006 A 
ENDBRANCH  56  77
BRANCH  68  85
ATOM     85  C   UNL     1       8.116  13.517  -6.037  1.00  0.00     0.057 A 
ATOM     86  C   UNL     1       7.176  13.911  -6.996  1.00  0.00     0.134 A 
ATOM     87  C   UNL     1       9.092  14.449  -5.663  1.00  0.00     0.134 A 
ATOM     88  F   UNL     1       6.216  13.064  -7.396  1.00  0.00    -0.206 F 
ATOM     89  C   UNL     1       7.216  15.182  -7.573  1.00  0.00     0.040 A 
ATOM     90  C   UNL     1       9.129  15.729  -6.216  1.00  0.00     0.040 A 
ATOM     91  F   UNL     1      10.012  14.138  -4.738  1.00  0.00    -0.206 F 
ATOM     92  C   UNL     1       8.191  16.097  -7.178  1.00  0.00     0.006 A 
ENDBRANCH  68  85
ENDBRANCH  42  43
ENDBRANCH  34  37
ENDBRANCH  32  33
ENDBRANCH  31  32
ENDBRANCH  30  31
ENDBRANCH   1  30
TORSDOF 17
