REMARK SMILES O=C(NCCCCNC(=O)c1cccnc1C(=O)Nc1ccc([N+](=O)[O-])cc1)c1ccc(-c2c3nc(c(-c4c(F)cccc4F)c4ccc([nH]4)c(-c4c(F)cccc4F)c4nc(c(-c5c(F)cccc5F)c5ccc2[nH]5)C=C4)C=C3)cc1
REMARK SMILES IDX 6 1 5 2 4 3 3 4 1 5 2 6 29 8 30 9 82 10 31 11 81 12 32 13
REMARK SMILES IDX 33 14 34 15 75 16 35 17 80 18 74 19 76 20 36 21 79 22 73 23
REMARK SMILES IDX 72 24 37 26 63 27 46 28 62 29 47 30 50 31 61 32 77 33 48 34
REMARK SMILES IDX 49 35 60 37 78 38 51 39 38 40 39 41 44 42 40 43 41 44 43 45
REMARK SMILES IDX 45 46 42 47 64 48 65 49 70 50 66 51 67 52 69 53 71 54 68 55
REMARK SMILES IDX 52 56 53 57 58 58 54 59 55 60 57 61 59 62 56 63 7 64 8 65
REMARK SMILES IDX 9 66 10 68 11 69 12 70 16 71 13 72 15 73 14 74 17 75 18 76
REMARK SMILES IDX 19 77 20 79 21 80 28 81 22 82 27 83 23 84 24 85 25 86 26 87
REMARK H PARENT 3 7 76 25 50 36 8 67 19 78
REMARK Flexibility Score: inf
ROOT
ATOM      1  C   UNL     1       3.902  -2.480   3.041  1.00  0.00     0.023 C 
ENDROOT
BRANCH   1   2
ATOM      2  C   UNL     1       4.167  -1.120   2.384  1.00  0.00     0.023 C 
BRANCH   2   3
ATOM      3  C   UNL     1       4.076  -1.017   0.865  1.00  0.00     0.116 C 
BRANCH   3   4
ATOM      4  N   UNL     1       2.702  -0.972   0.403  1.00  0.00    -0.352 N 
ATOM      5  O   UNL     1       0.837  -0.039  -0.438  1.00  0.00    -0.269 OA
ATOM      6  C   UNL     1       2.058   0.010  -0.312  1.00  0.00     0.251 C 
ATOM      7  H   UNL     1       2.152  -1.755   0.634  1.00  0.00     0.163 HD
BRANCH   6   8
ATOM      8  C   UNL     1       2.809   1.137  -0.917  1.00  0.00     0.039 A 
ATOM      9  C   UNL     1       3.990   0.934  -1.639  1.00  0.00     0.014 A 
ATOM     10  C   UNL     1       2.268   2.424  -0.822  1.00  0.00     0.014 A 
ATOM     11  C   UNL     1       4.667   2.022  -2.198  1.00  0.00     0.010 A 
ATOM     12  C   UNL     1       2.921   3.505  -1.422  1.00  0.00     0.010 A 
ATOM     13  C   UNL     1       4.132   3.316  -2.106  1.00  0.00    -0.014 A 
BRANCH  13  14
ATOM     14  C   UNL     1       4.795   4.469  -2.770  1.00  0.00     0.031 A 
ATOM     15  C   UNL     1       5.393   5.583  -1.958  1.00  0.00     0.074 A 
ATOM     16  C   UNL     1       4.803   4.545  -4.114  1.00  0.00     0.049 A 
ATOM     17  N   UNL     1       5.905   6.720  -2.362  1.00  0.00    -0.248 NA
ATOM     18  C   UNL     1       5.408   5.401  -0.500  1.00  0.00     0.031 C 
ATOM     19  C   UNL     1       4.248   3.536  -5.017  1.00  0.00     0.029 A 
ATOM     20  N   UNL     1       5.274   5.524  -4.954  1.00  0.00    -0.354 N 
ATOM     21  C   UNL     1       6.282   7.397  -1.210  1.00  0.00     0.074 A 
ATOM     22  C   UNL     1       5.922   6.552  -0.089  1.00  0.00     0.031 C 
ATOM     23  C   UNL     1       4.408   3.948  -6.284  1.00  0.00     0.029 A 
ATOM     24  C   UNL     1       5.030   5.269  -6.281  1.00  0.00     0.049 A 
ATOM     25  H   UNL     1       5.740   6.330  -4.635  1.00  0.00     0.167 HD
ATOM     26  C   UNL     1       6.876   8.610  -1.097  1.00  0.00     0.037 A 
ATOM     27  C   UNL     1       5.252   6.024  -7.373  1.00  0.00     0.037 A 
ATOM     28  C   UNL     1       7.242   9.446  -2.212  1.00  0.00     0.049 A 
ATOM     29  C   UNL     1       5.883   7.378  -7.224  1.00  0.00     0.074 A 
ATOM     30  C   UNL     1       7.887  10.671  -2.197  1.00  0.00     0.029 A 
ATOM     31  N   UNL     1       6.988   9.146  -3.542  1.00  0.00    -0.354 N 
ATOM     32  N   UNL     1       6.267   7.992  -6.132  1.00  0.00    -0.248 NA
ATOM     33  C   UNL     1       6.112   8.144  -8.457  1.00  0.00     0.031 C 
ATOM     34  C   UNL     1       7.984  11.132  -3.515  1.00  0.00     0.029 A 
ATOM     35  C   UNL     1       7.443  10.172  -4.354  1.00  0.00     0.049 A 
ATOM     36  H   UNL     1       6.550   8.324  -3.862  1.00  0.00     0.167 HD
ATOM     37  C   UNL     1       6.805   9.203  -6.545  1.00  0.00     0.074 A 
ATOM     38  C   UNL     1       6.701   9.237  -7.989  1.00  0.00     0.031 C 
ATOM     39  C   UNL     1       7.342  10.193  -5.792  1.00  0.00     0.037 A 
BRANCH  26  40
ATOM     40  C   UNL     1       7.147   9.119   0.290  1.00  0.00     0.057 A 
ATOM     41  C   UNL     1       8.150   8.570   1.099  1.00  0.00     0.134 A 
ATOM     42  C   UNL     1       6.410  10.190   0.812  1.00  0.00     0.134 A 
ATOM     43  F   UNL     1       8.885   7.536   0.663  1.00  0.00    -0.206 F 
ATOM     44  C   UNL     1       8.391   9.049   2.388  1.00  0.00     0.040 A 
ATOM     45  C   UNL     1       6.658  10.693   2.090  1.00  0.00     0.040 A 
ATOM     46  F   UNL     1       5.441  10.768   0.086  1.00  0.00    -0.206 F 
ATOM     47  C   UNL     1       7.646  10.117   2.885  1.00  0.00     0.006 A 
ENDBRANCH  26  40
BRANCH  27  48
ATOM     48  C   UNL     1       4.862   5.504  -8.706  1.00  0.00     0.057 A 
ATOM     49  C   UNL     1       5.825   5.068  -9.621  1.00  0.00     0.134 A 
ATOM     50  C   UNL     1       3.517   5.395  -9.080  1.00  0.00     0.134 A 
ATOM     51  F   UNL     1       7.130   5.165  -9.326  1.00  0.00    -0.206 F 
ATOM     52  C   UNL     1       5.466   4.541 -10.863  1.00  0.00     0.040 A 
ATOM     53  C   UNL     1       3.143   4.851 -10.309  1.00  0.00     0.040 A 
ATOM     54  F   UNL     1       2.547   5.792  -8.242  1.00  0.00    -0.206 F 
ATOM     55  C   UNL     1       4.120   4.423 -11.205  1.00  0.00     0.006 A 
ENDBRANCH  27  48
BRANCH  39  56
ATOM     56  C   UNL     1       7.900  11.383  -6.514  1.00  0.00     0.057 A 
ATOM     57  C   UNL     1       7.073  12.365  -7.072  1.00  0.00     0.134 A 
ATOM     58  C   UNL     1       9.285  11.575  -6.601  1.00  0.00     0.134 A 
ATOM     59  F   UNL     1       5.738  12.233  -7.033  1.00  0.00    -0.206 F 
ATOM     60  C   UNL     1       7.604  13.492  -7.702  1.00  0.00     0.040 A 
ATOM     61  C   UNL     1       9.827  12.708  -7.210  1.00  0.00     0.040 A 
ATOM     62  F   UNL     1      10.132  10.674  -6.082  1.00  0.00    -0.206 F 
ATOM     63  C   UNL     1       8.986  13.669  -7.764  1.00  0.00     0.006 A 
ENDBRANCH  39  56
ENDBRANCH  13  14
ENDBRANCH   6   8
ENDBRANCH   3   4
ENDBRANCH   2   3
ENDBRANCH   1   2
BRANCH   1  64
ATOM     64  C   UNL     1       4.158  -3.759   2.245  1.00  0.00     0.116 C 
BRANCH  64  65
ATOM     65  N   UNL     1       5.547  -4.013   1.880  1.00  0.00    -0.352 N 
ATOM     66  C   UNL     1       6.426  -4.985   2.326  1.00  0.00     0.253 C 
ATOM     67  H   UNL     1       5.919  -3.395   1.209  1.00  0.00     0.163 HD
ATOM     68  O   UNL     1       7.463  -5.213   1.714  1.00  0.00    -0.269 OA
BRANCH  66  69
ATOM     69  C   UNL     1       6.048  -5.855   3.437  1.00  0.00     0.071 A 
ATOM     70  C   UNL     1       5.055  -6.796   3.079  1.00  0.00     0.018 A 
ATOM     71  C   UNL     1       6.579  -5.888   4.725  1.00  0.00     0.141 A 
ATOM     72  C   UNL     1       4.551  -7.690   4.008  1.00  0.00     0.021 A 
ATOM     73  N   UNL     1       6.035  -6.763   5.641  1.00  0.00    -0.250 NA
ATOM     74  C   UNL     1       5.063  -7.625   5.280  1.00  0.00     0.112 A 
BRANCH  71  75
ATOM     75  C   UNL     1       7.788  -5.198   5.369  1.00  0.00     0.275 C 
ATOM     76  O   UNL     1       7.988  -5.370   6.579  1.00  0.00    -0.267 OA
ATOM     77  N   UNL     1       8.836  -4.617   4.694  1.00  0.00    -0.321 N 
ATOM     78  H   UNL     1       9.721  -4.953   4.964  1.00  0.00     0.170 HD
BRANCH  77  79
ATOM     79  C   UNL     1       8.881  -3.643   3.703  1.00  0.00     0.042 A 
ATOM     80  C   UNL     1       9.979  -3.665   2.832  1.00  0.00     0.033 A 
ATOM     81  C   UNL     1       7.886  -2.681   3.558  1.00  0.00     0.033 A 
ATOM     82  C   UNL     1       9.960  -2.897   1.668  1.00  0.00     0.088 A 
ATOM     83  C   UNL     1       7.891  -1.872   2.422  1.00  0.00     0.088 A 
ATOM     84  C   UNL     1       8.871  -2.056   1.443  1.00  0.00     0.269 A 
BRANCH  84  85
ATOM     85  N   UNL     1       8.667  -1.462   0.123  1.00  0.00     0.062 N 
ATOM     86  O   UNL     1       9.665  -1.237  -0.572  1.00  0.00    -0.258 OA
ATOM     87  O   UNL     1       7.492  -1.250  -0.223  1.00  0.00    -0.258 OA
ENDBRANCH  84  85
ENDBRANCH  77  79
ENDBRANCH  71  75
ENDBRANCH  66  69
ENDBRANCH  64  65
ENDBRANCH   1  64
TORSDOF 14
