REMARK SMILES CCc1cc(C(=O)N2CCO[C@@H](CC(=O)NCCCCNC(=O)c3ccc(-c4c5nc(c(-c6c(F)cccc6F)c6ccc([nH]6)c(-c6c(F)cccc6F)c6nc(c(-c7c(F)cccc7F)c7ccc4[nH]7)C=C6)C=C5)cc3)C2)sc1C
REMARK SMILES IDX 17 1 16 2 14 3 15 4 13 6 12 7 8 8 9 9 78 10 10 11 11 12 6 13
REMARK SMILES IDX 7 14 5 15 3 16 4 17 80 18 79 19 81 20 2 21 1 22 18 23 19 24
REMARK SMILES IDX 20 25 21 26 22 27 23 29 24 30 25 31 77 32 26 33 76 34 27 35
REMARK SMILES IDX 28 36 29 37 70 38 30 39 75 40 69 41 71 42 31 43 74 44 68 45
REMARK SMILES IDX 67 46 32 48 58 49 41 50 57 51 42 52 45 53 56 54 72 55 43 56
REMARK SMILES IDX 44 57 55 59 73 60 46 61 33 62 34 63 39 64 35 65 36 66 38 67
REMARK SMILES IDX 40 68 37 69 59 70 60 71 65 72 61 73 62 74 64 75 66 76 63 77
REMARK SMILES IDX 47 78 48 79 53 80 49 81 50 82 52 83 54 84 51 85
REMARK H PARENT 16 5 21 28 71 47 45 58
REMARK Flexibility Score: inf
ROOT
ATOM      1  C   UNL     1      -0.794  -7.413   6.421  1.00  0.00     0.116 C 
ENDROOT
BRANCH   1   2
ATOM      2  N   UNL     1      -2.022  -7.143   5.687  1.00  0.00    -0.356 N 
ATOM      3  C   UNL     1      -2.378  -7.450   4.405  1.00  0.00     0.222 C 
ATOM      4  O   UNL     1      -3.465  -7.043   3.990  1.00  0.00    -0.275 OA
ATOM      5  H   UNL     1      -2.709  -6.658   6.199  1.00  0.00     0.163 HD
BRANCH   3   6
ATOM      6  C   UNL     1      -1.447  -8.227   3.498  1.00  0.00     0.133 C 
BRANCH   6   7
ATOM      7  C   UNL     1      -0.709  -7.309   2.520  1.00  0.00     0.147 C 
ATOM      8  N   UNL     1       1.069  -5.543   2.447  1.00  0.00    -0.333 N 
ATOM      9  C   UNL     1       1.811  -6.360   1.497  1.00  0.00     0.148 C 
ATOM     10  C   UNL     1       0.158  -6.303   3.279  1.00  0.00     0.152 C 
ATOM     11  C   UNL     1       0.877  -7.317   0.751  1.00  0.00     0.182 C 
ATOM     12  O   UNL     1       0.123  -8.129   1.670  1.00  0.00    -0.374 OA
BRANCH   8  13
ATOM     13  C   UNL     1       1.780  -4.549   3.130  1.00  0.00     0.264 C 
ATOM     14  O   UNL     1       2.328  -4.805   4.203  1.00  0.00    -0.268 OA
BRANCH  13  15
ATOM     15  C   UNL     1       1.677  -3.221   2.547  1.00  0.00     0.093 A 
ATOM     16  C   UNL     1       1.032  -1.383   1.209  1.00  0.00    -0.034 A 
ATOM     17  C   UNL     1       1.068  -2.814   1.379  1.00  0.00     0.029 A 
ATOM     18  C   UNL     1       1.653  -0.754   2.281  1.00  0.00     0.005 A 
ATOM     19  S   UNL     1       2.297  -1.883   3.403  1.00  0.00    -0.135 S 
ATOM     20  C   UNL     1       1.801   0.696   2.609  1.00  0.00     0.056 C 
BRANCH  16  21
ATOM     21  C   UNL     1       0.318  -0.750   0.043  1.00  0.00     0.033 C 
ATOM     22  C   UNL     1       1.103   0.305  -0.717  1.00  0.00     0.009 C 
ENDBRANCH  16  21
ENDBRANCH  13  15
ENDBRANCH   8  13
ENDBRANCH   6   7
ENDBRANCH   3   6
ENDBRANCH   1   2
BRANCH   1  23
ATOM     23  C   UNL     1       0.047  -6.148   6.610  1.00  0.00     0.023 C 
BRANCH  23  24
ATOM     24  C   UNL     1      -0.288  -5.314   7.840  1.00  0.00     0.023 C 
BRANCH  24  25
ATOM     25  C   UNL     1       0.080  -5.955   9.169  1.00  0.00     0.116 C 
BRANCH  25  26
ATOM     26  N   UNL     1       1.494  -6.281   9.288  1.00  0.00    -0.352 N 
ATOM     27  C   UNL     1       2.344  -6.119  10.354  1.00  0.00     0.251 C 
ATOM     28  H   UNL     1       1.902  -6.677   8.484  1.00  0.00     0.163 HD
ATOM     29  O   UNL     1       3.534  -6.394  10.242  1.00  0.00    -0.269 OA
BRANCH  27  30
ATOM     30  C   UNL     1       1.835  -5.570  11.629  1.00  0.00     0.039 A 
ATOM     31  C   UNL     1       2.585  -4.585  12.278  1.00  0.00     0.014 A 
ATOM     32  C   UNL     1       0.623  -6.004  12.173  1.00  0.00     0.014 A 
ATOM     33  C   UNL     1       2.084  -3.983  13.432  1.00  0.00     0.010 A 
ATOM     34  C   UNL     1       0.089  -5.350  13.277  1.00  0.00     0.010 A 
ATOM     35  C   UNL     1       0.815  -4.335  13.917  1.00  0.00    -0.014 A 
BRANCH  35  36
ATOM     36  C   UNL     1       0.232  -3.664  15.102  1.00  0.00     0.031 A 
ATOM     37  C   UNL     1      -0.035  -4.450  16.353  1.00  0.00     0.074 A 
ATOM     38  C   UNL     1      -0.131  -2.369  15.025  1.00  0.00     0.049 A 
ATOM     39  N   UNL     1      -0.632  -4.073  17.454  1.00  0.00    -0.248 NA
ATOM     40  C   UNL     1       0.391  -5.859  16.351  1.00  0.00     0.031 C 
ATOM     41  C   UNL     1       0.011  -1.515  13.844  1.00  0.00     0.029 A 
ATOM     42  N   UNL     1      -0.701  -1.548  15.963  1.00  0.00    -0.354 N 
ATOM     43  C   UNL     1      -0.703  -5.208  18.250  1.00  0.00     0.074 A 
ATOM     44  C   UNL     1      -0.101  -6.291  17.503  1.00  0.00     0.031 C 
ATOM     45  C   UNL     1      -0.431  -0.281  14.140  1.00  0.00     0.029 A 
ATOM     46  C   UNL     1      -0.903  -0.266  15.520  1.00  0.00     0.049 A 
ATOM     47  H   UNL     1      -0.942  -1.851  16.869  1.00  0.00     0.167 HD
ATOM     48  C   UNL     1      -1.216  -5.335  19.496  1.00  0.00     0.037 A 
ATOM     49  C   UNL     1      -1.401   0.806  16.163  1.00  0.00     0.037 A 
ATOM     50  C   UNL     1      -1.745  -4.246  20.270  1.00  0.00     0.049 A 
ATOM     51  C   UNL     1      -1.830   0.672  17.594  1.00  0.00     0.074 A 
ATOM     52  C   UNL     1      -2.231  -4.259  21.566  1.00  0.00     0.029 A 
ATOM     53  N   UNL     1      -1.832  -2.937  19.821  1.00  0.00    -0.354 N 
ATOM     54  N   UNL     1      -1.863  -0.400  18.347  1.00  0.00    -0.248 NA
ATOM     55  C   UNL     1      -2.280   1.899  18.269  1.00  0.00     0.031 C 
ATOM     56  C   UNL     1      -2.609  -2.953  21.903  1.00  0.00     0.029 A 
ATOM     57  C   UNL     1      -2.347  -2.130  20.820  1.00  0.00     0.049 A 
ATOM     58  H   UNL     1      -1.566  -2.628  18.925  1.00  0.00     0.167 HD
ATOM     59  C   UNL     1      -2.321   0.022  19.587  1.00  0.00     0.074 A 
ATOM     60  C   UNL     1      -2.544   1.451  19.489  1.00  0.00     0.031 C 
ATOM     61  C   UNL     1      -2.542  -0.709  20.704  1.00  0.00     0.037 A 
BRANCH  48  62
ATOM     62  C   UNL     1      -1.220  -6.708  20.092  1.00  0.00     0.057 A 
ATOM     63  C   UNL     1      -0.053  -7.294  20.597  1.00  0.00     0.134 A 
ATOM     64  C   UNL     1      -2.403  -7.454  20.154  1.00  0.00     0.134 A 
ATOM     65  F   UNL     1       1.115  -6.636  20.545  1.00  0.00    -0.206 F 
ATOM     66  C   UNL     1      -0.058  -8.586  21.124  1.00  0.00     0.040 A 
ATOM     67  C   UNL     1      -2.424  -8.740  20.695  1.00  0.00     0.040 A 
ATOM     68  F   UNL     1      -3.553  -6.948  19.684  1.00  0.00    -0.206 F 
ATOM     69  C   UNL     1      -1.247  -9.312  21.176  1.00  0.00     0.006 A 
ENDBRANCH  48  62
BRANCH  49  70
ATOM     70  C   UNL     1      -1.463   2.115  15.475  1.00  0.00     0.057 A 
ATOM     71  C   UNL     1      -0.492   3.093  15.718  1.00  0.00     0.134 A 
ATOM     72  C   UNL     1      -2.473   2.413  14.556  1.00  0.00     0.134 A 
ATOM     73  F   UNL     1       0.491   2.863  16.601  1.00  0.00    -0.206 F 
ATOM     74  C   UNL     1      -0.533   4.334  15.082  1.00  0.00     0.040 A 
ATOM     75  C   UNL     1      -2.519   3.646  13.903  1.00  0.00     0.040 A 
ATOM     76  F   UNL     1      -3.425   1.511  14.280  1.00  0.00    -0.206 F 
ATOM     77  C   UNL     1      -1.547   4.610  14.166  1.00  0.00     0.006 A 
ENDBRANCH  49  70
BRANCH  61  78
ATOM     78  C   UNL     1      -3.021   0.030  21.912  1.00  0.00     0.057 A 
ATOM     79  C   UNL     1      -4.366   0.383  22.066  1.00  0.00     0.134 A 
ATOM     80  C   UNL     1      -2.133   0.367  22.940  1.00  0.00     0.134 A 
ATOM     81  F   UNL     1      -5.258   0.096  21.107  1.00  0.00    -0.206 F 
ATOM     82  C   UNL     1      -4.812   1.059  23.202  1.00  0.00     0.040 A 
ATOM     83  C   UNL     1      -2.569   1.034  24.085  1.00  0.00     0.040 A 
ATOM     84  F   UNL     1      -0.832   0.055  22.845  1.00  0.00    -0.206 F 
ATOM     85  C   UNL     1      -3.912   1.383  24.217  1.00  0.00     0.006 A 
ENDBRANCH  61  78
ENDBRANCH  35  36
ENDBRANCH  27  30
ENDBRANCH  25  26
ENDBRANCH  24  25
ENDBRANCH  23  24
ENDBRANCH   1  23
TORSDOF 15
