REMARK SMILES CC(=O)Cn1c(C(=O)NCCCCNC(=O)c2ccc(-c3c4nc(c(-c5c(F)cccc5F)c5ccc([nH]5)c(-c5c(F)cccc5F)c5nc(c(-c6c(F)cccc6F)c6ccc3[nH]6)C=C5)C=C4)cc2)nc2cccnc21
REMARK SMILES IDX 11 1 10 2 9 3 7 4 8 5 6 7 5 8 77 9 71 10 72 11 76 12 73 13
REMARK SMILES IDX 75 14 74 15 4 16 2 17 1 18 3 19 12 20 13 21 14 22 15 23
REMARK SMILES IDX 16 25 17 26 18 27 70 28 19 29 69 30 20 31 21 32 22 33 63 34
REMARK SMILES IDX 23 35 68 36 62 37 64 38 24 39 67 40 61 41 60 42 25 44 51 45
REMARK SMILES IDX 34 46 50 47 35 48 38 49 49 50 65 51 36 52 37 53 48 55 66 56
REMARK SMILES IDX 39 57 26 58 27 59 32 60 28 61 29 62 31 63 33 64 30 65 52 66
REMARK SMILES IDX 53 67 58 68 54 69 55 70 57 71 59 72 56 73 40 74 41 75 46 76
REMARK SMILES IDX 42 77 43 78 45 79 47 80 44 81
REMARK H PARENT 9 6 14 24 64 43 38 54
REMARK Flexibility Score: inf
ROOT
ATOM      1  C   UNL     1       0.578  -1.342  -1.082  1.00  0.00     0.023 C 
ENDROOT
BRANCH   1   2
ATOM      2  C   UNL     1      -0.716  -0.556  -1.316  1.00  0.00     0.116 C 
BRANCH   2   3
ATOM      3  N   UNL     1      -1.057   0.229  -0.150  1.00  0.00    -0.349 N 
ATOM      4  C   UNL     1      -1.010   1.543   0.234  1.00  0.00     0.287 C 
ATOM      5  O   UNL     1      -1.539   1.702   1.343  1.00  0.00    -0.266 OA
ATOM      6  H   UNL     1      -1.424  -0.339   0.566  1.00  0.00     0.163 HD
BRANCH   4   7
ATOM      7  C   UNL     1      -0.437   2.688  -0.494  1.00  0.00     0.201 A 
ATOM      8  N   UNL     1       0.526   2.855  -1.484  1.00  0.00    -0.297 N 
ATOM      9  C   UNL     1       0.689   4.210  -1.700  1.00  0.00     0.160 A 
ATOM     10  N   UNL     1      -0.790   3.899  -0.047  1.00  0.00    -0.222 NA
ATOM     11  C   UNL     1      -0.093   4.831  -0.751  1.00  0.00     0.109 A 
ATOM     12  N   UNL     1       1.504   4.799  -2.600  1.00  0.00    -0.237 NA
ATOM     13  C   UNL     1      -0.029   6.225  -0.650  1.00  0.00     0.034 A 
ATOM     14  C   UNL     1       1.511   6.149  -2.494  1.00  0.00     0.113 A 
ATOM     15  C   UNL     1       0.802   6.891  -1.555  1.00  0.00     0.022 A 
BRANCH   8  16
ATOM     16  C   UNL     1       1.397   1.918  -2.160  1.00  0.00     0.201 C 
BRANCH  16  17
ATOM     17  C   UNL     1       2.439   1.239  -1.311  1.00  0.00     0.149 C 
ATOM     18  C   UNL     1       2.572   1.567   0.153  1.00  0.00     0.089 C 
ATOM     19  O   UNL     1       3.165   0.376  -1.816  1.00  0.00    -0.298 OA
ENDBRANCH  16  17
ENDBRANCH   8  16
ENDBRANCH   4   7
ENDBRANCH   2   3
ENDBRANCH   1   2
BRANCH   1  20
ATOM     20  C   UNL     1       0.408  -2.745  -0.485  1.00  0.00     0.023 C 
BRANCH  20  21
ATOM     21  C   UNL     1      -0.040  -3.781  -1.503  1.00  0.00     0.116 C 
BRANCH  21  22
ATOM     22  N   UNL     1       0.920  -3.950  -2.592  1.00  0.00    -0.352 N 
ATOM     23  C   UNL     1       0.734  -4.623  -3.788  1.00  0.00     0.251 C 
ATOM     24  H   UNL     1       1.803  -3.536  -2.460  1.00  0.00     0.163 HD
ATOM     25  O   UNL     1       1.651  -4.940  -4.506  1.00  0.00    -0.269 OA
BRANCH  23  26
ATOM     26  C   UNL     1      -0.656  -4.955  -4.144  1.00  0.00     0.039 A 
ATOM     27  C   UNL     1      -1.030  -6.288  -4.307  1.00  0.00     0.014 A 
ATOM     28  C   UNL     1      -1.590  -3.920  -4.152  1.00  0.00     0.014 A 
ATOM     29  C   UNL     1      -2.384  -6.590  -4.377  1.00  0.00     0.010 A 
ATOM     30  C   UNL     1      -2.931  -4.233  -4.117  1.00  0.00     0.010 A 
ATOM     31  C   UNL     1      -3.333  -5.564  -4.244  1.00  0.00    -0.014 A 
BRANCH  31  32
ATOM     32  C   UNL     1      -4.748  -5.907  -4.148  1.00  0.00     0.031 A 
ATOM     33  C   UNL     1      -5.128  -6.880  -3.080  1.00  0.00     0.074 A 
ATOM     34  C   UNL     1      -5.708  -5.272  -4.847  1.00  0.00     0.049 A 
ATOM     35  N   UNL     1      -5.594  -8.078  -3.224  1.00  0.00    -0.248 NA
ATOM     36  C   UNL     1      -4.900  -6.497  -1.679  1.00  0.00     0.031 C 
ATOM     37  C   UNL     1      -5.591  -4.089  -5.705  1.00  0.00     0.029 A 
ATOM     38  N   UNL     1      -7.043  -5.534  -4.864  1.00  0.00    -0.354 N 
ATOM     39  C   UNL     1      -5.886  -8.546  -1.942  1.00  0.00     0.074 A 
ATOM     40  C   UNL     1      -5.318  -7.586  -1.029  1.00  0.00     0.031 C 
ATOM     41  C   UNL     1      -6.824  -3.617  -5.991  1.00  0.00     0.029 A 
ATOM     42  C   UNL     1      -7.804  -4.563  -5.492  1.00  0.00     0.049 A 
ATOM     43  H   UNL     1      -7.434  -6.344  -4.464  1.00  0.00     0.167 HD
ATOM     44  C   UNL     1      -6.745  -9.586  -1.738  1.00  0.00     0.037 A 
ATOM     45  C   UNL     1      -9.151  -4.528  -5.597  1.00  0.00     0.037 A 
ATOM     46  C   UNL     1      -6.957 -10.333  -2.951  1.00  0.00     0.049 A 
ATOM     47  C   UNL     1      -9.655  -5.905  -5.390  1.00  0.00     0.074 A 
ATOM     48  C   UNL     1      -6.154 -11.053  -3.814  1.00  0.00     0.029 A 
ATOM     49  N   UNL     1      -8.133 -10.132  -3.631  1.00  0.00    -0.354 N 
ATOM     50  N   UNL     1      -9.446  -6.886  -6.223  1.00  0.00    -0.248 NA
ATOM     51  C   UNL     1     -10.026  -6.303  -4.042  1.00  0.00     0.031 C 
ATOM     52  C   UNL     1      -6.690 -10.797  -5.113  1.00  0.00     0.029 A 
ATOM     53  C   UNL     1      -7.808  -9.977  -4.952  1.00  0.00     0.049 A 
ATOM     54  H   UNL     1      -9.037 -10.104  -3.242  1.00  0.00     0.167 HD
ATOM     55  C   UNL     1      -9.246  -8.000  -5.421  1.00  0.00     0.074 A 
ATOM     56  C   UNL     1      -9.723  -7.603  -4.099  1.00  0.00     0.031 C 
ATOM     57  C   UNL     1      -8.463  -9.041  -5.836  1.00  0.00     0.037 A 
BRANCH  44  58
ATOM     58  C   UNL     1      -7.680  -9.729  -0.556  1.00  0.00     0.057 A 
ATOM     59  C   UNL     1      -8.082  -8.663   0.271  1.00  0.00     0.134 A 
ATOM     60  C   UNL     1      -8.457 -10.900  -0.433  1.00  0.00     0.134 A 
ATOM     61  F   UNL     1      -7.482  -7.468   0.243  1.00  0.00    -0.206 F 
ATOM     62  C   UNL     1      -9.201  -8.733   1.109  1.00  0.00     0.040 A 
ATOM     63  C   UNL     1      -9.607 -10.963   0.363  1.00  0.00     0.040 A 
ATOM     64  F   UNL     1      -8.176 -11.994  -1.158  1.00  0.00    -0.206 F 
ATOM     65  C   UNL     1      -9.992  -9.870   1.127  1.00  0.00     0.006 A 
ENDBRANCH  44  58
BRANCH  45  66
ATOM     66  C   UNL     1     -10.015  -3.335  -5.642  1.00  0.00     0.057 A 
ATOM     67  C   UNL     1      -9.677  -2.173  -4.925  1.00  0.00     0.134 A 
ATOM     68  C   UNL     1     -11.301  -3.375  -6.189  1.00  0.00     0.134 A 
ATOM     69  F   UNL     1      -8.497  -2.069  -4.295  1.00  0.00    -0.206 F 
ATOM     70  C   UNL     1     -10.568  -1.110  -4.758  1.00  0.00     0.040 A 
ATOM     71  C   UNL     1     -12.207  -2.319  -6.026  1.00  0.00     0.040 A 
ATOM     72  F   UNL     1     -11.724  -4.460  -6.853  1.00  0.00    -0.206 F 
ATOM     73  C   UNL     1     -11.844  -1.186  -5.302  1.00  0.00     0.006 A 
ENDBRANCH  45  66
BRANCH  57  74
ATOM     74  C   UNL     1      -8.032  -9.061  -7.276  1.00  0.00     0.057 A 
ATOM     75  C   UNL     1      -8.364 -10.162  -8.070  1.00  0.00     0.134 A 
ATOM     76  C   UNL     1      -7.178  -8.104  -7.845  1.00  0.00     0.134 A 
ATOM     77  F   UNL     1      -9.125 -11.150  -7.572  1.00  0.00    -0.206 F 
ATOM     78  C   UNL     1      -7.884 -10.301  -9.375  1.00  0.00     0.040 A 
ATOM     79  C   UNL     1      -6.716  -8.214  -9.160  1.00  0.00     0.040 A 
ATOM     80  F   UNL     1      -6.720  -7.072  -7.129  1.00  0.00    -0.206 F 
ATOM     81  C   UNL     1      -7.066  -9.319  -9.928  1.00  0.00     0.006 A 
ENDBRANCH  57  74
ENDBRANCH  31  32
ENDBRANCH  23  26
ENDBRANCH  21  22
ENDBRANCH  20  21
ENDBRANCH   1  20
TORSDOF 13
