REMARK SMILES N#Cc1ccc(C(=O)N[C@@H]2C=C[C@@H](C(=O)NCCCCNC(=O)c3ccc(-c4c5nc(c(-c6c(F)cccc6F)c6ccc([nH]6)c(-c6c(F)cccc6F)c6nc(c(-c7c(F)cccc7F)c7ccc4[nH]7)C=C6)C=C5)cc3)C2)cc1
REMARK SMILES IDX 18 1 17 2 16 3 14 4 15 5 13 7 10 8 11 9 78 10 12 11 9 12
REMARK SMILES IDX 7 13 8 14 6 16 3 17 4 18 80 19 5 20 79 21 2 22 1 23 19 24
REMARK SMILES IDX 20 25 21 26 22 27 23 29 24 30 25 31 77 32 26 33 76 34 27 35
REMARK SMILES IDX 28 36 29 37 70 38 30 39 75 40 69 41 71 42 31 43 74 44 68 45
REMARK SMILES IDX 67 46 32 48 58 49 41 50 57 51 42 52 45 53 56 54 72 55 43 56
REMARK SMILES IDX 44 57 55 59 73 60 46 61 33 62 34 63 39 64 35 65 36 66 38 67
REMARK SMILES IDX 40 68 37 69 59 70 60 71 65 72 61 73 62 74 64 75 66 76 63 77
REMARK SMILES IDX 47 78 48 79 53 80 49 81 50 82 52 83 54 84 51 85
REMARK H PARENT 16 6 9 15 21 28 71 47 45 58
REMARK Flexibility Score: inf
ROOT
ATOM      1  C   UNL     1       6.532  -2.381   3.925  1.00  0.00     0.023 C 
ENDROOT
BRANCH   1   2
ATOM      2  C   UNL     1       5.973  -3.502   3.067  1.00  0.00     0.116 C 
BRANCH   2   3
ATOM      3  N   UNL     1       4.892  -4.171   3.751  1.00  0.00    -0.356 N 
ATOM      4  C   UNL     1       3.661  -4.489   3.285  1.00  0.00     0.227 C 
ATOM      5  O   UNL     1       2.845  -4.957   4.083  1.00  0.00    -0.274 OA
ATOM      6  H   UNL     1       5.075  -4.431   4.683  1.00  0.00     0.163 HD
BRANCH   4   7
ATOM      7  C   UNL     1       3.296  -4.308   1.818  1.00  0.00     0.103 C 
ATOM      8  C   UNL     1       3.733  -2.800  -0.073  1.00  0.00     0.106 C 
ATOM      9  C   UNL     1       4.559  -4.035  -0.159  1.00  0.00    -0.006 C 
ATOM     10  C   UNL     1       3.072  -2.874   1.318  1.00  0.00     0.047 C 
ATOM     11  C   UNL     1       4.325  -4.862   0.868  1.00  0.00    -0.016 C 
BRANCH   8  12
ATOM     12  N   UNL     1       2.847  -2.627  -1.222  1.00  0.00    -0.346 N 
ATOM     13  C   UNL     1       2.175  -3.457  -2.093  1.00  0.00     0.251 C 
ATOM     14  O   UNL     1       1.660  -2.972  -3.098  1.00  0.00    -0.269 OA
ATOM     15  H   UNL     1       2.689  -1.677  -1.425  1.00  0.00     0.164 HD
BRANCH  13  16
ATOM     16  C   UNL     1       2.097  -4.919  -1.898  1.00  0.00     0.039 A 
ATOM     17  C   UNL     1       2.284  -7.666  -1.405  1.00  0.00     0.052 A 
ATOM     18  C   UNL     1       2.526  -7.167  -2.691  1.00  0.00     0.020 A 
ATOM     19  C   UNL     1       1.813  -6.803  -0.413  1.00  0.00     0.020 A 
ATOM     20  C   UNL     1       2.443  -5.790  -2.936  1.00  0.00     0.015 A 
ATOM     21  C   UNL     1       1.654  -5.443  -0.691  1.00  0.00     0.015 A 
BRANCH  17  22
ATOM     22  C   UNL     1       2.546  -9.039  -1.091  1.00  0.00     0.099 C 
ATOM     23  N   UNL     1       2.791 -10.140  -0.812  1.00  0.00    -0.192 NA
ENDBRANCH  17  22
ENDBRANCH  13  16
ENDBRANCH   8  12
ENDBRANCH   4   7
ENDBRANCH   2   3
ENDBRANCH   1   2
BRANCH   1  24
ATOM     24  C   UNL     1       7.203  -2.870   5.203  1.00  0.00     0.023 C 
BRANCH  24  25
ATOM     25  C   UNL     1       8.223  -3.976   4.980  1.00  0.00     0.116 C 
BRANCH  25  26
ATOM     26  N   UNL     1       9.231  -3.607   3.995  1.00  0.00    -0.352 N 
ATOM     27  C   UNL     1      10.595  -3.577   4.131  1.00  0.00     0.251 C 
ATOM     28  H   UNL     1       8.886  -3.343   3.111  1.00  0.00     0.163 HD
ATOM     29  O   UNL     1      11.297  -3.046   3.278  1.00  0.00    -0.269 OA
BRANCH  27  30
ATOM     30  C   UNL     1      11.196  -4.172   5.337  1.00  0.00     0.039 A 
ATOM     31  C   UNL     1      12.157  -3.449   6.039  1.00  0.00     0.014 A 
ATOM     32  C   UNL     1      10.756  -5.417   5.798  1.00  0.00     0.014 A 
ATOM     33  C   UNL     1      12.638  -3.955   7.244  1.00  0.00     0.010 A 
ATOM     34  C   UNL     1      11.152  -5.861   7.052  1.00  0.00     0.010 A 
ATOM     35  C   UNL     1      12.110  -5.144   7.780  1.00  0.00    -0.014 A 
BRANCH  35  36
ATOM     36  C   UNL     1      12.573  -5.647   9.096  1.00  0.00     0.031 A 
ATOM     37  C   UNL     1      13.255  -6.985   9.198  1.00  0.00     0.074 A 
ATOM     38  C   UNL     1      12.375  -4.898  10.198  1.00  0.00     0.049 A 
ATOM     39  N   UNL     1      13.761  -7.573  10.252  1.00  0.00    -0.248 NA
ATOM     40  C   UNL     1      13.364  -7.778   7.962  1.00  0.00     0.031 C 
ATOM     41  C   UNL     1      11.674  -3.611  10.234  1.00  0.00     0.029 A 
ATOM     42  N   UNL     1      12.757  -5.101  11.499  1.00  0.00    -0.354 N 
ATOM     43  C   UNL     1      14.259  -8.789   9.801  1.00  0.00     0.074 A 
ATOM     44  C   UNL     1      13.915  -8.898   8.402  1.00  0.00     0.031 C 
ATOM     45  C   UNL     1      11.724  -3.117  11.481  1.00  0.00     0.029 A 
ATOM     46  C   UNL     1      12.418  -4.069  12.341  1.00  0.00     0.049 A 
ATOM     47  H   UNL     1      13.229  -5.910  11.802  1.00  0.00     0.167 HD
ATOM     48  C   UNL     1      14.977  -9.714  10.480  1.00  0.00     0.037 A 
ATOM     49  C   UNL     1      12.646  -3.910  13.658  1.00  0.00     0.037 A 
ATOM     50  C   UNL     1      15.318  -9.604  11.873  1.00  0.00     0.049 A 
ATOM     51  C   UNL     1      13.404  -4.981  14.397  1.00  0.00     0.074 A 
ATOM     52  C   UNL     1      16.053 -10.479  12.653  1.00  0.00     0.029 A 
ATOM     53  N   UNL     1      14.942  -8.553  12.696  1.00  0.00    -0.354 N 
ATOM     54  N   UNL     1      13.932  -6.091  13.940  1.00  0.00    -0.248 NA
ATOM     55  C   UNL     1      13.610  -4.768  15.835  1.00  0.00     0.031 C 
ATOM     56  C   UNL     1      16.079  -9.983  13.960  1.00  0.00     0.029 A 
ATOM     57  C   UNL     1      15.417  -8.766  13.980  1.00  0.00     0.049 A 
ATOM     58  H   UNL     1      14.417  -7.771  12.411  1.00  0.00     0.167 HD
ATOM     59  C   UNL     1      14.563  -6.687  15.025  1.00  0.00     0.074 A 
ATOM     60  C   UNL     1      14.376  -5.799  16.153  1.00  0.00     0.031 C 
ATOM     61  C   UNL     1      15.233  -7.864  15.088  1.00  0.00     0.037 A 
BRANCH  48  62
ATOM     62  C   UNL     1      15.461 -10.913   9.716  1.00  0.00     0.057 A 
ATOM     63  C   UNL     1      16.446 -10.802   8.723  1.00  0.00     0.134 A 
ATOM     64  C   UNL     1      14.978 -12.195  10.003  1.00  0.00     0.134 A 
ATOM     65  F   UNL     1      16.942  -9.601   8.388  1.00  0.00    -0.206 F 
ATOM     66  C   UNL     1      16.915 -11.919   8.030  1.00  0.00     0.040 A 
ATOM     67  C   UNL     1      15.463 -13.324   9.338  1.00  0.00     0.040 A 
ATOM     68  F   UNL     1      14.038 -12.376  10.943  1.00  0.00    -0.206 F 
ATOM     69  C   UNL     1      16.430 -13.186   8.345  1.00  0.00     0.006 A 
ENDBRANCH  48  62
BRANCH  49  70
ATOM     70  C   UNL     1      12.167  -2.697  14.373  1.00  0.00     0.057 A 
ATOM     71  C   UNL     1      13.066  -1.795  14.957  1.00  0.00     0.134 A 
ATOM     72  C   UNL     1      10.801  -2.443  14.547  1.00  0.00     0.134 A 
ATOM     73  F   UNL     1      14.389  -1.987  14.839  1.00  0.00    -0.206 F 
ATOM     74  C   UNL     1      12.627  -0.717  15.728  1.00  0.00     0.040 A 
ATOM     75  C   UNL     1      10.348  -1.348  15.284  1.00  0.00     0.040 A 
ATOM     76  F   UNL     1       9.885  -3.258  14.004  1.00  0.00    -0.206 F 
ATOM     77  C   UNL     1      11.262  -0.492  15.893  1.00  0.00     0.006 A 
ENDBRANCH  49  70
BRANCH  61  78
ATOM     78  C   UNL     1      15.858  -8.225  16.406  1.00  0.00     0.057 A 
ATOM     79  C   UNL     1      15.091  -8.540  17.535  1.00  0.00     0.134 A 
ATOM     80  C   UNL     1      17.253  -8.262  16.544  1.00  0.00     0.134 A 
ATOM     81  F   UNL     1      13.751  -8.515  17.476  1.00  0.00    -0.206 F 
ATOM     82  C   UNL     1      15.686  -8.831  18.764  1.00  0.00     0.040 A 
ATOM     83  C   UNL     1      17.859  -8.590  17.757  1.00  0.00     0.040 A 
ATOM     84  F   UNL     1      18.049  -7.987  15.500  1.00  0.00    -0.206 F 
ATOM     85  C   UNL     1      17.074  -8.861  18.875  1.00  0.00     0.006 A 
ENDBRANCH  61  78
ENDBRANCH  35  36
ENDBRANCH  27  30
ENDBRANCH  25  26
ENDBRANCH  24  25
ENDBRANCH   1  24
TORSDOF 14
