REMARK SMILES O=C(NCCCCNC(=O)c1nn(Cc2ccc(F)cc2)c2c1CN(C(=O)[C@H]1CC1(F)F)CC2)c1ccc(-c2c3nc(c(-c4c(F)cccc4F)c4ccc([nH]4)c(-c4c(F)cccc4F)c4nc(c(-c5c(F)cccc5F)c5ccc2[nH]5)C=C4)C=C3)cc1
REMARK SMILES IDX 5 1 4 2 3 3 1 4 2 5 35 7 36 8 88 9 37 10 87 11 38 12 39 13
REMARK SMILES IDX 40 14 81 15 41 16 86 17 80 18 82 19 42 20 85 21 79 22 78 23
REMARK SMILES IDX 43 25 69 26 52 27 68 28 53 29 56 30 67 31 83 32 54 33 55 34
REMARK SMILES IDX 66 36 84 37 57 38 44 39 45 40 50 41 46 42 47 43 49 44 51 45
REMARK SMILES IDX 48 46 70 47 71 48 76 49 72 50 73 51 75 52 77 53 74 54 58 55
REMARK SMILES IDX 59 56 64 57 60 58 61 59 63 60 65 61 62 62 6 63 7 64 8 65
REMARK SMILES IDX 9 66 10 68 11 69 12 70 23 71 13 72 22 73 24 74 34 75 25 76
REMARK SMILES IDX 33 77 14 78 15 79 16 80 21 81 17 82 20 83 18 84 19 85 26 86
REMARK SMILES IDX 27 87 28 88 29 89 30 90 31 91 32 92
REMARK H PARENT 3 6 82 24 56 35 8 67
REMARK Flexibility Score: inf
ROOT
ATOM      1  C   UNL     1      20.483  10.647   4.331  1.00  0.00     0.023 C 
ENDROOT
BRANCH   1   2
ATOM      2  C   UNL     1      21.588  11.514   4.931  1.00  0.00     0.116 C 
BRANCH   2   3
ATOM      3  N   UNL     1      22.244  10.934   6.086  1.00  0.00    -0.352 N 
ATOM      4  O   UNL     1      23.696  10.064   7.492  1.00  0.00    -0.269 OA
ATOM      5  C   UNL     1      23.369  10.190   6.307  1.00  0.00     0.251 C 
ATOM      6  H   UNL     1      21.757  11.124   6.921  1.00  0.00     0.163 HD
BRANCH   5   7
ATOM      7  C   UNL     1      24.176   9.476   5.276  1.00  0.00     0.039 A 
ATOM      8  C   UNL     1      24.083   9.629   3.892  1.00  0.00     0.014 A 
ATOM      9  C   UNL     1      25.095   8.531   5.780  1.00  0.00     0.014 A 
ATOM     10  C   UNL     1      24.826   8.803   3.041  1.00  0.00     0.010 A 
ATOM     11  C   UNL     1      25.837   7.708   4.938  1.00  0.00     0.010 A 
ATOM     12  C   UNL     1      25.672   7.814   3.563  1.00  0.00    -0.014 A 
BRANCH  12  13
ATOM     13  C   UNL     1      26.466   6.995   2.643  1.00  0.00     0.031 A 
ATOM     14  C   UNL     1      27.470   7.751   1.831  1.00  0.00     0.074 A 
ATOM     15  C   UNL     1      26.434   5.644   2.614  1.00  0.00     0.049 A 
ATOM     16  N   UNL     1      27.567   7.835   0.543  1.00  0.00    -0.248 NA
ATOM     17  C   UNL     1      28.444   8.585   2.554  1.00  0.00     0.031 C 
ATOM     18  C   UNL     1      25.752   4.721   3.525  1.00  0.00     0.029 A 
ATOM     19  N   UNL     1      27.092   4.797   1.770  1.00  0.00    -0.354 N 
ATOM     20  C   UNL     1      28.693   8.617   0.283  1.00  0.00     0.074 A 
ATOM     21  C   UNL     1      29.135   9.132   1.553  1.00  0.00     0.031 C 
ATOM     22  C   UNL     1      26.201   3.460   3.313  1.00  0.00     0.029 A 
ATOM     23  C   UNL     1      27.086   3.462   2.160  1.00  0.00     0.049 A 
ATOM     24  H   UNL     1      27.537   5.107   0.948  1.00  0.00     0.167 HD
ATOM     25  C   UNL     1      29.277   8.678  -0.947  1.00  0.00     0.037 A 
ATOM     26  C   UNL     1      27.789   2.447   1.593  1.00  0.00     0.037 A 
ATOM     27  C   UNL     1      28.396   8.211  -1.980  1.00  0.00     0.049 A 
ATOM     28  C   UNL     1      28.175   2.881   0.229  1.00  0.00     0.074 A 
ATOM     29  C   UNL     1      27.194   8.654  -2.495  1.00  0.00     0.029 A 
ATOM     30  N   UNL     1      28.527   6.916  -2.412  1.00  0.00    -0.354 N 
ATOM     31  N   UNL     1      27.329   3.067  -0.744  1.00  0.00    -0.248 NA
ATOM     32  C   UNL     1      29.464   3.536   0.079  1.00  0.00     0.031 C 
ATOM     33  C   UNL     1      26.448   7.468  -2.753  1.00  0.00     0.029 A 
ATOM     34  C   UNL     1      27.265   6.379  -2.444  1.00  0.00     0.049 A 
ATOM     35  H   UNL     1      29.366   6.459  -2.653  1.00  0.00     0.167 HD
ATOM     36  C   UNL     1      27.802   4.188  -1.408  1.00  0.00     0.074 A 
ATOM     37  C   UNL     1      29.157   4.392  -0.898  1.00  0.00     0.031 C 
ATOM     38  C   UNL     1      26.962   5.010  -2.101  1.00  0.00     0.037 A 
BRANCH  25  39
ATOM     39  C   UNL     1      30.742   8.923  -1.185  1.00  0.00     0.057 A 
ATOM     40  C   UNL     1      31.739   8.596  -0.245  1.00  0.00     0.134 A 
ATOM     41  C   UNL     1      31.211   9.247  -2.470  1.00  0.00     0.134 A 
ATOM     42  F   UNL     1      31.436   8.160   0.984  1.00  0.00    -0.206 F 
ATOM     43  C   UNL     1      33.103   8.605  -0.553  1.00  0.00     0.040 A 
ATOM     44  C   UNL     1      32.572   9.215  -2.802  1.00  0.00     0.040 A 
ATOM     45  F   UNL     1      30.357   9.542  -3.462  1.00  0.00    -0.206 F 
ATOM     46  C   UNL     1      33.524   8.893  -1.842  1.00  0.00     0.006 A 
ENDBRANCH  25  39
BRANCH  26  47
ATOM     47  C   UNL     1      28.470   1.302   2.250  1.00  0.00     0.057 A 
ATOM     48  C   UNL     1      28.966   1.407   3.560  1.00  0.00     0.134 A 
ATOM     49  C   UNL     1      28.933   0.207   1.503  1.00  0.00     0.134 A 
ATOM     50  F   UNL     1      28.645   2.449   4.339  1.00  0.00    -0.206 F 
ATOM     51  C   UNL     1      29.893   0.498   4.085  1.00  0.00     0.040 A 
ATOM     52  C   UNL     1      29.864  -0.709   2.016  1.00  0.00     0.040 A 
ATOM     53  F   UNL     1      28.551   0.041   0.228  1.00  0.00    -0.206 F 
ATOM     54  C   UNL     1      30.359  -0.555   3.307  1.00  0.00     0.006 A 
ENDBRANCH  26  47
BRANCH  38  55
ATOM     55  C   UNL     1      25.538   4.562  -2.304  1.00  0.00     0.057 A 
ATOM     56  C   UNL     1      25.034   4.498  -3.607  1.00  0.00     0.134 A 
ATOM     57  C   UNL     1      24.617   4.374  -1.262  1.00  0.00     0.134 A 
ATOM     58  F   UNL     1      25.843   4.718  -4.656  1.00  0.00    -0.206 F 
ATOM     59  C   UNL     1      23.680   4.270  -3.866  1.00  0.00     0.040 A 
ATOM     60  C   UNL     1      23.265   4.112  -1.507  1.00  0.00     0.040 A 
ATOM     61  F   UNL     1      24.981   4.505   0.019  1.00  0.00    -0.206 F 
ATOM     62  C   UNL     1      22.790   4.071  -2.814  1.00  0.00     0.006 A 
ENDBRANCH  38  55
ENDBRANCH  12  13
ENDBRANCH   5   7
ENDBRANCH   2   3
ENDBRANCH   1   2
BRANCH   1  63
ATOM     63  C   UNL     1      19.336  10.271   5.284  1.00  0.00     0.023 C 
BRANCH  63  64
ATOM     64  C   UNL     1      18.557  11.431   5.920  1.00  0.00     0.116 C 
BRANCH  64  65
ATOM     65  N   UNL     1      17.823  12.210   4.937  1.00  0.00    -0.351 N 
ATOM     66  C   UNL     1      16.467  12.441   4.807  1.00  0.00     0.272 C 
ATOM     67  H   UNL     1      18.382  12.644   4.253  1.00  0.00     0.163 HD
ATOM     68  O   UNL     1      16.085  12.985   3.769  1.00  0.00    -0.267 OA
BRANCH  66  69
ATOM     69  C   UNL     1      15.508  12.022   5.847  1.00  0.00     0.155 A 
ATOM     70  N   UNL     1      15.798  11.993   7.165  1.00  0.00    -0.167 NA
ATOM     71  C   UNL     1      14.141  11.670   5.638  1.00  0.00     0.026 A 
ATOM     72  N   UNL     1      14.673  11.544   7.769  1.00  0.00    -0.264 N 
ATOM     73  C   UNL     1      13.676  11.286   6.879  1.00  0.00     0.046 A 
ATOM     74  C   UNL     1      13.317  11.624   4.388  1.00  0.00     0.159 C 
ATOM     75  C   UNL     1      12.322  10.734   7.141  1.00  0.00     0.078 C 
ATOM     76  N   UNL     1      11.926  11.248   4.743  1.00  0.00    -0.337 N 
ATOM     77  C   UNL     1      11.764  10.224   5.795  1.00  0.00     0.126 C 
BRANCH  72  78
ATOM     78  C   UNL     1      14.590  11.507   9.224  1.00  0.00     0.180 C 
BRANCH  78  79
ATOM     79  C   UNL     1      15.417  10.396   9.822  1.00  0.00    -0.026 A 
ATOM     80  C   UNL     1      16.810  10.546   9.941  1.00  0.00     0.008 A 
ATOM     81  C   UNL     1      14.818   9.209  10.274  1.00  0.00     0.008 A 
ATOM     82  C   UNL     1      17.587   9.536  10.506  1.00  0.00     0.039 A 
ATOM     83  C   UNL     1      15.598   8.201  10.843  1.00  0.00     0.039 A 
ATOM     84  C   UNL     1      16.973   8.374  10.955  1.00  0.00     0.123 A 
ATOM     85  F   UNL     1      17.717   7.406  11.505  1.00  0.00    -0.207 F 
ENDBRANCH  78  79
ENDBRANCH  72  78
BRANCH  76  86
ATOM     86  C   UNL     1      10.873  11.863   4.073  1.00  0.00     0.232 C 
ATOM     87  O   UNL     1      11.025  12.677   3.177  1.00  0.00    -0.274 OA
BRANCH  86  88
ATOM     88  C   UNL     1       9.505  11.445   4.454  1.00  0.00     0.154 C 
ATOM     89  C   UNL     1       8.888  11.924   5.759  1.00  0.00     0.097 C 
ATOM     90  C   UNL     1       8.385  12.415   4.455  1.00  0.00     0.260 C 
ATOM     91  F   UNL     1       8.522  13.748   4.156  1.00  0.00    -0.206 F 
ATOM     92  F   UNL     1       7.124  12.032   4.050  1.00  0.00    -0.206 F 
ENDBRANCH  86  88
ENDBRANCH  76  86
ENDBRANCH  66  69
ENDBRANCH  64  65
ENDBRANCH  63  64
ENDBRANCH   1  63
TORSDOF 15
