REMARK SMILES CO[C@@H]1C[C@H](C(=O)NCCCCNC(=O)c2ccc(-c3c4nc(c(-c5c(F)cccc5F)c5ccc([nH]5)c(-c5c(F)cccc5F)c5nc(c(-c6c(F)cccc6F)c6ccc3[nH]6)C=C5)C=C4)cc2)N(C(=O)c2ccc([N+](=O)[O-])s2)C1
REMARK SMILES IDX 10 1 9 2 8 3 6 4 7 5 5 7 3 8 4 9 81 10 70 11 2 12 1 13 71 14
REMARK SMILES IDX 72 15 73 16 74 17 80 18 75 19 76 20 77 21 78 22 79 23 11 24
REMARK SMILES IDX 12 25 13 26 14 27 15 29 16 30 17 31 69 32 18 33 68 34 19 35
REMARK SMILES IDX 20 36 21 37 62 38 22 39 67 40 61 41 63 42 23 43 66 44 60 45
REMARK SMILES IDX 59 46 24 48 50 49 33 50 49 51 34 52 37 53 48 54 64 55 35 56
REMARK SMILES IDX 36 57 47 59 65 60 38 61 25 62 26 63 31 64 27 65 28 66 30 67
REMARK SMILES IDX 32 68 29 69 51 70 52 71 57 72 53 73 54 74 56 75 58 76 55 77
REMARK SMILES IDX 39 78 40 79 45 80 41 81 42 82 44 83 46 84 43 85
REMARK H PARENT 8 6 13 28 63 47 37 58
REMARK Flexibility Score: inf
ROOT
ATOM      1  C   UNL     1      -0.458  -1.351   0.747  1.00  0.00     0.023 C 
ENDROOT
BRANCH   1   2
ATOM      2  C   UNL     1      -1.099  -2.430  -0.125  1.00  0.00     0.116 C 
BRANCH   2   3
ATOM      3  N   UNL     1      -2.127  -1.877  -0.981  1.00  0.00    -0.354 N 
ATOM      4  C   UNL     1      -2.105  -1.492  -2.284  1.00  0.00     0.242 C 
ATOM      5  O   UNL     1      -3.111  -0.897  -2.693  1.00  0.00    -0.273 OA
ATOM      6  H   UNL     1      -2.999  -1.757  -0.539  1.00  0.00     0.163 HD
BRANCH   4   7
ATOM      7  C   UNL     1      -0.882  -1.629  -3.225  1.00  0.00     0.177 C 
ATOM      8  C   UNL     1       1.464  -1.339  -2.542  1.00  0.00     0.139 C 
ATOM      9  C   UNL     1       0.201  -0.583  -2.969  1.00  0.00     0.069 C 
ATOM     10  C   UNL     1       1.189  -2.815  -2.847  1.00  0.00     0.152 C 
ATOM     11  N   UNL     1      -0.201  -2.914  -3.253  1.00  0.00    -0.323 N 
BRANCH   8  12
ATOM     12  O   UNL     1       1.728  -1.171  -1.153  1.00  0.00    -0.380 OA
ATOM     13  C   UNL     1       2.317   0.087  -0.836  1.00  0.00     0.195 C 
ENDBRANCH   8  12
BRANCH  11  14
ATOM     14  C   UNL     1      -0.681  -4.106  -3.782  1.00  0.00     0.264 C 
ATOM     15  O   UNL     1      -0.090  -5.164  -3.571  1.00  0.00    -0.268 OA
BRANCH  14  16
ATOM     16  C   UNL     1      -1.841  -4.032  -4.656  1.00  0.00     0.099 A 
ATOM     17  C   UNL     1      -1.984  -3.310  -5.829  1.00  0.00     0.033 A 
ATOM     18  S   UNL     1      -3.214  -5.008  -4.350  1.00  0.00    -0.058 S 
ATOM     19  C   UNL     1      -3.252  -3.515  -6.444  1.00  0.00     0.099 A 
ATOM     20  C   UNL     1      -4.008  -4.424  -5.737  1.00  0.00     0.324 A 
BRANCH  20  21
ATOM     21  N   UNL     1      -5.327  -4.886  -6.086  1.00  0.00     0.074 N 
ATOM     22  O   UNL     1      -5.834  -4.378  -7.096  1.00  0.00    -0.258 OA
ATOM     23  O   UNL     1      -5.857  -5.749  -5.375  1.00  0.00    -0.258 OA
ENDBRANCH  20  21
ENDBRANCH  14  16
ENDBRANCH  11  14
ENDBRANCH   4   7
ENDBRANCH   2   3
ENDBRANCH   1   2
BRANCH   1  24
ATOM     24  C   UNL     1      -1.161  -1.073   2.071  1.00  0.00     0.023 C 
BRANCH  24  25
ATOM     25  C   UNL     1      -1.151  -2.236   3.056  1.00  0.00     0.116 C 
BRANCH  25  26
ATOM     26  N   UNL     1       0.178  -2.738   3.383  1.00  0.00    -0.352 N 
ATOM     27  C   UNL     1       0.648  -3.212   4.590  1.00  0.00     0.251 C 
ATOM     28  H   UNL     1       0.828  -2.738   2.644  1.00  0.00     0.163 HD
ATOM     29  O   UNL     1       1.817  -3.542   4.722  1.00  0.00    -0.269 OA
BRANCH  27  30
ATOM     30  C   UNL     1      -0.276  -3.260   5.742  1.00  0.00     0.039 A 
ATOM     31  C   UNL     1       0.121  -2.682   6.950  1.00  0.00     0.014 A 
ATOM     32  C   UNL     1      -1.558  -3.793   5.598  1.00  0.00     0.014 A 
ATOM     33  C   UNL     1      -0.808  -2.546   7.983  1.00  0.00     0.010 A 
ATOM     34  C   UNL     1      -2.505  -3.572   6.590  1.00  0.00     0.010 A 
ATOM     35  C   UNL     1      -2.143  -2.938   7.788  1.00  0.00    -0.014 A 
BRANCH  35  36
ATOM     36  C   UNL     1      -3.184  -2.689   8.816  1.00  0.00     0.031 A 
ATOM     37  C   UNL     1      -3.925  -3.845   9.427  1.00  0.00     0.074 A 
ATOM     38  C   UNL     1      -3.527  -1.423   9.129  1.00  0.00     0.049 A 
ATOM     39  N   UNL     1      -4.942  -3.833  10.250  1.00  0.00    -0.248 NA
ATOM     40  C   UNL     1      -3.491  -5.193   9.026  1.00  0.00     0.031 C 
ATOM     41  C   UNL     1      -2.929  -0.213   8.559  1.00  0.00     0.029 A 
ATOM     42  N   UNL     1      -4.473  -0.944  10.000  1.00  0.00    -0.354 N 
ATOM     43  C   UNL     1      -5.285  -5.165  10.441  1.00  0.00     0.074 A 
ATOM     44  C   UNL     1      -4.406  -5.955   9.606  1.00  0.00     0.031 C 
ATOM     45  C   UNL     1      -3.498   0.866   9.120  1.00  0.00     0.029 A 
ATOM     46  C   UNL     1      -4.524   0.427  10.060  1.00  0.00     0.049 A 
ATOM     47  H   UNL     1      -5.059  -1.529  10.533  1.00  0.00     0.167 HD
ATOM     48  C   UNL     1      -6.230  -5.687  11.258  1.00  0.00     0.037 A 
ATOM     49  C   UNL     1      -5.310   1.239  10.792  1.00  0.00     0.037 A 
ATOM     50  C   UNL     1      -7.068  -4.905  12.125  1.00  0.00     0.049 A 
ATOM     51  C   UNL     1      -6.326   0.634  11.720  1.00  0.00     0.074 A 
ATOM     52  C   UNL     1      -8.007  -5.342  13.042  1.00  0.00     0.029 A 
ATOM     53  N   UNL     1      -7.059  -3.520  12.188  1.00  0.00    -0.354 N 
ATOM     54  N   UNL     1      -6.600  -0.630  11.934  1.00  0.00    -0.248 NA
ATOM     55  C   UNL     1      -7.139   1.568  12.512  1.00  0.00     0.031 C 
ATOM     56  C   UNL     1      -8.585  -4.218  13.644  1.00  0.00     0.029 A 
ATOM     57  C   UNL     1      -7.980  -3.084  13.125  1.00  0.00     0.049 A 
ATOM     58  H   UNL     1      -6.482  -2.933  11.648  1.00  0.00     0.167 HD
ATOM     59  C   UNL     1      -7.595  -0.644  12.902  1.00  0.00     0.074 A 
ATOM     60  C   UNL     1      -7.868   0.737  13.242  1.00  0.00     0.031 C 
ATOM     61  C   UNL     1      -8.226  -1.706  13.460  1.00  0.00     0.037 A 
BRANCH  48  62
ATOM     62  C   UNL     1      -6.388  -7.179  11.261  1.00  0.00     0.057 A 
ATOM     63  C   UNL     1      -5.419  -8.020  11.823  1.00  0.00     0.134 A 
ATOM     64  C   UNL     1      -7.526  -7.780  10.710  1.00  0.00     0.134 A 
ATOM     65  F   UNL     1      -4.298  -7.507  12.353  1.00  0.00    -0.206 F 
ATOM     66  C   UNL     1      -5.563  -9.408  11.812  1.00  0.00     0.040 A 
ATOM     67  C   UNL     1      -7.694  -9.166  10.717  1.00  0.00     0.040 A 
ATOM     68  F   UNL     1      -8.494  -7.032  10.159  1.00  0.00    -0.206 F 
ATOM     69  C   UNL     1      -6.706  -9.984  11.262  1.00  0.00     0.006 A 
ENDBRANCH  48  62
BRANCH  49  70
ATOM     70  C   UNL     1      -5.142   2.711  10.712  1.00  0.00     0.057 A 
ATOM     71  C   UNL     1      -4.572   3.424  11.774  1.00  0.00     0.134 A 
ATOM     72  C   UNL     1      -5.550   3.440   9.590  1.00  0.00     0.134 A 
ATOM     73  F   UNL     1      -4.179   2.781  12.883  1.00  0.00    -0.206 F 
ATOM     74  C   UNL     1      -4.431   4.812  11.731  1.00  0.00     0.040 A 
ATOM     75  C   UNL     1      -5.395   4.826   9.524  1.00  0.00     0.040 A 
ATOM     76  F   UNL     1      -6.096   2.813   8.537  1.00  0.00    -0.206 F 
ATOM     77  C   UNL     1      -4.840   5.516  10.601  1.00  0.00     0.006 A 
ENDBRANCH  49  70
BRANCH  61  78
ATOM     78  C   UNL     1      -9.245  -1.417  14.520  1.00  0.00     0.057 A 
ATOM     79  C   UNL     1     -10.509  -0.904  14.207  1.00  0.00     0.134 A 
ATOM     80  C   UNL     1      -8.970  -1.695  15.865  1.00  0.00     0.134 A 
ATOM     81  F   UNL     1     -10.827  -0.604  12.939  1.00  0.00    -0.206 F 
ATOM     82  C   UNL     1     -11.461  -0.662  15.199  1.00  0.00     0.040 A 
ATOM     83  C   UNL     1      -9.921  -1.479  16.862  1.00  0.00     0.040 A 
ATOM     84  F   UNL     1      -7.778  -2.194  16.227  1.00  0.00    -0.206 F 
ATOM     85  C   UNL     1     -11.169  -0.957  16.530  1.00  0.00     0.006 A 
ENDBRANCH  61  78
ENDBRANCH  35  36
ENDBRANCH  27  30
ENDBRANCH  25  26
ENDBRANCH  24  25
ENDBRANCH   1  24
TORSDOF 15
