REMARK SMILES O=C(NCCCCNC(=O)c1ccc(NC(=O)c2ccc(-c3ccc(Br)cc3)o2)cc1O)c1ccc(-c2c3nc(c(-c4c(F)cccc4F)c4ccc([nH]4)c(-c4c(F)cccc4F)c4nc(c(-c5c(F)cccc5F)c5ccc2[nH]5)C=C4)C=C3)cc1
REMARK SMILES IDX 6 1 5 2 4 3 3 4 1 5 2 6 33 8 34 9 86 10 35 11 85 12 36 13
REMARK SMILES IDX 37 14 38 15 79 16 39 17 84 18 78 19 80 20 40 21 83 22 77 23
REMARK SMILES IDX 76 24 41 26 67 27 50 28 66 29 51 30 54 31 65 32 81 33 52 34
REMARK SMILES IDX 53 35 64 37 82 38 55 39 42 40 43 41 48 42 44 43 45 44 47 45
REMARK SMILES IDX 49 46 46 47 68 48 69 49 74 50 70 51 71 52 73 53 75 54 72 55
REMARK SMILES IDX 56 56 57 57 62 58 58 59 59 60 61 61 63 62 60 63 7 64 8 65
REMARK SMILES IDX 9 66 10 68 11 69 12 70 31 71 13 72 30 73 14 74 32 75 15 77
REMARK SMILES IDX 16 78 17 80 18 81 19 82 29 83 20 84 21 85 22 86 23 87 28 88
REMARK SMILES IDX 24 89 27 90 25 91 26 92
REMARK H PARENT 3 7 80 25 54 36 8 67 32 76 15 79
REMARK Flexibility Score: inf
ROOT
ATOM      1  C   UNL     1       4.560  -0.656   3.741  1.00  0.00     0.023 C 
ENDROOT
BRANCH   1   2
ATOM      2  C   UNL     1       5.015   0.121   2.507  1.00  0.00     0.023 C 
BRANCH   2   3
ATOM      3  C   UNL     1       4.669  -0.523   1.171  1.00  0.00     0.116 C 
BRANCH   3   4
ATOM      4  N   UNL     1       3.235  -0.652   0.966  1.00  0.00    -0.352 N 
ATOM      5  O   UNL     1       1.215  -0.170   0.088  1.00  0.00    -0.269 OA
ATOM      6  C   UNL     1       2.433  -0.077   0.009  1.00  0.00     0.251 C 
ATOM      7  H   UNL     1       2.771  -1.237   1.607  1.00  0.00     0.163 HD
BRANCH   6   8
ATOM      8  C   UNL     1       3.046   0.677  -1.104  1.00  0.00     0.039 A 
ATOM      9  C   UNL     1       4.129   0.153  -1.815  1.00  0.00     0.014 A 
ATOM     10  C   UNL     1       2.516   1.924  -1.446  1.00  0.00     0.014 A 
ATOM     11  C   UNL     1       4.767   0.930  -2.777  1.00  0.00     0.010 A 
ATOM     12  C   UNL     1       3.107   2.668  -2.468  1.00  0.00     0.010 A 
ATOM     13  C   UNL     1       4.254   2.189  -3.122  1.00  0.00    -0.014 A 
BRANCH  13  14
ATOM     14  C   UNL     1       4.880   2.977  -4.210  1.00  0.00     0.031 A 
ATOM     15  C   UNL     1       5.515   4.308  -3.930  1.00  0.00     0.074 A 
ATOM     16  C   UNL     1       4.835   2.500  -5.468  1.00  0.00     0.049 A 
ATOM     17  N   UNL     1       6.018   5.176  -4.771  1.00  0.00    -0.248 NA
ATOM     18  C   UNL     1       5.583   4.724  -2.522  1.00  0.00     0.031 C 
ATOM     19  C   UNL     1       4.239   1.222  -5.861  1.00  0.00     0.029 A 
ATOM     20  N   UNL     1       5.277   3.040  -6.648  1.00  0.00    -0.354 N 
ATOM     21  C   UNL     1       6.439   6.252  -3.999  1.00  0.00     0.074 A 
ATOM     22  C   UNL     1       6.110   5.936  -2.625  1.00  0.00     0.031 C 
ATOM     23  C   UNL     1       4.353   1.075  -7.188  1.00  0.00     0.029 A 
ATOM     24  C   UNL     1       4.970   2.274  -7.745  1.00  0.00     0.049 A 
ATOM     25  H   UNL     1       5.767   3.892  -6.703  1.00  0.00     0.167 HD
ATOM     26  C   UNL     1       7.043   7.395  -4.404  1.00  0.00     0.037 A 
ATOM     27  C   UNL     1       5.125   2.523  -9.058  1.00  0.00     0.037 A 
ATOM     28  C   UNL     1       7.367   7.694  -5.776  1.00  0.00     0.049 A 
ATOM     29  C   UNL     1       5.759   3.812  -9.489  1.00  0.00     0.074 A 
ATOM     30  C   UNL     1       8.024   8.801  -6.285  1.00  0.00     0.029 A 
ATOM     31  N   UNL     1       7.042   6.890  -6.859  1.00  0.00    -0.354 N 
ATOM     32  N   UNL     1       6.194   4.802  -8.748  1.00  0.00    -0.248 NA
ATOM     33  C   UNL     1       5.926   4.020 -10.933  1.00  0.00     0.031 C 
ATOM     34  C   UNL     1       8.043   8.695  -7.680  1.00  0.00     0.029 A 
ATOM     35  C   UNL     1       7.454   7.492  -8.037  1.00  0.00     0.049 A 
ATOM     36  H   UNL     1       6.585   6.020  -6.800  1.00  0.00     0.167 HD
ATOM     37  C   UNL     1       6.707   5.741  -9.631  1.00  0.00     0.074 A 
ATOM     38  C   UNL     1       6.533   5.200 -10.964  1.00  0.00     0.031 C 
ATOM     39  C   UNL     1       7.278   6.940  -9.358  1.00  0.00     0.037 A 
BRANCH  26  40
ATOM     40  C   UNL     1       7.357   8.422  -3.353  1.00  0.00     0.057 A 
ATOM     41  C   UNL     1       8.341   8.216  -2.377  1.00  0.00     0.134 A 
ATOM     42  C   UNL     1       6.670   9.643  -3.325  1.00  0.00     0.134 A 
ATOM     43  F   UNL     1       9.033   7.067  -2.340  1.00  0.00    -0.206 F 
ATOM     44  C   UNL     1       8.603   9.170  -1.390  1.00  0.00     0.040 A 
ATOM     45  C   UNL     1       6.943  10.616  -2.362  1.00  0.00     0.040 A 
ATOM     46  F   UNL     1       5.722   9.912  -4.236  1.00  0.00    -0.206 F 
ATOM     47  C   UNL     1       7.905  10.375  -1.383  1.00  0.00     0.006 A 
ENDBRANCH  26  40
BRANCH  27  48
ATOM     48  C   UNL     1       4.645   1.523 -10.042  1.00  0.00     0.057 A 
ATOM     49  C   UNL     1       5.540   0.736 -10.772  1.00  0.00     0.134 A 
ATOM     50  C   UNL     1       3.276   1.286 -10.224  1.00  0.00     0.134 A 
ATOM     51  F   UNL     1       6.862   0.924 -10.647  1.00  0.00    -0.206 F 
ATOM     52  C   UNL     1       5.092  -0.253 -11.649  1.00  0.00     0.040 A 
ATOM     53  C   UNL     1       2.815   0.285 -11.078  1.00  0.00     0.040 A 
ATOM     54  F   UNL     1       2.369   2.000  -9.541  1.00  0.00    -0.206 F 
ATOM     55  C   UNL     1       3.725  -0.487 -11.796  1.00  0.00     0.006 A 
ENDBRANCH  27  48
BRANCH  39  56
ATOM     56  C   UNL     1       7.796   7.739 -10.517  1.00  0.00     0.057 A 
ATOM     57  C   UNL     1       6.940   8.418 -11.392  1.00  0.00     0.134 A 
ATOM     58  C   UNL     1       9.175   7.891 -10.712  1.00  0.00     0.134 A 
ATOM     59  F   UNL     1       5.609   8.302 -11.268  1.00  0.00    -0.206 F 
ATOM     60  C   UNL     1       7.437   9.216 -12.424  1.00  0.00     0.040 A 
ATOM     61  C   UNL     1       9.684   8.706 -11.723  1.00  0.00     0.040 A 
ATOM     62  F   UNL     1      10.049   7.271  -9.904  1.00  0.00    -0.206 F 
ATOM     63  C   UNL     1       8.814   9.371 -12.584  1.00  0.00     0.006 A 
ENDBRANCH  39  56
ENDBRANCH  13  14
ENDBRANCH   6   8
ENDBRANCH   3   4
ENDBRANCH   2   3
ENDBRANCH   1   2
BRANCH   1  64
ATOM     64  C   UNL     1       4.930  -2.136   3.759  1.00  0.00     0.116 C 
BRANCH  64  65
ATOM     65  N   UNL     1       6.351  -2.374   3.586  1.00  0.00    -0.352 N 
ATOM     66  C   UNL     1       7.150  -3.309   4.194  1.00  0.00     0.255 C 
ATOM     67  H   UNL     1       6.804  -1.782   2.943  1.00  0.00     0.163 HD
ATOM     68  O   UNL     1       8.348  -3.347   3.923  1.00  0.00    -0.269 OA
BRANCH  66  69
ATOM     69  C   UNL     1       6.617  -4.192   5.253  1.00  0.00     0.081 A 
ATOM     70  C   UNL     1       7.335  -4.225   6.449  1.00  0.00     0.020 A 
ATOM     71  C   UNL     1       5.485  -5.000   5.117  1.00  0.00     0.130 A 
ATOM     72  C   UNL     1       6.872  -4.979   7.528  1.00  0.00     0.027 A 
ATOM     73  C   UNL     1       4.998  -5.719   6.215  1.00  0.00     0.073 A 
ATOM     74  C   UNL     1       5.662  -5.670   7.448  1.00  0.00     0.045 A 
BRANCH  71  75
ATOM     75  O   UNL     1       4.838  -5.095   3.916  1.00  0.00    -0.507 OA
ATOM     76  H   UNL     1       5.155  -4.619   3.175  1.00  0.00     0.293 HD
ENDBRANCH  71  75
BRANCH  74  77
ATOM     77  N   UNL     1       5.074  -6.358   8.526  1.00  0.00    -0.319 N 
ATOM     78  C   UNL     1       5.322  -6.325   9.887  1.00  0.00     0.291 C 
ATOM     79  H   UNL     1       4.354  -6.976   8.263  1.00  0.00     0.170 HD
ATOM     80  O   UNL     1       4.782  -7.188  10.581  1.00  0.00    -0.265 OA
BRANCH  78  81
ATOM     81  C   UNL     1       6.115  -5.256  10.444  1.00  0.00     0.192 A 
ATOM     82  C   UNL     1       5.947  -3.883  10.438  1.00  0.00     0.057 A 
ATOM     83  O   UNL     1       7.288  -5.572  11.074  1.00  0.00    -0.451 OA
ATOM     84  C   UNL     1       7.086  -3.335  11.073  1.00  0.00     0.052 A 
ATOM     85  C   UNL     1       7.880  -4.400  11.445  1.00  0.00     0.135 A 
BRANCH  85  86
ATOM     86  C   UNL     1       9.164  -4.505  12.121  1.00  0.00     0.017 A 
ATOM     87  C   UNL     1       9.479  -3.621  13.162  1.00  0.00     0.013 A 
ATOM     88  C   UNL     1      10.116  -5.458  11.730  1.00  0.00     0.013 A 
ATOM     89  C   UNL     1      10.720  -3.684  13.800  1.00  0.00     0.016 A 
ATOM     90  C   UNL     1      11.364  -5.516  12.359  1.00  0.00     0.016 A 
ATOM     91  C   UNL     1      11.659  -4.628  13.391  1.00  0.00     0.018 A 
ATOM     92  Br  UNL     1      13.345  -4.699  14.242  1.00  0.00    -0.051 Br
ENDBRANCH  85  86
ENDBRANCH  78  81
ENDBRANCH  74  77
ENDBRANCH  66  69
ENDBRANCH  64  65
ENDBRANCH   1  64
TORSDOF 15
