REMARK SMILES O=C(NCCCCNC(=O)[C@@H]1CC(=O)N(CCO)C1)c1ccc(-c2c3nc(c(-c4c(F)cccc4F)c4ccc([nH]4)c(-c4c(F)cccc4F)c4nc(c(-c5c(F)cccc5F)c5ccc2[nH]5)C=C4)C=C3)cc1
REMARK SMILES IDX 6 1 5 2 4 3 3 4 1 5 2 6 20 8 21 9 73 10 22 11 72 12 23 13
REMARK SMILES IDX 24 14 25 15 66 16 26 17 71 18 65 19 67 20 27 21 70 22 64 23
REMARK SMILES IDX 63 24 28 26 54 27 37 28 53 29 38 30 41 31 52 32 68 33 39 34
REMARK SMILES IDX 40 35 51 37 69 38 42 39 29 40 30 41 35 42 31 43 32 44 34 45
REMARK SMILES IDX 36 46 33 47 55 48 56 49 61 50 57 51 58 52 60 53 62 54 59 55
REMARK SMILES IDX 43 56 44 57 49 58 45 59 46 60 48 61 50 62 47 63 7 64 8 65
REMARK SMILES IDX 9 66 10 68 11 69 12 70 19 71 13 72 15 73 14 74 16 75 17 76
REMARK SMILES IDX 18 77
REMARK H PARENT 3 7 67 25 41 36 8 67 18 78
REMARK Flexibility Score: inf
ROOT
ATOM      1  C   UNL     1       4.311   3.265  -2.046  1.00  0.00     0.023 C 
ENDROOT
BRANCH   1   2
ATOM      2  C   UNL     1       4.774   1.810  -1.979  1.00  0.00     0.023 C 
BRANCH   2   3
ATOM      3  C   UNL     1       4.426   1.092  -0.683  1.00  0.00     0.116 C 
BRANCH   3   4
ATOM      4  N   UNL     1       2.994   1.037  -0.424  1.00  0.00    -0.352 N 
ATOM      5  O   UNL     1       1.024   0.035   0.059  1.00  0.00    -0.269 OA
ATOM      6  C   UNL     1       2.246  -0.035   0.004  1.00  0.00     0.251 C 
ATOM      7  H   UNL     1       2.498   1.874  -0.574  1.00  0.00     0.163 HD
BRANCH   6   8
ATOM      8  C   UNL     1       2.942  -1.286   0.368  1.00  0.00     0.039 A 
ATOM      9  C   UNL     1       4.075  -1.238   1.183  1.00  0.00     0.014 A 
ATOM     10  C   UNL     1       2.490  -2.502  -0.148  1.00  0.00     0.014 A 
ATOM     11  C   UNL     1       4.845  -2.379   1.351  1.00  0.00     0.010 A 
ATOM     12  C   UNL     1       3.210  -3.671   0.113  1.00  0.00     0.010 A 
ATOM     13  C   UNL     1       4.407  -3.614   0.844  1.00  0.00    -0.014 A 
BRANCH  13  14
ATOM     14  C   UNL     1       5.179  -4.835   1.182  1.00  0.00     0.031 A 
ATOM     15  C   UNL     1       5.848  -5.666   0.124  1.00  0.00     0.074 A 
ATOM     16  C   UNL     1       5.298  -5.165   2.483  1.00  0.00     0.049 A 
ATOM     17  N   UNL     1       6.577  -6.745   0.268  1.00  0.00    -0.248 NA
ATOM     18  C   UNL     1       5.677  -5.241  -1.274  1.00  0.00     0.031 C 
ATOM     19  C   UNL     1       4.679  -4.437   3.595  1.00  0.00     0.029 A 
ATOM     20  N   UNL     1       5.991  -6.175   3.096  1.00  0.00    -0.354 N 
ATOM     21  C   UNL     1       6.941  -7.135  -1.014  1.00  0.00     0.074 A 
ATOM     22  C   UNL     1       6.329  -6.194  -1.928  1.00  0.00     0.031 C 
ATOM     23  C   UNL     1       5.063  -4.989   4.753  1.00  0.00     0.029 A 
ATOM     24  C   UNL     1       5.887  -6.155   4.466  1.00  0.00     0.049 A 
ATOM     25  H   UNL     1       6.513  -6.849   2.604  1.00  0.00     0.167 HD
ATOM     26  C   UNL     1       7.721  -8.179  -1.388  1.00  0.00     0.037 A 
ATOM     27  C   UNL     1       6.377  -6.998   5.392  1.00  0.00     0.037 A 
ATOM     28  C   UNL     1       8.328  -9.108  -0.467  1.00  0.00     0.049 A 
ATOM     29  C   UNL     1       7.199  -8.168   4.941  1.00  0.00     0.074 A 
ATOM     30  C   UNL     1       9.156 -10.182  -0.747  1.00  0.00     0.029 A 
ATOM     31  N   UNL     1       8.167  -9.080   0.911  1.00  0.00    -0.354 N 
ATOM     32  N   UNL     1       7.564  -8.502   3.727  1.00  0.00    -0.248 NA
ATOM     33  C   UNL     1       7.673  -9.081   5.987  1.00  0.00     0.031 C 
ATOM     34  C   UNL     1       9.451 -10.835   0.454  1.00  0.00     0.029 A 
ATOM     35  C   UNL     1       8.857 -10.134   1.491  1.00  0.00     0.049 A 
ATOM     36  H   UNL     1       7.640  -8.411   1.404  1.00  0.00     0.167 HD
ATOM     37  C   UNL     1       8.328  -9.652   3.865  1.00  0.00     0.074 A 
ATOM     38  C   UNL     1       8.396  -9.940   5.284  1.00  0.00     0.031 C 
ATOM     39  C   UNL     1       8.915 -10.407   2.905  1.00  0.00     0.037 A 
BRANCH  26  40
ATOM     40  C   UNL     1       7.956  -8.390  -2.857  1.00  0.00     0.057 A 
ATOM     41  C   UNL     1       8.769  -7.532  -3.609  1.00  0.00     0.134 A 
ATOM     42  C   UNL     1       7.420  -9.507  -3.513  1.00  0.00     0.134 A 
ATOM     43  F   UNL     1       9.307  -6.439  -3.047  1.00  0.00    -0.206 F 
ATOM     44  C   UNL     1       9.027  -7.769  -4.962  1.00  0.00     0.040 A 
ATOM     45  C   UNL     1       7.692  -9.768  -4.857  1.00  0.00     0.040 A 
ATOM     46  F   UNL     1       6.640 -10.376  -2.852  1.00  0.00    -0.206 F 
ATOM     47  C   UNL     1       8.496  -8.895  -5.587  1.00  0.00     0.006 A 
ENDBRANCH  26  40
BRANCH  27  48
ATOM     48  C   UNL     1       6.078  -6.778   6.829  1.00  0.00     0.057 A 
ATOM     49  C   UNL     1       7.089  -6.454   7.740  1.00  0.00     0.134 A 
ATOM     50  C   UNL     1       4.774  -6.900   7.328  1.00  0.00     0.134 A 
ATOM     51  F   UNL     1       8.359  -6.336   7.326  1.00  0.00    -0.206 F 
ATOM     52  C   UNL     1       6.820  -6.285   9.099  1.00  0.00     0.040 A 
ATOM     53  C   UNL     1       4.486  -6.699   8.678  1.00  0.00     0.040 A 
ATOM     54  F   UNL     1       3.758  -7.197   6.505  1.00  0.00    -0.206 F 
ATOM     55  C   UNL     1       5.513  -6.403   9.570  1.00  0.00     0.006 A 
ENDBRANCH  27  48
BRANCH  39  56
ATOM     56  C   UNL     1       9.707 -11.595   3.367  1.00  0.00     0.057 A 
ATOM     57  C   UNL     1       9.092 -12.728   3.916  1.00  0.00     0.134 A 
ATOM     58  C   UNL     1      11.103 -11.608   3.256  1.00  0.00     0.134 A 
ATOM     59  F   UNL     1       7.760 -12.773   4.067  1.00  0.00    -0.206 F 
ATOM     60  C   UNL     1       9.840 -13.816   4.369  1.00  0.00     0.040 A 
ATOM     61  C   UNL     1      11.859 -12.703   3.675  1.00  0.00     0.040 A 
ATOM     62  F   UNL     1      11.755 -10.559   2.732  1.00  0.00    -0.206 F 
ATOM     63  C   UNL     1      11.227 -13.808   4.243  1.00  0.00     0.006 A 
ENDBRANCH  39  56
ENDBRANCH  13  14
ENDBRANCH   6   8
ENDBRANCH   3   4
ENDBRANCH   2   3
ENDBRANCH   1   2
BRANCH   1  64
ATOM     64  C   UNL     1       4.857   4.139  -0.919  1.00  0.00     0.116 C 
BRANCH  64  65
ATOM     65  N   UNL     1       6.282   4.359  -1.080  1.00  0.00    -0.356 N 
ATOM     66  C   UNL     1       6.916   5.412  -1.678  1.00  0.00     0.225 C 
ATOM     67  H   UNL     1       6.868   3.660  -0.710  1.00  0.00     0.163 HD
ATOM     68  O   UNL     1       8.131   5.353  -1.845  1.00  0.00    -0.275 OA
BRANCH  66  69
ATOM     69  C   UNL     1       6.092   6.636  -2.025  1.00  0.00     0.107 C 
ATOM     70  C   UNL     1       6.711   7.510  -3.112  1.00  0.00     0.115 C 
ATOM     71  C   UNL     1       5.990   7.504  -0.778  1.00  0.00     0.133 C 
ATOM     72  C   UNL     1       6.961   8.838  -2.457  1.00  0.00     0.223 C 
ATOM     73  N   UNL     1       6.524   8.786  -1.150  1.00  0.00    -0.340 N 
ATOM     74  O   UNL     1       7.451   9.807  -3.018  1.00  0.00    -0.275 OA
BRANCH  73  75
ATOM     75  C   UNL     1       6.747   9.857  -0.182  1.00  0.00     0.147 C 
BRANCH  75  76
ATOM     76  C   UNL     1       5.464  10.396   0.448  1.00  0.00     0.177 C 
BRANCH  76  77
ATOM     77  O   UNL     1       4.961   9.493   1.433  1.00  0.00    -0.395 OA
ATOM     78  H   UNL     1       4.759   8.641   1.017  1.00  0.00     0.210 HD
ENDBRANCH  76  77
ENDBRANCH  75  76
ENDBRANCH  73  75
ENDBRANCH  66  69
ENDBRANCH  64  65
ENDBRANCH   1  64
TORSDOF 14
