REMARK SMILES O=C(C[C@@H](C(=O)NCCCCNC(=O)c1ccc(-c2c3nc(c(-c4c(F)cccc4F)c4ccc([nH]4)c(-c4c(F)cccc4F)c4nc(c(-c5c(F)cccc5F)c5ccc2[nH]5)C=C4)C=C3)cc1)[NH+]1CCN(c2cccc(Cl)c2)CC1)c1ccc(F)cc1
REMARK SMILES IDX 9 1 8 2 7 3 5 4 6 5 4 7 3 8 2 9 1 10 82 11 83 12 88 13 84 14
REMARK SMILES IDX 87 15 85 16 86 17 69 18 70 19 81 20 71 22 80 23 72 24 73 25
REMARK SMILES IDX 74 26 79 27 75 28 77 29 76 30 78 31 10 32 11 33 12 34 13 35
REMARK SMILES IDX 14 37 15 38 16 39 68 40 17 41 67 42 18 43 19 44 20 45 61 46
REMARK SMILES IDX 21 47 66 48 60 49 62 50 22 51 65 52 59 53 58 54 23 56 49 57
REMARK SMILES IDX 32 58 48 59 33 60 36 61 47 62 63 63 34 64 35 65 46 67 64 68
REMARK SMILES IDX 37 69 24 70 25 71 30 72 26 73 27 74 29 75 31 76 28 77 50 78
REMARK SMILES IDX 51 79 56 80 52 81 53 82 55 83 57 84 54 85 38 86 39 87 44 88
REMARK SMILES IDX 40 89 41 90 43 91 45 92 42 93
REMARK H PARENT 7 6 69 21 12 36 62 55 36 66
REMARK Flexibility Score: inf
ROOT
ATOM      1  C   UNL     1       1.525   2.433   0.532  1.00  0.00     0.023 C 
ENDROOT
BRANCH   1   2
ATOM      2  C   UNL     1       2.188   2.538  -0.846  1.00  0.00     0.116 C 
BRANCH   2   3
ATOM      3  N   UNL     1       3.623   2.348  -0.800  1.00  0.00    -0.351 N 
ATOM      4  C   UNL     1       4.436   1.290  -1.061  1.00  0.00     0.278 C 
ATOM      5  O   UNL     1       5.627   1.503  -0.816  1.00  0.00    -0.268 OA
ATOM      6  H   UNL     1       4.113   3.155  -0.521  1.00  0.00     0.163 HD
BRANCH   4   7
ATOM      7  C   UNL     1       3.891  -0.047  -1.636  1.00  0.00     0.282 C 
BRANCH   7   8
ATOM      8  C   UNL     1       2.917  -0.855  -0.745  1.00  0.00     0.156 C 
BRANCH   8   9
ATOM      9  C   UNL     1       2.677  -0.788   0.757  1.00  0.00     0.169 C 
ATOM     10  O   UNL     1       1.579  -1.190   1.167  1.00  0.00    -0.294 OA
BRANCH   9  11
ATOM     11  C   UNL     1       3.636  -0.329   1.796  1.00  0.00     0.018 A 
ATOM     12  C   UNL     1       5.001  -0.170   1.589  1.00  0.00     0.015 A 
ATOM     13  C   UNL     1       3.107  -0.015   3.064  1.00  0.00     0.015 A 
ATOM     14  C   UNL     1       5.802   0.422   2.571  1.00  0.00     0.040 A 
ATOM     15  C   UNL     1       3.909   0.543   4.060  1.00  0.00     0.040 A 
ATOM     16  C   UNL     1       5.247   0.785   3.792  1.00  0.00     0.123 A 
ATOM     17  F   UNL     1       6.011   1.373   4.721  1.00  0.00    -0.207 F 
ENDBRANCH   9  11
ENDBRANCH   8   9
ENDBRANCH   7   8
BRANCH   7  18
ATOM     18  N   UNL     1       4.833  -0.832  -2.520  1.00  0.00    -0.321 N 
ATOM     19  C   UNL     1       6.237  -0.400  -2.675  1.00  0.00     0.284 C 
ATOM     20  C   UNL     1       4.841  -2.305  -2.434  1.00  0.00     0.284 C 
ATOM     21  H   UNL     1       4.318  -0.543  -3.352  1.00  0.00     0.348 HD
ATOM     22  C   UNL     1       7.216  -0.891  -1.576  1.00  0.00     0.178 C 
ATOM     23  C   UNL     1       5.663  -2.859  -1.249  1.00  0.00     0.178 C 
ATOM     24  N   UNL     1       7.030  -2.321  -1.272  1.00  0.00    -0.360 N 
BRANCH  24  25
ATOM     25  C   UNL     1       7.996  -2.984  -0.528  1.00  0.00     0.038 A 
ATOM     26  C   UNL     1       8.617  -2.408   0.590  1.00  0.00     0.026 A 
ATOM     27  C   UNL     1       8.405  -4.266  -0.915  1.00  0.00     0.046 A 
ATOM     28  C   UNL     1       9.627  -3.080   1.287  1.00  0.00     0.004 A 
ATOM     29  C   UNL     1       9.426  -4.930  -0.234  1.00  0.00     0.043 A 
ATOM     30  C   UNL     1      10.041  -4.341   0.867  1.00  0.00     0.020 A 
ATOM     31  Cl  UNL     1       9.946  -6.479  -0.776  1.00  0.00    -0.084 Cl
ENDBRANCH  24  25
ENDBRANCH   7  18
ENDBRANCH   4   7
ENDBRANCH   2   3
ENDBRANCH   1   2
BRANCH   1  32
ATOM     32  C   UNL     1       2.330   3.001   1.707  1.00  0.00     0.023 C 
BRANCH  32  33
ATOM     33  C   UNL     1       2.409   4.516   1.756  1.00  0.00     0.116 C 
BRANCH  33  34
ATOM     34  N   UNL     1       1.141   5.090   2.174  1.00  0.00    -0.352 N 
ATOM     35  C   UNL     1       0.834   5.841   3.277  1.00  0.00     0.251 C 
ATOM     36  H   UNL     1       0.385   4.911   1.569  1.00  0.00     0.163 HD
ATOM     37  O   UNL     1      -0.354   5.986   3.582  1.00  0.00    -0.269 OA
BRANCH  35  38
ATOM     38  C   UNL     1       1.880   6.494   4.100  1.00  0.00     0.039 A 
ATOM     39  C   UNL     1       1.626   6.708   5.461  1.00  0.00     0.014 A 
ATOM     40  C   UNL     1       3.056   6.995   3.536  1.00  0.00     0.014 A 
ATOM     41  C   UNL     1       2.538   7.421   6.244  1.00  0.00     0.010 A 
ATOM     42  C   UNL     1       4.007   7.625   4.335  1.00  0.00     0.010 A 
ATOM     43  C   UNL     1       3.736   7.889   5.685  1.00  0.00    -0.014 A 
BRANCH  43  44
ATOM     44  C   UNL     1       4.663   8.757   6.456  1.00  0.00     0.031 A 
ATOM     45  C   UNL     1       4.893  10.177   6.003  1.00  0.00     0.074 A 
ATOM     46  C   UNL     1       5.320   8.274   7.527  1.00  0.00     0.049 A 
ATOM     47  N   UNL     1       5.737  11.069   6.455  1.00  0.00    -0.248 NA
ATOM     48  C   UNL     1       4.089  10.645   4.860  1.00  0.00     0.031 C 
ATOM     49  C   UNL     1       5.213   6.909   8.045  1.00  0.00     0.029 A 
ATOM     50  N   UNL     1       6.219   8.879   8.369  1.00  0.00    -0.354 N 
ATOM     51  C   UNL     1       5.585  12.183   5.638  1.00  0.00     0.074 A 
ATOM     52  C   UNL     1       4.611  11.838   4.627  1.00  0.00     0.031 C 
ATOM     53  C   UNL     1       6.002   6.786   9.125  1.00  0.00     0.029 A 
ATOM     54  C   UNL     1       6.691   8.051   9.359  1.00  0.00     0.049 A 
ATOM     55  H   UNL     1       6.500   9.818   8.273  1.00  0.00     0.167 HD
ATOM     56  C   UNL     1       6.177  13.397   5.738  1.00  0.00     0.037 A 
ATOM     57  C   UNL     1       7.580   8.291  10.341  1.00  0.00     0.037 A 
ATOM     58  C   UNL     1       7.105  13.756   6.776  1.00  0.00     0.049 A 
ATOM     59  C   UNL     1       8.185   9.663  10.460  1.00  0.00     0.074 A 
ATOM     60  C   UNL     1       7.751  14.962   6.982  1.00  0.00     0.029 A 
ATOM     61  N   UNL     1       7.498  12.909   7.801  1.00  0.00    -0.354 N 
ATOM     62  N   UNL     1       8.018  10.711   9.690  1.00  0.00    -0.248 NA
ATOM     63  C   UNL     1       9.090   9.892  11.596  1.00  0.00     0.031 C 
ATOM     64  C   UNL     1       8.543  14.841   8.128  1.00  0.00     0.029 A 
ATOM     65  C   UNL     1       8.364  13.571   8.652  1.00  0.00     0.049 A 
ATOM     66  H   UNL     1       7.204  11.975   7.907  1.00  0.00     0.167 HD
ATOM     67  C   UNL     1       8.765  11.730  10.266  1.00  0.00     0.074 A 
ATOM     68  C   UNL     1       9.378  11.178  11.456  1.00  0.00     0.031 C 
ATOM     69  C   UNL     1       8.935  13.008   9.847  1.00  0.00     0.037 A 
BRANCH  56  70
ATOM     70  C   UNL     1       5.814  14.431   4.711  1.00  0.00     0.057 A 
ATOM     71  C   UNL     1       4.550  15.036   4.693  1.00  0.00     0.134 A 
ATOM     72  C   UNL     1       6.741  14.844   3.746  1.00  0.00     0.134 A 
ATOM     73  F   UNL     1       3.611  14.673   5.580  1.00  0.00    -0.206 F 
ATOM     74  C   UNL     1       4.212  15.995   3.737  1.00  0.00     0.040 A 
ATOM     75  C   UNL     1       6.423  15.823   2.801  1.00  0.00     0.040 A 
ATOM     76  F   UNL     1       7.970  14.310   3.708  1.00  0.00    -0.206 F 
ATOM     77  C   UNL     1       5.153  16.396   2.792  1.00  0.00     0.006 A 
ENDBRANCH  56  70
BRANCH  57  78
ATOM     78  C   UNL     1       7.929   7.222  11.310  1.00  0.00     0.057 A 
ATOM     79  C   UNL     1       7.507   7.290  12.644  1.00  0.00     0.134 A 
ATOM     80  C   UNL     1       8.706   6.120  10.936  1.00  0.00     0.134 A 
ATOM     81  F   UNL     1       6.774   8.331  13.067  1.00  0.00    -0.206 F 
ATOM     82  C   UNL     1       7.868   6.317  13.577  1.00  0.00     0.040 A 
ATOM     83  C   UNL     1       9.054   5.126  11.852  1.00  0.00     0.040 A 
ATOM     84  F   UNL     1       9.134   5.992   9.672  1.00  0.00    -0.206 F 
ATOM     85  C   UNL     1       8.642   5.228  13.180  1.00  0.00     0.006 A 
ENDBRANCH  57  78
BRANCH  69  86
ATOM     86  C   UNL     1       9.764  13.906  10.713  1.00  0.00     0.057 A 
ATOM     87  C   UNL     1      11.158  13.797  10.772  1.00  0.00     0.134 A 
ATOM     88  C   UNL     1       9.157  14.916  11.470  1.00  0.00     0.134 A 
ATOM     89  F   UNL     1      11.795  12.842  10.078  1.00  0.00    -0.206 F 
ATOM     90  C   UNL     1      11.920  14.646  11.575  1.00  0.00     0.040 A 
ATOM     91  C   UNL     1       9.910  15.786  12.259  1.00  0.00     0.040 A 
ATOM     92  F   UNL     1       7.826  15.078  11.449  1.00  0.00    -0.206 F 
ATOM     93  C   UNL     1      11.296  15.648  12.318  1.00  0.00     0.006 A 
ENDBRANCH  69  86
ENDBRANCH  43  44
ENDBRANCH  35  38
ENDBRANCH  33  34
ENDBRANCH  32  33
ENDBRANCH   1  32
TORSDOF 16
