REMARK SMILES O=C(NCCCCNC(=O)c1cc(-c2ccc(F)c(C(F)(F)F)c2)cnc1O)c1ccc(-c2c3nc(c(-c4c(F)cccc4F)c4ccc([nH]4)c(-c4c(F)cccc4F)c4nc(c(-c5c(F)cccc5F)c5ccc2[nH]5)C=C4)C=C3)cc1
REMARK SMILES IDX 5 1 4 2 3 3 1 4 2 5 29 7 30 8 82 9 31 10 81 11 32 12 33 13
REMARK SMILES IDX 34 14 75 15 35 16 80 17 74 18 76 19 36 20 79 21 73 22 72 23
REMARK SMILES IDX 37 25 63 26 46 27 62 28 47 29 50 30 61 31 77 32 48 33 49 34
REMARK SMILES IDX 60 36 78 37 51 38 38 39 39 40 44 41 40 42 41 43 43 44 45 45
REMARK SMILES IDX 42 46 64 47 65 48 70 49 66 50 67 51 69 52 71 53 68 54 52 55
REMARK SMILES IDX 53 56 58 57 54 58 55 59 57 60 59 61 56 62 6 63 7 64 8 65
REMARK SMILES IDX 9 66 10 68 11 69 12 70 27 71 13 72 26 73 25 74 28 75 14 77
REMARK SMILES IDX 15 78 24 79 16 80 19 81 17 82 18 83 20 84 21 85 22 86 23 87
REMARK H PARENT 3 6 76 24 50 35 8 67 28 76
REMARK Flexibility Score: inf
ROOT
ATOM      1  C   UNL     1       4.966  -1.328   2.232  1.00  0.00     0.023 C 
ENDROOT
BRANCH   1   2
ATOM      2  C   UNL     1       4.578  -1.059   0.783  1.00  0.00     0.116 C 
BRANCH   2   3
ATOM      3  N   UNL     1       3.139  -1.031   0.589  1.00  0.00    -0.352 N 
ATOM      4  O   UNL     1       1.118  -0.131   0.190  1.00  0.00    -0.269 OA
ATOM      5  C   UNL     1       2.338  -0.025   0.112  1.00  0.00     0.251 C 
ATOM      6  H   UNL     1       2.668  -1.859   0.836  1.00  0.00     0.163 HD
BRANCH   5   7
ATOM      7  C   UNL     1       2.930   1.188  -0.496  1.00  0.00     0.039 A 
ATOM      8  C   UNL     1       2.341   2.430  -0.233  1.00  0.00     0.014 A 
ATOM      9  C   UNL     1       4.008   1.103  -1.380  1.00  0.00     0.014 A 
ATOM     10  C   UNL     1       2.837   3.583  -0.846  1.00  0.00     0.010 A 
ATOM     11  C   UNL     1       4.553   2.260  -1.928  1.00  0.00     0.010 A 
ATOM     12  C   UNL     1       3.947   3.507  -1.700  1.00  0.00    -0.014 A 
BRANCH  12  13
ATOM     13  C   UNL     1       4.413   4.680  -2.482  1.00  0.00     0.031 A 
ATOM     14  C   UNL     1       4.291   4.640  -3.985  1.00  0.00     0.074 A 
ATOM     15  C   UNL     1       4.975   5.743  -1.877  1.00  0.00     0.049 A 
ATOM     16  N   UNL     1       4.773   5.462  -4.881  1.00  0.00    -0.248 NA
ATOM     17  C   UNL     1       3.547   3.503  -4.555  1.00  0.00     0.031 C 
ATOM     18  C   UNL     1       5.139   5.915  -0.434  1.00  0.00     0.029 A 
ATOM     19  N   UNL     1       5.532   6.879  -2.413  1.00  0.00    -0.354 N 
ATOM     20  C   UNL     1       4.420   4.924  -6.113  1.00  0.00     0.074 A 
ATOM     21  C   UNL     1       3.721   3.686  -5.854  1.00  0.00     0.031 C 
ATOM     22  C   UNL     1       5.750   7.089  -0.198  1.00  0.00     0.029 A 
ATOM     23  C   UNL     1       6.068   7.727  -1.473  1.00  0.00     0.049 A 
ATOM     24  H   UNL     1       5.547   7.068  -3.379  1.00  0.00     0.167 HD
ATOM     25  C   UNL     1       4.642   5.425  -7.350  1.00  0.00     0.037 A 
ATOM     26  C   UNL     1       6.761   8.872  -1.630  1.00  0.00     0.037 A 
ATOM     27  C   UNL     1       5.297   6.679  -7.604  1.00  0.00     0.049 A 
ATOM     28  C   UNL     1       7.039   9.379  -3.023  1.00  0.00     0.074 A 
ATOM     29  C   UNL     1       5.528   7.298  -8.820  1.00  0.00     0.029 A 
ATOM     30  N   UNL     1       5.820   7.507  -6.624  1.00  0.00    -0.354 N 
ATOM     31  N   UNL     1       6.673   8.879  -4.178  1.00  0.00    -0.248 NA
ATOM     32  C   UNL     1       7.833  10.613  -3.134  1.00  0.00     0.031 C 
ATOM     33  C   UNL     1       6.239   8.476  -8.580  1.00  0.00     0.029 A 
ATOM     34  C   UNL     1       6.395   8.621  -7.210  1.00  0.00     0.049 A 
ATOM     35  H   UNL     1       5.788   7.329  -5.657  1.00  0.00     0.167 HD
ATOM     36  C   UNL     1       7.146   9.760  -5.143  1.00  0.00     0.074 A 
ATOM     37  C   UNL     1       7.824  10.827  -4.441  1.00  0.00     0.031 C 
ATOM     38  C   UNL     1       7.029   9.694  -6.492  1.00  0.00     0.037 A 
BRANCH  25  39
ATOM     39  C   UNL     1       4.180   4.618  -8.528  1.00  0.00     0.057 A 
ATOM     40  C   UNL     1       5.112   4.029  -9.393  1.00  0.00     0.134 A 
ATOM     41  C   UNL     1       2.823   4.467  -8.840  1.00  0.00     0.134 A 
ATOM     42  F   UNL     1       6.428   4.139  -9.155  1.00  0.00    -0.206 F 
ATOM     43  C   UNL     1       4.710   3.329 -10.531  1.00  0.00     0.040 A 
ATOM     44  C   UNL     1       2.408   3.744  -9.959  1.00  0.00     0.040 A 
ATOM     45  F   UNL     1       1.880   4.995  -8.045  1.00  0.00    -0.206 F 
ATOM     46  C   UNL     1       3.354   3.181 -10.814  1.00  0.00     0.006 A 
ENDBRANCH  25  39
BRANCH  26  47
ATOM     47  C   UNL     1       7.274   9.623  -0.453  1.00  0.00     0.057 A 
ATOM     48  C   UNL     1       8.298   9.111   0.353  1.00  0.00     0.134 A 
ATOM     49  C   UNL     1       6.810  10.912  -0.160  1.00  0.00     0.134 A 
ATOM     50  F   UNL     1       8.785   7.881   0.132  1.00  0.00    -0.206 F 
ATOM     51  C   UNL     1       8.851   9.857   1.396  1.00  0.00     0.040 A 
ATOM     52  C   UNL     1       7.376  11.681   0.859  1.00  0.00     0.040 A 
ATOM     53  F   UNL     1       5.846  11.468  -0.908  1.00  0.00    -0.206 F 
ATOM     54  C   UNL     1       8.402  11.153   1.640  1.00  0.00     0.006 A 
ENDBRANCH  26  47
BRANCH  38  55
ATOM     55  C   UNL     1       7.568  10.841  -7.296  1.00  0.00     0.057 A 
ATOM     56  C   UNL     1       6.689  11.707  -7.961  1.00  0.00     0.134 A 
ATOM     57  C   UNL     1       8.940  11.052  -7.469  1.00  0.00     0.134 A 
ATOM     58  F   UNL     1       5.362  11.553  -7.846  1.00  0.00    -0.206 F 
ATOM     59  C   UNL     1       7.158  12.735  -8.780  1.00  0.00     0.040 A 
ATOM     60  C   UNL     1       9.421  12.095  -8.262  1.00  0.00     0.040 A 
ATOM     61  F   UNL     1       9.833  10.265  -6.850  1.00  0.00    -0.206 F 
ATOM     62  C   UNL     1       8.528  12.933  -8.928  1.00  0.00     0.006 A 
ENDBRANCH  38  55
ENDBRANCH  12  13
ENDBRANCH   5   7
ENDBRANCH   2   3
ENDBRANCH   1   2
BRANCH   1  63
ATOM     63  C   UNL     1       4.474  -2.658   2.804  1.00  0.00     0.023 C 
BRANCH  63  64
ATOM     64  C   UNL     1       4.793  -3.887   1.958  1.00  0.00     0.116 C 
BRANCH  64  65
ATOM     65  N   UNL     1       6.226  -4.066   1.754  1.00  0.00    -0.352 N 
ATOM     66  C   UNL     1       7.032  -5.094   2.165  1.00  0.00     0.256 C 
ATOM     67  H   UNL     1       6.675  -3.348   1.251  1.00  0.00     0.163 HD
ATOM     68  O   UNL     1       8.252  -5.013   2.054  1.00  0.00    -0.269 OA
BRANCH  66  69
ATOM     69  C   UNL     1       6.434  -6.302   2.741  1.00  0.00     0.102 A 
ATOM     70  C   UNL     1       6.835  -6.698   4.019  1.00  0.00     0.029 A 
ATOM     71  C   UNL     1       5.489  -7.067   2.069  1.00  0.00     0.223 A 
ATOM     72  C   UNL     1       6.239  -7.811   4.621  1.00  0.00     0.001 A 
ATOM     73  N   UNL     1       4.875  -8.128   2.623  1.00  0.00    -0.221 NA
ATOM     74  C   UNL     1       5.257  -8.469   3.877  1.00  0.00     0.124 A 
BRANCH  71  75
ATOM     75  O   UNL     1       5.078  -6.803   0.794  1.00  0.00    -0.493 OA
ATOM     76  H   UNL     1       5.448  -6.082   0.323  1.00  0.00     0.295 HD
ENDBRANCH  71  75
BRANCH  72  77
ATOM     77  C   UNL     1       6.627  -8.261   5.961  1.00  0.00    -0.016 A 
ATOM     78  C   UNL     1       7.076  -9.575   6.174  1.00  0.00     0.012 A 
ATOM     79  C   UNL     1       6.566  -7.390   7.064  1.00  0.00     0.025 A 
ATOM     80  C   UNL     1       7.451 -10.004   7.448  1.00  0.00     0.040 A 
ATOM     81  C   UNL     1       6.939  -7.816   8.351  1.00  0.00     0.092 A 
ATOM     82  C   UNL     1       7.377  -9.125   8.521  1.00  0.00     0.135 A 
ATOM     83  F   UNL     1       7.737  -9.558   9.736  1.00  0.00    -0.206 F 
BRANCH  81  84
ATOM     84  C   UNL     1       6.863  -6.908   9.542  1.00  0.00     0.419 C 
ATOM     85  F   UNL     1       5.963  -7.330  10.471  1.00  0.00    -0.166 F 
ATOM     86  F   UNL     1       8.052  -6.775  10.190  1.00  0.00    -0.166 F 
ATOM     87  F   UNL     1       6.482  -5.638   9.216  1.00  0.00    -0.166 F 
ENDBRANCH  81  84
ENDBRANCH  72  77
ENDBRANCH  66  69
ENDBRANCH  64  65
ENDBRANCH  63  64
ENDBRANCH   1  63
TORSDOF 14
