REMARK SMILES O=C(NCCCCNC(=O)[C@@H]1CC[C@H](CNC(=O)C2CCOCC2)O1)c1ccc(-c2c3nc(c(-c4c(F)cccc4F)c4ccc([nH]4)c(-c4c(F)cccc4F)c4nc(c(-c5c(F)cccc5F)c5ccc2[nH]5)C=C4)C=C3)cc1
REMARK SMILES IDX 6 1 5 2 4 3 3 4 1 5 2 6 26 8 27 9 79 10 28 11 78 12 29 13
REMARK SMILES IDX 30 14 31 15 72 16 32 17 77 18 71 19 73 20 33 21 76 22 70 23
REMARK SMILES IDX 69 24 34 26 60 27 43 28 59 29 44 30 47 31 58 32 74 33 45 34
REMARK SMILES IDX 46 35 57 37 75 38 48 39 35 40 36 41 41 42 37 43 38 44 40 45
REMARK SMILES IDX 42 46 39 47 61 48 62 49 67 50 63 51 64 52 66 53 68 54 65 55
REMARK SMILES IDX 49 56 50 57 55 58 51 59 52 60 54 61 56 62 53 63 7 64 8 65
REMARK SMILES IDX 9 66 10 68 11 69 12 70 25 71 13 72 14 73 15 74 16 75 17 76
REMARK SMILES IDX 18 78 19 79 20 80 24 81 21 82 23 83 22 84
REMARK H PARENT 3 7 73 25 47 36 8 67 16 77
REMARK Flexibility Score: inf
ROOT
ATOM      1  C   UNL     1       4.346  -0.263  -4.045  1.00  0.00     0.023 C 
ENDROOT
BRANCH   1   2
ATOM      2  C   UNL     1       4.810  -0.940  -2.750  1.00  0.00     0.023 C 
BRANCH   2   3
ATOM      3  C   UNL     1       4.517  -0.169  -1.467  1.00  0.00     0.116 C 
BRANCH   3   4
ATOM      4  N   UNL     1       3.098   0.060  -1.246  1.00  0.00    -0.352 N 
ATOM      5  O   UNL     1       1.159   0.077  -0.089  1.00  0.00    -0.269 OA
ATOM      6  C   UNL     1       2.381  -0.040  -0.076  1.00  0.00     0.251 C 
ATOM      7  H   UNL     1       2.580   0.324  -2.041  1.00  0.00     0.163 HD
BRANCH   6   8
ATOM      8  C   UNL     1       3.085  -0.322   1.194  1.00  0.00     0.039 A 
ATOM      9  C   UNL     1       4.250   0.369   1.531  1.00  0.00     0.014 A 
ATOM     10  C   UNL     1       2.572  -1.297   2.055  1.00  0.00     0.014 A 
ATOM     11  C   UNL     1       4.975  -0.009   2.655  1.00  0.00     0.010 A 
ATOM     12  C   UNL     1       3.262  -1.623   3.226  1.00  0.00     0.010 A 
ATOM     13  C   UNL     1       4.486  -1.003   3.520  1.00  0.00    -0.014 A 
BRANCH  13  14
ATOM     14  C   UNL     1       5.253  -1.334   4.747  1.00  0.00     0.031 A 
ATOM     15  C   UNL     1       5.894  -2.681   4.928  1.00  0.00     0.074 A 
ATOM     16  C   UNL     1       5.405  -0.380   5.687  1.00  0.00     0.049 A 
ATOM     17  N   UNL     1       6.630  -3.115   5.921  1.00  0.00    -0.248 NA
ATOM     18  C   UNL     1       5.682  -3.672   3.862  1.00  0.00     0.031 C 
ATOM     19  C   UNL     1       4.818   0.961   5.628  1.00  0.00     0.029 A 
ATOM     20  N   UNL     1       6.114  -0.381   6.860  1.00  0.00    -0.354 N 
ATOM     21  C   UNL     1       6.962  -4.426   5.606  1.00  0.00     0.074 A 
ATOM     22  C   UNL     1       6.322  -4.730   4.343  1.00  0.00     0.031 C 
ATOM     23  C   UNL     1       5.227   1.667   6.691  1.00  0.00     0.029 A 
ATOM     24  C   UNL     1       6.060   0.815   7.532  1.00  0.00     0.049 A 
ATOM     25  H   UNL     1       6.614  -1.163   7.188  1.00  0.00     0.167 HD
ATOM     26  C   UNL     1       7.738  -5.293   6.302  1.00  0.00     0.037 A 
ATOM     27  C   UNL     1       6.609   1.184   8.704  1.00  0.00     0.037 A 
ATOM     28  C   UNL     1       8.378  -4.986   7.556  1.00  0.00     0.049 A 
ATOM     29  C   UNL     1       7.448   0.198   9.460  1.00  0.00     0.074 A 
ATOM     30  C   UNL     1       9.189  -5.796   8.333  1.00  0.00     0.029 A 
ATOM     31  N   UNL     1       8.279  -3.771   8.217  1.00  0.00    -0.354 N 
ATOM     32  N   UNL     1       7.767  -1.032   9.138  1.00  0.00    -0.248 NA
ATOM     33  C   UNL     1       8.002   0.649  10.743  1.00  0.00     0.031 C 
ATOM     34  C   UNL     1       9.555  -5.082   9.479  1.00  0.00     0.029 A 
ATOM     35  C   UNL     1       9.005  -3.813   9.397  1.00  0.00     0.049 A 
ATOM     36  H   UNL     1       7.769  -2.992   7.895  1.00  0.00     0.167 HD
ATOM     37  C   UNL     1       8.567  -1.498  10.171  1.00  0.00     0.074 A 
ATOM     38  C   UNL     1       8.706  -0.410  11.117  1.00  0.00     0.031 C 
ATOM     39  C   UNL     1       9.131  -2.720  10.326  1.00  0.00     0.037 A 
BRANCH  26  40
ATOM     40  C   UNL     1       7.938  -6.664   5.724  1.00  0.00     0.057 A 
ATOM     41  C   UNL     1       8.764  -6.881   4.615  1.00  0.00     0.134 A 
ATOM     42  C   UNL     1       7.344  -7.785   6.317  1.00  0.00     0.134 A 
ATOM     43  F   UNL     1       9.355  -5.849   3.994  1.00  0.00    -0.206 F 
ATOM     44  C   UNL     1       8.981  -8.164   4.106  1.00  0.00     0.040 A 
ATOM     45  C   UNL     1       7.570  -9.075   5.830  1.00  0.00     0.040 A 
ATOM     46  F   UNL     1       6.546  -7.648   7.387  1.00  0.00    -0.206 F 
ATOM     47  C   UNL     1       8.388  -9.266   4.719  1.00  0.00     0.006 A 
ENDBRANCH  26  40
BRANCH  27  48
ATOM     48  C   UNL     1       6.373   2.550   9.231  1.00  0.00     0.057 A 
ATOM     49  C   UNL     1       7.403   3.495   9.286  1.00  0.00     0.134 A 
ATOM     50  C   UNL     1       5.108   2.944   9.687  1.00  0.00     0.134 A 
ATOM     51  F   UNL     1       8.639   3.171   8.878  1.00  0.00    -0.206 F 
ATOM     52  C   UNL     1       7.189   4.779   9.790  1.00  0.00     0.040 A 
ATOM     53  C   UNL     1       4.874   4.231  10.169  1.00  0.00     0.040 A 
ATOM     54  F   UNL     1       4.079   2.085   9.652  1.00  0.00    -0.206 F 
ATOM     55  C   UNL     1       5.918   5.151  10.228  1.00  0.00     0.006 A 
ENDBRANCH  27  48
BRANCH  39  56
ATOM     56  C   UNL     1       9.963  -2.929  11.555  1.00  0.00     0.057 A 
ATOM     57  C   UNL     1       9.382  -3.070  12.822  1.00  0.00     0.134 A 
ATOM     58  C   UNL     1      11.359  -2.999  11.469  1.00  0.00     0.134 A 
ATOM     59  F   UNL     1       8.051  -2.996  12.971  1.00  0.00    -0.206 F 
ATOM     60  C   UNL     1      10.163  -3.248  13.965  1.00  0.00     0.040 A 
ATOM     61  C   UNL     1      12.149  -3.199  12.602  1.00  0.00     0.040 A 
ATOM     62  F   UNL     1      11.976  -2.877  10.284  1.00  0.00    -0.206 F 
ATOM     63  C   UNL     1      11.551  -3.317  13.855  1.00  0.00     0.006 A 
ENDBRANCH  39  56
ENDBRANCH  13  14
ENDBRANCH   6   8
ENDBRANCH   3   4
ENDBRANCH   2   3
ENDBRANCH   1   2
BRANCH   1  64
ATOM     64  C   UNL     1       4.888   1.152  -4.254  1.00  0.00     0.116 C 
BRANCH  64  65
ATOM     65  N   UNL     1       6.331   1.152  -4.403  1.00  0.00    -0.354 N 
ATOM     66  C   UNL     1       7.080   1.198  -5.546  1.00  0.00     0.249 C 
ATOM     67  H   UNL     1       6.843   1.114  -3.563  1.00  0.00     0.163 HD
ATOM     68  O   UNL     1       8.307   1.144  -5.438  1.00  0.00    -0.272 OA
BRANCH  66  69
ATOM     69  C   UNL     1       6.382   1.362  -6.903  1.00  0.00     0.207 C 
ATOM     70  C   UNL     1       7.076   0.609  -8.027  1.00  0.00     0.045 C 
ATOM     71  O   UNL     1       6.378   2.758  -7.272  1.00  0.00    -0.363 OA
ATOM     72  C   UNL     1       6.818   1.504  -9.214  1.00  0.00     0.037 C 
ATOM     73  C   UNL     1       6.915   2.893  -8.604  1.00  0.00     0.138 C 
BRANCH  73  74
ATOM     74  C   UNL     1       8.353   3.442  -8.533  1.00  0.00     0.147 C 
BRANCH  74  75
ATOM     75  N   UNL     1       8.909   3.703  -9.855  1.00  0.00    -0.353 N 
ATOM     76  C   UNL     1       9.438   4.837 -10.390  1.00  0.00     0.223 C 
ATOM     77  H   UNL     1       8.901   2.928 -10.462  1.00  0.00     0.163 HD
ATOM     78  O   UNL     1       9.863   4.780 -11.544  1.00  0.00    -0.275 OA
BRANCH  76  79
ATOM     79  C   UNL     1       9.453   6.124  -9.584  1.00  0.00     0.083 C 
ATOM     80  C   UNL     1       8.181   6.930  -9.861  1.00  0.00     0.042 C 
ATOM     81  C   UNL     1      10.686   6.965  -9.932  1.00  0.00     0.042 C 
ATOM     82  C   UNL     1       8.250   8.291  -9.181  1.00  0.00     0.161 C 
ATOM     83  C   UNL     1      10.623   8.305  -9.215  1.00  0.00     0.161 C 
ATOM     84  O   UNL     1       9.427   9.001  -9.564  1.00  0.00    -0.381 OA
ENDBRANCH  76  79
ENDBRANCH  74  75
ENDBRANCH  73  74
ENDBRANCH  66  69
ENDBRANCH  64  65
ENDBRANCH   1  64
TORSDOF 14
