REMARK SMILES O=C(NCCCCNC(=O)[C@@H]1C=C[C@H](NC(=O)c2ccc(Cl)cc2[N+](=O)[O-])C1)c1ccc(-c2c3nc(c(-c4c(F)cccc4F)c4ccc([nH]4)c(-c4c(F)cccc4F)c4nc(c(-c5c(F)cccc5F)c5ccc2[nH]5)C=C4)C=C3)cc1
REMARK SMILES IDX 6 1 5 2 4 3 3 4 1 5 2 6 29 8 30 9 82 10 31 11 81 12 32 13
REMARK SMILES IDX 33 14 34 15 75 16 35 17 80 18 74 19 76 20 36 21 79 22 73 23
REMARK SMILES IDX 72 24 37 26 63 27 46 28 62 29 47 30 50 31 61 32 77 33 48 34
REMARK SMILES IDX 49 35 60 37 78 38 51 39 38 40 39 41 44 42 40 43 41 44 43 45
REMARK SMILES IDX 45 46 42 47 64 48 65 49 70 50 66 51 67 52 69 53 71 54 68 55
REMARK SMILES IDX 52 56 53 57 58 58 54 59 55 60 57 61 59 62 56 63 7 64 8 65
REMARK SMILES IDX 9 66 10 68 11 69 12 70 28 71 13 72 14 73 15 74 16 75 17 77
REMARK SMILES IDX 18 78 19 79 24 80 20 81 23 82 21 83 22 84 25 85 26 86 27 87
REMARK H PARENT 3 7 76 25 50 36 8 67 15 76
REMARK Flexibility Score: inf
ROOT
ATOM      1  C   UNL     1      10.415  -2.462  -5.302  1.00  0.00     0.023 C 
ENDROOT
BRANCH   1   2
ATOM      2  C   UNL     1      11.537  -2.089  -6.282  1.00  0.00     0.023 C 
BRANCH   2   3
ATOM      3  C   UNL     1      12.067  -0.667  -6.135  1.00  0.00     0.116 C 
BRANCH   3   4
ATOM      4  N   UNL     1      12.674  -0.445  -4.830  1.00  0.00    -0.352 N 
ATOM      5  O   UNL     1      14.351  -0.319  -3.327  1.00  0.00    -0.269 OA
ATOM      6  C   UNL     1      13.993  -0.256  -4.502  1.00  0.00     0.251 C 
ATOM      7  H   UNL     1      12.046  -0.429  -4.072  1.00  0.00     0.163 HD
BRANCH   6   8
ATOM      8  C   UNL     1      14.984   0.017  -5.562  1.00  0.00     0.039 A 
ATOM      9  C   UNL     1      14.695   0.936  -6.572  1.00  0.00     0.014 A 
ATOM     10  C   UNL     1      16.222  -0.632  -5.535  1.00  0.00     0.014 A 
ATOM     11  C   UNL     1      15.578   1.097  -7.632  1.00  0.00     0.010 A 
ATOM     12  C   UNL     1      17.150  -0.396  -6.553  1.00  0.00     0.010 A 
ATOM     13  C   UNL     1      16.825   0.451  -7.624  1.00  0.00    -0.014 A 
BRANCH  13  14
ATOM     14  C   UNL     1      17.798   0.746  -8.706  1.00  0.00     0.031 A 
ATOM     15  C   UNL     1      18.260  -0.321  -9.657  1.00  0.00     0.074 A 
ATOM     16  C   UNL     1      18.247   2.010  -8.835  1.00  0.00     0.049 A 
ATOM     17  N   UNL     1      19.099  -0.222 -10.658  1.00  0.00    -0.248 NA
ATOM     18  C   UNL     1      17.721  -1.674  -9.457  1.00  0.00     0.031 C 
ATOM     19  C   UNL     1      17.878   3.127  -7.960  1.00  0.00     0.029 A 
ATOM     20  N   UNL     1      19.094   2.575  -9.752  1.00  0.00    -0.354 N 
ATOM     21  C   UNL     1      19.202  -1.498 -11.197  1.00  0.00     0.074 A 
ATOM     22  C   UNL     1      18.361  -2.361 -10.395  1.00  0.00     0.031 C 
ATOM     23  C   UNL     1      18.459   4.248  -8.408  1.00  0.00     0.029 A 
ATOM     24  C   UNL     1      19.296   3.919  -9.555  1.00  0.00     0.049 A 
ATOM     25  H   UNL     1      19.517   2.067 -10.481  1.00  0.00     0.167 HD
ATOM     26  C   UNL     1      19.927  -1.907 -12.267  1.00  0.00     0.037 A 
ATOM     27  C   UNL     1      20.087   4.790 -10.207  1.00  0.00     0.037 A 
ATOM     28  C   UNL     1      20.756  -1.036 -13.063  1.00  0.00     0.049 A 
ATOM     29  C   UNL     1      20.903   4.302 -11.366  1.00  0.00     0.074 A 
ATOM     30  C   UNL     1      21.501  -1.348 -14.188  1.00  0.00     0.029 A 
ATOM     31  N   UNL     1      20.957   0.314 -12.815  1.00  0.00    -0.354 N 
ATOM     32  N   UNL     1      20.961   3.101 -11.887  1.00  0.00    -0.248 NA
ATOM     33  C   UNL     1      21.765   5.289 -12.028  1.00  0.00     0.031 C 
ATOM     34  C   UNL     1      22.196  -0.201 -14.586  1.00  0.00     0.029 A 
ATOM     35  C   UNL     1      21.836   0.842 -13.748  1.00  0.00     0.049 A 
ATOM     36  H   UNL     1      20.538   0.823 -12.084  1.00  0.00     0.167 HD
ATOM     37  C   UNL     1      21.849   3.191 -12.950  1.00  0.00     0.074 A 
ATOM     38  C   UNL     1      22.287   4.570 -13.012  1.00  0.00     0.031 C 
ATOM     39  C   UNL     1      22.265   2.218 -13.797  1.00  0.00     0.037 A 
BRANCH  26  40
ATOM     40  C   UNL     1      19.880  -3.364 -12.630  1.00  0.00     0.057 A 
ATOM     41  C   UNL     1      18.738  -3.955 -13.187  1.00  0.00     0.134 A 
ATOM     42  C   UNL     1      21.012  -4.175 -12.473  1.00  0.00     0.134 A 
ATOM     43  F   UNL     1      17.616  -3.240 -13.357  1.00  0.00    -0.206 F 
ATOM     44  C   UNL     1      18.718  -5.303 -13.555  1.00  0.00     0.040 A 
ATOM     45  C   UNL     1      21.012  -5.516 -12.862  1.00  0.00     0.040 A 
ATOM     46  F   UNL     1      22.143  -3.673 -11.954  1.00  0.00    -0.206 F 
ATOM     47  C   UNL     1      19.860  -6.085 -13.400  1.00  0.00     0.006 A 
ENDBRANCH  26  40
BRANCH  27  48
ATOM     48  C   UNL     1      20.151   6.204  -9.761  1.00  0.00     0.057 A 
ATOM     49  C   UNL     1      19.642   7.240 -10.552  1.00  0.00     0.134 A 
ATOM     50  C   UNL     1      20.715   6.553  -8.526  1.00  0.00     0.134 A 
ATOM     51  F   UNL     1      19.103   6.971 -11.750  1.00  0.00    -0.206 F 
ATOM     52  C   UNL     1      19.705   8.572 -10.140  1.00  0.00     0.040 A 
ATOM     53  C   UNL     1      20.756   7.876  -8.088  1.00  0.00     0.040 A 
ATOM     54  F   UNL     1      21.210   5.605  -7.716  1.00  0.00    -0.206 F 
ATOM     55  C   UNL     1      20.258   8.892  -8.901  1.00  0.00     0.006 A 
ENDBRANCH  27  48
BRANCH  39  56
ATOM     56  C   UNL     1      23.217   2.623 -14.884  1.00  0.00     0.057 A 
ATOM     57  C   UNL     1      24.548   2.967 -14.615  1.00  0.00     0.134 A 
ATOM     58  C   UNL     1      22.801   2.650 -16.221  1.00  0.00     0.134 A 
ATOM     59  F   UNL     1      25.006   2.977 -13.354  1.00  0.00    -0.206 F 
ATOM     60  C   UNL     1      25.422   3.351 -15.633  1.00  0.00     0.040 A 
ATOM     61  C   UNL     1      23.674   3.002 -17.251  1.00  0.00     0.040 A 
ATOM     62  F   UNL     1      21.541   2.325 -16.550  1.00  0.00    -0.206 F 
ATOM     63  C   UNL     1      24.987   3.362 -16.957  1.00  0.00     0.006 A 
ENDBRANCH  39  56
ENDBRANCH  13  14
ENDBRANCH   6   8
ENDBRANCH   3   4
ENDBRANCH   2   3
ENDBRANCH   1   2
BRANCH   1  64
ATOM     64  C   UNL     1       9.119  -1.661  -5.472  1.00  0.00     0.116 C 
BRANCH  64  65
ATOM     65  N   UNL     1       8.510  -1.986  -6.746  1.00  0.00    -0.356 N 
ATOM     66  C   UNL     1       7.280  -2.478  -7.053  1.00  0.00     0.227 C 
ATOM     67  H   UNL     1       9.088  -1.821  -7.526  1.00  0.00     0.163 HD
ATOM     68  O   UNL     1       7.162  -2.951  -8.187  1.00  0.00    -0.274 OA
BRANCH  66  69
ATOM     69  C   UNL     1       6.099  -2.331  -6.087  1.00  0.00     0.103 C 
ATOM     70  C   UNL     1       5.013  -3.294  -6.464  1.00  0.00    -0.016 C 
ATOM     71  C   UNL     1       5.338  -0.992  -6.202  1.00  0.00     0.047 C 
ATOM     72  C   UNL     1       3.981  -2.683  -7.062  1.00  0.00    -0.006 C 
ATOM     73  C   UNL     1       4.174  -1.192  -7.196  1.00  0.00     0.106 C 
BRANCH  73  74
ATOM     74  N   UNL     1       4.263  -0.922  -8.639  1.00  0.00    -0.346 N 
ATOM     75  C   UNL     1       4.665   0.106  -9.466  1.00  0.00     0.258 C 
ATOM     76  H   UNL     1       3.947  -1.693  -9.164  1.00  0.00     0.164 HD
ATOM     77  O   UNL     1       4.165   0.191 -10.585  1.00  0.00    -0.269 OA
BRANCH  75  78
ATOM     78  C   UNL     1       5.774   1.026  -9.142  1.00  0.00     0.117 A 
ATOM     79  C   UNL     1       6.878   0.478  -8.504  1.00  0.00     0.022 A 
ATOM     80  C   UNL     1       5.919   2.334  -9.606  1.00  0.00     0.283 A 
ATOM     81  C   UNL     1       7.975   1.237  -8.104  1.00  0.00     0.022 A 
ATOM     82  C   UNL     1       7.049   3.114  -9.278  1.00  0.00     0.107 A 
ATOM     83  C   UNL     1       8.049   2.567  -8.481  1.00  0.00     0.047 A 
ATOM     84  Cl  UNL     1       9.405   3.501  -7.998  1.00  0.00    -0.084 Cl
BRANCH  80  85
ATOM     85  N   UNL     1       4.944   2.937 -10.492  1.00  0.00     0.063 N 
ATOM     86  O   UNL     1       5.382   3.420 -11.548  1.00  0.00    -0.258 OA
ATOM     87  O   UNL     1       3.784   3.035 -10.077  1.00  0.00    -0.258 OA
ENDBRANCH  80  85
ENDBRANCH  75  78
ENDBRANCH  73  74
ENDBRANCH  66  69
ENDBRANCH  64  65
ENDBRANCH   1  64
TORSDOF 14
