REMARK SMILES O=C(C[C@H]1C[N@@H+](Cc2c(F)cccc2F)CCO1)NCCCCNC(=O)c1ccc(-c2c3nc(c(-c4c(F)cccc4F)c4ccc([nH]4)c(-c4c(F)cccc4F)c4nc(c(-c5c(F)cccc5F)c5ccc2[nH]5)C=C4)C=C3)cc1
REMARK SMILES IDX 21 1 20 2 19 3 1 4 2 5 3 7 4 8 5 9 18 10 6 11 17 12 16 13
REMARK SMILES IDX 7 15 8 16 9 17 14 18 10 19 11 20 13 21 15 22 12 23 22 24
REMARK SMILES IDX 23 25 24 26 25 27 26 29 27 30 28 31 80 32 29 33 79 34 30 35
REMARK SMILES IDX 31 36 32 37 73 38 33 39 78 40 72 41 74 42 34 43 77 44 71 45
REMARK SMILES IDX 70 46 35 48 61 49 44 50 60 51 45 52 48 53 59 54 75 55 46 56
REMARK SMILES IDX 47 57 58 59 76 60 49 61 36 62 37 63 42 64 38 65 39 66 41 67
REMARK SMILES IDX 43 68 40 69 62 70 63 71 68 72 64 73 65 74 67 75 69 76 66 77
REMARK SMILES IDX 50 78 51 79 56 80 52 81 53 82 55 83 57 84 54 85
REMARK H PARENT 19 6 6 14 24 28 74 47 48 58
REMARK Flexibility Score: inf
ROOT
ATOM      1  C   UNL     1       8.968   0.090  -4.041  1.00  0.00     0.023 C 
ENDROOT
BRANCH   1   2
ATOM      2  C   UNL     1       7.914  -0.821  -3.401  1.00  0.00     0.116 C 
BRANCH   2   3
ATOM      3  N   UNL     1       6.669  -0.145  -3.100  1.00  0.00    -0.356 N 
ATOM      4  O   UNL     1       5.439  -2.030  -2.698  1.00  0.00    -0.275 OA
ATOM      5  C   UNL     1       5.524  -0.807  -2.718  1.00  0.00     0.222 C 
ATOM      6  H   UNL     1       6.641   0.836  -3.173  1.00  0.00     0.163 HD
BRANCH   5   7
ATOM      7  C   UNL     1       4.370   0.091  -2.298  1.00  0.00     0.138 C 
BRANCH   7   8
ATOM      8  C   UNL     1       4.595   0.714  -0.919  1.00  0.00     0.182 C 
ATOM      9  C   UNL     1       5.788   1.694  -0.785  1.00  0.00     0.295 C 
ATOM     10  O   UNL     1       3.378   1.309  -0.412  1.00  0.00    -0.366 OA
ATOM     11  N   UNL     1       5.561   3.074  -1.214  1.00  0.00    -0.327 N 
ATOM     12  C   UNL     1       3.137   2.644  -0.882  1.00  0.00     0.222 C 
ATOM     13  C   UNL     1       4.328   3.576  -0.616  1.00  0.00     0.291 C 
ATOM     14  H   UNL     1       6.352   3.592  -0.830  1.00  0.00     0.348 HD
BRANCH  11  15
ATOM     15  C   UNL     1       5.920   3.526  -2.561  1.00  0.00     0.305 C 
BRANCH  15  16
ATOM     16  C   UNL     1       4.914   3.477  -3.684  1.00  0.00     0.078 A 
ATOM     17  C   UNL     1       3.885   4.414  -3.790  1.00  0.00     0.135 A 
ATOM     18  C   UNL     1       5.001   2.539  -4.716  1.00  0.00     0.135 A 
ATOM     19  F   UNL     1       3.819   5.439  -2.930  1.00  0.00    -0.206 F 
ATOM     20  C   UNL     1       2.906   4.332  -4.782  1.00  0.00     0.040 A 
ATOM     21  C   UNL     1       4.026   2.426  -5.709  1.00  0.00     0.040 A 
ATOM     22  F   UNL     1       6.044   1.703  -4.764  1.00  0.00    -0.206 F 
ATOM     23  C   UNL     1       2.958   3.315  -5.729  1.00  0.00     0.006 A 
ENDBRANCH  15  16
ENDBRANCH  11  15
ENDBRANCH   7   8
ENDBRANCH   5   7
ENDBRANCH   2   3
ENDBRANCH   1   2
BRANCH   1  24
ATOM     24  C   UNL     1       9.415   1.328  -3.250  1.00  0.00     0.023 C 
BRANCH  24  25
ATOM     25  C   UNL     1       9.865   1.116  -1.807  1.00  0.00     0.116 C 
BRANCH  25  26
ATOM     26  N   UNL     1      11.170   0.487  -1.726  1.00  0.00    -0.352 N 
ATOM     27  C   UNL     1      12.328   0.903  -1.113  1.00  0.00     0.251 C 
ATOM     28  H   UNL     1      11.238  -0.381  -2.187  1.00  0.00     0.163 HD
ATOM     29  O   UNL     1      13.370   0.294  -1.342  1.00  0.00    -0.269 OA
BRANCH  27  30
ATOM     30  C   UNL     1      12.364   2.070  -0.191  1.00  0.00     0.039 A 
ATOM     31  C   UNL     1      13.499   2.892  -0.210  1.00  0.00     0.014 A 
ATOM     32  C   UNL     1      11.360   2.320   0.748  1.00  0.00     0.014 A 
ATOM     33  C   UNL     1      13.609   3.974   0.672  1.00  0.00     0.010 A 
ATOM     34  C   UNL     1      11.446   3.432   1.596  1.00  0.00     0.010 A 
ATOM     35  C   UNL     1      12.573   4.269   1.571  1.00  0.00    -0.014 A 
BRANCH  35  36
ATOM     36  C   UNL     1      12.659   5.444   2.485  1.00  0.00     0.031 A 
ATOM     37  C   UNL     1      12.761   5.255   3.975  1.00  0.00     0.074 A 
ATOM     38  C   UNL     1      12.612   6.692   1.980  1.00  0.00     0.049 A 
ATOM     39  N   UNL     1      12.778   6.159   4.924  1.00  0.00    -0.248 NA
ATOM     40  C   UNL     1      12.841   3.871   4.464  1.00  0.00     0.031 C 
ATOM     41  C   UNL     1      12.499   7.026   0.560  1.00  0.00     0.029 A 
ATOM     42  N   UNL     1      12.646   7.915   2.607  1.00  0.00    -0.354 N 
ATOM     43  C   UNL     1      12.856   5.455   6.120  1.00  0.00     0.074 A 
ATOM     44  C   UNL     1      12.848   4.048   5.779  1.00  0.00     0.031 C 
ATOM     45  C   UNL     1      12.492   8.361   0.422  1.00  0.00     0.029 A 
ATOM     46  C   UNL     1      12.562   8.980   1.743  1.00  0.00     0.049 A 
ATOM     47  H   UNL     1      12.723   8.018   3.583  1.00  0.00     0.167 HD
ATOM     48  C   UNL     1      12.944   5.934   7.384  1.00  0.00     0.037 A 
ATOM     49  C   UNL     1      12.535  10.306   1.982  1.00  0.00     0.037 A 
ATOM     50  C   UNL     1      12.980   7.332   7.731  1.00  0.00     0.049 A 
ATOM     51  C   UNL     1      12.611  10.813   3.394  1.00  0.00     0.074 A 
ATOM     52  C   UNL     1      13.115   7.904   8.986  1.00  0.00     0.029 A 
ATOM     53  N   UNL     1      12.884   8.376   6.825  1.00  0.00    -0.354 N 
ATOM     54  N   UNL     1      12.716  10.134   4.510  1.00  0.00    -0.248 NA
ATOM     55  C   UNL     1      12.564  12.271   3.581  1.00  0.00     0.031 C 
ATOM     56  C   UNL     1      13.065   9.294   8.842  1.00  0.00     0.029 A 
ATOM     57  C   UNL     1      12.939   9.588   7.495  1.00  0.00     0.049 A 
ATOM     58  H   UNL     1      12.791   8.272   5.851  1.00  0.00     0.167 HD
ATOM     59  C   UNL     1      12.768  11.079   5.527  1.00  0.00     0.074 A 
ATOM     60  C   UNL     1      12.694  12.380   4.897  1.00  0.00     0.031 C 
ATOM     61  C   UNL     1      12.867  10.880   6.863  1.00  0.00     0.037 A 
BRANCH  48  62
ATOM     62  C   UNL     1      13.014   4.936   8.503  1.00  0.00     0.057 A 
ATOM     63  C   UNL     1      11.934   4.766   9.380  1.00  0.00     0.134 A 
ATOM     64  C   UNL     1      14.173   4.191   8.751  1.00  0.00     0.134 A 
ATOM     65  F   UNL     1      10.798   5.458   9.204  1.00  0.00    -0.206 F 
ATOM     66  C   UNL     1      12.009   3.894  10.467  1.00  0.00     0.040 A 
ATOM     67  C   UNL     1      14.251   3.299   9.822  1.00  0.00     0.040 A 
ATOM     68  F   UNL     1      15.239   4.304   7.944  1.00  0.00    -0.206 F 
ATOM     69  C   UNL     1      13.169   3.155  10.688  1.00  0.00     0.006 A 
ENDBRANCH  48  62
BRANCH  49  70
ATOM     70  C   UNL     1      12.449  11.254   0.844  1.00  0.00     0.057 A 
ATOM     71  C   UNL     1      11.270  11.408   0.105  1.00  0.00     0.134 A 
ATOM     72  C   UNL     1      13.556  12.021   0.463  1.00  0.00     0.134 A 
ATOM     73  F   UNL     1      10.176  10.699   0.421  1.00  0.00    -0.206 F 
ATOM     74  C   UNL     1      11.199  12.278  -0.983  1.00  0.00     0.040 A 
ATOM     75  C   UNL     1      13.493  12.911  -0.610  1.00  0.00     0.040 A 
ATOM     76  F   UNL     1      14.706  11.932   1.148  1.00  0.00    -0.206 F 
ATOM     77  C   UNL     1      12.313  13.036  -1.341  1.00  0.00     0.006 A 
ENDBRANCH  49  70
BRANCH  61  78
ATOM     78  C   UNL     1      12.922  12.093   7.743  1.00  0.00     0.057 A 
ATOM     79  C   UNL     1      14.116  12.466   8.373  1.00  0.00     0.134 A 
ATOM     80  C   UNL     1      11.779  12.854   8.017  1.00  0.00     0.134 A 
ATOM     81  F   UNL     1      15.245  11.773   8.158  1.00  0.00    -0.206 F 
ATOM     82  C   UNL     1      14.169  13.547   9.254  1.00  0.00     0.040 A 
ATOM     83  C   UNL     1      11.825  13.951   8.880  1.00  0.00     0.040 A 
ATOM     84  F   UNL     1      10.608  12.556   7.436  1.00  0.00    -0.206 F 
ATOM     85  C   UNL     1      13.021  14.294   9.508  1.00  0.00     0.006 A 
ENDBRANCH  61  78
ENDBRANCH  35  36
ENDBRANCH  27  30
ENDBRANCH  25  26
ENDBRANCH  24  25
ENDBRANCH   1  24
TORSDOF 14
