REMARK SMILES CCCCCCNC(=O)Oc1cccc(-c2ccc([C@@H](C)C(=O)NCCCCNC(=O)c3ccc(-c4c5nc(c(-c6c(F)cccc6F)c6ccc([nH]6)c(-c6c(F)cccc6F)c6nc(c(-c7c(F)cccc7F)c7ccc4[nH]7)C=C6)C=C5)cc3)cc2N)c1
REMARK SMILES IDX 20 1 21 2 19 3 16 4 17 5 87 6 18 7 86 8 15 9 11 10 12 11
REMARK SMILES IDX 89 12 13 13 14 14 10 15 8 16 7 17 9 19 6 20 5 21 4 22 3 23
REMARK SMILES IDX 2 24 1 25 88 26 22 29 23 30 24 31 25 33 26 34 27 35 28 36
REMARK SMILES IDX 29 37 30 38 31 40 32 41 33 42 85 43 34 44 84 45 35 46 36 47
REMARK SMILES IDX 37 48 78 49 38 50 83 51 77 52 79 53 39 54 82 55 76 56 75 57
REMARK SMILES IDX 40 59 66 60 49 61 65 62 50 63 53 64 64 65 80 66 51 67 52 68
REMARK SMILES IDX 63 70 81 71 54 72 41 73 42 74 47 75 43 76 44 77 46 78 48 79
REMARK SMILES IDX 45 80 67 81 68 82 73 83 69 84 70 85 72 86 74 87 71 88 55 89
REMARK SMILES IDX 56 90 61 91 57 92 58 93 60 94 62 95 59 96
REMARK H PARENT 7 18 88 27 88 28 24 32 29 39 79 58 53 69
REMARK Flexibility Score: inf
ROOT
ATOM      1  C   UNL     1      -5.042   5.230 -12.561  1.00  0.00     0.105 C 
ATOM      2  C   UNL     1      -6.214   5.687 -13.429  1.00  0.00     0.023 C 
ENDROOT
BRANCH   1   3
ATOM      3  C   UNL     1      -5.282   5.261 -11.059  1.00  0.00    -0.034 A 
ATOM      4  C   UNL     1      -5.456   5.328  -8.207  1.00  0.00     0.005 A 
ATOM      5  C   UNL     1      -5.895   6.399  -9.008  1.00  0.00     0.011 A 
ATOM      6  C   UNL     1      -5.042   4.151  -8.872  1.00  0.00     0.040 A 
ATOM      7  C   UNL     1      -5.864   6.343 -10.405  1.00  0.00     0.005 A 
ATOM      8  C   UNL     1      -4.881   4.169 -10.271  1.00  0.00     0.030 A 
BRANCH   4   9
ATOM      9  C   UNL     1      -5.454   5.490  -6.729  1.00  0.00    -0.013 A 
ATOM     10  C   UNL     1      -4.403   5.210  -4.550  1.00  0.00     0.133 A 
ATOM     11  C   UNL     1      -5.478   5.823  -3.914  1.00  0.00     0.047 A 
ATOM     12  C   UNL     1      -4.374   5.056  -5.938  1.00  0.00     0.056 A 
ATOM     13  C   UNL     1      -6.539   6.293  -4.679  1.00  0.00     0.004 A 
ATOM     14  C   UNL     1      -6.531   6.115  -6.066  1.00  0.00     0.009 A 
BRANCH  10  15
ATOM     15  O   UNL     1      -3.437   4.617  -3.721  1.00  0.00    -0.410 OA
BRANCH  15  16
ATOM     16  C   UNL     1      -2.095   4.893  -3.934  1.00  0.00     0.412 C 
ATOM     17  N   UNL     1      -1.270   4.170  -3.114  1.00  0.00    -0.321 N 
ATOM     18  H   UNL     1      -0.303   4.328  -3.212  1.00  0.00     0.167 HD
ATOM     19  O   UNL     1      -1.643   5.696  -4.739  1.00  0.00    -0.224 OA
BRANCH  17  20
ATOM     20  C   UNL     1      -1.672   3.196  -2.118  1.00  0.00     0.119 C 
BRANCH  20  21
ATOM     21  C   UNL     1      -1.072   1.816  -2.386  1.00  0.00     0.021 C 
BRANCH  21  22
ATOM     22  C   UNL     1       0.457   1.748  -2.291  1.00  0.00     0.002 C 
BRANCH  22  23
ATOM     23  C   UNL     1       1.055   2.171  -0.944  1.00  0.00    -0.000 C 
BRANCH  23  24
ATOM     24  C   UNL     1       0.565   1.381   0.272  1.00  0.00    -0.003 C 
ATOM     25  C   UNL     1       0.923  -0.096   0.215  1.00  0.00     0.004 C 
ENDBRANCH  23  24
ENDBRANCH  22  23
ENDBRANCH  21  22
ENDBRANCH  20  21
ENDBRANCH  17  20
ENDBRANCH  15  16
ENDBRANCH  10  15
ENDBRANCH   4   9
BRANCH   6  26
ATOM     26  N   UNL     1      -4.670   2.991  -8.189  1.00  0.00    -0.398 N 
ATOM     27  H   UNL     1      -4.769   2.943  -7.210  1.00  0.00     0.156 HD
ATOM     28  H   UNL     1      -4.310   2.221  -8.685  1.00  0.00     0.156 HD
ENDBRANCH   6  26
ENDBRANCH   1   3
BRANCH   1  29
ATOM     29  C   UNL     1      -3.683   5.808 -12.989  1.00  0.00     0.227 C 
ATOM     30  O   UNL     1      -2.783   5.048 -13.370  1.00  0.00    -0.274 OA
ATOM     31  N   UNL     1      -3.392   7.138 -13.008  1.00  0.00    -0.356 N 
ATOM     32  H   UNL     1      -2.507   7.353 -13.382  1.00  0.00     0.163 HD
BRANCH  31  33
ATOM     33  C   UNL     1      -4.150   8.293 -12.576  1.00  0.00     0.116 C 
BRANCH  33  34
ATOM     34  C   UNL     1      -3.787   8.719 -11.152  1.00  0.00     0.023 C 
BRANCH  34  35
ATOM     35  C   UNL     1      -2.608   9.681 -11.046  1.00  0.00     0.023 C 
BRANCH  35  36
ATOM     36  C   UNL     1      -2.804  11.024 -11.737  1.00  0.00     0.116 C 
BRANCH  36  37
ATOM     37  N   UNL     1      -3.967  11.771 -11.277  1.00  0.00    -0.352 N 
ATOM     38  C   UNL     1      -4.122  13.137 -11.211  1.00  0.00     0.251 C 
ATOM     39  H   UNL     1      -4.735  11.233 -10.977  1.00  0.00     0.163 HD
ATOM     40  O   UNL     1      -5.136  13.634 -10.736  1.00  0.00    -0.269 OA
BRANCH  38  41
ATOM     41  C   UNL     1      -3.016  13.998 -11.678  1.00  0.00     0.039 A 
ATOM     42  C   UNL     1      -2.509  14.973 -10.818  1.00  0.00     0.014 A 
ATOM     43  C   UNL     1      -2.433  13.780 -12.929  1.00  0.00     0.014 A 
ATOM     44  C   UNL     1      -1.358  15.676 -11.179  1.00  0.00     0.010 A 
ATOM     45  C   UNL     1      -1.245  14.423 -13.252  1.00  0.00     0.010 A 
ATOM     46  C   UNL     1      -0.693  15.374 -12.379  1.00  0.00    -0.014 A 
BRANCH  46  47
ATOM     47  C   UNL     1       0.579  16.042 -12.750  1.00  0.00     0.031 A 
ATOM     48  C   UNL     1       0.639  16.897 -13.985  1.00  0.00     0.074 A 
ATOM     49  C   UNL     1       1.693  15.818 -12.025  1.00  0.00     0.049 A 
ATOM     50  N   UNL     1       1.672  17.474 -14.543  1.00  0.00    -0.248 NA
ATOM     51  C   UNL     1      -0.628  17.106 -14.706  1.00  0.00     0.031 C 
ATOM     52  C   UNL     1       1.777  14.971 -10.834  1.00  0.00     0.029 A 
ATOM     53  N   UNL     1       2.976  16.276 -12.195  1.00  0.00    -0.354 N 
ATOM     54  C   UNL     1       1.184  18.096 -15.685  1.00  0.00     0.074 A 
ATOM     55  C   UNL     1      -0.225  17.782 -15.771  1.00  0.00     0.031 C 
ATOM     56  C   UNL     1       3.037  14.988 -10.369  1.00  0.00     0.029 A 
ATOM     57  C   UNL     1       3.857  15.815 -11.248  1.00  0.00     0.049 A 
ATOM     58  H   UNL     1       3.240  16.879 -12.928  1.00  0.00     0.167 HD
ATOM     59  C   UNL     1       1.843  18.883 -16.567  1.00  0.00     0.037 A 
ATOM     60  C   UNL     1       5.180  16.030 -11.110  1.00  0.00     0.037 A 
ATOM     61  C   UNL     1       3.236  19.224 -16.461  1.00  0.00     0.049 A 
ATOM     62  C   UNL     1       5.887  16.910 -12.104  1.00  0.00     0.074 A 
ATOM     63  C   UNL     1       3.987  20.047 -17.281  1.00  0.00     0.029 A 
ATOM     64  N   UNL     1       4.086  18.765 -15.466  1.00  0.00    -0.354 N 
ATOM     65  N   UNL     1       5.401  17.533 -13.150  1.00  0.00    -0.248 NA
ATOM     66  C   UNL     1       7.327  17.120 -11.896  1.00  0.00     0.031 C 
ATOM     67  C   UNL     1       5.299  20.066 -16.797  1.00  0.00     0.029 A 
ATOM     68  C   UNL     1       5.355  19.284 -15.655  1.00  0.00     0.049 A 
ATOM     69  H   UNL     1       3.825  18.160 -14.735  1.00  0.00     0.167 HD
ATOM     70  C   UNL     1       6.465  18.235 -13.702  1.00  0.00     0.074 A 
ATOM     71  C   UNL     1       7.620  17.970 -12.870  1.00  0.00     0.031 C 
ATOM     72  C   UNL     1       6.484  19.028 -14.800  1.00  0.00     0.037 A 
BRANCH  59  73
ATOM     73  C   UNL     1       1.057  19.446 -17.713  1.00  0.00     0.057 A 
ATOM     74  C   UNL     1       0.106  20.457 -17.522  1.00  0.00     0.134 A 
ATOM     75  C   UNL     1       1.277  19.004 -19.023  1.00  0.00     0.134 A 
ATOM     76  F   UNL     1      -0.163  20.914 -16.290  1.00  0.00    -0.206 F 
ATOM     77  C   UNL     1      -0.613  20.994 -18.591  1.00  0.00     0.040 A 
ATOM     78  C   UNL     1       0.583  19.550 -20.103  1.00  0.00     0.040 A 
ATOM     79  F   UNL     1       2.177  18.041 -19.275  1.00  0.00    -0.206 F 
ATOM     80  C   UNL     1      -0.369  20.545 -19.887  1.00  0.00     0.006 A 
ENDBRANCH  59  73
BRANCH  60  81
ATOM     81  C   UNL     1       5.926  15.425  -9.978  1.00  0.00     0.057 A 
ATOM     82  C   UNL     1       6.428  16.221  -8.940  1.00  0.00     0.134 A 
ATOM     83  C   UNL     1       6.187  14.052  -9.920  1.00  0.00     0.134 A 
ATOM     84  F   UNL     1       6.227  17.547  -8.950  1.00  0.00    -0.206 F 
ATOM     85  C   UNL     1       7.186  15.678  -7.902  1.00  0.00     0.040 A 
ATOM     86  C   UNL     1       6.923  13.491  -8.874  1.00  0.00     0.040 A 
ATOM     87  F   UNL     1       5.730  13.234 -10.880  1.00  0.00    -0.206 F 
ATOM     88  C   UNL     1       7.433  14.307  -7.866  1.00  0.00     0.006 A 
ENDBRANCH  60  81
BRANCH  72  89
ATOM     89  C   UNL     1       7.779  19.707 -15.134  1.00  0.00     0.057 A 
ATOM     90  C   UNL     1       8.860  19.009 -15.682  1.00  0.00     0.134 A 
ATOM     91  C   UNL     1       7.925  21.088 -14.946  1.00  0.00     0.134 A 
ATOM     92  F   UNL     1       8.787  17.683 -15.875  1.00  0.00    -0.206 F 
ATOM     93  C   UNL     1      10.051  19.657 -16.015  1.00  0.00     0.040 A 
ATOM     94  C   UNL     1       9.101  21.750 -15.296  1.00  0.00     0.040 A 
ATOM     95  F   UNL     1       6.921  21.815 -14.432  1.00  0.00    -0.206 F 
ATOM     96  C   UNL     1      10.170  21.033 -15.828  1.00  0.00     0.006 A 
ENDBRANCH  72  89
ENDBRANCH  46  47
ENDBRANCH  38  41
ENDBRANCH  36  37
ENDBRANCH  35  36
ENDBRANCH  34  35
ENDBRANCH  33  34
ENDBRANCH  31  33
ENDBRANCH   1  29
TORSDOF 21
