REMARK SMILES Cn1cc(C(=O)NCCCCNC(=O)c2ccc(-c3c4nc(c(-c5c(F)cccc5F)c5ccc([nH]5)c(-c5c(F)cccc5F)c5nc(c(-c6c(F)cccc6F)c6ccc3[nH]6)C=C5)C=C4)cc2)c(C(=O)Nc2ccc(-n3cncn3)cc2)n1
REMARK SMILES IDX 9 1 8 2 7 3 5 4 6 5 4 7 1 8 2 9 3 10 84 11 69 12 70 13 71 14
REMARK SMILES IDX 72 15 73 17 74 18 83 19 75 20 82 21 76 22 77 23 78 24 81 25
REMARK SMILES IDX 79 26 80 27 10 28 11 29 12 30 13 31 14 33 15 34 16 35 68 36
REMARK SMILES IDX 17 37 67 38 18 39 19 40 20 41 61 42 21 43 66 44 60 45 62 46
REMARK SMILES IDX 22 47 65 48 59 49 58 50 23 52 49 53 32 54 48 55 33 56 36 57
REMARK SMILES IDX 47 58 63 59 34 60 35 61 46 63 64 64 37 65 24 66 25 67 30 68
REMARK SMILES IDX 26 69 27 70 29 71 31 72 28 73 50 74 51 75 56 76 52 77 53 78
REMARK SMILES IDX 55 79 57 80 54 81 38 82 39 83 44 84 40 85 41 86 43 87 45 88
REMARK SMILES IDX 42 89
REMARK H PARENT 7 6 72 16 12 32 62 51 36 62
REMARK Flexibility Score: inf
ROOT
ATOM      1  C   UNL     1       0.307  -4.219  -0.368  1.00  0.00     0.023 C 
ENDROOT
BRANCH   1   2
ATOM      2  C   UNL     1       0.249  -3.848   1.113  1.00  0.00     0.116 C 
BRANCH   2   3
ATOM      3  N   UNL     1       1.316  -2.993   1.592  1.00  0.00    -0.352 N 
ATOM      4  C   UNL     1       1.557  -1.646   1.476  1.00  0.00     0.255 C 
ATOM      5  O   UNL     1       2.438  -1.184   2.205  1.00  0.00    -0.269 OA
ATOM      6  H   UNL     1       2.006  -3.474   2.104  1.00  0.00     0.163 HD
BRANCH   4   7
ATOM      7  C   UNL     1       0.846  -0.807   0.524  1.00  0.00     0.090 A 
ATOM      8  C   UNL     1      -1.877   0.455  -1.491  1.00  0.00     0.173 C 
ATOM      9  N   UNL     1      -0.656   0.134  -0.790  1.00  0.00    -0.274 N 
ATOM     10  C   UNL     1      -0.435  -0.938   0.019  1.00  0.00     0.123 A 
ATOM     11  N   UNL     1       0.384   0.966  -0.870  1.00  0.00    -0.167 NA
ATOM     12  C   UNL     1       1.302   0.447  -0.029  1.00  0.00     0.163 A 
BRANCH  12  13
ATOM     13  C   UNL     1       2.526   1.212   0.275  1.00  0.00     0.276 C 
ATOM     14  O   UNL     1       2.471   2.399   0.612  1.00  0.00    -0.267 OA
ATOM     15  N   UNL     1       3.766   0.613   0.276  1.00  0.00    -0.321 N 
ATOM     16  H   UNL     1       4.457   1.129   0.752  1.00  0.00     0.170 HD
BRANCH  15  17
ATOM     17  C   UNL     1       4.232  -0.588  -0.271  1.00  0.00     0.041 A 
ATOM     18  C   UNL     1       5.372  -1.148   0.313  1.00  0.00     0.028 A 
ATOM     19  C   UNL     1       3.641  -1.228  -1.359  1.00  0.00     0.028 A 
ATOM     20  C   UNL     1       5.857  -2.387  -0.114  1.00  0.00     0.030 A 
ATOM     21  C   UNL     1       4.146  -2.454  -1.819  1.00  0.00     0.030 A 
ATOM     22  C   UNL     1       5.229  -3.061  -1.168  1.00  0.00     0.067 A 
BRANCH  22  23
ATOM     23  N   UNL     1       5.673  -4.362  -1.525  1.00  0.00    -0.221 N 
ATOM     24  C   UNL     1       5.199  -5.201  -2.505  1.00  0.00     0.225 A 
ATOM     25  N   UNL     1       6.646  -5.006  -0.830  1.00  0.00    -0.155 NA
ATOM     26  N   UNL     1       5.812  -6.362  -2.459  1.00  0.00    -0.223 NA
ATOM     27  C   UNL     1       6.692  -6.193  -1.435  1.00  0.00     0.246 A 
ENDBRANCH  22  23
ENDBRANCH  15  17
ENDBRANCH  12  13
ENDBRANCH   4   7
ENDBRANCH   2   3
ENDBRANCH   1   2
BRANCH   1  28
ATOM     28  C   UNL     1       1.543  -4.996  -0.826  1.00  0.00     0.023 C 
BRANCH  28  29
ATOM     29  C   UNL     1       1.927  -6.234  -0.021  1.00  0.00     0.116 C 
BRANCH  29  30
ATOM     30  N   UNL     1       0.838  -7.171   0.159  1.00  0.00    -0.352 N 
ATOM     31  C   UNL     1       0.846  -8.538   0.276  1.00  0.00     0.251 C 
ATOM     32  H   UNL     1      -0.056  -6.760   0.205  1.00  0.00     0.163 HD
ATOM     33  O   UNL     1      -0.231  -9.120   0.394  1.00  0.00    -0.269 OA
BRANCH  31  34
ATOM     34  C   UNL     1       2.099  -9.334   0.226  1.00  0.00     0.039 A 
ATOM     35  C   UNL     1       2.039 -10.590  -0.396  1.00  0.00     0.014 A 
ATOM     36  C   UNL     1       3.299  -8.919   0.812  1.00  0.00     0.014 A 
ATOM     37  C   UNL     1       3.176 -11.398  -0.474  1.00  0.00     0.010 A 
ATOM     38  C   UNL     1       4.447  -9.711   0.704  1.00  0.00     0.010 A 
ATOM     39  C   UNL     1       4.393 -10.954   0.059  1.00  0.00    -0.014 A 
BRANCH  39  40
ATOM     40  C   UNL     1       5.612 -11.790  -0.051  1.00  0.00     0.031 A 
ATOM     41  C   UNL     1       6.144 -12.521   1.146  1.00  0.00     0.074 A 
ATOM     42  C   UNL     1       6.255 -11.877  -1.230  1.00  0.00     0.049 A 
ATOM     43  N   UNL     1       7.243 -13.222   1.261  1.00  0.00    -0.248 NA
ATOM     44  C   UNL     1       5.343 -12.444   2.377  1.00  0.00     0.031 C 
ATOM     45  C   UNL     1       5.854 -11.205  -2.467  1.00  0.00     0.029 A 
ATOM     46  N   UNL     1       7.385 -12.572  -1.576  1.00  0.00    -0.354 N 
ATOM     47  C   UNL     1       7.291 -13.633   2.585  1.00  0.00     0.074 A 
ATOM     48  C   UNL     1       6.099 -13.123   3.231  1.00  0.00     0.031 C 
ATOM     49  C   UNL     1       6.714 -11.540  -3.444  1.00  0.00     0.029 A 
ATOM     50  C   UNL     1       7.733 -12.431  -2.895  1.00  0.00     0.049 A 
ATOM     51  H   UNL     1       7.898 -13.119  -0.938  1.00  0.00     0.167 HD
ATOM     52  C   UNL     1       8.248 -14.358   3.209  1.00  0.00     0.037 A 
ATOM     53  C   UNL     1       8.760 -12.960  -3.584  1.00  0.00     0.037 A 
ATOM     54  C   UNL     1       9.415 -14.906   2.572  1.00  0.00     0.049 A 
ATOM     55  C   UNL     1       9.755 -13.839  -2.891  1.00  0.00     0.074 A 
ATOM     56  C   UNL     1      10.443 -15.643   3.135  1.00  0.00     0.029 A 
ATOM     57  N   UNL     1       9.695 -14.794   1.220  1.00  0.00    -0.354 N 
ATOM     58  N   UNL     1       9.811 -14.182  -1.628  1.00  0.00    -0.248 NA
ATOM     59  C   UNL     1      10.834 -14.399  -3.718  1.00  0.00     0.031 C 
ATOM     60  C   UNL     1      11.342 -15.988   2.117  1.00  0.00     0.029 A 
ATOM     61  C   UNL     1      10.870 -15.463   0.925  1.00  0.00     0.049 A 
ATOM     62  H   UNL     1       9.140 -14.311   0.567  1.00  0.00     0.167 HD
ATOM     63  C   UNL     1      10.935 -14.984  -1.504  1.00  0.00     0.074 A 
ATOM     64  C   UNL     1      11.526 -15.092  -2.823  1.00  0.00     0.031 C 
ATOM     65  C   UNL     1      11.439 -15.568  -0.391  1.00  0.00     0.037 A 
BRANCH  52  66
ATOM     66  C   UNL     1       8.073 -14.585   4.675  1.00  0.00     0.057 A 
ATOM     67  C   UNL     1       7.364 -15.687   5.163  1.00  0.00     0.134 A 
ATOM     68  C   UNL     1       8.632 -13.700   5.605  1.00  0.00     0.134 A 
ATOM     69  F   UNL     1       6.795 -16.559   4.317  1.00  0.00    -0.206 F 
ATOM     70  C   UNL     1       7.213 -15.901   6.534  1.00  0.00     0.040 A 
ATOM     71  C   UNL     1       8.491 -13.905   6.977  1.00  0.00     0.040 A 
ATOM     72  F   UNL     1       9.315 -12.621   5.192  1.00  0.00    -0.206 F 
ATOM     73  C   UNL     1       7.779 -15.009   7.444  1.00  0.00     0.006 A 
ENDBRANCH  52  66
BRANCH  53  74
ATOM     74  C   UNL     1       8.897 -12.666  -5.025  1.00  0.00     0.057 A 
ATOM     75  C   UNL     1       8.333 -13.511  -5.986  1.00  0.00     0.134 A 
ATOM     76  C   UNL     1       9.585 -11.534  -5.469  1.00  0.00     0.134 A 
ATOM     77  F   UNL     1       7.674 -14.617  -5.610  1.00  0.00    -0.206 F 
ATOM     78  C   UNL     1       8.450 -13.239  -7.348  1.00  0.00     0.040 A 
ATOM     79  C   UNL     1       9.706 -11.247  -6.829  1.00  0.00     0.040 A 
ATOM     80  F   UNL     1      10.149 -10.696  -4.587  1.00  0.00    -0.206 F 
ATOM     81  C   UNL     1       9.137 -12.102  -7.772  1.00  0.00     0.006 A 
ENDBRANCH  53  74
BRANCH  65  82
ATOM     82  C   UNL     1      12.690 -16.367  -0.557  1.00  0.00     0.057 A 
ATOM     83  C   UNL     1      13.948 -15.770  -0.426  1.00  0.00     0.134 A 
ATOM     84  C   UNL     1      12.639 -17.738  -0.830  1.00  0.00     0.134 A 
ATOM     85  F   UNL     1      14.055 -14.457  -0.174  1.00  0.00    -0.206 F 
ATOM     86  C   UNL     1      15.121 -16.513  -0.564  1.00  0.00     0.040 A 
ATOM     87  C   UNL     1      13.805 -18.492  -0.970  1.00  0.00     0.040 A 
ATOM     88  F   UNL     1      11.460 -18.360  -0.976  1.00  0.00    -0.206 F 
ATOM     89  C   UNL     1      15.051 -17.879  -0.836  1.00  0.00     0.006 A 
ENDBRANCH  65  82
ENDBRANCH  39  40
ENDBRANCH  31  34
ENDBRANCH  29  30
ENDBRANCH  28  29
ENDBRANCH   1  28
TORSDOF 14
