REMARK SMILES Cc1ccc(NC(=O)[C@@H]2[C@@H](C(=O)NCCCCNC(=O)c3ccc(-c4c5nc(c(-c6c(F)cccc6F)c6ccc([nH]6)c(-c6c(F)cccc6F)c6nc(c(-c7c(F)cccc7F)c7ccc4[nH]7)C=C6)C=C5)cc3)[C@@H]3C=C[C@H]2C3)cc1NC(=O)c1ccc(Cl)cc1
REMARK SMILES IDX 14 1 13 2 11 3 12 4 10 6 9 7 78 8 75 9 77 10 79 11 76 12
REMARK SMILES IDX 7 13 6 14 8 16 5 17 1 18 2 19 3 20 81 21 4 22 80 23 82 24
REMARK SMILES IDX 83 25 84 27 85 28 86 29 91 30 87 31 90 32 88 33 89 34 15 35
REMARK SMILES IDX 16 36 17 37 18 38 19 39 20 41 21 42 22 43 74 44 23 45 73 46
REMARK SMILES IDX 24 47 25 48 26 49 67 50 27 51 72 52 66 53 68 54 28 55 71 56
REMARK SMILES IDX 65 57 64 58 29 60 55 61 38 62 54 63 39 64 42 65 53 66 69 67
REMARK SMILES IDX 40 68 41 69 52 71 70 72 43 73 30 74 31 75 36 76 32 77 33 78
REMARK SMILES IDX 35 79 37 80 34 81 56 82 57 83 62 84 58 85 59 86 61 87 63 88
REMARK SMILES IDX 60 89 44 90 45 91 50 92 46 93 47 94 49 95 51 96 48 97
REMARK H PARENT 13 5 6 15 82 26 18 40 68 59 42 70
REMARK Flexibility Score: inf
ROOT
ATOM      1  C   UNL     1      -0.532  -5.747  -0.435  1.00  0.00     0.116 C 
ENDROOT
BRANCH   1   2
ATOM      2  N   UNL     1      -1.481  -5.259  -1.421  1.00  0.00    -0.356 N 
ATOM      3  C   UNL     1      -2.712  -4.690  -1.388  1.00  0.00     0.224 C 
ATOM      4  O   UNL     1      -3.199  -4.464  -2.505  1.00  0.00    -0.275 OA
ATOM      5  H   UNL     1      -1.149  -5.368  -2.341  1.00  0.00     0.163 HD
BRANCH   3   6
ATOM      6  C   UNL     1      -3.467  -4.188  -0.150  1.00  0.00     0.098 C 
ATOM      7  C   UNL     1      -3.016  -2.753   0.216  1.00  0.00     0.099 C 
ATOM      8  C   UNL     1      -2.970  -2.773   1.766  1.00  0.00     0.025 C 
ATOM      9  C   UNL     1      -3.252  -4.920   1.200  1.00  0.00     0.025 C 
ATOM     10  C   UNL     1      -4.292  -3.230   2.352  1.00  0.00    -0.027 C 
ATOM     11  C   UNL     1      -2.205  -4.066   1.958  1.00  0.00     0.017 C 
ATOM     12  C   UNL     1      -4.444  -4.529   2.047  1.00  0.00    -0.027 C 
BRANCH   7  13
ATOM     13  C   UNL     1      -3.718  -1.493  -0.204  1.00  0.00     0.228 C 
ATOM     14  N   UNL     1      -3.001  -0.309  -0.233  1.00  0.00    -0.326 N 
ATOM     15  H   UNL     1      -3.576   0.490  -0.210  1.00  0.00     0.169 HD
ATOM     16  O   UNL     1      -4.929  -1.460  -0.424  1.00  0.00    -0.274 OA
BRANCH  14  17
ATOM     17  C   UNL     1      -1.613   0.005  -0.287  1.00  0.00     0.043 A 
ATOM     18  C   UNL     1       2.260   1.028  -1.841  1.00  0.00     0.046 C 
ATOM     19  C   UNL     1       0.977   0.746  -1.115  1.00  0.00    -0.027 A 
ATOM     20  C   UNL     1       0.684  -0.568  -0.782  1.00  0.00     0.008 A 
ATOM     21  C   UNL     1       0.054   1.736  -0.755  1.00  0.00     0.046 A 
ATOM     22  C   UNL     1      -0.561  -0.904  -0.269  1.00  0.00     0.026 A 
ATOM     23  C   UNL     1      -1.266   1.354  -0.463  1.00  0.00     0.052 A 
BRANCH  21  24
ATOM     24  N   UNL     1       0.518   3.060  -0.699  1.00  0.00    -0.322 N 
ATOM     25  C   UNL     1       0.093   4.187  -0.041  1.00  0.00     0.255 C 
ATOM     26  H   UNL     1       1.321   3.213  -1.249  1.00  0.00     0.170 HD
ATOM     27  O   UNL     1       0.678   5.250  -0.257  1.00  0.00    -0.269 OA
BRANCH  25  28
ATOM     28  C   UNL     1      -0.998   4.196   0.957  1.00  0.00     0.040 A 
ATOM     29  C   UNL     1      -1.901   5.266   0.898  1.00  0.00     0.015 A 
ATOM     30  C   UNL     1      -1.105   3.253   1.987  1.00  0.00     0.015 A 
ATOM     31  C   UNL     1      -2.945   5.359   1.819  1.00  0.00     0.021 A 
ATOM     32  C   UNL     1      -2.165   3.337   2.898  1.00  0.00     0.021 A 
ATOM     33  C   UNL     1      -3.082   4.385   2.805  1.00  0.00     0.041 A 
ATOM     34  Cl  UNL     1      -4.385   4.486   3.923  1.00  0.00    -0.084 Cl
ENDBRANCH  25  28
ENDBRANCH  21  24
ENDBRANCH  14  17
ENDBRANCH   7  13
ENDBRANCH   3   6
ENDBRANCH   1   2
BRANCH   1  35
ATOM     35  C   UNL     1      -0.299  -7.258  -0.513  1.00  0.00     0.023 C 
BRANCH  35  36
ATOM     36  C   UNL     1       0.470  -7.734  -1.743  1.00  0.00     0.023 C 
BRANCH  36  37
ATOM     37  C   UNL     1       1.952  -7.378  -1.730  1.00  0.00     0.116 C 
BRANCH  37  38
ATOM     38  N   UNL     1       2.807  -8.313  -1.008  1.00  0.00    -0.352 N 
ATOM     39  C   UNL     1       4.155  -8.209  -0.691  1.00  0.00     0.251 C 
ATOM     40  H   UNL     1       2.365  -9.138  -0.702  1.00  0.00     0.163 HD
ATOM     41  O   UNL     1       4.718  -9.113  -0.100  1.00  0.00    -0.269 OA
BRANCH  39  42
ATOM     42  C   UNL     1       4.868  -6.928  -0.944  1.00  0.00     0.039 A 
ATOM     43  C   UNL     1       5.667  -6.412   0.082  1.00  0.00     0.014 A 
ATOM     44  C   UNL     1       4.577  -6.147  -2.059  1.00  0.00     0.014 A 
ATOM     45  C   UNL     1       5.930  -5.046   0.118  1.00  0.00     0.010 A 
ATOM     46  C   UNL     1       4.736  -4.779  -1.973  1.00  0.00     0.010 A 
ATOM     47  C   UNL     1       5.353  -4.225  -0.851  1.00  0.00    -0.014 A 
BRANCH  47  48
ATOM     48  C   UNL     1       5.266  -2.780  -0.696  1.00  0.00     0.031 A 
ATOM     49  C   UNL     1       6.130  -1.891  -1.496  1.00  0.00     0.074 A 
ATOM     50  C   UNL     1       4.363  -2.257   0.163  1.00  0.00     0.049 A 
ATOM     51  N   UNL     1       6.503  -0.718  -1.115  1.00  0.00    -0.248 NA
ATOM     52  C   UNL     1       6.661  -2.270  -2.800  1.00  0.00     0.031 C 
ATOM     53  C   UNL     1       4.020  -0.851   0.333  1.00  0.00     0.029 A 
ATOM     54  N   UNL     1       3.666  -2.904   1.186  1.00  0.00    -0.354 N 
ATOM     55  C   UNL     1       7.097  -0.096  -2.187  1.00  0.00     0.074 A 
ATOM     56  C   UNL     1       7.216  -1.121  -3.198  1.00  0.00     0.031 C 
ATOM     57  C   UNL     1       3.345  -0.688   1.480  1.00  0.00     0.029 A 
ATOM     58  C   UNL     1       3.413  -1.950   2.190  1.00  0.00     0.049 A 
ATOM     59  H   UNL     1       3.400  -3.852   1.202  1.00  0.00     0.167 HD
ATOM     60  C   UNL     1       7.307   1.252  -2.153  1.00  0.00     0.037 A 
ATOM     61  C   UNL     1       3.978  -2.084   3.426  1.00  0.00     0.037 A 
ATOM     62  C   UNL     1       6.827   1.833  -0.900  1.00  0.00     0.049 A 
ATOM     63  C   UNL     1       4.965  -0.980   3.744  1.00  0.00     0.074 A 
ATOM     64  C   UNL     1       5.664   2.513  -0.577  1.00  0.00     0.029 A 
ATOM     65  N   UNL     1       7.418   1.476   0.311  1.00  0.00    -0.354 N 
ATOM     66  N   UNL     1       5.569  -0.256   2.839  1.00  0.00    -0.248 NA
ATOM     67  C   UNL     1       5.318  -0.580   5.103  1.00  0.00     0.031 C 
ATOM     68  C   UNL     1       5.511   2.489   0.830  1.00  0.00     0.029 A 
ATOM     69  C   UNL     1       6.610   1.844   1.371  1.00  0.00     0.049 A 
ATOM     70  H   UNL     1       8.288   1.025   0.399  1.00  0.00     0.167 HD
ATOM     71  C   UNL     1       6.331   0.704   3.452  1.00  0.00     0.074 A 
ATOM     72  C   UNL     1       6.149   0.451   4.871  1.00  0.00     0.031 C 
ATOM     73  C   UNL     1       7.027   1.648   2.751  1.00  0.00     0.037 A 
BRANCH  60  74
ATOM     74  C   UNL     1       7.650   2.043  -3.395  1.00  0.00     0.057 A 
ATOM     75  C   UNL     1       7.134   3.335  -3.615  1.00  0.00     0.134 A 
ATOM     76  C   UNL     1       8.450   1.552  -4.441  1.00  0.00     0.134 A 
ATOM     77  F   UNL     1       6.454   3.995  -2.671  1.00  0.00    -0.206 F 
ATOM     78  C   UNL     1       7.284   4.018  -4.829  1.00  0.00     0.040 A 
ATOM     79  C   UNL     1       8.565   2.200  -5.681  1.00  0.00     0.040 A 
ATOM     80  F   UNL     1       9.178   0.437  -4.292  1.00  0.00    -0.206 F 
ATOM     81  C   UNL     1       7.964   3.432  -5.885  1.00  0.00     0.006 A 
ENDBRANCH  60  74
BRANCH  61  82
ATOM     82  C   UNL     1       4.067  -3.500   3.867  1.00  0.00     0.057 A 
ATOM     83  C   UNL     1       2.866  -4.198   4.096  1.00  0.00     0.134 A 
ATOM     84  C   UNL     1       5.219  -4.267   3.672  1.00  0.00     0.134 A 
ATOM     85  F   UNL     1       1.720  -3.522   4.281  1.00  0.00    -0.206 F 
ATOM     86  C   UNL     1       2.791  -5.591   4.016  1.00  0.00     0.040 A 
ATOM     87  C   UNL     1       5.156  -5.665   3.599  1.00  0.00     0.040 A 
ATOM     88  F   UNL     1       6.396  -3.678   3.421  1.00  0.00    -0.206 F 
ATOM     89  C   UNL     1       3.935  -6.327   3.729  1.00  0.00     0.006 A 
ENDBRANCH  61  82
BRANCH  73  90
ATOM     90  C   UNL     1       8.070   2.582   3.318  1.00  0.00     0.057 A 
ATOM     91  C   UNL     1       8.877   2.275   4.422  1.00  0.00     0.134 A 
ATOM     92  C   UNL     1       8.407   3.782   2.647  1.00  0.00     0.134 A 
ATOM     93  F   UNL     1       8.745   1.120   5.088  1.00  0.00    -0.206 F 
ATOM     94  C   UNL     1       9.905   3.122   4.860  1.00  0.00     0.040 A 
ATOM     95  C   UNL     1       9.463   4.606   3.043  1.00  0.00     0.040 A 
ATOM     96  F   UNL     1       7.743   4.196   1.558  1.00  0.00    -0.206 F 
ATOM     97  C   UNL     1      10.210   4.284   4.163  1.00  0.00     0.006 A 
ENDBRANCH  73  90
ENDBRANCH  47  48
ENDBRANCH  39  42
ENDBRANCH  37  38
ENDBRANCH  36  37
ENDBRANCH  35  36
ENDBRANCH   1  35
TORSDOF 15
