REMARK SMILES COC(=O)c1sc(SCC(=O)NCCCCNC(=O)c2ccc(-c3c4nc(c(-c5c(F)cccc5F)c5ccc([nH]5)c(-c5c(F)cccc5F)c5nc(c(-c6c(F)cccc6F)c6ccc3[nH]6)C=C5)C=C4)cc2)c(NC(=O)c2ccccc2)c1O
REMARK SMILES IDX 13 1 12 2 10 3 11 4 9 6 8 7 7 8 5 9 6 10 84 11 74 12 3 13
REMARK SMILES IDX 4 14 2 15 1 16 85 17 75 19 76 20 77 22 78 23 79 24 83 25
REMARK SMILES IDX 80 26 82 27 81 28 14 29 15 30 16 31 17 32 18 33 19 35 20 36
REMARK SMILES IDX 21 37 73 38 22 39 72 40 23 41 24 42 25 43 66 44 26 45 71 46
REMARK SMILES IDX 65 47 67 48 27 49 70 50 64 51 63 52 28 54 54 55 37 56 53 57
REMARK SMILES IDX 38 58 41 59 52 60 68 61 39 62 40 63 51 65 69 66 42 67 29 68
REMARK SMILES IDX 30 69 35 70 31 71 32 72 34 73 36 74 33 75 55 76 56 77 61 78
REMARK SMILES IDX 57 79 58 80 60 81 62 82 59 83 43 84 44 85 49 86 45 87 46 88
REMARK SMILES IDX 48 89 50 90 47 91
REMARK H PARENT 12 5 85 18 75 21 17 34 67 53 41 64
REMARK Flexibility Score: inf
ROOT
ATOM      1  C   UNL     1       0.490  -3.938   9.137  1.00  0.00     0.116 C 
ENDROOT
BRANCH   1   2
ATOM      2  N   UNL     1      -0.878  -3.925   8.670  1.00  0.00    -0.355 N 
ATOM      3  C   UNL     1      -1.585  -4.855   7.944  1.00  0.00     0.230 C 
ATOM      4  O   UNL     1      -2.809  -4.683   7.920  1.00  0.00    -0.274 OA
ATOM      5  H   UNL     1      -1.387  -3.118   8.912  1.00  0.00     0.163 HD
BRANCH   3   6
ATOM      6  C   UNL     1      -0.804  -6.240   7.213  1.00  0.00     0.175 C 
BRANCH   6   7
ATOM      7  S   UNL     1      -0.130  -6.623   4.745  1.00  0.00    -0.103 SA
BRANCH   7   8
ATOM      8  C   UNL     1      -0.277  -5.208   3.553  1.00  0.00     0.089 A 
ATOM      9  C   UNL     1       0.323  -3.404   1.926  1.00  0.00     0.157 A 
ATOM     10  S   UNL     1       1.123  -4.741   2.649  1.00  0.00    -0.116 S 
ATOM     11  C   UNL     1      -1.007  -3.387   2.288  1.00  0.00     0.166 A 
ATOM     12  C   UNL     1      -1.368  -4.408   3.212  1.00  0.00     0.109 A 
BRANCH   9  13
ATOM     13  C   UNL     1       1.062  -2.486   1.082  1.00  0.00     0.352 C 
ATOM     14  O   UNL     1       2.180  -2.650   0.614  1.00  0.00    -0.245 OA
BRANCH  13  15
ATOM     15  O   UNL     1       0.308  -1.355   0.890  1.00  0.00    -0.465 OA
ATOM     16  C   UNL     1       0.917  -0.321   0.111  1.00  0.00     0.282 C 
ENDBRANCH  13  15
ENDBRANCH   9  13
BRANCH  11  17
ATOM     17  O   UNL     1      -1.895  -2.450   1.880  1.00  0.00    -0.504 OA
ATOM     18  H   UNL     1      -1.631  -1.788   1.271  1.00  0.00     0.293 HD
ENDBRANCH  11  17
BRANCH  12  19
ATOM     19  N   UNL     1      -2.668  -4.452   3.708  1.00  0.00    -0.317 N 
ATOM     20  C   UNL     1      -3.091  -5.153   4.797  1.00  0.00     0.255 C 
ATOM     21  H   UNL     1      -3.346  -3.925   3.227  1.00  0.00     0.170 HD
ATOM     22  O   UNL     1      -4.266  -5.378   5.046  1.00  0.00    -0.269 OA
BRANCH  20  23
ATOM     23  C   UNL     1      -2.018  -5.669   5.644  1.00  0.00     0.040 A 
ATOM     24  C   UNL     1      -2.001  -7.439   5.910  1.00  0.00     0.014 A 
ATOM     25  C   UNL     1      -0.498  -4.674   5.941  1.00  0.00     0.014 A 
ATOM     26  C   UNL     1      -0.489  -8.230   6.465  1.00  0.00     0.001 A 
ATOM     27  C   UNL     1       1.012  -5.513   6.465  1.00  0.00     0.001 A 
ATOM     28  C   UNL     1       1.006  -7.290   6.717  1.00  0.00     0.000 A 
ENDBRANCH  20  23
ENDBRANCH  12  19
ENDBRANCH   7   8
ENDBRANCH   6   7
ENDBRANCH   3   6
ENDBRANCH   1   2
BRANCH   1  29
ATOM     29  C   UNL     1       1.422  -2.952   8.431  1.00  0.00     0.023 C 
BRANCH  29  30
ATOM     30  C   UNL     1       1.225  -1.459   8.699  1.00  0.00     0.023 C 
BRANCH  30  31
ATOM     31  C   UNL     1       1.274  -1.030  10.158  1.00  0.00     0.116 C 
BRANCH  31  32
ATOM     32  N   UNL     1       2.460  -1.510  10.861  1.00  0.00    -0.352 N 
ATOM     33  C   UNL     1       2.661  -1.607  12.224  1.00  0.00     0.251 C 
ATOM     34  H   UNL     1       3.209  -1.800  10.293  1.00  0.00     0.163 HD
ATOM     35  O   UNL     1       3.790  -1.683  12.691  1.00  0.00    -0.269 OA
BRANCH  33  36
ATOM     36  C   UNL     1       1.488  -1.625  13.114  1.00  0.00     0.039 A 
ATOM     37  C   UNL     1       1.424  -0.818  14.245  1.00  0.00     0.014 A 
ATOM     38  C   UNL     1       0.417  -2.445  12.769  1.00  0.00     0.014 A 
ATOM     39  C   UNL     1       0.228  -0.768  14.957  1.00  0.00     0.010 A 
ATOM     40  C   UNL     1      -0.801  -2.304  13.386  1.00  0.00     0.010 A 
ATOM     41  C   UNL     1      -0.895  -1.484  14.500  1.00  0.00    -0.014 A 
BRANCH  41  42
ATOM     42  C   UNL     1      -2.210  -1.228  15.076  1.00  0.00     0.031 A 
ATOM     43  C   UNL     1      -2.572   0.214  15.099  1.00  0.00     0.074 A 
ATOM     44  C   UNL     1      -3.116  -2.182  15.380  1.00  0.00     0.049 A 
ATOM     45  N   UNL     1      -2.638   0.979  16.135  1.00  0.00    -0.248 NA
ATOM     46  C   UNL     1      -2.705   0.931  13.820  1.00  0.00     0.031 C 
ATOM     47  C   UNL     1      -3.045  -3.622  15.120  1.00  0.00     0.029 A 
ATOM     48  N   UNL     1      -4.361  -2.039  15.918  1.00  0.00    -0.354 N 
ATOM     49  C   UNL     1      -3.059   2.219  15.667  1.00  0.00     0.074 A 
ATOM     50  C   UNL     1      -2.877   2.187  14.240  1.00  0.00     0.031 C 
ATOM     51  C   UNL     1      -4.266  -4.176  15.291  1.00  0.00     0.029 A 
ATOM     52  C   UNL     1      -5.165  -3.171  15.829  1.00  0.00     0.049 A 
ATOM     53  H   UNL     1      -4.666  -1.202  16.336  1.00  0.00     0.167 HD
ATOM     54  C   UNL     1      -3.786   3.043  16.471  1.00  0.00     0.037 A 
ATOM     55  C   UNL     1      -6.477  -3.272  16.161  1.00  0.00     0.037 A 
ATOM     56  C   UNL     1      -3.665   2.642  17.856  1.00  0.00     0.049 A 
ATOM     57  C   UNL     1      -6.794  -2.140  17.064  1.00  0.00     0.074 A 
ATOM     58  C   UNL     1      -2.610   2.440  18.726  1.00  0.00     0.029 A 
ATOM     59  N   UNL     1      -4.738   1.999  18.425  1.00  0.00    -0.354 N 
ATOM     60  N   UNL     1      -6.354  -2.042  18.286  1.00  0.00    -0.248 NA
ATOM     61  C   UNL     1      -7.238  -0.894  16.459  1.00  0.00     0.031 C 
ATOM     62  C   UNL     1      -2.976   1.291  19.491  1.00  0.00     0.029 A 
ATOM     63  C   UNL     1      -4.261   0.911  19.105  1.00  0.00     0.049 A 
ATOM     64  H   UNL     1      -5.681   2.272  18.356  1.00  0.00     0.167 HD
ATOM     65  C   UNL     1      -6.020  -0.705  18.426  1.00  0.00     0.074 A 
ATOM     66  C   UNL     1      -6.690  -0.028  17.316  1.00  0.00     0.031 C 
ATOM     67  C   UNL     1      -4.997  -0.323  19.247  1.00  0.00     0.037 A 
BRANCH  54  68
ATOM     68  C   UNL     1      -4.942   3.898  15.990  1.00  0.00     0.057 A 
ATOM     69  C   UNL     1      -5.610   4.712  16.926  1.00  0.00     0.134 A 
ATOM     70  C   UNL     1      -5.625   3.719  14.769  1.00  0.00     0.134 A 
ATOM     71  F   UNL     1      -5.064   4.975  18.123  1.00  0.00    -0.206 F 
ATOM     72  C   UNL     1      -6.907   5.196  16.714  1.00  0.00     0.040 A 
ATOM     73  C   UNL     1      -6.899   4.241  14.529  1.00  0.00     0.040 A 
ATOM     74  F   UNL     1      -5.156   2.956  13.777  1.00  0.00    -0.206 F 
ATOM     75  C   UNL     1      -7.563   4.945  15.518  1.00  0.00     0.006 A 
ENDBRANCH  54  68
BRANCH  55  76
ATOM     76  C   UNL     1      -7.540  -4.138  15.601  1.00  0.00     0.057 A 
ATOM     77  C   UNL     1      -8.767  -4.300  16.264  1.00  0.00     0.134 A 
ATOM     78  C   UNL     1      -7.495  -4.588  14.271  1.00  0.00     0.134 A 
ATOM     79  F   UNL     1      -8.922  -3.874  17.526  1.00  0.00    -0.206 F 
ATOM     80  C   UNL     1      -9.894  -4.838  15.629  1.00  0.00     0.040 A 
ATOM     81  C   UNL     1      -8.612  -5.134  13.627  1.00  0.00     0.040 A 
ATOM     82  F   UNL     1      -6.394  -4.429  13.523  1.00  0.00    -0.206 F 
ATOM     83  C   UNL     1      -9.822  -5.243  14.300  1.00  0.00     0.006 A 
ENDBRANCH  55  76
BRANCH  67  84
ATOM     84  C   UNL     1      -4.457  -1.339  20.216  1.00  0.00     0.057 A 
ATOM     85  C   UNL     1      -3.878  -2.565  19.853  1.00  0.00     0.134 A 
ATOM     86  C   UNL     1      -4.426  -1.007  21.576  1.00  0.00     0.134 A 
ATOM     87  F   UNL     1      -3.762  -2.929  18.570  1.00  0.00    -0.206 F 
ATOM     88  C   UNL     1      -3.349  -3.442  20.806  1.00  0.00     0.040 A 
ATOM     89  C   UNL     1      -3.866  -1.856  22.532  1.00  0.00     0.040 A 
ATOM     90  F   UNL     1      -4.911   0.173  21.995  1.00  0.00    -0.206 F 
ATOM     91  C   UNL     1      -3.340  -3.086  22.150  1.00  0.00     0.006 A 
ENDBRANCH  67  84
ENDBRANCH  41  42
ENDBRANCH  33  36
ENDBRANCH  31  32
ENDBRANCH  30  31
ENDBRANCH  29  30
ENDBRANCH   1  29
TORSDOF 18
