REMARK SMILES C[NH2+]C[C@H](C)C(=O)N1CC[C@@](C(=O)NCCCCNC(=O)c2ccc(-c3c4nc(c(-c5c(F)cccc5F)c5ccc([nH]5)c(-c5c(F)cccc5F)c5nc(c(-c6c(F)cccc6F)c6ccc3[nH]6)C=C5)C=C4)cc2)(C(F)(F)F)C1
REMARK SMILES IDX 15 1 14 2 12 3 13 4 11 6 8 7 9 8 80 9 10 10 6 11 7 12 4 13
REMARK SMILES IDX 5 14 3 15 2 16 1 17 76 20 77 21 78 22 79 23 16 24 17 25
REMARK SMILES IDX 18 26 19 27 20 28 21 30 22 31 23 32 75 33 24 34 74 35 25 36
REMARK SMILES IDX 26 37 27 38 68 39 28 40 73 41 67 42 69 43 29 44 72 45 66 46
REMARK SMILES IDX 65 47 30 49 56 50 39 51 55 52 40 53 43 54 54 55 70 56 41 57
REMARK SMILES IDX 42 58 53 60 71 61 44 62 31 63 32 64 37 65 33 66 34 67 36 68
REMARK SMILES IDX 38 69 35 70 57 71 58 72 63 73 59 74 60 75 62 76 64 77 61 78
REMARK SMILES IDX 45 79 46 80 51 81 47 82 48 83 50 84 52 85 49 86
REMARK H PARENT 14 5 2 18 2 19 19 29 69 48 43 59
REMARK Flexibility Score: inf
ROOT
ATOM      1  C   UNL     1      -3.398   5.774   0.652  1.00  0.00     0.116 C 
ENDROOT
BRANCH   1   2
ATOM      2  N   UNL     1      -4.714   6.071   0.117  1.00  0.00    -0.355 N 
ATOM      3  C   UNL     1      -5.555   5.366  -0.694  1.00  0.00     0.237 C 
ATOM      4  O   UNL     1      -6.615   5.936  -0.963  1.00  0.00    -0.274 OA
ATOM      5  H   UNL     1      -5.067   6.948   0.390  1.00  0.00     0.163 HD
BRANCH   3   6
ATOM      6  C   UNL     1      -5.218   3.986  -1.248  1.00  0.00     0.163 C 
ATOM      7  N   UNL     1      -3.621   2.381  -0.460  1.00  0.00    -0.341 N 
ATOM      8  C   UNL     1      -3.261   2.669  -1.832  1.00  0.00     0.121 C 
ATOM      9  C   UNL     1      -4.921   2.975  -0.141  1.00  0.00     0.146 C 
ATOM     10  C   UNL     1      -3.965   3.984  -2.144  1.00  0.00     0.050 C 
BRANCH   7  11
ATOM     11  C   UNL     1      -3.003   1.580   0.471  1.00  0.00     0.231 C 
ATOM     12  O   UNL     1      -3.549   1.411   1.571  1.00  0.00    -0.274 OA
BRANCH  11  13
ATOM     13  C   UNL     1      -1.617   0.961   0.263  1.00  0.00     0.130 C 
ATOM     14  C   UNL     1      -1.301   0.265  -1.053  1.00  0.00     0.024 C 
BRANCH  13  15
ATOM     15  C   UNL     1      -0.501   1.865   0.828  1.00  0.00     0.273 C 
BRANCH  15  16
ATOM     16  N   UNL     1       0.287   2.660  -0.113  1.00  0.00    -0.348 N 
ATOM     17  C   UNL     1      -0.149   4.033  -0.211  1.00  0.00     0.330 C 
ATOM     18  H   UNL     1       1.260   2.651   0.193  1.00  0.00     0.346 HD
ATOM     19  H   UNL     1       0.169   2.240  -1.035  1.00  0.00     0.346 HD
ENDBRANCH  15  16
ENDBRANCH  13  15
ENDBRANCH  11  13
ENDBRANCH   7  11
BRANCH   6  20
ATOM     20  C   UNL     1      -6.421   3.497  -2.038  1.00  0.00     0.404 C 
ATOM     21  F   UNL     1      -6.175   2.262  -2.551  1.00  0.00    -0.170 F 
ATOM     22  F   UNL     1      -7.532   3.380  -1.279  1.00  0.00    -0.170 F 
ATOM     23  F   UNL     1      -6.702   4.289  -3.096  1.00  0.00    -0.170 F 
ENDBRANCH   6  20
ENDBRANCH   3   6
ENDBRANCH   1   2
BRANCH   1  24
ATOM     24  C   UNL     1      -2.355   6.775   0.160  1.00  0.00     0.023 C 
BRANCH  24  25
ATOM     25  C   UNL     1      -2.338   8.115   0.887  1.00  0.00     0.023 C 
BRANCH  25  26
ATOM     26  C   UNL     1      -2.159   8.046   2.401  1.00  0.00     0.116 C 
BRANCH  26  27
ATOM     27  N   UNL     1      -1.024   7.250   2.846  1.00  0.00    -0.352 N 
ATOM     28  C   UNL     1      -0.134   7.487   3.874  1.00  0.00     0.251 C 
ATOM     29  H   UNL     1      -0.868   6.420   2.339  1.00  0.00     0.163 HD
ATOM     30  O   UNL     1       0.791   6.716   4.074  1.00  0.00    -0.269 OA
BRANCH  28  31
ATOM     31  C   UNL     1      -0.271   8.712   4.696  1.00  0.00     0.039 A 
ATOM     32  C   UNL     1       0.873   9.468   4.965  1.00  0.00     0.014 A 
ATOM     33  C   UNL     1      -1.517   9.144   5.149  1.00  0.00     0.014 A 
ATOM     34  C   UNL     1       0.748  10.709   5.593  1.00  0.00     0.010 A 
ATOM     35  C   UNL     1      -1.652  10.421   5.683  1.00  0.00     0.010 A 
ATOM     36  C   UNL     1      -0.522  11.222   5.903  1.00  0.00    -0.014 A 
BRANCH  36  37
ATOM     37  C   UNL     1      -0.688  12.602   6.425  1.00  0.00     0.031 A 
ATOM     38  C   UNL     1      -1.315  12.842   7.770  1.00  0.00     0.074 A 
ATOM     39  C   UNL     1      -0.350  13.650   5.646  1.00  0.00     0.049 A 
ATOM     40  N   UNL     1      -1.572  13.976   8.371  1.00  0.00    -0.248 NA
ATOM     41  C   UNL     1      -1.748  11.654   8.521  1.00  0.00     0.031 C 
ATOM     42  C   UNL     1       0.182  13.557   4.285  1.00  0.00     0.029 A 
ATOM     43  N   UNL     1      -0.410  15.000   5.886  1.00  0.00    -0.354 N 
ATOM     44  C   UNL     1      -2.215  13.639   9.555  1.00  0.00     0.074 A 
ATOM     45  C   UNL     1      -2.364  12.200   9.559  1.00  0.00     0.031 C 
ATOM     46  C   UNL     1       0.433  14.793   3.825  1.00  0.00     0.029 A 
ATOM     47  C   UNL     1       0.055  15.766   4.845  1.00  0.00     0.049 A 
ATOM     48  H   UNL     1      -0.754  15.383   6.725  1.00  0.00     0.167 HD
ATOM     49  C   UNL     1      -2.619  14.449  10.562  1.00  0.00     0.037 A 
ATOM     50  C   UNL     1       0.174  17.101   4.727  1.00  0.00     0.037 A 
ATOM     51  C   UNL     1      -2.434  15.876  10.574  1.00  0.00     0.049 A 
ATOM     52  C   UNL     1      -0.224  17.979   5.879  1.00  0.00     0.074 A 
ATOM     53  C   UNL     1      -2.727  16.776  11.583  1.00  0.00     0.029 A 
ATOM     54  N   UNL     1      -1.908  16.611   9.522  1.00  0.00    -0.354 N 
ATOM     55  N   UNL     1      -0.740  17.638   7.035  1.00  0.00    -0.248 NA
ATOM     56  C   UNL     1      -0.010  19.423   5.718  1.00  0.00     0.031 C 
ATOM     57  C   UNL     1      -2.411  18.061  11.128  1.00  0.00     0.029 A 
ATOM     58  C   UNL     1      -1.882  17.956   9.851  1.00  0.00     0.049 A 
ATOM     59  H   UNL     1      -1.598  16.233   8.667  1.00  0.00     0.167 HD
ATOM     60  C   UNL     1      -0.889  18.820   7.749  1.00  0.00     0.074 A 
ATOM     61  C   UNL     1      -0.397  19.885   6.899  1.00  0.00     0.031 C 
ATOM     62  C   UNL     1      -1.386  19.005   8.996  1.00  0.00     0.037 A 
BRANCH  49  63
ATOM     63  C   UNL     1      -3.291  13.800  11.737  1.00  0.00     0.057 A 
ATOM     64  C   UNL     1      -2.590  12.976  12.628  1.00  0.00     0.134 A 
ATOM     65  C   UNL     1      -4.654  14.005  11.985  1.00  0.00     0.134 A 
ATOM     66  F   UNL     1      -1.284  12.728  12.440  1.00  0.00    -0.206 F 
ATOM     67  C   UNL     1      -3.227  12.348  13.699  1.00  0.00     0.040 A 
ATOM     68  C   UNL     1      -5.296  13.406  13.070  1.00  0.00     0.040 A 
ATOM     69  F   UNL     1      -5.384  14.788  11.177  1.00  0.00    -0.206 F 
ATOM     70  C   UNL     1      -4.585  12.566  13.925  1.00  0.00     0.006 A 
ENDBRANCH  49  63
BRANCH  50  71
ATOM     71  C   UNL     1       0.750  17.681   3.489  1.00  0.00     0.057 A 
ATOM     72  C   UNL     1       2.046  18.211   3.479  1.00  0.00     0.134 A 
ATOM     73  C   UNL     1       0.037  17.696   2.285  1.00  0.00     0.134 A 
ATOM     74  F   UNL     1       2.772  18.238   4.607  1.00  0.00    -0.206 F 
ATOM     75  C   UNL     1       2.608  18.746   2.320  1.00  0.00     0.040 A 
ATOM     76  C   UNL     1       0.595  18.208   1.113  1.00  0.00     0.040 A 
ATOM     77  F   UNL     1      -1.204  17.192   2.228  1.00  0.00    -0.206 F 
ATOM     78  C   UNL     1       1.883  18.739   1.129  1.00  0.00     0.006 A 
ENDBRANCH  50  71
BRANCH  62  79
ATOM     79  C   UNL     1      -1.395  20.407   9.529  1.00  0.00     0.057 A 
ATOM     80  C   UNL     1      -2.301  21.368   9.066  1.00  0.00     0.134 A 
ATOM     81  C   UNL     1      -0.511  20.786  10.548  1.00  0.00     0.134 A 
ATOM     82  F   UNL     1      -3.165  21.071   8.083  1.00  0.00    -0.206 F 
ATOM     83  C   UNL     1      -2.314  22.665   9.582  1.00  0.00     0.040 A 
ATOM     84  C   UNL     1      -0.530  22.072  11.088  1.00  0.00     0.040 A 
ATOM     85  F   UNL     1       0.377  19.909  11.041  1.00  0.00    -0.206 F 
ATOM     86  C   UNL     1      -1.431  23.017  10.601  1.00  0.00     0.006 A 
ENDBRANCH  62  79
ENDBRANCH  36  37
ENDBRANCH  28  31
ENDBRANCH  26  27
ENDBRANCH  25  26
ENDBRANCH  24  25
ENDBRANCH   1  24
TORSDOF 16
