REMARK SMILES COC(=O)[C@@H](C)S(=O)(=O)N(C)c1snc(C)c1C(=O)NCCCCNC(=O)c1ccc(-c2c3nc(c(-c4c(F)cccc4F)c4ccc([nH]4)c(-c4c(F)cccc4F)c4nc(c(-c5c(F)cccc5F)c5ccc2[nH]5)C=C4)C=C3)cc1
REMARK SMILES IDX 21 1 20 2 18 3 19 4 17 6 12 7 13 8 14 9 15 10 16 11 10 12
REMARK SMILES IDX 11 13 7 14 8 15 9 16 5 17 6 18 3 19 4 20 2 21 1 22 22 23
REMARK SMILES IDX 23 24 24 25 25 26 26 27 27 29 28 30 29 31 81 32 30 33 80 34
REMARK SMILES IDX 31 35 32 36 33 37 74 38 34 39 79 40 73 41 75 42 35 43 78 44
REMARK SMILES IDX 72 45 71 46 36 48 62 49 45 50 61 51 46 52 49 53 60 54 76 55
REMARK SMILES IDX 47 56 48 57 59 59 77 60 50 61 37 62 38 63 43 64 39 65 40 66
REMARK SMILES IDX 42 67 44 68 41 69 63 70 64 71 69 72 65 73 66 74 68 75 70 76
REMARK SMILES IDX 67 77 51 78 52 79 57 80 53 81 54 82 56 83 58 84 55 85
REMARK H PARENT 20 5 25 28 75 47 49 58
REMARK Flexibility Score: inf
ROOT
ATOM      1  C   UNL     1      -1.686   4.435  -3.210  1.00  0.00     0.116 C 
ENDROOT
BRANCH   1   2
ATOM      2  N   UNL     1      -2.866   5.190  -2.916  1.00  0.00    -0.352 N 
ATOM      3  C   UNL     1      -3.988   4.783  -2.221  1.00  0.00     0.256 C 
ATOM      4  O   UNL     1      -4.783   5.686  -1.943  1.00  0.00    -0.269 OA
ATOM      5  H   UNL     1      -2.880   6.115  -3.252  1.00  0.00     0.163 HD
BRANCH   3   6
ATOM      6  C   UNL     1      -4.309   3.384  -1.889  1.00  0.00     0.098 A 
ATOM      7  C   UNL     1      -3.502   2.311  -1.491  1.00  0.00     0.138 A 
ATOM      8  S   UNL     1      -4.518   0.975  -1.076  1.00  0.00    -0.017 S 
ATOM      9  N   UNL     1      -5.925   1.644  -1.548  1.00  0.00    -0.195 NA
ATOM     10  C   UNL     1      -5.705   2.900  -1.933  1.00  0.00     0.066 A 
ATOM     11  C   UNL     1      -6.927   3.621  -2.408  1.00  0.00     0.069 C 
BRANCH   7  12
ATOM     12  N   UNL     1      -2.033   2.185  -1.441  1.00  0.00    -0.261 N 
ATOM     13  C   UNL     1      -1.562   0.828  -1.857  1.00  0.00     0.164 C 
BRANCH  12  14
ATOM     14  S   UNL     1      -1.432   2.728   0.078  1.00  0.00     0.249 S 
ATOM     15  O   UNL     1      -1.813   1.737   1.071  1.00  0.00    -0.206 OA
ATOM     16  O   UNL     1      -1.879   4.097   0.228  1.00  0.00    -0.206 OA
BRANCH  14  17
ATOM     17  C   UNL     1       0.355   2.806  -0.031  1.00  0.00     0.236 C 
ATOM     18  C   UNL     1       1.038   2.889  -1.385  1.00  0.00     0.039 C 
BRANCH  17  19
ATOM     19  C   UNL     1       0.967   1.686   0.742  1.00  0.00     0.325 C 
ATOM     20  O   UNL     1       1.734   1.849   1.675  1.00  0.00    -0.251 OA
BRANCH  19  21
ATOM     21  O   UNL     1       0.693   0.489   0.151  1.00  0.00    -0.468 OA
ATOM     22  C   UNL     1       1.436  -0.605   0.681  1.00  0.00     0.282 C 
ENDBRANCH  19  21
ENDBRANCH  17  19
ENDBRANCH  14  17
ENDBRANCH  12  14
ENDBRANCH   7  12
ENDBRANCH   3   6
ENDBRANCH   1   2
BRANCH   1  23
ATOM     23  C   UNL     1      -0.719   4.960  -4.273  1.00  0.00     0.023 C 
BRANCH  23  24
ATOM     24  C   UNL     1       0.036   6.277  -4.031  1.00  0.00     0.023 C 
BRANCH  24  25
ATOM     25  C   UNL     1       0.720   6.469  -2.679  1.00  0.00     0.116 C 
BRANCH  25  26
ATOM     26  N   UNL     1       2.015   5.805  -2.531  1.00  0.00    -0.352 N 
ATOM     27  C   UNL     1       2.990   6.041  -1.571  1.00  0.00     0.251 C 
ATOM     28  H   UNL     1       2.220   5.106  -3.193  1.00  0.00     0.163 HD
ATOM     29  O   UNL     1       4.125   5.601  -1.720  1.00  0.00    -0.269 OA
BRANCH  27  30
ATOM     30  C   UNL     1       2.653   6.814  -0.354  1.00  0.00     0.039 A 
ATOM     31  C   UNL     1       3.560   7.718   0.211  1.00  0.00     0.014 A 
ATOM     32  C   UNL     1       1.395   6.640   0.220  1.00  0.00     0.014 A 
ATOM     33  C   UNL     1       3.145   8.516   1.278  1.00  0.00     0.010 A 
ATOM     34  C   UNL     1       0.946   7.495   1.196  1.00  0.00     0.010 A 
ATOM     35  C   UNL     1       1.820   8.425   1.739  1.00  0.00    -0.014 A 
BRANCH  35  36
ATOM     36  C   UNL     1       1.251   9.473   2.582  1.00  0.00     0.031 A 
ATOM     37  C   UNL     1       1.352  10.817   1.947  1.00  0.00     0.074 A 
ATOM     38  C   UNL     1       0.460   9.245   3.653  1.00  0.00     0.049 A 
ATOM     39  N   UNL     1       2.143  11.784   2.275  1.00  0.00    -0.248 NA
ATOM     40  C   UNL     1       0.649  11.038   0.668  1.00  0.00     0.031 C 
ATOM     41  C   UNL     1      -0.019   7.957   4.162  1.00  0.00     0.029 A 
ATOM     42  N   UNL     1      -0.176  10.138   4.463  1.00  0.00    -0.354 N 
ATOM     43  C   UNL     1       1.831  12.828   1.409  1.00  0.00     0.074 A 
ATOM     44  C   UNL     1       1.129  12.230   0.307  1.00  0.00     0.031 C 
ATOM     45  C   UNL     1      -1.030   8.161   5.038  1.00  0.00     0.029 A 
ATOM     46  C   UNL     1      -1.169   9.587   5.273  1.00  0.00     0.049 A 
ATOM     47  H   UNL     1       0.049  11.096   4.476  1.00  0.00     0.167 HD
ATOM     48  C   UNL     1       1.871  14.118   1.847  1.00  0.00     0.037 A 
ATOM     49  C   UNL     1      -2.051  10.264   6.054  1.00  0.00     0.037 A 
ATOM     50  C   UNL     1       2.626  14.206   3.080  1.00  0.00     0.049 A 
ATOM     51  C   UNL     1      -1.507  11.630   6.248  1.00  0.00     0.074 A 
ATOM     52  C   UNL     1       3.897  13.841   3.481  1.00  0.00     0.029 A 
ATOM     53  N   UNL     1       1.907  14.374   4.238  1.00  0.00    -0.354 N 
ATOM     54  N   UNL     1      -0.437  11.894   6.942  1.00  0.00    -0.248 NA
ATOM     55  C   UNL     1      -1.896  12.649   5.286  1.00  0.00     0.031 C 
ATOM     56  C   UNL     1       3.737  13.340   4.809  1.00  0.00     0.029 A 
ATOM     57  C   UNL     1       2.403  13.512   5.178  1.00  0.00     0.049 A 
ATOM     58  H   UNL     1       1.163  15.005   4.370  1.00  0.00     0.167 HD
ATOM     59  C   UNL     1       0.232  12.852   6.196  1.00  0.00     0.074 A 
ATOM     60  C   UNL     1      -0.759  13.348   5.241  1.00  0.00     0.031 C 
ATOM     61  C   UNL     1       1.595  12.928   6.223  1.00  0.00     0.037 A 
BRANCH  48  62
ATOM     62  C   UNL     1       0.858  15.183   1.460  1.00  0.00     0.057 A 
ATOM     63  C   UNL     1       1.011  16.476   2.000  1.00  0.00     0.134 A 
ATOM     64  C   UNL     1      -0.402  14.939   0.874  1.00  0.00     0.134 A 
ATOM     65  F   UNL     1       2.164  16.849   2.576  1.00  0.00    -0.206 F 
ATOM     66  C   UNL     1      -0.043  17.396   2.069  1.00  0.00     0.040 A 
ATOM     67  C   UNL     1      -1.445  15.870   0.893  1.00  0.00     0.040 A 
ATOM     68  F   UNL     1      -0.743  13.768   0.328  1.00  0.00    -0.206 F 
ATOM     69  C   UNL     1      -1.283  17.087   1.530  1.00  0.00     0.006 A 
ENDBRANCH  48  62
BRANCH  49  70
ATOM     70  C   UNL     1      -3.449   9.934   6.427  1.00  0.00     0.057 A 
ATOM     71  C   UNL     1      -4.110  10.629   7.454  1.00  0.00     0.134 A 
ATOM     72  C   UNL     1      -4.266   9.149   5.597  1.00  0.00     0.134 A 
ATOM     73  F   UNL     1      -3.427  11.437   8.279  1.00  0.00    -0.206 F 
ATOM     74  C   UNL     1      -5.501  10.577   7.621  1.00  0.00     0.040 A 
ATOM     75  C   UNL     1      -5.656   9.083   5.756  1.00  0.00     0.040 A 
ATOM     76  F   UNL     1      -3.756   8.495   4.544  1.00  0.00    -0.206 F 
ATOM     77  C   UNL     1      -6.281   9.813   6.760  1.00  0.00     0.006 A 
ENDBRANCH  49  70
BRANCH  61  78
ATOM     78  C   UNL     1       2.322  12.170   7.300  1.00  0.00     0.057 A 
ATOM     79  C   UNL     1       2.310  10.774   7.447  1.00  0.00     0.134 A 
ATOM     80  C   UNL     1       3.177  12.885   8.146  1.00  0.00     0.134 A 
ATOM     81  F   UNL     1       1.598   9.993   6.625  1.00  0.00    -0.206 F 
ATOM     82  C   UNL     1       3.081  10.128   8.419  1.00  0.00     0.040 A 
ATOM     83  C   UNL     1       3.978  12.250   9.096  1.00  0.00     0.040 A 
ATOM     84  F   UNL     1       3.279  14.219   8.030  1.00  0.00    -0.206 F 
ATOM     85  C   UNL     1       3.924  10.868   9.244  1.00  0.00     0.006 A 
ENDBRANCH  61  78
ENDBRANCH  35  36
ENDBRANCH  27  30
ENDBRANCH  25  26
ENDBRANCH  24  25
ENDBRANCH  23  24
ENDBRANCH   1  23
TORSDOF 16
