REMARK SMILES C[NH2+]C[C@H](C)C(=O)NC[C@](C)(O)C(=O)NCCCCNC(=O)c1ccc(-c2c3nc(c(-c4c(F)cccc4F)c4ccc([nH]4)c(-c4c(F)cccc4F)c4nc(c(-c5c(F)cccc5F)c5ccc2[nH]5)C=C4)C=C3)cc1
REMARK SMILES IDX 16 1 15 2 13 3 14 4 10 6 11 7 9 8 8 9 6 10 7 11 4 13 5 14
REMARK SMILES IDX 3 15 2 16 1 17 12 20 17 22 18 23 19 24 20 25 21 26 22 28
REMARK SMILES IDX 23 29 24 30 76 31 25 32 75 33 26 34 27 35 28 36 69 37 29 38
REMARK SMILES IDX 74 39 68 40 70 41 30 42 73 43 67 44 66 45 31 47 57 48 40 49
REMARK SMILES IDX 56 50 41 51 44 52 55 53 71 54 42 55 43 56 54 58 72 59 45 60
REMARK SMILES IDX 32 61 33 62 38 63 34 64 35 65 37 66 39 67 36 68 58 69 59 70
REMARK SMILES IDX 64 71 60 72 61 73 63 74 65 75 62 76 46 77 47 78 52 79 48 80
REMARK SMILES IDX 49 81 51 82 53 83 50 84
REMARK H PARENT 15 5 8 12 2 18 2 19 12 21 20 27 70 46 44 57
REMARK Flexibility Score: inf
ROOT
ATOM      1  C   UNL     1      -3.108   6.041  -0.362  1.00  0.00     0.116 C 
ENDROOT
BRANCH   1   2
ATOM      2  N   UNL     1      -2.652   4.671  -0.513  1.00  0.00    -0.354 N 
ATOM      3  C   UNL     1      -2.785   3.600   0.324  1.00  0.00     0.253 C 
ATOM      4  O   UNL     1      -2.442   2.504  -0.134  1.00  0.00    -0.272 OA
ATOM      5  H   UNL     1      -2.172   4.485  -1.352  1.00  0.00     0.163 HD
BRANCH   3   6
ATOM      6  C   UNL     1      -3.377   3.720   1.770  1.00  0.00     0.157 C 
ATOM      7  C   UNL     1      -2.842   2.528   2.590  1.00  0.00     0.055 C 
BRANCH   6   8
ATOM      8  C   UNL     1      -4.920   3.607   1.742  1.00  0.00     0.160 C 
BRANCH   8   9
ATOM      9  N   UNL     1      -5.556   4.700   1.028  1.00  0.00    -0.352 N 
ATOM     10  C   UNL     1      -6.381   4.698  -0.048  1.00  0.00     0.228 C 
ATOM     11  O   UNL     1      -6.593   5.779  -0.606  1.00  0.00    -0.275 OA
ATOM     12  H   UNL     1      -5.353   5.594   1.386  1.00  0.00     0.163 HD
BRANCH  10  13
ATOM     13  C   UNL     1      -7.074   3.433  -0.534  1.00  0.00     0.130 C 
ATOM     14  C   UNL     1      -6.111   2.408  -1.133  1.00  0.00     0.024 C 
BRANCH  13  15
ATOM     15  C   UNL     1      -8.010   2.825   0.528  1.00  0.00     0.273 C 
BRANCH  15  16
ATOM     16  N   UNL     1      -8.805   3.767   1.325  1.00  0.00    -0.348 N 
ATOM     17  C   UNL     1      -9.745   4.545   0.527  1.00  0.00     0.330 C 
ATOM     18  H   UNL     1      -9.331   3.239   2.021  1.00  0.00     0.346 HD
ATOM     19  H   UNL     1      -8.154   4.426   1.753  1.00  0.00     0.346 HD
ENDBRANCH  15  16
ENDBRANCH  13  15
ENDBRANCH  10  13
ENDBRANCH   8   9
ENDBRANCH   6   8
BRANCH   6  20
ATOM     20  O   UNL     1      -3.044   4.906   2.493  1.00  0.00    -0.378 OA
ATOM     21  H   UNL     1      -2.079   5.004   2.527  1.00  0.00     0.212 HD
ENDBRANCH   6  20
ENDBRANCH   3   6
ENDBRANCH   1   2
BRANCH   1  22
ATOM     22  C   UNL     1      -2.242   7.062  -1.093  1.00  0.00     0.023 C 
BRANCH  22  23
ATOM     23  C   UNL     1      -2.238   6.955  -2.620  1.00  0.00     0.023 C 
BRANCH  23  24
ATOM     24  C   UNL     1      -3.608   6.932  -3.298  1.00  0.00     0.116 C 
BRANCH  24  25
ATOM     25  N   UNL     1      -4.396   8.133  -3.057  1.00  0.00    -0.352 N 
ATOM     26  C   UNL     1      -4.836   9.094  -3.936  1.00  0.00     0.251 C 
ATOM     27  H   UNL     1      -4.654   8.279  -2.118  1.00  0.00     0.163 HD
ATOM     28  O   UNL     1      -5.379  10.115  -3.522  1.00  0.00    -0.269 OA
BRANCH  26  29
ATOM     29  C   UNL     1      -4.625   8.921  -5.389  1.00  0.00     0.039 A 
ATOM     30  C   UNL     1      -4.087   9.978  -6.128  1.00  0.00     0.014 A 
ATOM     31  C   UNL     1      -4.939   7.714  -6.019  1.00  0.00     0.014 A 
ATOM     32  C   UNL     1      -3.765   9.788  -7.475  1.00  0.00     0.010 A 
ATOM     33  C   UNL     1      -4.548   7.501  -7.338  1.00  0.00     0.010 A 
ATOM     34  C   UNL     1      -3.940   8.530  -8.075  1.00  0.00    -0.014 A 
BRANCH  34  35
ATOM     35  C   UNL     1      -3.461   8.254  -9.454  1.00  0.00     0.031 A 
ATOM     36  C   UNL     1      -4.432   7.868 -10.534  1.00  0.00     0.074 A 
ATOM     37  C   UNL     1      -2.137   8.258  -9.711  1.00  0.00     0.049 A 
ATOM     38  N   UNL     1      -4.193   7.482 -11.762  1.00  0.00    -0.248 NA
ATOM     39  C   UNL     1      -5.859   7.894 -10.179  1.00  0.00     0.031 C 
ATOM     40  C   UNL     1      -1.086   8.567  -8.740  1.00  0.00     0.029 A 
ATOM     41  N   UNL     1      -1.448   7.976 -10.865  1.00  0.00    -0.354 N 
ATOM     42  C   UNL     1      -5.434   7.202 -12.318  1.00  0.00     0.074 A 
ATOM     43  C   UNL     1      -6.420   7.418 -11.281  1.00  0.00     0.031 C 
ATOM     44  C   UNL     1       0.111   8.474  -9.342  1.00  0.00     0.029 A 
ATOM     45  C   UNL     1      -0.083   8.058 -10.727  1.00  0.00     0.049 A 
ATOM     46  H   UNL     1      -1.890   7.737 -11.712  1.00  0.00     0.167 HD
ATOM     47  C   UNL     1      -5.728   6.819 -13.584  1.00  0.00     0.037 A 
ATOM     48  C   UNL     1       0.902   7.812 -11.611  1.00  0.00     0.037 A 
ATOM     49  C   UNL     1      -4.750   6.631 -14.623  1.00  0.00     0.049 A 
ATOM     50  C   UNL     1       0.551   7.376 -13.005  1.00  0.00     0.074 A 
ATOM     51  C   UNL     1      -4.957   6.313 -15.954  1.00  0.00     0.029 A 
ATOM     52  N   UNL     1      -3.379   6.741 -14.446  1.00  0.00    -0.354 N 
ATOM     53  N   UNL     1      -0.631   7.181 -13.536  1.00  0.00    -0.248 NA
ATOM     54  C   UNL     1       1.671   7.125 -13.924  1.00  0.00     0.031 C 
ATOM     55  C   UNL     1      -3.709   6.189 -16.573  1.00  0.00     0.029 A 
ATOM     56  C   UNL     1      -2.727   6.473 -15.639  1.00  0.00     0.049 A 
ATOM     57  H   UNL     1      -2.935   6.976 -13.600  1.00  0.00     0.167 HD
ATOM     58  C   UNL     1      -0.400   6.810 -14.854  1.00  0.00     0.074 A 
ATOM     59  C   UNL     1       1.035   6.818 -15.047  1.00  0.00     0.031 C 
ATOM     60  C   UNL     1      -1.298   6.490 -15.818  1.00  0.00     0.037 A 
BRANCH  47  61
ATOM     61  C   UNL     1      -7.171   6.582 -13.917  1.00  0.00     0.057 A 
ATOM     62  C   UNL     1      -8.087   7.637 -14.021  1.00  0.00     0.134 A 
ATOM     63  C   UNL     1      -7.643   5.289 -14.175  1.00  0.00     0.134 A 
ATOM     64  F   UNL     1      -7.702   8.899 -13.777  1.00  0.00    -0.206 F 
ATOM     65  C   UNL     1      -9.427   7.412 -14.344  1.00  0.00     0.040 A 
ATOM     66  C   UNL     1      -8.974   5.054 -14.525  1.00  0.00     0.040 A 
ATOM     67  F   UNL     1      -6.817   4.234 -14.101  1.00  0.00    -0.206 F 
ATOM     68  C   UNL     1      -9.871   6.117 -14.604  1.00  0.00     0.006 A 
ENDBRANCH  47  61
BRANCH  48  69
ATOM     69  C   UNL     1       2.321   7.983 -11.208  1.00  0.00     0.057 A 
ATOM     70  C   UNL     1       3.092   9.034 -11.717  1.00  0.00     0.134 A 
ATOM     71  C   UNL     1       2.942   7.100 -10.316  1.00  0.00     0.134 A 
ATOM     72  F   UNL     1       2.558   9.900 -12.591  1.00  0.00    -0.206 F 
ATOM     73  C   UNL     1       4.434   9.193 -11.367  1.00  0.00     0.040 A 
ATOM     74  C   UNL     1       4.276   7.260  -9.939  1.00  0.00     0.040 A 
ATOM     75  F   UNL     1       2.256   6.075  -9.789  1.00  0.00    -0.206 F 
ATOM     76  C   UNL     1       5.028   8.306 -10.471  1.00  0.00     0.006 A 
ENDBRANCH  48  69
BRANCH  60  77
ATOM     77  C   UNL     1      -0.758   6.150 -17.175  1.00  0.00     0.057 A 
ATOM     78  C   UNL     1      -0.121   4.930 -17.431  1.00  0.00     0.134 A 
ATOM     79  C   UNL     1      -0.924   7.033 -18.250  1.00  0.00     0.134 A 
ATOM     80  F   UNL     1       0.081   4.048 -16.441  1.00  0.00    -0.206 F 
ATOM     81  C   UNL     1       0.347   4.606 -18.706  1.00  0.00     0.040 A 
ATOM     82  C   UNL     1      -0.482   6.710 -19.534  1.00  0.00     0.040 A 
ATOM     83  F   UNL     1      -1.532   8.215 -18.073  1.00  0.00    -0.206 F 
ATOM     84  C   UNL     1       0.159   5.495 -19.763  1.00  0.00     0.006 A 
ENDBRANCH  60  77
ENDBRANCH  34  35
ENDBRANCH  26  29
ENDBRANCH  24  25
ENDBRANCH  23  24
ENDBRANCH  22  23
ENDBRANCH   1  22
TORSDOF 17
