REMARK SMILES C[C@H](O)[C@@H](NC(=O)c1ccc(Cl)c(S(C)(=O)=O)c1)C(=O)NCCCCNC(=O)c1ccc(-c2c3nc(c(-c4c(F)cccc4F)c4ccc([nH]4)c(-c4c(F)cccc4F)c4nc(c(-c5c(F)cccc5F)c5ccc2[nH]5)C=C4)C=C3)cc1
REMARK SMILES IDX 23 1 22 2 21 3 19 4 20 5 4 7 2 8 1 9 3 10 5 12 6 13 7 15
REMARK SMILES IDX 8 16 9 17 18 18 10 19 13 20 11 21 12 22 14 23 15 24 16 25
REMARK SMILES IDX 17 26 24 27 25 28 26 29 27 30 28 32 29 33 30 34 82 35 31 36
REMARK SMILES IDX 81 37 32 38 33 39 34 40 75 41 35 42 80 43 74 44 76 45 36 46
REMARK SMILES IDX 79 47 73 48 72 49 37 51 63 52 46 53 62 54 47 55 50 56 61 57
REMARK SMILES IDX 77 58 48 59 49 60 60 62 78 63 51 64 38 65 39 66 44 67 40 68
REMARK SMILES IDX 41 69 43 70 45 71 42 72 64 73 65 74 70 75 66 76 67 77 69 78
REMARK SMILES IDX 71 79 68 80 52 81 53 82 58 83 54 84 55 85 57 86 59 87 56 88
REMARK H PARENT 21 6 3 11 5 14 26 31 76 50 50 61
REMARK Flexibility Score: inf
ROOT
ATOM      1  C   UNL     1       1.592  -1.348  -4.558  1.00  0.00     0.023 C 
ENDROOT
BRANCH   1   2
ATOM      2  C   UNL     1       0.238  -0.970  -3.962  1.00  0.00     0.116 C 
BRANCH   2   3
ATOM      3  N   UNL     1      -0.399  -2.133  -3.379  1.00  0.00    -0.354 N 
ATOM      4  C   UNL     1      -0.904  -2.328  -2.134  1.00  0.00     0.245 C 
ATOM      5  O   UNL     1      -1.240  -3.478  -1.835  1.00  0.00    -0.273 OA
ATOM      6  H   UNL     1      -0.480  -2.906  -3.983  1.00  0.00     0.163 HD
BRANCH   4   7
ATOM      7  C   UNL     1      -0.963  -1.207  -1.085  1.00  0.00     0.200 C 
BRANCH   7   8
ATOM      8  C   UNL     1       0.451  -0.975  -0.496  1.00  0.00     0.143 C 
ATOM      9  C   UNL     1       1.102  -2.231   0.069  1.00  0.00     0.041 C 
BRANCH   8  10
ATOM     10  O   UNL     1       0.343   0.005   0.549  1.00  0.00    -0.391 OA
ATOM     11  H   UNL     1      -0.234  -0.334   1.252  1.00  0.00     0.211 HD
ENDBRANCH   8  10
ENDBRANCH   7   8
BRANCH   7  12
ATOM     12  N   UNL     1      -1.502   0.097  -1.528  1.00  0.00    -0.338 N 
ATOM     13  C   UNL     1      -2.659   0.417  -2.182  1.00  0.00     0.252 C 
ATOM     14  H   UNL     1      -0.928   0.868  -1.314  1.00  0.00     0.164 HD
ATOM     15  O   UNL     1      -3.076   1.571  -2.185  1.00  0.00    -0.269 OA
BRANCH  13  16
ATOM     16  C   UNL     1      -3.316  -0.570  -3.053  1.00  0.00     0.041 A 
ATOM     17  C   UNL     1      -3.883  -1.747  -2.578  1.00  0.00     0.015 A 
ATOM     18  C   UNL     1      -3.319  -0.289  -4.422  1.00  0.00     0.035 A 
ATOM     19  C   UNL     1      -4.394  -2.675  -3.493  1.00  0.00     0.023 A 
ATOM     20  C   UNL     1      -3.832  -1.219  -5.337  1.00  0.00     0.086 A 
ATOM     21  C   UNL     1      -4.368  -2.422  -4.875  1.00  0.00     0.059 A 
ATOM     22  Cl  UNL     1      -5.059  -3.635  -5.884  1.00  0.00    -0.083 Cl
BRANCH  20  23
ATOM     23  S   UNL     1      -3.663  -0.810  -7.055  1.00  0.00     0.177 S 
ATOM     24  C   UNL     1      -5.176   0.019  -7.453  1.00  0.00     0.164 C 
ATOM     25  O   UNL     1      -2.591   0.174  -7.141  1.00  0.00    -0.224 OA
ATOM     26  O   UNL     1      -3.557  -2.019  -7.836  1.00  0.00    -0.224 OA
ENDBRANCH  20  23
ENDBRANCH  13  16
ENDBRANCH   7  12
ENDBRANCH   4   7
ENDBRANCH   2   3
ENDBRANCH   1   2
BRANCH   1  27
ATOM     27  C   UNL     1       1.506  -2.300  -5.755  1.00  0.00     0.023 C 
BRANCH  27  28
ATOM     28  C   UNL     1       0.697  -1.769  -6.933  1.00  0.00     0.116 C 
BRANCH  28  29
ATOM     29  N   UNL     1       1.292  -0.580  -7.526  1.00  0.00    -0.352 N 
ATOM     30  C   UNL     1       1.404  -0.278  -8.863  1.00  0.00     0.251 C 
ATOM     31  H   UNL     1       1.657   0.084  -6.897  1.00  0.00     0.163 HD
ATOM     32  O   UNL     1       2.046   0.694  -9.245  1.00  0.00    -0.269 OA
BRANCH  30  33
ATOM     33  C   UNL     1       0.756  -1.179  -9.834  1.00  0.00     0.039 A 
ATOM     34  C   UNL     1       1.523  -1.810 -10.812  1.00  0.00     0.014 A 
ATOM     35  C   UNL     1      -0.602  -1.465  -9.696  1.00  0.00     0.014 A 
ATOM     36  C   UNL     1       0.933  -2.790 -11.615  1.00  0.00     0.010 A 
ATOM     37  C   UNL     1      -1.169  -2.488 -10.444  1.00  0.00     0.010 A 
ATOM     38  C   UNL     1      -0.407  -3.163 -11.409  1.00  0.00    -0.014 A 
BRANCH  38  39
ATOM     39  C   UNL     1      -1.048  -4.255 -12.183  1.00  0.00     0.031 A 
ATOM     40  C   UNL     1      -2.224  -3.948 -13.067  1.00  0.00     0.074 A 
ATOM     41  C   UNL     1      -0.639  -5.528 -12.017  1.00  0.00     0.049 A 
ATOM     42  N   UNL     1      -3.016  -4.769 -13.709  1.00  0.00    -0.248 NA
ATOM     43  C   UNL     1      -2.574  -2.527 -13.227  1.00  0.00     0.031 C 
ATOM     44  C   UNL     1       0.463  -5.962 -11.156  1.00  0.00     0.029 A 
ATOM     45  N   UNL     1      -1.121  -6.697 -12.552  1.00  0.00    -0.354 N 
ATOM     46  C   UNL     1      -3.969  -3.967 -14.324  1.00  0.00     0.074 A 
ATOM     47  C   UNL     1      -3.685  -2.601 -13.944  1.00  0.00     0.031 C 
ATOM     48  C   UNL     1       0.582  -7.297 -11.234  1.00  0.00     0.029 A 
ATOM     49  C   UNL     1      -0.459  -7.818 -12.114  1.00  0.00     0.049 A 
ATOM     50  H   UNL     1      -1.871  -6.728 -13.189  1.00  0.00     0.167 HD
ATOM     51  C   UNL     1      -4.978  -4.335 -15.149  1.00  0.00     0.037 A 
ATOM     52  C   UNL     1      -0.678  -9.119 -12.381  1.00  0.00     0.037 A 
ATOM     53  C   UNL     1      -5.240  -5.692 -15.548  1.00  0.00     0.049 A 
ATOM     54  C   UNL     1      -1.807  -9.502 -13.299  1.00  0.00     0.074 A 
ATOM     55  C   UNL     1      -6.213  -6.164 -16.412  1.00  0.00     0.029 A 
ATOM     56  N   UNL     1      -4.519  -6.793 -15.114  1.00  0.00    -0.354 N 
ATOM     57  N   UNL     1      -2.673  -8.731 -13.910  1.00  0.00    -0.248 NA
ATOM     58  C   UNL     1      -1.987 -10.937 -13.567  1.00  0.00     0.031 C 
ATOM     59  C   UNL     1      -6.097  -7.555 -16.481  1.00  0.00     0.029 A 
ATOM     60  C   UNL     1      -5.027  -7.944 -15.692  1.00  0.00     0.049 A 
ATOM     61  H   UNL     1      -3.759  -6.761 -14.489  1.00  0.00     0.167 HD
ATOM     62  C   UNL     1      -3.471  -9.580 -14.666  1.00  0.00     0.074 A 
ATOM     63  C   UNL     1      -2.989 -10.925 -14.436  1.00  0.00     0.031 C 
ATOM     64  C   UNL     1      -4.508  -9.271 -15.480  1.00  0.00     0.037 A 
BRANCH  51  65
ATOM     65  C   UNL     1      -5.862  -3.249 -15.686  1.00  0.00     0.057 A 
ATOM     66  C   UNL     1      -5.403  -2.333 -16.641  1.00  0.00     0.134 A 
ATOM     67  C   UNL     1      -7.196  -3.138 -15.272  1.00  0.00     0.134 A 
ATOM     68  F   UNL     1      -4.133  -2.378 -17.070  1.00  0.00    -0.206 F 
ATOM     69  C   UNL     1      -6.230  -1.329 -17.146  1.00  0.00     0.040 A 
ATOM     70  C   UNL     1      -8.040  -2.155 -15.790  1.00  0.00     0.040 A 
ATOM     71  F   UNL     1      -7.702  -3.987 -14.365  1.00  0.00    -0.206 F 
ATOM     72  C   UNL     1      -7.555  -1.243 -16.726  1.00  0.00     0.006 A 
ENDBRANCH  51  65
BRANCH  52  73
ATOM     73  C   UNL     1       0.204 -10.161 -11.798  1.00  0.00     0.057 A 
ATOM     74  C   UNL     1       1.102 -10.872 -12.603  1.00  0.00     0.134 A 
ATOM     75  C   UNL     1       0.163 -10.483 -10.437  1.00  0.00     0.134 A 
ATOM     76  F   UNL     1       1.173 -10.621 -13.918  1.00  0.00    -0.206 F 
ATOM     77  C   UNL     1       1.911 -11.883 -12.081  1.00  0.00     0.040 A 
ATOM     78  C   UNL     1       0.984 -11.475  -9.896  1.00  0.00     0.040 A 
ATOM     79  F   UNL     1      -0.670  -9.833  -9.611  1.00  0.00    -0.206 F 
ATOM     80  C   UNL     1       1.855 -12.184 -10.722  1.00  0.00     0.006 A 
ENDBRANCH  52  73
BRANCH  64  81
ATOM     81  C   UNL     1      -5.149 -10.392 -16.241  1.00  0.00     0.057 A 
ATOM     82  C   UNL     1      -6.011 -11.308 -15.627  1.00  0.00     0.134 A 
ATOM     83  C   UNL     1      -4.948 -10.513 -17.622  1.00  0.00     0.134 A 
ATOM     84  F   UNL     1      -6.234 -11.252 -14.305  1.00  0.00    -0.206 F 
ATOM     85  C   UNL     1      -6.644 -12.313 -16.360  1.00  0.00     0.040 A 
ATOM     86  C   UNL     1      -5.592 -11.499 -18.369  1.00  0.00     0.040 A 
ATOM     87  F   UNL     1      -4.139  -9.661 -18.269  1.00  0.00    -0.206 F 
ATOM     88  C   UNL     1      -6.442 -12.404 -17.737  1.00  0.00     0.006 A 
ENDBRANCH  64  81
ENDBRANCH  38  39
ENDBRANCH  30  33
ENDBRANCH  28  29
ENDBRANCH  27  28
ENDBRANCH   1  27
TORSDOF 16
