REMARK SMILES C[C@]12C[C@@H](O)[C@H]3[C@@H](CCC4=CC(=O)C=C[C@]43C)[C@H]1CC[C@]2(O)C(=O)COC(=O)CCC(=O)NCCCCNC(=O)c1ccc(-c2c3nc(c(-c4c(F)cccc4F)c4ccc([nH]4)c(-c4c(F)cccc4F)c4nc(c(-c5c(F)cccc5F)c5ccc2[nH]5)C=C4)C=C3)cc1
REMARK SMILES IDX 31 1 32 2 33 3 30 5 29 6 27 7 28 8 26 9 25 10 23 11 24 12
REMARK SMILES IDX 21 13 17 14 16 15 15 16 10 17 6 18 14 19 11 20 9 21 7 22
REMARK SMILES IDX 4 23 12 24 8 25 18 26 3 27 13 28 2 29 19 30 1 31 20 32 5 33
REMARK SMILES IDX 22 35 34 37 35 38 36 39 37 40 38 41 39 42 40 44 41 45 42 46
REMARK SMILES IDX 94 47 43 48 93 49 44 50 45 51 46 52 87 53 47 54 92 55 86 56
REMARK SMILES IDX 88 57 48 58 91 59 85 60 84 61 49 63 75 64 58 65 74 66 59 67
REMARK SMILES IDX 62 68 73 69 89 70 60 71 61 72 72 74 90 75 63 76 50 77 51 78
REMARK SMILES IDX 56 79 52 80 53 81 55 82 57 83 54 84 76 85 77 86 82 87 78 88
REMARK SMILES IDX 79 89 81 90 83 91 80 92 64 93 65 94 70 95 66 96 67 97 69 98
REMARK SMILES IDX 71 99 68 100
REMARK H PARENT 33 4 5 34 22 36 38 43 88 62 62 73
REMARK Flexibility Score: inf
ROOT
ATOM      1  C   UNL     1       7.463   3.317  -5.805  1.00  0.00     0.220 C 
ATOM      2  O   UNL     1       8.436   3.796  -5.217  1.00  0.00    -0.275 OA
ATOM      3  N   UNL     1       7.251   1.980  -5.673  1.00  0.00    -0.356 N 
ATOM      4  H   UNL     1       7.960   1.495  -5.193  1.00  0.00     0.163 HD
ENDROOT
BRANCH   1   5
ATOM      5  C   UNL     1       6.515   4.227  -6.574  1.00  0.00     0.111 C 
BRANCH   5   6
ATOM      6  C   UNL     1       6.269   3.866  -8.035  1.00  0.00     0.132 C 
BRANCH   6   7
ATOM      7  C   UNL     1       4.792   3.811  -8.375  1.00  0.00     0.306 C 
ATOM      8  O   UNL     1       4.047   4.781  -8.367  1.00  0.00    -0.252 OA
BRANCH   7   9
ATOM      9  O   UNL     1       4.394   2.542  -8.653  1.00  0.00    -0.458 OA
BRANCH   9  10
ATOM     10  C   UNL     1       3.019   2.348  -8.999  1.00  0.00     0.311 C 
BRANCH  10  11
ATOM     11  C   UNL     1       1.911   2.385  -7.910  1.00  0.00     0.202 C 
ATOM     12  O   UNL     1       0.770   2.750  -8.200  1.00  0.00    -0.293 OA
BRANCH  11  13
ATOM     13  C   UNL     1       2.297   1.914  -6.486  1.00  0.00     0.132 C 
ATOM     14  C   UNL     1       1.239   0.113  -0.022  1.00  0.00     0.021 C 
ATOM     15  C   UNL     1       0.189   0.679  -1.028  1.00  0.00     0.013 C 
ATOM     16  C   UNL     1      -0.914  -0.385  -1.129  1.00  0.00    -0.012 C 
ATOM     17  C   UNL     1      -0.440   1.927  -0.366  1.00  0.00    -0.056 C 
ATOM     18  C   UNL     1       0.950   0.975  -2.396  1.00  0.00     0.035 C 
ATOM     19  C   UNL     1      -1.887  -0.508  -0.212  1.00  0.00     0.048 C 
ATOM     20  C   UNL     1      -1.391   1.803   0.585  1.00  0.00     0.052 C 
ATOM     21  C   UNL     1      -0.143   3.322  -0.837  1.00  0.00     0.032 C 
ATOM     22  C   UNL     1       0.432   2.258  -3.081  1.00  0.00    -0.000 C 
ATOM     23  C   UNL     1       1.038  -0.207  -3.388  1.00  0.00     0.119 C 
ATOM     24  C   UNL     1      -1.988   0.483   0.879  1.00  0.00     0.178 C 
ATOM     25  C   UNL     1       0.668   3.429  -2.112  1.00  0.00     0.009 C 
ATOM     26  C   UNL     1       1.086   2.577  -4.442  1.00  0.00     0.002 C 
ATOM     27  C   UNL     1       1.776   0.159  -4.672  1.00  0.00     0.042 C 
ATOM     28  O   UNL     1      -2.613   0.261   1.905  1.00  0.00    -0.290 OA
ATOM     29  C   UNL     1       1.227   1.398  -5.437  1.00  0.00     0.009 C 
ATOM     30  C   UNL     1       2.515   3.105  -4.350  1.00  0.00     0.008 C 
ATOM     31  C   UNL     1      -0.124   1.032  -6.062  1.00  0.00     0.015 C 
ATOM     32  C   UNL     1       2.940   3.132  -5.800  1.00  0.00     0.044 C 
BRANCH  23  33
ATOM     33  O   UNL     1       1.780  -1.296  -2.833  1.00  0.00    -0.393 OA
ATOM     34  H   UNL     1       2.693  -1.014  -2.666  1.00  0.00     0.210 HD
ENDBRANCH  23  33
BRANCH  13  35
ATOM     35  O   UNL     1       3.265   0.884  -6.687  1.00  0.00    -0.381 OA
ATOM     36  H   UNL     1       3.554   0.540  -5.828  1.00  0.00     0.212 HD
ENDBRANCH  13  35
ENDBRANCH  11  13
ENDBRANCH  10  11
ENDBRANCH   9  10
ENDBRANCH   7   9
ENDBRANCH   6   7
ENDBRANCH   5   6
ENDBRANCH   1   5
BRANCH   3  37
ATOM     37  C   UNL     1       6.151   1.153  -6.126  1.00  0.00     0.116 C 
BRANCH  37  38
ATOM     38  C   UNL     1       6.520   0.248  -7.302  1.00  0.00     0.023 C 
BRANCH  38  39
ATOM     39  C   UNL     1       6.431  -1.253  -7.022  1.00  0.00     0.023 C 
BRANCH  39  40
ATOM     40  C   UNL     1       5.060  -1.806  -6.637  1.00  0.00     0.116 C 
BRANCH  40  41
ATOM     41  N   UNL     1       4.033  -1.675  -7.664  1.00  0.00    -0.352 N 
ATOM     42  C   UNL     1       2.907  -2.454  -7.844  1.00  0.00     0.251 C 
ATOM     43  H   UNL     1       4.158  -0.941  -8.308  1.00  0.00     0.163 HD
ATOM     44  O   UNL     1       2.070  -2.142  -8.683  1.00  0.00    -0.269 OA
BRANCH  42  45
ATOM     45  C   UNL     1       2.759  -3.697  -7.054  1.00  0.00     0.039 A 
ATOM     46  C   UNL     1       2.647  -4.912  -7.739  1.00  0.00     0.014 A 
ATOM     47  C   UNL     1       2.876  -3.680  -5.664  1.00  0.00     0.014 A 
ATOM     48  C   UNL     1       2.792  -6.113  -7.040  1.00  0.00     0.010 A 
ATOM     49  C   UNL     1       3.089  -4.873  -4.981  1.00  0.00     0.010 A 
ATOM     50  C   UNL     1       3.088  -6.098  -5.668  1.00  0.00    -0.014 A 
BRANCH  50  51
ATOM     51  C   UNL     1       3.478  -7.330  -4.935  1.00  0.00     0.031 A 
ATOM     52  C   UNL     1       2.646  -7.818  -3.784  1.00  0.00     0.074 A 
ATOM     53  C   UNL     1       4.648  -7.934  -5.227  1.00  0.00     0.049 A 
ATOM     54  N   UNL     1       2.893  -8.779  -2.933  1.00  0.00    -0.248 NA
ATOM     55  C   UNL     1       1.382  -7.106  -3.539  1.00  0.00     0.031 C 
ATOM     56  C   UNL     1       5.577  -7.521  -6.282  1.00  0.00     0.029 A 
ATOM     57  N   UNL     1       5.270  -9.011  -4.645  1.00  0.00    -0.354 N 
ATOM     58  C   UNL     1       1.829  -8.775  -2.041  1.00  0.00     0.074 A 
ATOM     59  C   UNL     1       0.959  -7.685  -2.425  1.00  0.00     0.031 C 
ATOM     60  C   UNL     1       6.639  -8.343  -6.282  1.00  0.00     0.029 A 
ATOM     61  C   UNL     1       6.489  -9.314  -5.204  1.00  0.00     0.049 A 
ATOM     62  H   UNL     1       4.880  -9.520  -3.898  1.00  0.00     0.167 HD
ATOM     63  C   UNL     1       1.589  -9.617  -1.007  1.00  0.00     0.037 A 
ATOM     64  C   UNL     1       7.391 -10.260  -4.877  1.00  0.00     0.037 A 
ATOM     65  C   UNL     1       2.446 -10.714  -0.642  1.00  0.00     0.049 A 
ATOM     66  C   UNL     1       7.097 -11.187  -3.729  1.00  0.00     0.074 A 
ATOM     67  C   UNL     1       2.264 -11.656   0.355  1.00  0.00     0.029 A 
ATOM     68  N   UNL     1       3.648 -11.018  -1.265  1.00  0.00    -0.354 N 
ATOM     69  N   UNL     1       6.055 -11.211  -2.934  1.00  0.00    -0.248 NA
ATOM     70  C   UNL     1       8.100 -12.221  -3.437  1.00  0.00     0.031 C 
ATOM     71  C   UNL     1       3.373 -12.509   0.359  1.00  0.00     0.029 A 
ATOM     72  C   UNL     1       4.223 -12.126  -0.666  1.00  0.00     0.049 A 
ATOM     73  H   UNL     1       4.035 -10.519  -2.020  1.00  0.00     0.167 HD
ATOM     74  C   UNL     1       6.258 -12.283  -2.074  1.00  0.00     0.074 A 
ATOM     75  C   UNL     1       7.521 -12.886  -2.448  1.00  0.00     0.031 C 
ATOM     76  C   UNL     1       5.468 -12.728  -1.067  1.00  0.00     0.037 A 
BRANCH  63  77
ATOM     77  C   UNL     1       0.344  -9.384  -0.203  1.00  0.00     0.057 A 
ATOM     78  C   UNL     1      -0.930  -9.632  -0.732  1.00  0.00     0.134 A 
ATOM     79  C   UNL     1       0.417  -8.932   1.120  1.00  0.00     0.134 A 
ATOM     80  F   UNL     1      -1.071 -10.054  -1.998  1.00  0.00    -0.206 F 
ATOM     81  C   UNL     1      -2.088  -9.411   0.016  1.00  0.00     0.040 A 
ATOM     82  C   UNL     1      -0.733  -8.734   1.888  1.00  0.00     0.040 A 
ATOM     83  F   UNL     1       1.605  -8.681   1.690  1.00  0.00    -0.206 F 
ATOM     84  C   UNL     1      -1.990  -8.966   1.333  1.00  0.00     0.006 A 
ENDBRANCH  63  77
BRANCH  64  85
ATOM     85  C   UNL     1       8.644 -10.403  -5.661  1.00  0.00     0.057 A 
ATOM     86  C   UNL     1       8.845 -11.508  -6.498  1.00  0.00     0.134 A 
ATOM     87  C   UNL     1       9.673  -9.457  -5.585  1.00  0.00     0.134 A 
ATOM     88  F   UNL     1       7.904 -12.457  -6.599  1.00  0.00    -0.206 F 
ATOM     89  C   UNL     1      10.032 -11.679  -7.213  1.00  0.00     0.040 A 
ATOM     90  C   UNL     1      10.855  -9.603  -6.313  1.00  0.00     0.040 A 
ATOM     91  F   UNL     1       9.540  -8.372  -4.809  1.00  0.00    -0.206 F 
ATOM     92  C   UNL     1      11.040 -10.722  -7.124  1.00  0.00     0.006 A 
ENDBRANCH  64  85
BRANCH  76  93
ATOM     93  C   UNL     1       5.914 -13.959  -0.335  1.00  0.00     0.057 A 
ATOM     94  C   UNL     1       6.975 -13.937   0.578  1.00  0.00     0.134 A 
ATOM     95  C   UNL     1       5.232 -15.171  -0.508  1.00  0.00     0.134 A 
ATOM     96  F   UNL     1       7.676 -12.811   0.779  1.00  0.00    -0.206 F 
ATOM     97  C   UNL     1       7.353 -15.082   1.281  1.00  0.00     0.040 A 
ATOM     98  C   UNL     1       5.585 -16.315   0.207  1.00  0.00     0.040 A 
ATOM     99  F   UNL     1       4.202 -15.256  -1.363  1.00  0.00    -0.206 F 
ATOM    100  C   UNL     1       6.652 -16.273   1.103  1.00  0.00     0.006 A 
ENDBRANCH  76  93
ENDBRANCH  50  51
ENDBRANCH  42  45
ENDBRANCH  40  41
ENDBRANCH  39  40
ENDBRANCH  38  39
ENDBRANCH  37  38
ENDBRANCH   3  37
TORSDOF 19
