REMARK SMILES Cc1ccc(C)c(-c2cc(C(=O)NCCCCNC(=O)c3ccc(-c4c5nc(c(-c6c(F)cccc6F)c6ccc([nH]6)c(-c6c(F)cccc6F)c6nc(c(-c7c(F)cccc7F)c7ccc4[nH]7)C=C6)C=C5)cc3)c3cc(C)ccc3n2)c1
REMARK SMILES IDX 16 1 15 2 14 3 13 4 11 5 12 6 10 8 8 9 9 10 82 11 81 12
REMARK SMILES IDX 75 13 80 14 76 15 79 16 77 17 78 18 7 19 1 20 2 21 3 22
REMARK SMILES IDX 83 23 4 24 5 25 6 26 17 27 18 28 19 29 20 31 21 32 22 33
REMARK SMILES IDX 74 34 23 35 73 36 24 37 25 38 26 39 67 40 27 41 72 42 66 43
REMARK SMILES IDX 68 44 28 45 71 46 65 47 64 48 29 50 55 51 38 52 54 53 39 54
REMARK SMILES IDX 42 55 53 56 69 57 40 58 41 59 52 61 70 62 43 63 30 64 31 65
REMARK SMILES IDX 36 66 32 67 33 68 35 69 37 70 34 71 56 72 57 73 62 74 58 75
REMARK SMILES IDX 59 76 61 77 63 78 60 79 44 80 45 81 50 82 46 83 47 84 49 85
REMARK SMILES IDX 51 86 48 87
REMARK H PARENT 13 7 18 30 68 49 42 60
REMARK Flexibility Score: inf
ROOT
ATOM      1  C   UNL     1      -2.124  10.266  -1.233  1.00  0.00     0.023 C 
ENDROOT
BRANCH   1   2
ATOM      2  C   UNL     1      -1.922   9.050  -0.321  1.00  0.00     0.023 C 
BRANCH   2   3
ATOM      3  C   UNL     1      -2.544   7.694  -0.642  1.00  0.00     0.116 C 
BRANCH   3   4
ATOM      4  N   UNL     1      -2.109   6.959  -1.821  1.00  0.00    -0.352 N 
ATOM      5  C   UNL     1      -2.067   5.587  -2.064  1.00  0.00     0.252 C 
ATOM      6  O   UNL     1      -1.747   5.217  -3.195  1.00  0.00    -0.269 OA
ATOM      7  H   UNL     1      -1.794   7.521  -2.566  1.00  0.00     0.163 HD
BRANCH   5   8
ATOM      8  C   UNL     1      -2.286   4.535  -1.012  1.00  0.00     0.051 A 
ATOM      9  C   UNL     1      -1.452   2.516  -0.001  1.00  0.00     0.072 A 
ATOM     10  C   UNL     1      -1.413   3.433  -1.043  1.00  0.00     0.043 A 
ATOM     11  N   UNL     1      -2.207   2.728   1.101  1.00  0.00    -0.248 NA
ATOM     12  C   UNL     1      -3.072   3.751   1.112  1.00  0.00     0.072 A 
ATOM     13  C   UNL     1      -3.253   4.604   0.011  1.00  0.00     0.013 A 
ATOM     14  C   UNL     1      -3.805   3.993   2.266  1.00  0.00     0.029 A 
ATOM     15  C   UNL     1      -4.356   5.483   0.022  1.00  0.00     0.014 A 
ATOM     16  C   UNL     1      -4.732   5.036   2.343  1.00  0.00     0.005 A 
ATOM     17  C   UNL     1      -5.035   5.776   1.206  1.00  0.00    -0.050 A 
ATOM     18  C   UNL     1      -5.932   6.976   1.270  1.00  0.00     0.044 C 
BRANCH   9  19
ATOM     19  C   UNL     1      -0.718   1.236  -0.020  1.00  0.00     0.003 A 
ATOM     20  C   UNL     1       2.926   0.026   0.011  1.00  0.00     0.044 C 
ATOM     21  C   UNL     1       1.426   0.027  -0.008  1.00  0.00    -0.050 A 
ATOM     22  C   UNL     1       0.741  -1.189  -0.012  1.00  0.00     0.004 A 
ATOM     23  C   UNL     1       0.693   1.226  -0.009  1.00  0.00     0.014 A 
ATOM     24  C   UNL     1      -0.650  -1.208  -0.022  1.00  0.00     0.004 A 
ATOM     25  C   UNL     1      -1.391  -0.012  -0.034  1.00  0.00    -0.042 A 
ATOM     26  C   UNL     1      -2.893  -0.143  -0.039  1.00  0.00     0.045 C 
ENDBRANCH   9  19
ENDBRANCH   5   8
ENDBRANCH   3   4
ENDBRANCH   2   3
ENDBRANCH   1   2
BRANCH   1  27
ATOM     27  C   UNL     1      -3.508  10.601  -1.789  1.00  0.00     0.116 C 
BRANCH  27  28
ATOM     28  N   UNL     1      -4.582  10.749  -0.797  1.00  0.00    -0.352 N 
ATOM     29  C   UNL     1      -5.965  10.684  -0.966  1.00  0.00     0.251 C 
ATOM     30  H   UNL     1      -4.280  10.919   0.125  1.00  0.00     0.163 HD
ATOM     31  O   UNL     1      -6.709  11.251  -0.182  1.00  0.00    -0.269 OA
BRANCH  29  32
ATOM     32  C   UNL     1      -6.537   9.906  -2.091  1.00  0.00     0.039 A 
ATOM     33  C   UNL     1      -7.798  10.151  -2.647  1.00  0.00     0.014 A 
ATOM     34  C   UNL     1      -5.765   8.876  -2.597  1.00  0.00     0.014 A 
ATOM     35  C   UNL     1      -8.215   9.373  -3.734  1.00  0.00     0.010 A 
ATOM     36  C   UNL     1      -6.038   8.328  -3.811  1.00  0.00     0.010 A 
ATOM     37  C   UNL     1      -7.314   8.463  -4.309  1.00  0.00    -0.014 A 
BRANCH  37  38
ATOM     38  C   UNL     1      -7.611   7.666  -5.487  1.00  0.00     0.031 A 
ATOM     39  C   UNL     1      -7.912   8.468  -6.688  1.00  0.00     0.074 A 
ATOM     40  C   UNL     1      -7.345   6.343  -5.584  1.00  0.00     0.049 A 
ATOM     41  N   UNL     1      -9.066   8.658  -7.228  1.00  0.00    -0.248 NA
ATOM     42  C   UNL     1      -6.834   9.290  -7.258  1.00  0.00     0.031 C 
ATOM     43  C   UNL     1      -6.652   5.471  -4.625  1.00  0.00     0.029 A 
ATOM     44  N   UNL     1      -7.556   5.511  -6.640  1.00  0.00    -0.354 N 
ATOM     45  C   UNL     1      -8.823   9.431  -8.356  1.00  0.00     0.074 A 
ATOM     46  C   UNL     1      -7.504   9.981  -8.182  1.00  0.00     0.031 C 
ATOM     47  C   UNL     1      -6.327   4.304  -5.224  1.00  0.00     0.029 A 
ATOM     48  C   UNL     1      -6.927   4.274  -6.545  1.00  0.00     0.049 A 
ATOM     49  H   UNL     1      -8.111   5.765  -7.413  1.00  0.00     0.167 HD
ATOM     50  C   UNL     1      -9.614   9.312  -9.457  1.00  0.00     0.037 A 
ATOM     51  C   UNL     1      -6.892   3.309  -7.497  1.00  0.00     0.037 A 
ATOM     52  C   UNL     1     -10.820   8.577  -9.142  1.00  0.00     0.049 A 
ATOM     53  C   UNL     1      -7.988   3.600  -8.455  1.00  0.00     0.074 A 
ATOM     54  C   UNL     1     -11.840   8.725  -8.220  1.00  0.00     0.029 A 
ATOM     55  N   UNL     1     -10.894   7.272  -9.570  1.00  0.00    -0.354 N 
ATOM     56  N   UNL     1      -9.256   3.481  -8.178  1.00  0.00    -0.248 NA
ATOM     57  C   UNL     1      -7.678   4.433  -9.606  1.00  0.00     0.031 C 
ATOM     58  C   UNL     1     -12.153   7.399  -7.797  1.00  0.00     0.029 A 
ATOM     59  C   UNL     1     -11.365   6.513  -8.532  1.00  0.00     0.049 A 
ATOM     60  H   UNL     1     -10.652   6.942 -10.466  1.00  0.00     0.167 HD
ATOM     61  C   UNL     1      -9.855   4.558  -8.812  1.00  0.00     0.074 A 
ATOM     62  C   UNL     1      -8.859   5.034  -9.769  1.00  0.00     0.031 C 
ATOM     63  C   UNL     1     -10.977   5.140  -8.296  1.00  0.00     0.037 A 
BRANCH  50  64
ATOM     64  C   UNL     1      -9.139   9.490 -10.883  1.00  0.00     0.057 A 
ATOM     65  C   UNL     1     -10.088   9.415 -11.920  1.00  0.00     0.134 A 
ATOM     66  C   UNL     1      -7.795   9.451 -11.308  1.00  0.00     0.134 A 
ATOM     67  F   UNL     1     -11.403   9.442 -11.654  1.00  0.00    -0.206 F 
ATOM     68  C   UNL     1      -9.730   9.218 -13.258  1.00  0.00     0.040 A 
ATOM     69  C   UNL     1      -7.426   9.312 -12.649  1.00  0.00     0.040 A 
ATOM     70  F   UNL     1      -6.762   9.446 -10.460  1.00  0.00    -0.206 F 
ATOM     71  C   UNL     1      -8.394   9.156 -13.626  1.00  0.00     0.006 A 
ENDBRANCH  50  64
BRANCH  51  72
ATOM     72  C   UNL     1      -5.873   2.274  -7.782  1.00  0.00     0.057 A 
ATOM     73  C   UNL     1      -6.163   1.188  -8.623  1.00  0.00     0.134 A 
ATOM     74  C   UNL     1      -4.516   2.471  -7.479  1.00  0.00     0.134 A 
ATOM     75  F   UNL     1      -7.426   0.931  -8.995  1.00  0.00    -0.206 F 
ATOM     76  C   UNL     1      -5.161   0.375  -9.169  1.00  0.00     0.040 A 
ATOM     77  C   UNL     1      -3.505   1.661  -8.010  1.00  0.00     0.040 A 
ATOM     78  F   UNL     1      -4.118   3.514  -6.737  1.00  0.00    -0.206 F 
ATOM     79  C   UNL     1      -3.824   0.620  -8.874  1.00  0.00     0.006 A 
ENDBRANCH  51  72
BRANCH  63  80
ATOM     80  C   UNL     1     -11.735   4.394  -7.230  1.00  0.00     0.057 A 
ATOM     81  C   UNL     1     -11.212   4.040  -5.977  1.00  0.00     0.134 A 
ATOM     82  C   UNL     1     -13.098   4.148  -7.436  1.00  0.00     0.134 A 
ATOM     83  F   UNL     1      -9.946   4.320  -5.644  1.00  0.00    -0.206 F 
ATOM     84  C   UNL     1     -12.000   3.430  -4.995  1.00  0.00     0.040 A 
ATOM     85  C   UNL     1     -13.904   3.576  -6.450  1.00  0.00     0.040 A 
ATOM     86  F   UNL     1     -13.682   4.505  -8.591  1.00  0.00    -0.206 F 
ATOM     87  C   UNL     1     -13.353   3.204  -5.227  1.00  0.00     0.006 A 
ENDBRANCH  63  80
ENDBRANCH  37  38
ENDBRANCH  29  32
ENDBRANCH  27  28
ENDBRANCH   1  27
TORSDOF 12
