REMARK SMILES Cc1cccc2c1[C@H]1c3c(C)cccc3[C@H](CC(=O)NCCCCNC(=O)c3ccc(-c4c5nc(c(-c6c(F)cccc6F)c6ccc([nH]6)c(-c6c(F)cccc6F)c6nc(c(-c7c(F)cccc7F)c7ccc4[nH]7)C=C6)C=C5)cc3)C[C@H]1CC2
REMARK SMILES IDX 23 1 22 2 21 3 20 4 18 5 19 6 17 8 16 9 1 10 2 11 3 12 7 13
REMARK SMILES IDX 4 14 6 15 8 16 5 17 85 18 9 19 83 20 84 21 10 22 15 23 82 24
REMARK SMILES IDX 12 25 11 26 14 27 13 28 24 29 25 30 26 31 27 33 28 34 29 35
REMARK SMILES IDX 81 36 30 37 80 38 31 39 32 40 33 41 74 42 34 43 79 44 73 45
REMARK SMILES IDX 75 46 35 47 78 48 72 49 71 50 36 52 62 53 45 54 61 55 46 56
REMARK SMILES IDX 49 57 60 58 76 59 47 60 48 61 59 63 77 64 50 65 37 66 38 67
REMARK SMILES IDX 43 68 39 69 40 70 42 71 44 72 41 73 63 74 64 75 69 76 65 77
REMARK SMILES IDX 66 78 68 79 70 80 67 81 51 82 52 83 57 84 53 85 54 86 56 87
REMARK SMILES IDX 58 88 55 89
REMARK H PARENT 20 7 25 32 75 51 49 62
REMARK Flexibility Score: inf
ROOT
ATOM      1  C   UNL     1      -1.507  -5.218   6.861  1.00  0.00     0.023 C 
ENDROOT
BRANCH   1   2
ATOM      2  C   UNL     1      -1.006  -3.843   6.443  1.00  0.00     0.023 C 
BRANCH   2   3
ATOM      3  C   UNL     1      -2.070  -2.743   6.465  1.00  0.00     0.116 C 
BRANCH   3   4
ATOM      4  N   UNL     1      -1.781  -1.692   7.429  1.00  0.00    -0.356 N 
ATOM      5  C   UNL     1      -0.965  -0.611   7.452  1.00  0.00     0.220 C 
ATOM      6  O   UNL     1      -1.097   0.128   8.439  1.00  0.00    -0.275 OA
ATOM      7  H   UNL     1      -2.300  -1.790   8.260  1.00  0.00     0.163 HD
BRANCH   5   8
ATOM      8  C   UNL     1       0.143  -0.280   6.447  1.00  0.00     0.108 C 
BRANCH   8   9
ATOM      9  C   UNL     1       0.083  -0.818   5.014  1.00  0.00     0.029 C 
ATOM     10  C   UNL     1       1.382   0.248  -0.671  1.00  0.00     0.044 C 
ATOM     11  C   UNL     1       0.866  -1.160  -0.527  1.00  0.00    -0.047 A 
ATOM     12  C   UNL     1       0.688  -1.915  -1.702  1.00  0.00     0.004 A 
ATOM     13  C   UNL     1       0.635  -1.762   0.734  1.00  0.00    -0.034 A 
ATOM     14  C   UNL     1       0.330  -3.258  -1.647  1.00  0.00     0.001 A 
ATOM     15  C   UNL     1       0.461  -3.167   0.767  1.00  0.00    -0.044 A 
ATOM     16  C   UNL     1       0.605  -0.952   2.040  1.00  0.00     0.053 C 
ATOM     17  C   UNL     1       0.256  -3.891  -0.417  1.00  0.00     0.004 A 
ATOM     18  C   UNL     1       0.696  -3.973   2.016  1.00  0.00     0.036 C 
ATOM     19  C   UNL     1      -0.767  -0.428   2.596  1.00  0.00    -0.034 A 
ATOM     20  C   UNL     1       1.391  -1.764   3.094  1.00  0.00     0.002 C 
ATOM     21  C   UNL     1       0.728  -3.142   3.279  1.00  0.00     0.009 C 
ATOM     22  C   UNL     1      -1.866  -0.031   1.779  1.00  0.00    -0.047 A 
ATOM     23  C   UNL     1      -0.888  -0.189   4.015  1.00  0.00    -0.040 A 
ATOM     24  C   UNL     1       1.478  -0.968   4.405  1.00  0.00     0.013 C 
ATOM     25  C   UNL     1      -2.970   0.642   2.349  1.00  0.00     0.004 A 
ATOM     26  C   UNL     1      -1.995  -0.273   0.300  1.00  0.00     0.044 C 
ATOM     27  C   UNL     1      -2.006   0.504   4.525  1.00  0.00     0.004 A 
ATOM     28  C   UNL     1      -3.032   0.927   3.700  1.00  0.00     0.001 A 
ENDBRANCH   8   9
ENDBRANCH   5   8
ENDBRANCH   3   4
ENDBRANCH   2   3
ENDBRANCH   1   2
BRANCH   1  29
ATOM     29  C   UNL     1      -2.588  -5.801   5.956  1.00  0.00     0.116 C 
BRANCH  29  30
ATOM     30  N   UNL     1      -2.146  -6.086   4.595  1.00  0.00    -0.352 N 
ATOM     31  C   UNL     1      -2.417  -7.208   3.836  1.00  0.00     0.251 C 
ATOM     32  H   UNL     1      -1.588  -5.397   4.167  1.00  0.00     0.163 HD
ATOM     33  O   UNL     1      -1.945  -7.358   2.721  1.00  0.00    -0.269 OA
BRANCH  31  34
ATOM     34  C   UNL     1      -3.266  -8.254   4.442  1.00  0.00     0.039 A 
ATOM     35  C   UNL     1      -2.730  -9.527   4.648  1.00  0.00     0.014 A 
ATOM     36  C   UNL     1      -4.523  -7.912   4.944  1.00  0.00     0.014 A 
ATOM     37  C   UNL     1      -3.417 -10.434   5.458  1.00  0.00     0.010 A 
ATOM     38  C   UNL     1      -5.167  -8.787   5.807  1.00  0.00     0.010 A 
ATOM     39  C   UNL     1      -4.612 -10.048   6.085  1.00  0.00    -0.014 A 
BRANCH  39  40
ATOM     40  C   UNL     1      -5.326 -10.938   7.030  1.00  0.00     0.031 A 
ATOM     41  C   UNL     1      -6.699 -11.426   6.673  1.00  0.00     0.074 A 
ATOM     42  C   UNL     1      -4.798 -11.211   8.239  1.00  0.00     0.049 A 
ATOM     43  N   UNL     1      -7.577 -12.050   7.414  1.00  0.00    -0.248 NA
ATOM     44  C   UNL     1      -7.158 -11.135   5.305  1.00  0.00     0.031 C 
ATOM     45  C   UNL     1      -3.486 -10.768   8.716  1.00  0.00     0.029 A 
ATOM     46  N   UNL     1      -5.318 -11.908   9.301  1.00  0.00    -0.354 N 
ATOM     47  C   UNL     1      -8.699 -12.204   6.611  1.00  0.00     0.074 A 
ATOM     48  C   UNL     1      -8.410 -11.564   5.346  1.00  0.00     0.031 C 
ATOM     49  C   UNL     1      -3.302 -11.213   9.972  1.00  0.00     0.029 A 
ATOM     50  C   UNL     1      -4.496 -11.933  10.402  1.00  0.00     0.049 A 
ATOM     51  H   UNL     1      -6.198 -12.350   9.276  1.00  0.00     0.167 HD
ATOM     52  C   UNL     1      -9.859 -12.841   6.894  1.00  0.00     0.037 A 
ATOM     53  C   UNL     1      -4.697 -12.461  11.624  1.00  0.00     0.037 A 
ATOM     54  C   UNL     1     -10.130 -13.503   8.140  1.00  0.00     0.049 A 
ATOM     55  C   UNL     1      -6.006 -13.138  11.925  1.00  0.00     0.074 A 
ATOM     56  C   UNL     1     -11.246 -14.235   8.505  1.00  0.00     0.029 A 
ATOM     57  N   UNL     1      -9.268 -13.514   9.227  1.00  0.00    -0.354 N 
ATOM     58  N   UNL     1      -7.042 -13.320  11.142  1.00  0.00    -0.248 NA
ATOM     59  C   UNL     1      -6.177 -13.674  13.283  1.00  0.00     0.031 C 
ATOM     60  C   UNL     1     -11.072 -14.663   9.826  1.00  0.00     0.029 A 
ATOM     61  C   UNL     1      -9.836 -14.222  10.272  1.00  0.00     0.049 A 
ATOM     62  H   UNL     1      -8.384 -13.081   9.251  1.00  0.00     0.167 HD
ATOM     63  C   UNL     1      -7.978 -14.007  11.903  1.00  0.00     0.074 A 
ATOM     64  C   UNL     1      -7.383 -14.221  13.207  1.00  0.00     0.031 C 
ATOM     65  C   UNL     1      -9.221 -14.422  11.558  1.00  0.00     0.037 A 
BRANCH  52  66
ATOM     66  C   UNL     1     -10.909 -12.846   5.825  1.00  0.00     0.057 A 
ATOM     67  C   UNL     1     -12.070 -12.076   5.957  1.00  0.00     0.134 A 
ATOM     68  C   UNL     1     -10.762 -13.604   4.655  1.00  0.00     0.134 A 
ATOM     69  F   UNL     1     -12.271 -11.328   7.052  1.00  0.00    -0.206 F 
ATOM     70  C   UNL     1     -13.045 -12.053   4.959  1.00  0.00     0.040 A 
ATOM     71  C   UNL     1     -11.718 -13.569   3.639  1.00  0.00     0.040 A 
ATOM     72  F   UNL     1      -9.662 -14.347   4.461  1.00  0.00    -0.206 F 
ATOM     73  C   UNL     1     -12.866 -12.794   3.792  1.00  0.00     0.006 A 
ENDBRANCH  52  66
BRANCH  53  74
ATOM     74  C   UNL     1      -3.640 -12.377  12.663  1.00  0.00     0.057 A 
ATOM     75  C   UNL     1      -3.335 -11.174  13.308  1.00  0.00     0.134 A 
ATOM     76  C   UNL     1      -2.933 -13.519  13.058  1.00  0.00     0.134 A 
ATOM     77  F   UNL     1      -3.977 -10.044  12.975  1.00  0.00    -0.206 F 
ATOM     78  C   UNL     1      -2.364 -11.108  14.309  1.00  0.00     0.040 A 
ATOM     79  C   UNL     1      -1.973 -13.472  14.071  1.00  0.00     0.040 A 
ATOM     80  F   UNL     1      -3.198 -14.705  12.492  1.00  0.00    -0.206 F 
ATOM     81  C   UNL     1      -1.685 -12.262  14.698  1.00  0.00     0.006 A 
ENDBRANCH  53  74
BRANCH  65  82
ATOM     82  C   UNL     1     -10.005 -15.162  12.599  1.00  0.00     0.057 A 
ATOM     83  C   UNL     1     -10.196 -16.545  12.500  1.00  0.00     0.134 A 
ATOM     84  C   UNL     1     -10.604 -14.497  13.675  1.00  0.00     0.134 A 
ATOM     85  F   UNL     1      -9.651 -17.238  11.488  1.00  0.00    -0.206 F 
ATOM     86  C   UNL     1     -10.963 -17.242  13.433  1.00  0.00     0.040 A 
ATOM     87  C   UNL     1     -11.357 -15.187  14.627  1.00  0.00     0.040 A 
ATOM     88  F   UNL     1     -10.444 -13.175  13.832  1.00  0.00    -0.206 F 
ATOM     89  C   UNL     1     -11.543 -16.563  14.503  1.00  0.00     0.006 A 
ENDBRANCH  65  82
ENDBRANCH  39  40
ENDBRANCH  31  34
ENDBRANCH  29  30
ENDBRANCH   1  29
TORSDOF 12
