REMARK SMILES O=C(NCCCCNC(=O)[C@H]1CCCN(C(=O)CCOc2ccc(F)cc2)C1)c1ccc(-c2c3nc(c(-c4c(F)cccc4F)c4ccc([nH]4)c(-c4c(F)cccc4F)c4nc(c(-c5c(F)cccc5F)c5ccc2[nH]5)C=C4)C=C3)cc1
REMARK SMILES IDX 7 1 6 2 5 3 4 4 3 5 1 6 2 7 29 9 30 10 82 11 31 12 81 13
REMARK SMILES IDX 32 14 33 15 34 16 75 17 35 18 80 19 74 20 76 21 36 22 79 23
REMARK SMILES IDX 73 24 72 25 37 27 63 28 46 29 62 30 47 31 50 32 61 33 77 34
REMARK SMILES IDX 48 35 49 36 60 38 78 39 51 40 38 41 39 42 44 43 40 44 41 45
REMARK SMILES IDX 43 46 45 47 42 48 64 49 65 50 70 51 66 52 67 53 69 54 71 55
REMARK SMILES IDX 68 56 52 57 53 58 58 59 54 60 55 61 57 62 59 63 56 64 8 65
REMARK SMILES IDX 9 66 10 68 11 69 12 70 28 71 13 72 15 73 14 74 16 75 17 76
REMARK SMILES IDX 18 77 19 78 20 79 21 80 22 81 27 82 23 83 26 84 24 85 25 86
REMARK H PARENT 3 8 76 26 50 37 8 67
REMARK Flexibility Score: inf
ROOT
ATOM      1  C   UNL     1       4.890  -4.515   8.060  1.00  0.00     0.116 C 
ENDROOT
BRANCH   1   2
ATOM      2  C   UNL     1       5.867  -5.043   9.165  1.00  0.00     0.023 C 
BRANCH   2   3
ATOM      3  C   UNL     1       5.746  -4.311  10.494  1.00  0.00     0.023 C 
BRANCH   3   4
ATOM      4  C   UNL     1       4.509  -4.776  11.225  1.00  0.00     0.116 C 
BRANCH   4   5
ATOM      5  N   UNL     1       4.524  -6.221  11.460  1.00  0.00    -0.352 N 
ATOM      6  O   UNL     1       4.373  -8.097  12.712  1.00  0.00    -0.269 OA
ATOM      7  C   UNL     1       4.167  -6.897  12.589  1.00  0.00     0.251 C 
ATOM      8  H   UNL     1       4.832  -6.775  10.706  1.00  0.00     0.163 HD
BRANCH   7   9
ATOM      9  C   UNL     1       3.558  -6.106  13.658  1.00  0.00     0.039 A 
ATOM     10  C   UNL     1       2.532  -5.212  13.335  1.00  0.00     0.014 A 
ATOM     11  C   UNL     1       4.119  -6.158  14.930  1.00  0.00     0.014 A 
ATOM     12  C   UNL     1       2.163  -4.254  14.255  1.00  0.00     0.010 A 
ATOM     13  C   UNL     1       3.646  -5.281  15.894  1.00  0.00     0.010 A 
ATOM     14  C   UNL     1       2.680  -4.317  15.556  1.00  0.00    -0.014 A 
BRANCH  14  15
ATOM     15  C   UNL     1       2.120  -3.440  16.599  1.00  0.00     0.031 A 
ATOM     16  C   UNL     1       2.987  -2.472  17.333  1.00  0.00     0.074 A 
ATOM     17  C   UNL     1       0.821  -3.591  16.913  1.00  0.00     0.049 A 
ATOM     18  N   UNL     1       2.687  -1.735  18.369  1.00  0.00    -0.248 NA
ATOM     19  C   UNL     1       4.371  -2.322  16.860  1.00  0.00     0.031 C 
ATOM     20  C   UNL     1      -0.107  -4.505  16.241  1.00  0.00     0.029 A 
ATOM     21  N   UNL     1       0.060  -2.997  17.882  1.00  0.00    -0.354 N 
ATOM     22  C   UNL     1       3.851  -1.056  18.694  1.00  0.00     0.074 A 
ATOM     23  C   UNL     1       4.870  -1.488  17.761  1.00  0.00     0.031 C 
ATOM     24  C   UNL     1      -1.315  -4.397  16.804  1.00  0.00     0.029 A 
ATOM     25  C   UNL     1      -1.223  -3.479  17.932  1.00  0.00     0.049 A 
ATOM     26  H   UNL     1       0.400  -2.294  18.482  1.00  0.00     0.167 HD
ATOM     27  C   UNL     1       4.038  -0.157  19.688  1.00  0.00     0.037 A 
ATOM     28  C   UNL     1      -2.209  -3.252  18.817  1.00  0.00     0.037 A 
ATOM     29  C   UNL     1       3.001   0.248  20.602  1.00  0.00     0.049 A 
ATOM     30  C   UNL     1      -1.961  -2.304  19.949  1.00  0.00     0.074 A 
ATOM     31  C   UNL     1       3.074   1.189  21.612  1.00  0.00     0.029 A 
ATOM     32  N   UNL     1       1.717  -0.279  20.635  1.00  0.00    -0.354 N 
ATOM     33  N   UNL     1      -0.869  -1.636  20.230  1.00  0.00    -0.248 NA
ATOM     34  C   UNL     1      -3.067  -2.078  20.885  1.00  0.00     0.031 C 
ATOM     35  C   UNL     1       1.871   1.159  22.319  1.00  0.00     0.029 A 
ATOM     36  C   UNL     1       1.007   0.280  21.684  1.00  0.00     0.049 A 
ATOM     37  H   UNL     1       1.364  -0.950  20.007  1.00  0.00     0.167 HD
ATOM     38  C   UNL     1      -1.163  -0.885  21.359  1.00  0.00     0.074 A 
ATOM     39  C   UNL     1      -2.536  -1.186  21.713  1.00  0.00     0.031 C 
ATOM     40  C   UNL     1      -0.364  -0.019  22.026  1.00  0.00     0.037 A 
BRANCH  27  41
ATOM     41  C   UNL     1       5.416   0.411  19.872  1.00  0.00     0.057 A 
ATOM     42  C   UNL     1       6.135   0.150  21.047  1.00  0.00     0.134 A 
ATOM     43  C   UNL     1       6.018   1.248  18.924  1.00  0.00     0.134 A 
ATOM     44  F   UNL     1       5.617  -0.636  22.004  1.00  0.00    -0.206 F 
ATOM     45  C   UNL     1       7.394   0.706  21.275  1.00  0.00     0.040 A 
ATOM     46  C   UNL     1       7.295   1.777  19.123  1.00  0.00     0.040 A 
ATOM     47  F   UNL     1       5.391   1.536  17.773  1.00  0.00    -0.206 F 
ATOM     48  C   UNL     1       7.982   1.514  20.306  1.00  0.00     0.006 A 
ENDBRANCH  27  41
BRANCH  28  49
ATOM     49  C   UNL     1      -3.503  -3.948  18.626  1.00  0.00     0.057 A 
ATOM     50  C   UNL     1      -3.609  -5.339  18.771  1.00  0.00     0.134 A 
ATOM     51  C   UNL     1      -4.626  -3.257  18.166  1.00  0.00     0.134 A 
ATOM     52  F   UNL     1      -2.557  -6.059  19.186  1.00  0.00    -0.206 F 
ATOM     53  C   UNL     1      -4.774  -6.022  18.423  1.00  0.00     0.040 A 
ATOM     54  C   UNL     1      -5.808  -3.925  17.843  1.00  0.00     0.040 A 
ATOM     55  F   UNL     1      -4.584  -1.926  18.013  1.00  0.00    -0.206 F 
ATOM     56  C   UNL     1      -5.878  -5.313  17.955  1.00  0.00     0.006 A 
ENDBRANCH  28  49
BRANCH  40  57
ATOM     57  C   UNL     1      -0.937   0.717  23.202  1.00  0.00     0.057 A 
ATOM     58  C   UNL     1      -1.107   2.108  23.142  1.00  0.00     0.134 A 
ATOM     59  C   UNL     1      -1.154   0.091  24.434  1.00  0.00     0.134 A 
ATOM     60  F   UNL     1      -0.906   2.769  21.991  1.00  0.00    -0.206 F 
ATOM     61  C   UNL     1      -1.418   2.855  24.277  1.00  0.00     0.040 A 
ATOM     62  C   UNL     1      -1.498   0.825  25.570  1.00  0.00     0.040 A 
ATOM     63  F   UNL     1      -1.022  -1.238  24.555  1.00  0.00    -0.206 F 
ATOM     64  C   UNL     1      -1.608   2.213  25.498  1.00  0.00     0.006 A 
ENDBRANCH  40  57
ENDBRANCH  14  15
ENDBRANCH   7   9
ENDBRANCH   4   5
ENDBRANCH   3   4
ENDBRANCH   2   3
ENDBRANCH   1   2
BRANCH   1  65
ATOM     65  N   UNL     1       5.258  -3.402   7.098  1.00  0.00    -0.356 N 
ATOM     66  C   UNL     1       6.041  -3.096   5.974  1.00  0.00     0.224 C 
ATOM     67  H   UNL     1       4.762  -2.593   7.358  1.00  0.00     0.163 HD
ATOM     68  O   UNL     1       5.877  -1.935   5.557  1.00  0.00    -0.275 OA
BRANCH  66  69
ATOM     69  C   UNL     1       7.141  -4.176   4.965  1.00  0.00     0.098 C 
ATOM     70  C   UNL     1       8.387  -5.896   5.645  1.00  0.00     0.017 C 
ATOM     71  C   UNL     1       5.471  -4.662   4.085  1.00  0.00     0.132 C 
ATOM     72  C   UNL     1       7.352  -7.596   5.502  1.00  0.00     0.022 C 
ATOM     73  N   UNL     1       5.248  -6.221   3.588  1.00  0.00    -0.342 N 
ATOM     74  C   UNL     1       5.646  -7.527   4.651  1.00  0.00     0.119 C 
BRANCH  73  75
ATOM     75  C   UNL     1       5.464  -6.260   2.163  1.00  0.00     0.226 C 
ATOM     76  O   UNL     1       4.862  -5.494   1.404  1.00  0.00    -0.275 OA
BRANCH  75  77
ATOM     77  C   UNL     1       6.677  -7.061   1.606  1.00  0.00     0.141 C 
BRANCH  77  78
ATOM     78  C   UNL     1       8.023  -6.249   1.375  1.00  0.00     0.239 C 
BRANCH  78  79
ATOM     79  O   UNL     1       9.005  -5.810   2.369  1.00  0.00    -0.493 OA
BRANCH  79  80
ATOM     80  C   UNL     1       8.569  -5.205   3.511  1.00  0.00     0.119 A 
ATOM     81  C   UNL     1       7.272  -5.900   4.198  1.00  0.00     0.049 A 
ATOM     82  C   UNL     1       9.484  -4.212   4.451  1.00  0.00     0.049 A 
ATOM     83  C   UNL     1       6.625  -5.580   6.008  1.00  0.00     0.043 A 
ATOM     84  C   UNL     1       9.100  -3.810   6.052  1.00  0.00     0.043 A 
ATOM     85  C   UNL     1       7.747  -4.420   6.893  1.00  0.00     0.123 A 
ATOM     86  F   UNL     1       7.519  -3.720   8.010  1.00  0.00    -0.207 F 
ENDBRANCH  79  80
ENDBRANCH  78  79
ENDBRANCH  77  78
ENDBRANCH  75  77
ENDBRANCH  73  75
ENDBRANCH  66  69
ENDBRANCH   1  65
TORSDOF 16
