REMARK SMILES Cc1ccc(C(=O)NCCCCNC(=O)c2ccc(-c3c4nc(c(-c5c(F)cccc5F)c5ccc([nH]5)c(-c5c(F)cccc5F)c5nc(c(-c6c(F)cccc6F)c6ccc3[nH]6)C=C5)C=C4)cc2)c2c1N[C@H](c1ccccc1F)[C@H]1CC=C[C@@H]21
REMARK SMILES IDX 11 1 10 2 9 3 8 4 6 5 7 6 5 8 1 9 2 10 3 11 71 12 4 13 70 14
REMARK SMILES IDX 72 15 85 16 73 17 81 19 84 20 82 21 83 22 74 23 75 24 79 25
REMARK SMILES IDX 76 26 78 27 80 28 77 29 12 30 13 31 14 32 15 34 16 35 17 36
REMARK SMILES IDX 69 37 18 38 68 39 19 40 20 41 21 42 62 43 22 44 67 45 61 46
REMARK SMILES IDX 63 47 23 48 66 49 60 50 59 51 24 53 50 54 33 55 49 56 34 57
REMARK SMILES IDX 37 58 48 59 64 60 35 61 36 62 47 64 65 65 38 66 25 67 26 68
REMARK SMILES IDX 31 69 27 70 28 71 30 72 32 73 29 74 51 75 52 76 57 77 53 78
REMARK SMILES IDX 54 79 56 80 58 81 55 82 39 83 40 84 45 85 41 86 42 87 44 88
REMARK SMILES IDX 46 89 43 90
REMARK H PARENT 8 7 72 18 13 33 63 52 37 63
REMARK Flexibility Score: inf
ROOT
ATOM      1  C   UNL     1      -2.124  -5.178  -5.641  1.00  0.00     0.023 C 
ENDROOT
BRANCH   1   2
ATOM      2  C   UNL     1      -1.266  -4.569  -4.528  1.00  0.00     0.023 C 
BRANCH   2   3
ATOM      3  C   UNL     1      -0.090  -3.724  -5.031  1.00  0.00     0.116 C 
BRANCH   3   4
ATOM      4  N   UNL     1      -0.583  -2.488  -5.598  1.00  0.00    -0.352 N 
ATOM      5  C   UNL     1      -0.890  -1.256  -5.077  1.00  0.00     0.251 C 
ATOM      6  O   UNL     1      -1.512  -0.529  -5.850  1.00  0.00    -0.269 OA
ATOM      7  H   UNL     1      -0.732  -2.542  -6.569  1.00  0.00     0.163 HD
BRANCH   5   8
ATOM      8  C   UNL     1      -0.498  -0.785  -3.695  1.00  0.00     0.045 A 
ATOM      9  C   UNL     1       0.798   0.399   0.275  1.00  0.00     0.046 C 
ATOM     10  C   UNL     1       0.272   0.044  -1.091  1.00  0.00    -0.028 A 
ATOM     11  C   UNL     1       0.073  -1.304  -1.382  1.00  0.00     0.006 A 
ATOM     12  C   UNL     1       0.022   1.015  -2.086  1.00  0.00     0.042 A 
ATOM     13  C   UNL     1      -0.343  -1.700  -2.649  1.00  0.00     0.014 A 
ATOM     14  C   UNL     1      -0.337   0.603  -3.398  1.00  0.00    -0.005 A 
ATOM     15  N   UNL     1       0.118   2.358  -1.759  1.00  0.00    -0.377 N 
ATOM     16  C   UNL     1      -0.612   1.671  -4.438  1.00  0.00     0.050 C 
ATOM     17  C   UNL     1       0.213   3.403  -2.764  1.00  0.00     0.117 C 
ATOM     18  H   UNL     1       0.123   2.614  -0.809  1.00  0.00     0.161 HD
ATOM     19  C   UNL     1      -0.762   3.112  -3.913  1.00  0.00     0.031 C 
ATOM     20  C   UNL     1       0.442   1.842  -5.500  1.00  0.00    -0.023 C 
ATOM     21  C   UNL     1      -0.444   3.978  -5.149  1.00  0.00     0.034 C 
ATOM     22  C   UNL     1       0.516   3.115  -5.907  1.00  0.00    -0.030 C 
BRANCH  17  23
ATOM     23  C   UNL     1       0.068   4.751  -2.061  1.00  0.00     0.010 A 
ATOM     24  C   UNL     1       1.118   5.184  -1.224  1.00  0.00     0.009 A 
ATOM     25  C   UNL     1      -1.045   5.594  -2.176  1.00  0.00     0.128 A 
ATOM     26  C   UNL     1       1.051   6.404  -0.544  1.00  0.00     0.001 A 
ATOM     27  C   UNL     1      -1.114   6.815  -1.504  1.00  0.00     0.039 A 
ATOM     28  F   UNL     1      -2.089   5.274  -2.951  1.00  0.00    -0.207 F 
ATOM     29  C   UNL     1      -0.066   7.222  -0.687  1.00  0.00     0.003 A 
ENDBRANCH  17  23
ENDBRANCH   5   8
ENDBRANCH   3   4
ENDBRANCH   2   3
ENDBRANCH   1   2
BRANCH   1  30
ATOM     30  C   UNL     1      -1.383  -6.130  -6.570  1.00  0.00     0.116 C 
BRANCH  30  31
ATOM     31  N   UNL     1      -0.742  -7.223  -5.856  1.00  0.00    -0.352 N 
ATOM     32  C   UNL     1      -0.568  -8.518  -6.276  1.00  0.00     0.251 C 
ATOM     33  H   UNL     1      -0.389  -7.007  -4.963  1.00  0.00     0.163 HD
ATOM     34  O   UNL     1      -0.100  -9.367  -5.534  1.00  0.00    -0.269 OA
BRANCH  32  35
ATOM     35  C   UNL     1      -0.986  -8.868  -7.644  1.00  0.00     0.039 A 
ATOM     36  C   UNL     1      -1.926  -9.885  -7.821  1.00  0.00     0.014 A 
ATOM     37  C   UNL     1      -0.473  -8.159  -8.734  1.00  0.00     0.014 A 
ATOM     38  C   UNL     1      -2.385 -10.173  -9.105  1.00  0.00     0.010 A 
ATOM     39  C   UNL     1      -0.962  -8.420 -10.008  1.00  0.00     0.010 A 
ATOM     40  C   UNL     1      -1.914  -9.434 -10.201  1.00  0.00    -0.014 A 
BRANCH  40  41
ATOM     41  C   UNL     1      -2.349  -9.752 -11.577  1.00  0.00     0.031 A 
ATOM     42  C   UNL     1      -1.383 -10.419 -12.511  1.00  0.00     0.074 A 
ATOM     43  C   UNL     1      -3.575  -9.394 -11.996  1.00  0.00     0.049 A 
ATOM     44  N   UNL     1      -1.523 -10.712 -13.777  1.00  0.00    -0.248 NA
ATOM     45  C   UNL     1      -0.074 -10.787 -11.945  1.00  0.00     0.031 C 
ATOM     46  C   UNL     1      -4.590  -8.725 -11.181  1.00  0.00     0.029 A 
ATOM     47  N   UNL     1      -4.169  -9.531 -13.224  1.00  0.00    -0.354 N 
ATOM     48  C   UNL     1      -0.322 -11.293 -14.160  1.00  0.00     0.074 A 
ATOM     49  C   UNL     1       0.553 -11.266 -13.008  1.00  0.00     0.031 C 
ATOM     50  C   UNL     1      -5.684  -8.513 -11.932  1.00  0.00     0.029 A 
ATOM     51  C   UNL     1      -5.436  -9.005 -13.284  1.00  0.00     0.049 A 
ATOM     52  H   UNL     1      -3.729  -9.966 -13.990  1.00  0.00     0.167 HD
ATOM     53  C   UNL     1       0.014 -11.822 -15.360  1.00  0.00     0.037 A 
ATOM     54  C   UNL     1      -6.290  -8.924 -14.321  1.00  0.00     0.037 A 
ATOM     55  C   UNL     1      -0.862 -11.854 -16.499  1.00  0.00     0.049 A 
ATOM     56  C   UNL     1      -5.876  -9.478 -15.656  1.00  0.00     0.074 A 
ATOM     57  C   UNL     1      -0.635 -12.400 -17.749  1.00  0.00     0.029 A 
ATOM     58  N   UNL     1      -2.137 -11.309 -16.523  1.00  0.00    -0.354 N 
ATOM     59  N   UNL     1      -4.757 -10.073 -15.995  1.00  0.00    -0.248 NA
ATOM     60  C   UNL     1      -6.843  -9.347 -16.755  1.00  0.00     0.031 C 
ATOM     61  C   UNL     1      -1.763 -12.156 -18.541  1.00  0.00     0.029 A 
ATOM     62  C   UNL     1      -2.704 -11.489 -17.773  1.00  0.00     0.049 A 
ATOM     63  H   UNL     1      -2.575 -10.861 -15.763  1.00  0.00     0.167 HD
ATOM     64  C   UNL     1      -4.897 -10.412 -17.334  1.00  0.00     0.074 A 
ATOM     65  C   UNL     1      -6.212  -9.963 -17.744  1.00  0.00     0.031 C 
ATOM     66  C   UNL     1      -4.019 -11.041 -18.153  1.00  0.00     0.037 A 
BRANCH  53  67
ATOM     67  C   UNL     1       1.389 -12.404 -15.485  1.00  0.00     0.057 A 
ATOM     68  C   UNL     1       2.378 -11.754 -16.233  1.00  0.00     0.134 A 
ATOM     69  C   UNL     1       1.736 -13.607 -14.857  1.00  0.00     0.134 A 
ATOM     70  F   UNL     1       2.110 -10.598 -16.858  1.00  0.00    -0.206 F 
ATOM     71  C   UNL     1       3.666 -12.279 -16.347  1.00  0.00     0.040 A 
ATOM     72  C   UNL     1       3.027 -14.130 -14.945  1.00  0.00     0.040 A 
ATOM     73  F   UNL     1       0.838 -14.268 -14.111  1.00  0.00    -0.206 F 
ATOM     74  C   UNL     1       3.996 -13.466 -15.695  1.00  0.00     0.006 A 
ENDBRANCH  53  67
BRANCH  54  75
ATOM     75  C   UNL     1      -7.627  -8.308 -14.143  1.00  0.00     0.057 A 
ATOM     76  C   UNL     1      -7.782  -6.927 -13.985  1.00  0.00     0.134 A 
ATOM     77  C   UNL     1      -8.786  -9.092 -14.155  1.00  0.00     0.134 A 
ATOM     78  F   UNL     1      -6.710  -6.122 -13.962  1.00  0.00    -0.206 F 
ATOM     79  C   UNL     1      -9.044  -6.346 -13.847  1.00  0.00     0.040 A 
ATOM     80  C   UNL     1     -10.055  -8.523 -14.038  1.00  0.00     0.040 A 
ATOM     81  F   UNL     1      -8.700 -10.420 -14.324  1.00  0.00    -0.206 F 
ATOM     82  C   UNL     1     -10.186  -7.145 -13.881  1.00  0.00     0.006 A 
ENDBRANCH  54  75
BRANCH  66  83
ATOM     83  C   UNL     1      -4.467 -11.307 -19.558  1.00  0.00     0.057 A 
ATOM     84  C   UNL     1      -4.803 -12.605 -19.963  1.00  0.00     0.134 A 
ATOM     85  C   UNL     1      -4.528 -10.289 -20.516  1.00  0.00     0.134 A 
ATOM     86  F   UNL     1      -4.758 -13.624 -19.092  1.00  0.00    -0.206 F 
ATOM     87  C   UNL     1      -5.179 -12.881 -21.277  1.00  0.00     0.040 A 
ATOM     88  C   UNL     1      -4.924 -10.550 -21.828  1.00  0.00     0.040 A 
ATOM     89  F   UNL     1      -4.232  -9.024 -20.183  1.00  0.00    -0.206 F 
ATOM     90  C   UNL     1      -5.245 -11.851 -22.213  1.00  0.00     0.006 A 
ENDBRANCH  66  83
ENDBRANCH  40  41
ENDBRANCH  32  35
ENDBRANCH  30  31
ENDBRANCH   1  30
TORSDOF 12
