REMARK SMILES Nc1ccc(-c2cc(Cl)cc3c2O[C@H](C(F)(F)F)C(C(=O)NCCCCNC(=O)c2ccc(-c4c5nc(c(-c6c(F)cccc6F)c6ccc([nH]6)c(-c6c(F)cccc6F)c6nc(c(-c7c(F)cccc7F)c7ccc4[nH]7)C=C6)C=C5)cc2)=C3)cc1
REMARK SMILES IDX 24 1 23 2 22 3 20 4 21 5 19 7 6 8 7 9 12 10 8 11 11 12 13 13
REMARK SMILES IDX 9 14 10 15 84 16 14 17 5 18 2 19 3 20 86 21 4 22 85 23 1 24
REMARK SMILES IDX 15 27 16 28 17 29 18 30 25 31 26 32 27 33 28 34 29 36 30 37
REMARK SMILES IDX 31 38 83 39 32 40 82 41 33 42 34 43 35 44 76 45 36 46 81 47
REMARK SMILES IDX 75 48 77 49 37 50 80 51 74 52 73 53 38 55 64 56 47 57 63 58
REMARK SMILES IDX 48 59 51 60 62 61 78 62 49 63 50 64 61 66 79 67 52 68 39 69
REMARK SMILES IDX 40 70 45 71 41 72 42 73 44 74 46 75 43 76 65 77 66 78 71 79
REMARK SMILES IDX 67 80 68 81 70 82 72 83 69 84 53 85 54 86 59 87 55 88 56 89
REMARK SMILES IDX 58 90 60 91 57 92
REMARK H PARENT 22 6 1 25 1 26 27 35 77 54 51 65
REMARK Flexibility Score: inf
ROOT
ATOM      1  C   UNL     1      -3.634  -2.331   6.619  1.00  0.00     0.023 C 
ENDROOT
BRANCH   1   2
ATOM      2  C   UNL     1      -4.217  -3.309   5.601  1.00  0.00     0.116 C 
BRANCH   2   3
ATOM      3  N   UNL     1      -5.559  -2.938   5.186  1.00  0.00    -0.352 N 
ATOM      4  C   UNL     1      -6.125  -2.291   4.139  1.00  0.00     0.251 C 
ATOM      5  O   UNL     1      -7.356  -2.193   4.184  1.00  0.00    -0.270 OA
ATOM      6  H   UNL     1      -6.235  -3.234   5.837  1.00  0.00     0.163 HD
BRANCH   4   7
ATOM      7  C   UNL     1      -5.384  -1.710   2.981  1.00  0.00     0.067 C 
ATOM      8  C   UNL     1      -3.363   0.143  -0.218  1.00  0.00     0.026 A 
ATOM      9  C   UNL     1      -4.116   0.683  -1.271  1.00  0.00     0.033 A 
ATOM     10  C   UNL     1      -4.057  -0.406   0.878  1.00  0.00     0.135 A 
ATOM     11  C   UNL     1      -5.512   0.666  -1.221  1.00  0.00     0.042 A 
ATOM     12  C   UNL     1      -5.456  -0.430   0.928  1.00  0.00     0.019 A 
ATOM     13  O   UNL     1      -3.310  -0.861   1.934  1.00  0.00    -0.475 OA
ATOM     14  Cl  UNL     1      -6.415   1.338  -2.523  1.00  0.00    -0.084 Cl
ATOM     15  C   UNL     1      -6.185   0.113  -0.130  1.00  0.00     0.032 A 
ATOM     16  C   UNL     1      -6.117  -0.999   2.101  1.00  0.00     0.025 C 
ATOM     17  C   UNL     1      -3.916  -1.901   2.740  1.00  0.00     0.314 C 
BRANCH   8  18
ATOM     18  C   UNL     1      -1.892   0.136  -0.264  1.00  0.00    -0.014 A 
ATOM     19  C   UNL     1       0.939   0.095  -0.168  1.00  0.00     0.031 A 
ATOM     20  C   UNL     1       0.214  -1.094  -0.225  1.00  0.00     0.026 A 
ATOM     21  C   UNL     1       0.241   1.303  -0.147  1.00  0.00     0.026 A 
ATOM     22  C   UNL     1      -1.183  -1.075  -0.289  1.00  0.00     0.011 A 
ATOM     23  C   UNL     1      -1.158   1.327  -0.207  1.00  0.00     0.011 A 
BRANCH  19  24
ATOM     24  N   UNL     1       2.314   0.071  -0.006  1.00  0.00    -0.399 N 
ATOM     25  H   UNL     1       2.797  -0.786  -0.022  1.00  0.00     0.156 HD
ATOM     26  H   UNL     1       2.809   0.912   0.126  1.00  0.00     0.156 HD
ENDBRANCH  19  24
ENDBRANCH   8  18
BRANCH  17  27
ATOM     27  C   UNL     1      -3.578  -3.281   2.145  1.00  0.00     0.429 C 
ATOM     28  F   UNL     1      -2.248  -3.532   2.248  1.00  0.00    -0.167 F 
ATOM     29  F   UNL     1      -4.208  -4.290   2.792  1.00  0.00    -0.167 F 
ATOM     30  F   UNL     1      -3.908  -3.386   0.838  1.00  0.00    -0.167 F 
ENDBRANCH  17  27
ENDBRANCH   4   7
ENDBRANCH   2   3
ENDBRANCH   1   2
BRANCH   1  31
ATOM     31  C   UNL     1      -3.992  -2.646   8.075  1.00  0.00     0.023 C 
BRANCH  31  32
ATOM     32  C   UNL     1      -3.601  -4.041   8.559  1.00  0.00     0.116 C 
BRANCH  32  33
ATOM     33  N   UNL     1      -2.198  -4.378   8.366  1.00  0.00    -0.352 N 
ATOM     34  C   UNL     1      -1.463  -5.335   9.033  1.00  0.00     0.251 C 
ATOM     35  H   UNL     1      -1.717  -3.861   7.680  1.00  0.00     0.163 HD
ATOM     36  O   UNL     1      -0.262  -5.466   8.827  1.00  0.00    -0.269 OA
BRANCH  34  37
ATOM     37  C   UNL     1      -2.142  -6.159  10.054  1.00  0.00     0.039 A 
ATOM     38  C   UNL     1      -3.328  -6.824   9.743  1.00  0.00     0.014 A 
ATOM     39  C   UNL     1      -1.639  -6.174  11.357  1.00  0.00     0.014 A 
ATOM     40  C   UNL     1      -4.107  -7.342  10.769  1.00  0.00     0.010 A 
ATOM     41  C   UNL     1      -2.389  -6.766  12.377  1.00  0.00     0.010 A 
ATOM     42  C   UNL     1      -3.659  -7.295  12.100  1.00  0.00    -0.014 A 
BRANCH  42  43
ATOM     43  C   UNL     1      -4.564  -7.758  13.183  1.00  0.00     0.031 A 
ATOM     44  C   UNL     1      -5.126  -6.781  14.182  1.00  0.00     0.074 A 
ATOM     45  C   UNL     1      -4.949  -9.047  13.213  1.00  0.00     0.049 A 
ATOM     46  N   UNL     1      -5.976  -6.994  15.157  1.00  0.00    -0.248 NA
ATOM     47  C   UNL     1      -4.676  -5.384  14.079  1.00  0.00     0.031 C 
ATOM     48  C   UNL     1      -4.484 -10.087  12.292  1.00  0.00     0.029 A 
ATOM     49  N   UNL     1      -5.843  -9.695  14.025  1.00  0.00    -0.354 N 
ATOM     50  C   UNL     1      -6.141  -5.770  15.794  1.00  0.00     0.074 A 
ATOM     51  C   UNL     1      -5.289  -4.821  15.111  1.00  0.00     0.031 C 
ATOM     52  C   UNL     1      -5.144 -11.226  12.551  1.00  0.00     0.029 A 
ATOM     53  C   UNL     1      -6.037 -11.011  13.685  1.00  0.00     0.049 A 
ATOM     54  H   UNL     1      -6.303  -9.258  14.778  1.00  0.00     0.167 HD
ATOM     55  C   UNL     1      -6.937  -5.462  16.846  1.00  0.00     0.037 A 
ATOM     56  C   UNL     1      -6.843 -11.941  14.226  1.00  0.00     0.037 A 
ATOM     57  C   UNL     1      -7.811  -6.395  17.508  1.00  0.00     0.049 A 
ATOM     58  C   UNL     1      -7.703 -11.575  15.400  1.00  0.00     0.074 A 
ATOM     59  C   UNL     1      -8.673  -6.170  18.568  1.00  0.00     0.029 A 
ATOM     60  N   UNL     1      -7.937  -7.733  17.168  1.00  0.00    -0.354 N 
ATOM     61  N   UNL     1      -7.848 -10.413  15.989  1.00  0.00    -0.248 NA
ATOM     62  C   UNL     1      -8.505 -12.656  15.990  1.00  0.00     0.031 C 
ATOM     63  C   UNL     1      -9.301  -7.380  18.887  1.00  0.00     0.029 A 
ATOM     64  C   UNL     1      -8.852  -8.350  18.005  1.00  0.00     0.049 A 
ATOM     65  H   UNL     1      -7.449  -8.179  16.438  1.00  0.00     0.167 HD
ATOM     66  C   UNL     1      -8.761 -10.620  17.013  1.00  0.00     0.074 A 
ATOM     67  C   UNL     1      -9.154 -12.013  16.950  1.00  0.00     0.031 C 
ATOM     68  C   UNL     1      -9.226  -9.738  17.930  1.00  0.00     0.037 A 
BRANCH  55  69
ATOM     69  C   UNL     1      -6.888  -4.052  17.358  1.00  0.00     0.057 A 
ATOM     70  C   UNL     1      -6.251  -3.757  18.570  1.00  0.00     0.134 A 
ATOM     71  C   UNL     1      -7.494  -2.994  16.671  1.00  0.00     0.134 A 
ATOM     72  F   UNL     1      -5.654  -4.726  19.280  1.00  0.00    -0.206 F 
ATOM     73  C   UNL     1      -6.220  -2.458  19.081  1.00  0.00     0.040 A 
ATOM     74  C   UNL     1      -7.453  -1.687  17.162  1.00  0.00     0.040 A 
ATOM     75  F   UNL     1      -8.107  -3.208  15.497  1.00  0.00    -0.206 F 
ATOM     76  C   UNL     1      -6.818  -1.417  18.373  1.00  0.00     0.006 A 
ENDBRANCH  55  69
BRANCH  56  77
ATOM     77  C   UNL     1      -6.877 -13.310  13.659  1.00  0.00     0.057 A 
ATOM     78  C   UNL     1      -5.798 -14.188  13.810  1.00  0.00     0.134 A 
ATOM     79  C   UNL     1      -7.994 -13.770  12.954  1.00  0.00     0.134 A 
ATOM     80  F   UNL     1      -4.698 -13.802  14.473  1.00  0.00    -0.206 F 
ATOM     81  C   UNL     1      -5.823 -15.473  13.269  1.00  0.00     0.040 A 
ATOM     82  C   UNL     1      -8.042 -15.061  12.427  1.00  0.00     0.040 A 
ATOM     83  F   UNL     1      -9.065 -12.978  12.795  1.00  0.00    -0.206 F 
ATOM     84  C   UNL     1      -6.951 -15.915  12.580  1.00  0.00     0.006 A 
ENDBRANCH  56  77
BRANCH  68  85
ATOM     85  C   UNL     1     -10.219 -10.260  18.922  1.00  0.00     0.057 A 
ATOM     86  C   UNL     1     -11.578  -9.940  18.812  1.00  0.00     0.134 A 
ATOM     87  C   UNL     1      -9.828 -11.081  19.988  1.00  0.00     0.134 A 
ATOM     88  F   UNL     1     -12.014  -9.155  17.816  1.00  0.00    -0.206 F 
ATOM     89  C   UNL     1     -12.514 -10.424  19.726  1.00  0.00     0.040 A 
ATOM     90  C   UNL     1     -10.758 -11.586  20.896  1.00  0.00     0.040 A 
ATOM     91  F   UNL     1      -8.542 -11.435  20.135  1.00  0.00    -0.206 F 
ATOM     92  C   UNL     1     -12.106 -11.255  20.768  1.00  0.00     0.006 A 
ENDBRANCH  68  85
ENDBRANCH  42  43
ENDBRANCH  34  37
ENDBRANCH  32  33
ENDBRANCH  31  32
ENDBRANCH   1  31
TORSDOF 14
