REMARK SMILES CC(C)[NH2+][C@@]1(C(=O)NCCCCNC(=O)c2ccc(-c3c4nc(c(-c5c(F)cccc5F)c5ccc([nH]5)c(-c5c(F)cccc5F)c5nc(c(-c6c(F)cccc6F)c6ccc3[nH]6)C=C5)C=C4)cc2)CC[C@H](Sc2ccccn2)C1
REMARK SMILES IDX 10 1 9 2 8 3 6 4 7 5 5 7 70 8 80 9 71 10 72 11 4 12 2 15
REMARK SMILES IDX 1 16 3 17 73 18 74 19 75 20 79 21 76 22 78 23 77 24 11 25
REMARK SMILES IDX 12 26 13 27 14 28 15 30 16 31 17 32 69 33 18 34 68 35 19 36
REMARK SMILES IDX 20 37 21 38 62 39 22 40 67 41 61 42 63 43 23 44 66 45 60 46
REMARK SMILES IDX 59 47 24 49 50 50 33 51 49 52 34 53 37 54 48 55 64 56 35 57
REMARK SMILES IDX 36 58 47 60 65 61 38 62 25 63 26 64 31 65 27 66 28 67 30 68
REMARK SMILES IDX 32 69 29 70 51 71 52 72 57 73 53 74 54 75 56 76 58 77 55 78
REMARK SMILES IDX 39 79 40 80 45 81 41 82 42 83 44 84 46 85 43 86
REMARK H PARENT 8 6 4 13 4 14 13 29 63 48 37 59
REMARK Flexibility Score: inf
ROOT
ATOM      1  C   UNL     1      -5.074   4.903  -1.981  1.00  0.00     0.023 C 
ENDROOT
BRANCH   1   2
ATOM      2  C   UNL     1      -4.086   4.832  -0.826  1.00  0.00     0.116 C 
BRANCH   2   3
ATOM      3  N   UNL     1      -3.972   3.506  -0.275  1.00  0.00    -0.351 N 
ATOM      4  C   UNL     1      -2.925   2.642  -0.204  1.00  0.00     0.281 C 
ATOM      5  O   UNL     1      -3.222   1.522   0.239  1.00  0.00    -0.268 OA
ATOM      6  H   UNL     1      -4.805   3.163   0.122  1.00  0.00     0.163 HD
BRANCH   4   7
ATOM      7  C   UNL     1      -1.426   2.995  -0.640  1.00  0.00     0.176 C 
ATOM      8  C   UNL     1      -0.859   4.121   0.254  1.00  0.00     0.080 C 
ATOM      9  C   UNL     1      -1.369   3.523  -2.090  1.00  0.00     0.094 C 
ATOM     10  C   UNL     1      -0.745   5.380  -0.607  1.00  0.00     0.022 C 
ATOM     11  C   UNL     1      -0.624   4.869  -2.037  1.00  0.00     0.060 C 
BRANCH   7  12
ATOM     12  N   UNL     1      -0.711   1.710  -0.496  1.00  0.00    -0.332 N 
ATOM     13  H   UNL     1      -1.085   1.290   0.355  1.00  0.00     0.347 HD
ATOM     14  H   UNL     1      -0.872   1.318  -1.423  1.00  0.00     0.347 HD
BRANCH  12  15
ATOM     15  C   UNL     1       0.726   1.536  -0.403  1.00  0.00     0.176 C 
ATOM     16  C   UNL     1       0.974   0.064  -0.038  1.00  0.00     0.075 C 
ATOM     17  C   UNL     1       1.492   1.854  -1.682  1.00  0.00     0.075 C 
ENDBRANCH  12  15
ENDBRANCH   7  12
BRANCH  11  18
ATOM     18  S   UNL     1      -1.050   5.923  -3.483  1.00  0.00    -0.103 SA
BRANCH  18  19
ATOM     19  C   UNL     1      -1.903   7.349  -2.855  1.00  0.00     0.096 A 
ATOM     20  C   UNL     1      -1.299   8.255  -1.993  1.00  0.00     0.035 A 
ATOM     21  N   UNL     1      -3.128   7.572  -3.388  1.00  0.00    -0.250 NA
ATOM     22  C   UNL     1      -1.983   9.421  -1.648  1.00  0.00     0.004 A 
ATOM     23  C   UNL     1      -3.751   8.731  -3.074  1.00  0.00     0.112 A 
ATOM     24  C   UNL     1      -3.227   9.672  -2.209  1.00  0.00     0.020 A 
ENDBRANCH  18  19
ENDBRANCH  11  18
ENDBRANCH   4   7
ENDBRANCH   2   3
ENDBRANCH   1   2
BRANCH   1  25
ATOM     25  C   UNL     1      -6.531   5.056  -1.573  1.00  0.00     0.023 C 
BRANCH  25  26
ATOM     26  C   UNL     1      -6.814   6.146  -0.546  1.00  0.00     0.116 C 
BRANCH  26  27
ATOM     27  N   UNL     1      -6.207   7.440  -0.841  1.00  0.00    -0.352 N 
ATOM     28  C   UNL     1      -6.749   8.697  -0.686  1.00  0.00     0.251 C 
ATOM     29  H   UNL     1      -5.289   7.410  -1.197  1.00  0.00     0.163 HD
ATOM     30  O   UNL     1      -6.131   9.707  -0.995  1.00  0.00    -0.269 OA
BRANCH  28  31
ATOM     31  C   UNL     1      -8.134   8.805  -0.201  1.00  0.00     0.039 A 
ATOM     32  C   UNL     1      -9.064   9.480  -0.995  1.00  0.00     0.014 A 
ATOM     33  C   UNL     1      -8.526   8.127   0.953  1.00  0.00     0.014 A 
ATOM     34  C   UNL     1     -10.418   9.384  -0.684  1.00  0.00     0.010 A 
ATOM     35  C   UNL     1      -9.878   7.955   1.204  1.00  0.00     0.010 A 
ATOM     36  C   UNL     1     -10.835   8.572   0.381  1.00  0.00    -0.014 A 
BRANCH  36  37
ATOM     37  C   UNL     1     -12.270   8.341   0.660  1.00  0.00     0.031 A 
ATOM     38  C   UNL     1     -12.841   8.767   1.980  1.00  0.00     0.074 A 
ATOM     39  C   UNL     1     -13.022   7.656  -0.222  1.00  0.00     0.049 A 
ATOM     40  N   UNL     1     -14.020   8.527   2.489  1.00  0.00    -0.248 NA
ATOM     41  C   UNL     1     -11.943   9.525   2.867  1.00  0.00     0.031 C 
ATOM     42  C   UNL     1     -12.557   7.131  -1.509  1.00  0.00     0.029 A 
ATOM     43  N   UNL     1     -14.335   7.267  -0.161  1.00  0.00    -0.354 N 
ATOM     44  C   UNL     1     -13.991   9.067   3.767  1.00  0.00     0.074 A 
ATOM     45  C   UNL     1     -12.663   9.602   3.974  1.00  0.00     0.031 C 
ATOM     46  C   UNL     1     -13.576   6.508  -2.123  1.00  0.00     0.029 A 
ATOM     47  C   UNL     1     -14.751   6.558  -1.260  1.00  0.00     0.049 A 
ATOM     48  H   UNL     1     -14.924   7.476   0.600  1.00  0.00     0.167 HD
ATOM     49  C   UNL     1     -14.990   9.132   4.678  1.00  0.00     0.037 A 
ATOM     50  C   UNL     1     -15.947   6.006  -1.536  1.00  0.00     0.037 A 
ATOM     51  C   UNL     1     -16.321   8.644   4.443  1.00  0.00     0.049 A 
ATOM     52  C   UNL     1     -17.061   6.146  -0.538  1.00  0.00     0.074 A 
ATOM     53  C   UNL     1     -17.429   8.724   5.266  1.00  0.00     0.029 A 
ATOM     54  N   UNL     1     -16.724   7.992   3.286  1.00  0.00    -0.354 N 
ATOM     55  N   UNL     1     -17.040   6.707   0.647  1.00  0.00    -0.248 NA
ATOM     56  C   UNL     1     -18.364   5.583  -0.916  1.00  0.00     0.031 C 
ATOM     57  C   UNL     1     -18.500   8.100   4.615  1.00  0.00     0.029 A 
ATOM     58  C   UNL     1     -18.065   7.660   3.374  1.00  0.00     0.049 A 
ATOM     59  H   UNL     1     -16.143   7.794   2.517  1.00  0.00     0.167 HD
ATOM     60  C   UNL     1     -18.327   6.581   1.151  1.00  0.00     0.074 A 
ATOM     61  C   UNL     1     -19.108   5.903   0.135  1.00  0.00     0.031 C 
ATOM     62  C   UNL     1     -18.818   6.988   2.347  1.00  0.00     0.037 A 
BRANCH  49  63
ATOM     63  C   UNL     1     -14.663   9.759   6.000  1.00  0.00     0.057 A 
ATOM     64  C   UNL     1     -14.415  11.133   6.125  1.00  0.00     0.134 A 
ATOM     65  C   UNL     1     -14.570   8.978   7.158  1.00  0.00     0.134 A 
ATOM     66  F   UNL     1     -14.467  11.933   5.049  1.00  0.00    -0.206 F 
ATOM     67  C   UNL     1     -14.045  11.701   7.345  1.00  0.00     0.040 A 
ATOM     68  C   UNL     1     -14.229   9.539   8.390  1.00  0.00     0.040 A 
ATOM     69  F   UNL     1     -14.796   7.657   7.110  1.00  0.00    -0.206 F 
ATOM     70  C   UNL     1     -13.955  10.903   8.483  1.00  0.00     0.006 A 
ENDBRANCH  49  63
BRANCH  50  71
ATOM     71  C   UNL     1     -16.157   5.307  -2.827  1.00  0.00     0.057 A 
ATOM     72  C   UNL     1     -16.901   5.901  -3.852  1.00  0.00     0.134 A 
ATOM     73  C   UNL     1     -15.599   4.048  -3.079  1.00  0.00     0.134 A 
ATOM     74  F   UNL     1     -17.472   7.100  -3.663  1.00  0.00    -0.206 F 
ATOM     75  C   UNL     1     -17.092   5.266  -5.080  1.00  0.00     0.040 A 
ATOM     76  C   UNL     1     -15.766   3.409  -4.309  1.00  0.00     0.040 A 
ATOM     77  F   UNL     1     -14.866   3.433  -2.140  1.00  0.00    -0.206 F 
ATOM     78  C   UNL     1     -16.518   4.017  -5.312  1.00  0.00     0.006 A 
ENDBRANCH  50  71
BRANCH  62  79
ATOM     79  C   UNL     1     -20.270   6.729   2.608  1.00  0.00     0.057 A 
ATOM     80  C   UNL     1     -20.741   5.452   2.933  1.00  0.00     0.134 A 
ATOM     81  C   UNL     1     -21.197   7.778   2.579  1.00  0.00     0.134 A 
ATOM     82  F   UNL     1     -19.903   4.405   2.965  1.00  0.00    -0.206 F 
ATOM     83  C   UNL     1     -22.090   5.224   3.207  1.00  0.00     0.040 A 
ATOM     84  C   UNL     1     -22.544   7.566   2.870  1.00  0.00     0.040 A 
ATOM     85  F   UNL     1     -20.804   9.026   2.280  1.00  0.00    -0.206 F 
ATOM     86  C   UNL     1     -22.994   6.285   3.183  1.00  0.00     0.006 A 
ENDBRANCH  62  79
ENDBRANCH  36  37
ENDBRANCH  28  31
ENDBRANCH  26  27
ENDBRANCH  25  26
ENDBRANCH   1  25
TORSDOF 15
