REMARK SMILES C[C@@H](C(=O)NCCCCNC(=O)c1ccc(-c2c3nc(c(-c4c(F)cccc4F)c4ccc([nH]4)c(-c4c(F)cccc4F)c4nc(c(-c5c(F)cccc5F)c5ccc2[nH]5)C=C4)C=C3)cc1)c1ccc(C[C@@H]2CCC[C@@H]2O)cc1Br
REMARK SMILES IDX 6 1 5 2 3 3 4 4 2 6 1 7 67 8 68 9 79 10 69 11 78 12 80 13
REMARK SMILES IDX 70 14 71 15 72 16 73 17 76 18 74 19 75 20 77 21 7 23 8 24
REMARK SMILES IDX 9 25 10 26 11 27 12 29 13 30 14 31 66 32 15 33 65 34 16 35
REMARK SMILES IDX 17 36 18 37 59 38 19 39 64 40 58 41 60 42 20 43 63 44 57 45
REMARK SMILES IDX 56 46 21 48 47 49 30 50 46 51 31 52 34 53 45 54 61 55 32 56
REMARK SMILES IDX 33 57 44 59 62 60 35 61 22 62 23 63 28 64 24 65 25 66 27 67
REMARK SMILES IDX 29 68 26 69 48 70 49 71 54 72 50 73 51 74 53 75 55 76 52 77
REMARK SMILES IDX 36 78 37 79 42 80 38 81 39 82 41 83 43 84 40 85
REMARK H PARENT 5 5 77 22 10 28 60 47 34 58
REMARK Flexibility Score: inf
ROOT
ATOM      1  C   UNL     1     -11.221   4.546   7.272  1.00  0.00     0.116 C 
ENDROOT
BRANCH   1   2
ATOM      2  N   UNL     1     -11.778   3.993   6.056  1.00  0.00    -0.356 N 
ATOM      3  C   UNL     1     -11.172   3.590   4.901  1.00  0.00     0.227 C 
ATOM      4  O   UNL     1     -11.915   3.120   4.037  1.00  0.00    -0.274 OA
ATOM      5  H   UNL     1     -12.757   3.891   6.062  1.00  0.00     0.163 HD
BRANCH   3   6
ATOM      6  C   UNL     1      -9.642   3.634   4.769  1.00  0.00     0.106 C 
ATOM      7  C   UNL     1      -9.005   5.023   4.902  1.00  0.00     0.023 C 
BRANCH   6   8
ATOM      8  C   UNL     1      -9.131   2.931   3.509  1.00  0.00    -0.022 A 
ATOM      9  C   UNL     1      -8.427   1.723   3.684  1.00  0.00     0.006 A 
ATOM     10  C   UNL     1      -9.272   3.420   2.198  1.00  0.00     0.022 A 
ATOM     11  C   UNL     1      -7.818   1.071   2.610  1.00  0.00     0.004 A 
ATOM     12  C   UNL     1      -8.634   2.776   1.130  1.00  0.00     0.019 A 
ATOM     13  Br  UNL     1     -10.294   4.957   1.738  1.00  0.00    -0.051 Br
ATOM     14  C   UNL     1      -7.867   1.623   1.330  1.00  0.00    -0.047 A 
BRANCH  14  15
ATOM     15  C   UNL     1      -7.095   1.024   0.182  1.00  0.00     0.041 C 
BRANCH  15  16
ATOM     16  C   UNL     1      -5.572   1.289   0.120  1.00  0.00     0.022 C 
ATOM     17  C   UNL     1      -4.760   0.639   1.247  1.00  0.00     0.007 C 
ATOM     18  C   UNL     1      -5.096   2.746   0.166  1.00  0.00     0.117 C 
ATOM     19  C   UNL     1      -4.458   1.740   2.268  1.00  0.00     0.003 C 
ATOM     20  C   UNL     1      -4.920   3.054   1.646  1.00  0.00     0.032 C 
BRANCH  18  21
ATOM     21  O   UNL     1      -5.967   3.661  -0.464  1.00  0.00    -0.393 OA
ATOM     22  H   UNL     1      -6.832   3.637  -0.027  1.00  0.00     0.210 HD
ENDBRANCH  18  21
ENDBRANCH  15  16
ENDBRANCH  14  15
ENDBRANCH   6   8
ENDBRANCH   3   6
ENDBRANCH   1   2
BRANCH   1  23
ATOM     23  C   UNL     1     -11.435   6.058   7.346  1.00  0.00     0.023 C 
BRANCH  23  24
ATOM     24  C   UNL     1     -12.904   6.490   7.401  1.00  0.00     0.023 C 
BRANCH  24  25
ATOM     25  C   UNL     1     -13.725   5.877   8.531  1.00  0.00     0.116 C 
BRANCH  25  26
ATOM     26  N   UNL     1     -13.187   6.175   9.851  1.00  0.00    -0.352 N 
ATOM     27  C   UNL     1     -13.854   6.579  10.982  1.00  0.00     0.251 C 
ATOM     28  H   UNL     1     -12.213   6.073   9.946  1.00  0.00     0.163 HD
ATOM     29  O   UNL     1     -13.233   6.902  11.989  1.00  0.00    -0.269 OA
BRANCH  27  30
ATOM     30  C   UNL     1     -15.329   6.662  10.963  1.00  0.00     0.039 A 
ATOM     31  C   UNL     1     -15.942   7.854  11.357  1.00  0.00     0.014 A 
ATOM     32  C   UNL     1     -16.096   5.586  10.508  1.00  0.00     0.014 A 
ATOM     33  C   UNL     1     -17.322   8.003  11.204  1.00  0.00     0.010 A 
ATOM     34  C   UNL     1     -17.463   5.755  10.305  1.00  0.00     0.010 A 
ATOM     35  C   UNL     1     -18.083   6.973  10.628  1.00  0.00    -0.014 A 
BRANCH  35  36
ATOM     36  C   UNL     1     -19.515   7.166  10.289  1.00  0.00     0.031 A 
ATOM     37  C   UNL     1     -20.574   6.346  10.967  1.00  0.00     0.074 A 
ATOM     38  C   UNL     1     -19.846   8.002   9.284  1.00  0.00     0.049 A 
ATOM     39  N   UNL     1     -21.854   6.273  10.705  1.00  0.00    -0.248 NA
ATOM     40  C   UNL     1     -20.134   5.475  12.068  1.00  0.00     0.031 C 
ATOM     41  C   UNL     1     -18.902   8.815   8.513  1.00  0.00     0.029 A 
ATOM     42  N   UNL     1     -21.064   8.282   8.715  1.00  0.00    -0.354 N 
ATOM     43  C   UNL     1     -22.368   5.334  11.589  1.00  0.00     0.074 A 
ATOM     44  C   UNL     1     -21.259   4.844  12.379  1.00  0.00     0.031 C 
ATOM     45  C   UNL     1     -19.574   9.496   7.570  1.00  0.00     0.029 A 
ATOM     46  C   UNL     1     -20.987   9.138   7.642  1.00  0.00     0.049 A 
ATOM     47  H   UNL     1     -21.912   7.906   9.045  1.00  0.00     0.167 HD
ATOM     48  C   UNL     1     -23.651   4.928  11.733  1.00  0.00     0.037 A 
ATOM     49  C   UNL     1     -21.940   9.563   6.791  1.00  0.00     0.037 A 
ATOM     50  C   UNL     1     -24.757   5.446  10.972  1.00  0.00     0.049 A 
ATOM     51  C   UNL     1     -23.354   9.087   6.973  1.00  0.00     0.074 A 
ATOM     52  C   UNL     1     -26.107   5.177  11.125  1.00  0.00     0.029 A 
ATOM     53  N   UNL     1     -24.643   6.330   9.912  1.00  0.00    -0.354 N 
ATOM     54  N   UNL     1     -23.841   8.272   7.876  1.00  0.00    -0.248 NA
ATOM     55  C   UNL     1     -24.352   9.586   6.015  1.00  0.00     0.031 C 
ATOM     56  C   UNL     1     -26.805   5.860  10.125  1.00  0.00     0.029 A 
ATOM     57  C   UNL     1     -25.894   6.586   9.375  1.00  0.00     0.049 A 
ATOM     58  H   UNL     1     -23.798   6.718   9.587  1.00  0.00     0.167 HD
ATOM     59  C   UNL     1     -25.200   8.174   7.606  1.00  0.00     0.074 A 
ATOM     60  C   UNL     1     -25.465   9.028   6.468  1.00  0.00     0.031 C 
ATOM     61  C   UNL     1     -26.142   7.439   8.243  1.00  0.00     0.037 A 
BRANCH  48  62
ATOM     62  C   UNL     1     -23.943   3.870  12.754  1.00  0.00     0.057 A 
ATOM     63  C   UNL     1     -23.940   4.148  14.126  1.00  0.00     0.134 A 
ATOM     64  C   UNL     1     -24.311   2.579  12.354  1.00  0.00     0.134 A 
ATOM     65  F   UNL     1     -23.589   5.363  14.573  1.00  0.00    -0.206 F 
ATOM     66  C   UNL     1     -24.286   3.176  15.066  1.00  0.00     0.040 A 
ATOM     67  C   UNL     1     -24.678   1.605  13.283  1.00  0.00     0.040 A 
ATOM     68  F   UNL     1     -24.339   2.251  11.053  1.00  0.00    -0.206 F 
ATOM     69  C   UNL     1     -24.666   1.903  14.644  1.00  0.00     0.006 A 
ENDBRANCH  48  62
BRANCH  49  70
ATOM     70  C   UNL     1     -21.591  10.472   5.671  1.00  0.00     0.057 A 
ATOM     71  C   UNL     1     -22.026  11.802   5.655  1.00  0.00     0.134 A 
ATOM     72  C   UNL     1     -20.843  10.025   4.575  1.00  0.00     0.134 A 
ATOM     73  F   UNL     1     -22.766  12.281   6.666  1.00  0.00    -0.206 F 
ATOM     74  C   UNL     1     -21.751  12.649   4.580  1.00  0.00     0.040 A 
ATOM     75  C   UNL     1     -20.539  10.868   3.505  1.00  0.00     0.040 A 
ATOM     76  F   UNL     1     -20.392   8.763   4.532  1.00  0.00    -0.206 F 
ATOM     77  C   UNL     1     -21.002  12.182   3.502  1.00  0.00     0.006 A 
ENDBRANCH  49  70
BRANCH  61  78
ATOM     78  C   UNL     1     -27.549   7.535   7.733  1.00  0.00     0.057 A 
ATOM     79  C   UNL     1     -27.941   6.912   6.542  1.00  0.00     0.134 A 
ATOM     80  C   UNL     1     -28.530   8.216   8.464  1.00  0.00     0.134 A 
ATOM     81  F   UNL     1     -27.044   6.258   5.790  1.00  0.00    -0.206 F 
ATOM     82  C   UNL     1     -29.259   6.974   6.089  1.00  0.00     0.040 A 
ATOM     83  C   UNL     1     -29.856   8.265   8.033  1.00  0.00     0.040 A 
ATOM     84  F   UNL     1     -28.220   8.828   9.617  1.00  0.00    -0.206 F 
ATOM     85  C   UNL     1     -30.223   7.646   6.840  1.00  0.00     0.006 A 
ENDBRANCH  61  78
ENDBRANCH  35  36
ENDBRANCH  27  30
ENDBRANCH  25  26
ENDBRANCH  24  25
ENDBRANCH  23  24
ENDBRANCH   1  23
TORSDOF 15
