REMARK SMILES CC1(C)C(=O)N([C@H]2COC[C@@H]2C(=O)NCCCCNC(=O)c2ccc(-c3c4nc(c(-c5c(F)cccc5F)c5ccc([nH]5)c(-c5c(F)cccc5F)c5nc(c(-c6c(F)cccc6F)c6ccc3[nH]6)C=C5)C=C4)cc2)S1(=O)=O
REMARK SMILES IDX 17 1 16 2 15 3 14 4 12 5 13 6 11 8 7 9 8 10 9 11 10 12 6 13
REMARK SMILES IDX 1 14 2 15 3 16 4 17 76 18 5 19 77 20 78 21 18 22 19 23 20 24
REMARK SMILES IDX 21 26 22 27 23 28 75 29 24 30 74 31 25 32 26 33 27 34 68 35
REMARK SMILES IDX 28 36 73 37 67 38 69 39 29 40 72 41 66 42 65 43 30 45 56 46
REMARK SMILES IDX 39 47 55 48 40 49 43 50 54 51 70 52 41 53 42 54 53 56 71 57
REMARK SMILES IDX 44 58 31 59 32 60 37 61 33 62 34 63 36 64 38 65 35 66 57 67
REMARK SMILES IDX 58 68 63 69 59 70 60 71 62 72 64 73 61 74 45 75 46 76 51 77
REMARK SMILES IDX 47 78 48 79 50 80 52 81 49 82
REMARK H PARENT 14 7 19 25 69 44 43 55
REMARK Flexibility Score: inf
ROOT
ATOM      1  C   UNL     1       5.665   5.589  -1.280  1.00  0.00     0.023 C 
ENDROOT
BRANCH   1   2
ATOM      2  C   UNL     1       4.817   5.981  -0.064  1.00  0.00     0.023 C 
BRANCH   2   3
ATOM      3  C   UNL     1       3.699   6.981  -0.362  1.00  0.00     0.116 C 
BRANCH   3   4
ATOM      4  N   UNL     1       2.652   6.376  -1.170  1.00  0.00    -0.356 N 
ATOM      5  C   UNL     1       1.417   5.923  -0.813  1.00  0.00     0.227 C 
ATOM      6  O   UNL     1       0.783   5.273  -1.645  1.00  0.00    -0.275 OA
ATOM      7  H   UNL     1       2.870   6.277  -2.125  1.00  0.00     0.163 HD
BRANCH   5   8
ATOM      8  C   UNL     1       0.846   6.256   0.555  1.00  0.00     0.130 C 
ATOM      9  C   UNL     1       0.061   5.079   1.105  1.00  0.00     0.143 C 
ATOM     10  C   UNL     1      -1.347   5.356   0.576  1.00  0.00     0.187 C 
ATOM     11  O   UNL     1      -1.489   6.782   0.478  1.00  0.00    -0.378 OA
ATOM     12  C   UNL     1      -0.181   7.366   0.435  1.00  0.00     0.176 C 
BRANCH   9  13
ATOM     13  N   UNL     1       0.025   5.029   2.592  1.00  0.00    -0.231 N 
ATOM     14  C   UNL     1       0.088   4.280   5.824  1.00  0.00     0.041 C 
ATOM     15  C   UNL     1       0.715   4.008   4.460  1.00  0.00     0.165 C 
ATOM     16  C   UNL     1       1.702   2.840   4.534  1.00  0.00     0.041 C 
ATOM     17  C   UNL     1      -0.294   3.861   3.311  1.00  0.00     0.259 C 
ATOM     18  S   UNL     1       1.311   5.403   3.572  1.00  0.00     0.252 S 
ATOM     19  O   UNL     1      -1.094   3.007   2.974  1.00  0.00    -0.272 OA
ATOM     20  O   UNL     1       1.037   6.660   4.226  1.00  0.00    -0.205 OA
ATOM     21  O   UNL     1       2.546   5.129   2.877  1.00  0.00    -0.205 OA
ENDBRANCH   9  13
ENDBRANCH   5   8
ENDBRANCH   3   4
ENDBRANCH   2   3
ENDBRANCH   1   2
BRANCH   1  22
ATOM     22  C   UNL     1       6.335   6.747  -2.016  1.00  0.00     0.116 C 
BRANCH  22  23
ATOM     23  N   UNL     1       7.217   7.533  -1.168  1.00  0.00    -0.352 N 
ATOM     24  C   UNL     1       8.435   8.093  -1.468  1.00  0.00     0.251 C 
ATOM     25  H   UNL     1       6.896   7.685  -0.250  1.00  0.00     0.163 HD
ATOM     26  O   UNL     1       9.097   8.634  -0.587  1.00  0.00    -0.269 OA
BRANCH  24  27
ATOM     27  C   UNL     1       8.971   8.011  -2.844  1.00  0.00     0.039 A 
ATOM     28  C   UNL     1      10.303   7.626  -3.023  1.00  0.00     0.014 A 
ATOM     29  C   UNL     1       8.171   8.305  -3.952  1.00  0.00     0.014 A 
ATOM     30  C   UNL     1      10.812   7.468  -4.313  1.00  0.00     0.010 A 
ATOM     31  C   UNL     1       8.662   8.088  -5.238  1.00  0.00     0.010 A 
ATOM     32  C   UNL     1       9.985   7.662  -5.431  1.00  0.00    -0.014 A 
BRANCH  32  33
ATOM     33  C   UNL     1      10.480   7.405  -6.807  1.00  0.00     0.031 A 
ATOM     34  C   UNL     1      10.596   8.530  -7.796  1.00  0.00     0.074 A 
ATOM     35  C   UNL     1      10.756   6.142  -7.188  1.00  0.00     0.049 A 
ATOM     36  N   UNL     1      10.929   8.486  -9.062  1.00  0.00    -0.248 NA
ATOM     37  C   UNL     1      10.268   9.878  -7.307  1.00  0.00     0.031 C 
ATOM     38  C   UNL     1      10.635   4.955  -6.340  1.00  0.00     0.029 A 
ATOM     39  N   UNL     1      11.182   5.645  -8.395  1.00  0.00    -0.354 N 
ATOM     40  C   UNL     1      10.835   9.793  -9.522  1.00  0.00     0.074 A 
ATOM     41  C   UNL     1      10.373  10.600  -8.413  1.00  0.00     0.031 C 
ATOM     42  C   UNL     1      10.992   3.871  -7.047  1.00  0.00     0.029 A 
ATOM     43  C   UNL     1      11.334   4.280  -8.405  1.00  0.00     0.049 A 
ATOM     44  H   UNL     1      11.361   6.213  -9.179  1.00  0.00     0.167 HD
ATOM     45  C   UNL     1      11.125  10.279 -10.753  1.00  0.00     0.037 A 
ATOM     46  C   UNL     1      11.700   3.449  -9.399  1.00  0.00     0.037 A 
ATOM     47  C   UNL     1      11.614   9.482 -11.847  1.00  0.00     0.049 A 
ATOM     48  C   UNL     1      12.034   4.016 -10.751  1.00  0.00     0.074 A 
ATOM     49  C   UNL     1      11.998   9.897 -13.111  1.00  0.00     0.029 A 
ATOM     50  N   UNL     1      11.787   8.107 -11.808  1.00  0.00    -0.354 N 
ATOM     51  N   UNL     1      12.000   5.263 -11.154  1.00  0.00    -0.248 NA
ATOM     52  C   UNL     1      12.463   3.061 -11.783  1.00  0.00     0.031 C 
ATOM     53  C   UNL     1      12.370   8.768 -13.848  1.00  0.00     0.029 A 
ATOM     54  C   UNL     1      12.257   7.656 -13.030  1.00  0.00     0.049 A 
ATOM     55  H   UNL     1      11.603   7.537 -11.027  1.00  0.00     0.167 HD
ATOM     56  C   UNL     1      12.424   5.246 -12.476  1.00  0.00     0.074 A 
ATOM     57  C   UNL     1      12.722   3.867 -12.803  1.00  0.00     0.031 C 
ATOM     58  C   UNL     1      12.554   6.281 -13.341  1.00  0.00     0.037 A 
BRANCH  45  59
ATOM     59  C   UNL     1      10.926  11.749 -10.980  1.00  0.00     0.057 A 
ATOM     60  C   UNL     1      11.781  12.704 -10.415  1.00  0.00     0.134 A 
ATOM     61  C   UNL     1       9.895  12.212 -11.806  1.00  0.00     0.134 A 
ATOM     62  F   UNL     1      12.781  12.326  -9.604  1.00  0.00    -0.206 F 
ATOM     63  C   UNL     1      11.604  14.069 -10.646  1.00  0.00     0.040 A 
ATOM     64  C   UNL     1       9.723  13.573 -12.065  1.00  0.00     0.040 A 
ATOM     65  F   UNL     1       9.045  11.350 -12.384  1.00  0.00    -0.206 F 
ATOM     66  C   UNL     1      10.577  14.506 -11.479  1.00  0.00     0.006 A 
ENDBRANCH  45  59
BRANCH  46  67
ATOM     67  C   UNL     1      11.792   1.990  -9.146  1.00  0.00     0.057 A 
ATOM     68  C   UNL     1      13.033   1.348  -9.071  1.00  0.00     0.134 A 
ATOM     69  C   UNL     1      10.646   1.206  -8.973  1.00  0.00     0.134 A 
ATOM     70  F   UNL     1      14.165   2.045  -9.247  1.00  0.00    -0.206 F 
ATOM     71  C   UNL     1      13.132  -0.026  -8.847  1.00  0.00     0.040 A 
ATOM     72  C   UNL     1      10.731  -0.166  -8.726  1.00  0.00     0.040 A 
ATOM     73  F   UNL     1       9.428   1.764  -9.027  1.00  0.00    -0.206 F 
ATOM     74  C   UNL     1      11.977  -0.786  -8.668  1.00  0.00     0.006 A 
ENDBRANCH  46  67
BRANCH  58  75
ATOM     75  C   UNL     1      13.067   5.967 -14.714  1.00  0.00     0.057 A 
ATOM     76  C   UNL     1      12.269   5.329 -15.671  1.00  0.00     0.134 A 
ATOM     77  C   UNL     1      14.360   6.346 -15.096  1.00  0.00     0.134 A 
ATOM     78  F   UNL     1      11.025   4.929 -15.363  1.00  0.00    -0.206 F 
ATOM     79  C   UNL     1      12.746   5.061 -16.956  1.00  0.00     0.040 A 
ATOM     80  C   UNL     1      14.840   6.105 -16.384  1.00  0.00     0.040 A 
ATOM     81  F   UNL     1      15.172   6.968 -14.228  1.00  0.00    -0.206 F 
ATOM     82  C   UNL     1      14.033   5.456 -17.317  1.00  0.00     0.006 A 
ENDBRANCH  58  75
ENDBRANCH  32  33
ENDBRANCH  24  27
ENDBRANCH  22  23
ENDBRANCH   1  22
TORSDOF 12
