REMARK SMILES CC(C)=CC(=O)Nc1ccc(C(=O)NCCCCNC(=O)c2ccc(-c3c4nc(c(-c5c(F)cccc5F)c5ccc([nH]5)c(-c5c(F)cccc5F)c5nc(c(-c6c(F)cccc6F)c6ccc3[nH]6)C=C5)C=C4)cc2)cc1
REMARK SMILES IDX 16 1 15 2 14 3 12 4 13 5 11 7 8 8 9 9 77 10 10 11 76 12 7 13
REMARK SMILES IDX 5 14 6 15 4 17 1 18 2 19 3 20 17 21 18 22 19 23 20 24 21 26
REMARK SMILES IDX 22 27 23 28 75 29 24 30 74 31 25 32 26 33 27 34 68 35 28 36
REMARK SMILES IDX 73 37 67 38 69 39 29 40 72 41 66 42 65 43 30 45 56 46 39 47
REMARK SMILES IDX 55 48 40 49 43 50 54 51 70 52 41 53 42 54 53 56 71 57 44 58
REMARK SMILES IDX 31 59 32 60 37 61 33 62 34 63 36 64 38 65 35 66 57 67 58 68
REMARK SMILES IDX 63 69 59 70 60 71 62 72 64 73 61 74 45 75 46 76 51 77 47 78
REMARK SMILES IDX 48 79 50 80 52 81 49 82
REMARK H PARENT 14 6 7 16 19 25 69 44 43 55
REMARK Flexibility Score: inf
ROOT
ATOM      1  C   UNL     1       2.811  -4.590   1.165  1.00  0.00     0.023 C 
ENDROOT
BRANCH   1   2
ATOM      2  C   UNL     1       1.538  -3.822   1.528  1.00  0.00     0.116 C 
BRANCH   2   3
ATOM      3  N   UNL     1       1.644  -3.266   2.865  1.00  0.00    -0.352 N 
ATOM      4  C   UNL     1       2.010  -2.018   3.307  1.00  0.00     0.251 C 
ATOM      5  O   UNL     1       2.001  -1.805   4.519  1.00  0.00    -0.269 OA
ATOM      6  H   UNL     1       1.411  -3.897   3.584  1.00  0.00     0.163 HD
BRANCH   4   7
ATOM      7  C   UNL     1       2.310  -0.900   2.372  1.00  0.00     0.039 A 
ATOM      8  C   UNL     1       2.341   1.204   0.540  1.00  0.00     0.041 A 
ATOM      9  C   UNL     1       1.970   1.449   1.861  1.00  0.00     0.027 A 
ATOM     10  C   UNL     1       2.883  -0.029   0.188  1.00  0.00     0.027 A 
ATOM     11  C   UNL     1       1.918   0.387   2.766  1.00  0.00     0.016 A 
ATOM     12  C   UNL     1       2.903  -1.066   1.119  1.00  0.00     0.016 A 
BRANCH   8  13
ATOM     13  N   UNL     1       2.091   2.203  -0.405  1.00  0.00    -0.323 N 
ATOM     14  C   UNL     1       1.645   2.087  -1.690  1.00  0.00     0.248 C 
ATOM     15  O   UNL     1       1.692   3.059  -2.444  1.00  0.00    -0.270 OA
ATOM     16  H   UNL     1       2.260   3.123  -0.099  1.00  0.00     0.170 HD
BRANCH  14  17
ATOM     17  C   UNL     1       1.047   0.821  -2.210  1.00  0.00     0.070 C 
ATOM     18  C   UNL     1      -0.571   0.232  -0.329  1.00  0.00     0.039 C 
ATOM     19  C   UNL     1       0.091   0.037  -1.665  1.00  0.00    -0.071 C 
ATOM     20  C   UNL     1      -0.456  -1.138  -2.436  1.00  0.00     0.039 C 
ENDBRANCH  14  17
ENDBRANCH   8  13
ENDBRANCH   4   7
ENDBRANCH   2   3
ENDBRANCH   1   2
BRANCH   1  21
ATOM     21  C   UNL     1       2.958  -5.931   1.885  1.00  0.00     0.023 C 
BRANCH  21  22
ATOM     22  C   UNL     1       1.882  -6.955   1.553  1.00  0.00     0.116 C 
BRANCH  22  23
ATOM     23  N   UNL     1       1.815  -7.267   0.134  1.00  0.00    -0.352 N 
ATOM     24  C   UNL     1       1.648  -8.482  -0.478  1.00  0.00     0.251 C 
ATOM     25  H   UNL     1       1.902  -6.496  -0.473  1.00  0.00     0.163 HD
ATOM     26  O   UNL     1       1.747  -8.571  -1.700  1.00  0.00    -0.269 OA
BRANCH  24  27
ATOM     27  C   UNL     1       1.378  -9.688   0.332  1.00  0.00     0.039 A 
ATOM     28  C   UNL     1       2.049 -10.871   0.013  1.00  0.00     0.014 A 
ATOM     29  C   UNL     1       0.472  -9.660   1.395  1.00  0.00     0.014 A 
ATOM     30  C   UNL     1       1.843 -12.012   0.789  1.00  0.00     0.010 A 
ATOM     31  C   UNL     1       0.332 -10.773   2.219  1.00  0.00     0.010 A 
ATOM     32  C   UNL     1       1.002 -11.966   1.914  1.00  0.00    -0.014 A 
BRANCH  32  33
ATOM     33  C   UNL     1       0.804 -13.168   2.760  1.00  0.00     0.031 A 
ATOM     34  C   UNL     1      -0.553 -13.810   2.860  1.00  0.00     0.074 A 
ATOM     35  C   UNL     1       1.840 -13.668   3.461  1.00  0.00     0.049 A 
ATOM     36  N   UNL     1      -0.918 -14.873   3.533  1.00  0.00    -0.248 NA
ATOM     37  C   UNL     1      -1.652 -13.159   2.129  1.00  0.00     0.031 C 
ATOM     38  C   UNL     1       3.190 -13.101   3.496  1.00  0.00     0.029 A 
ATOM     39  N   UNL     1       1.921 -14.768   4.276  1.00  0.00    -0.354 N 
ATOM     40  C   UNL     1      -2.282 -15.011   3.312  1.00  0.00     0.074 A 
ATOM     41  C   UNL     1      -2.694 -13.889   2.498  1.00  0.00     0.031 C 
ATOM     42  C   UNL     1       3.973 -13.879   4.261  1.00  0.00     0.029 A 
ATOM     43  C   UNL     1       3.176 -14.979   4.793  1.00  0.00     0.049 A 
ATOM     44  H   UNL     1       1.152 -15.352   4.471  1.00  0.00     0.167 HD
ATOM     45  C   UNL     1      -3.112 -16.000   3.721  1.00  0.00     0.037 A 
ATOM     46  C   UNL     1       3.633 -15.956   5.599  1.00  0.00     0.037 A 
ATOM     47  C   UNL     1      -2.696 -17.126   4.515  1.00  0.00     0.049 A 
ATOM     48  C   UNL     1       2.693 -17.045   6.036  1.00  0.00     0.074 A 
ATOM     49  C   UNL     1      -3.446 -18.210   4.936  1.00  0.00     0.029 A 
ATOM     50  N   UNL     1      -1.413 -17.312   5.011  1.00  0.00    -0.354 N 
ATOM     51  N   UNL     1       1.423 -17.207   5.751  1.00  0.00    -0.248 NA
ATOM     52  C   UNL     1       3.255 -18.096   6.895  1.00  0.00     0.031 C 
ATOM     53  C   UNL     1      -2.630 -19.027   5.726  1.00  0.00     0.029 A 
ATOM     54  C   UNL     1      -1.357 -18.481   5.751  1.00  0.00     0.049 A 
ATOM     55  H   UNL     1      -0.655 -16.702   4.858  1.00  0.00     0.167 HD
ATOM     56  C   UNL     1       1.042 -18.390   6.372  1.00  0.00     0.074 A 
ATOM     57  C   UNL     1       2.222 -18.915   7.028  1.00  0.00     0.031 C 
ATOM     58  C   UNL     1      -0.174 -18.989   6.399  1.00  0.00     0.037 A 
BRANCH  45  59
ATOM     59  C   UNL     1      -4.554 -15.906   3.310  1.00  0.00     0.057 A 
ATOM     60  C   UNL     1      -4.955 -16.070   1.977  1.00  0.00     0.134 A 
ATOM     61  C   UNL     1      -5.556 -15.673   4.259  1.00  0.00     0.134 A 
ATOM     62  F   UNL     1      -4.044 -16.282   1.014  1.00  0.00    -0.206 F 
ATOM     63  C   UNL     1      -6.295 -15.975   1.599  1.00  0.00     0.040 A 
ATOM     64  C   UNL     1      -6.904 -15.606   3.898  1.00  0.00     0.040 A 
ATOM     65  F   UNL     1      -5.245 -15.512   5.554  1.00  0.00    -0.206 F 
ATOM     66  C   UNL     1      -7.275 -15.749   2.563  1.00  0.00     0.006 A 
ENDBRANCH  45  59
BRANCH  46  67
ATOM     67  C   UNL     1       5.057 -15.971   6.019  1.00  0.00     0.057 A 
ATOM     68  C   UNL     1       5.939 -16.952   5.550  1.00  0.00     0.134 A 
ATOM     69  C   UNL     1       5.568 -15.018   6.908  1.00  0.00     0.134 A 
ATOM     70  F   UNL     1       5.505 -17.903   4.709  1.00  0.00    -0.206 F 
ATOM     71  C   UNL     1       7.269 -17.003   5.970  1.00  0.00     0.040 A 
ATOM     72  C   UNL     1       6.903 -15.040   7.316  1.00  0.00     0.040 A 
ATOM     73  F   UNL     1       4.778 -14.046   7.386  1.00  0.00    -0.206 F 
ATOM     74  C   UNL     1       7.755 -16.041   6.853  1.00  0.00     0.006 A 
ENDBRANCH  46  67
BRANCH  58  75
ATOM     75  C   UNL     1      -0.276 -20.294   7.137  1.00  0.00     0.057 A 
ATOM     76  C   UNL     1      -0.184 -20.366   8.533  1.00  0.00     0.134 A 
ATOM     77  C   UNL     1      -0.479 -21.492   6.440  1.00  0.00     0.134 A 
ATOM     78  F   UNL     1       0.022 -19.257   9.260  1.00  0.00    -0.206 F 
ATOM     79  C   UNL     1      -0.254 -21.587   9.206  1.00  0.00     0.040 A 
ATOM     80  C   UNL     1      -0.582 -22.715   7.104  1.00  0.00     0.040 A 
ATOM     81  F   UNL     1      -0.588 -21.493   5.103  1.00  0.00    -0.206 F 
ATOM     82  C   UNL     1      -0.458 -22.766   8.491  1.00  0.00     0.006 A 
ENDBRANCH  58  75
ENDBRANCH  32  33
ENDBRANCH  24  27
ENDBRANCH  22  23
ENDBRANCH  21  22
ENDBRANCH   1  21
TORSDOF 13
