REMARK SMILES CCCc1nc(C[N@H+]2CCCC[C@@H]2C(=O)NCCCCNC(=O)c2ccc(-c3c4nc(c(-c5c(F)cccc5F)c5ccc([nH]5)c(-c5c(F)cccc5F)c5nc(c(-c6c(F)cccc6F)c6ccc3[nH]6)C=C5)C=C4)cc2)cs1
REMARK SMILES IDX 17 1 16 2 14 3 15 4 13 6 8 7 9 8 10 10 12 11 11 12 7 13 6 14
REMARK SMILES IDX 4 15 5 16 79 17 78 18 3 19 2 20 1 21 18 22 19 23 20 24 21 25
REMARK SMILES IDX 22 26 23 28 24 29 25 30 77 31 26 32 76 33 27 34 28 35 29 36
REMARK SMILES IDX 70 37 30 38 75 39 69 40 71 41 31 42 74 43 68 44 67 45 32 47
REMARK SMILES IDX 58 48 41 49 57 50 42 51 45 52 56 53 72 54 43 55 44 56 55 58
REMARK SMILES IDX 73 59 46 60 33 61 34 62 39 63 35 64 36 65 38 66 40 67 37 68
REMARK SMILES IDX 59 69 60 70 65 71 61 72 62 73 64 74 66 75 63 76 47 77 48 78
REMARK SMILES IDX 53 79 49 80 50 81 52 82 54 83 51 84
REMARK H PARENT 16 5 8 9 21 27 71 46 45 57
REMARK Flexibility Score: inf
ROOT
ATOM      1  C   UNL     1       0.890   9.305  -1.595  1.00  0.00     0.116 C 
ENDROOT
BRANCH   1   2
ATOM      2  N   UNL     1      -0.276   8.462  -1.782  1.00  0.00    -0.351 N 
ATOM      3  C   UNL     1      -0.352   7.115  -1.993  1.00  0.00     0.278 C 
ATOM      4  O   UNL     1      -1.473   6.633  -2.187  1.00  0.00    -0.268 OA
ATOM      5  H   UNL     1      -1.141   8.931  -1.752  1.00  0.00     0.163 HD
BRANCH   3   6
ATOM      6  C   UNL     1       0.903   6.212  -1.953  1.00  0.00     0.274 C 
ATOM      7  N   UNL     1       1.602   6.347  -0.649  1.00  0.00    -0.320 N 
ATOM      8  C   UNL     1       2.868   5.610  -0.604  1.00  0.00     0.263 C 
ATOM      9  H   UNL     1       1.824   7.341  -0.583  1.00  0.00     0.349 HD
ATOM     10  C   UNL     1       3.794   6.037  -1.742  1.00  0.00     0.062 C 
ATOM     11  C   UNL     1       1.800   6.503  -3.170  1.00  0.00     0.076 C 
ATOM     12  C   UNL     1       3.137   5.780  -3.091  1.00  0.00     0.012 C 
BRANCH   7  13
ATOM     13  C   UNL     1       0.754   6.042   0.525  1.00  0.00     0.321 C 
BRANCH  13  14
ATOM     14  C   UNL     1       0.244   4.627   0.592  1.00  0.00     0.106 A 
ATOM     15  C   UNL     1       0.357   2.511   1.284  1.00  0.00     0.093 A 
ATOM     16  N   UNL     1       0.996   3.664   1.257  1.00  0.00    -0.240 NA
ATOM     17  S   UNL     1      -1.178   2.519   0.508  1.00  0.00    -0.127 S 
ATOM     18  C   UNL     1      -0.962   4.164   0.101  1.00  0.00     0.096 A 
BRANCH  15  19
ATOM     19  C   UNL     1       0.875   1.311   2.028  1.00  0.00     0.067 C 
BRANCH  19  20
ATOM     20  C   UNL     1       0.531  -0.062   1.449  1.00  0.00     0.004 C 
ATOM     21  C   UNL     1       1.189  -0.341   0.105  1.00  0.00     0.004 C 
ENDBRANCH  19  20
ENDBRANCH  15  19
ENDBRANCH  13  14
ENDBRANCH   7  13
ENDBRANCH   3   6
ENDBRANCH   1   2
BRANCH   1  22
ATOM     22  C   UNL     1       1.115  10.199  -2.814  1.00  0.00     0.023 C 
BRANCH  22  23
ATOM     23  C   UNL     1       0.038  11.265  -3.021  1.00  0.00     0.023 C 
BRANCH  23  24
ATOM     24  C   UNL     1      -0.147  12.223  -1.852  1.00  0.00     0.116 C 
BRANCH  24  25
ATOM     25  N   UNL     1       1.071  12.944  -1.513  1.00  0.00    -0.352 N 
ATOM     26  C   UNL     1       1.229  14.278  -1.229  1.00  0.00     0.251 C 
ATOM     27  H   UNL     1       1.892  12.402  -1.483  1.00  0.00     0.163 HD
ATOM     28  O   UNL     1       2.350  14.759  -1.098  1.00  0.00    -0.269 OA
BRANCH  26  29
ATOM     29  C   UNL     1       0.035  15.138  -1.115  1.00  0.00     0.039 A 
ATOM     30  C   UNL     1       0.009  16.352  -1.806  1.00  0.00     0.014 A 
ATOM     31  C   UNL     1      -1.065  14.730  -0.356  1.00  0.00     0.014 A 
ATOM     32  C   UNL     1      -1.152  17.127  -1.790  1.00  0.00     0.010 A 
ATOM     33  C   UNL     1      -2.244  15.465  -0.403  1.00  0.00     0.010 A 
ATOM     34  C   UNL     1      -2.298  16.671  -1.119  1.00  0.00    -0.014 A 
BRANCH  34  35
ATOM     35  C   UNL     1      -3.566  17.440  -1.154  1.00  0.00     0.031 A 
ATOM     36  C   UNL     1      -4.137  18.010   0.113  1.00  0.00     0.074 A 
ATOM     37  C   UNL     1      -4.239  17.563  -2.314  1.00  0.00     0.049 A 
ATOM     38  N   UNL     1      -5.264  18.650   0.298  1.00  0.00    -0.248 NA
ATOM     39  C   UNL     1      -3.352  17.808   1.341  1.00  0.00     0.031 C 
ATOM     40  C   UNL     1      -3.816  17.008  -3.602  1.00  0.00     0.029 A 
ATOM     41  N   UNL     1      -5.429  18.185  -2.596  1.00  0.00    -0.354 N 
ATOM     42  C   UNL     1      -5.328  18.912   1.661  1.00  0.00     0.074 A 
ATOM     43  C   UNL     1      -4.157  18.313   2.263  1.00  0.00     0.031 C 
ATOM     44  C   UNL     1      -4.720  17.333  -4.539  1.00  0.00     0.029 A 
ATOM     45  C   UNL     1      -5.803  18.087  -3.914  1.00  0.00     0.049 A 
ATOM     46  H   UNL     1      -5.963  18.657  -1.917  1.00  0.00     0.167 HD
ATOM     47  C   UNL     1      -6.266  19.609   2.345  1.00  0.00     0.037 A 
ATOM     48  C   UNL     1      -6.898  18.548  -4.546  1.00  0.00     0.037 A 
ATOM     49  C   UNL     1      -7.418  20.222   1.739  1.00  0.00     0.049 A 
ATOM     50  C   UNL     1      -7.926  19.320  -3.766  1.00  0.00     0.074 A 
ATOM     51  C   UNL     1      -8.393  21.003   2.334  1.00  0.00     0.029 A 
ATOM     52  N   UNL     1      -7.752  20.120   0.396  1.00  0.00    -0.354 N 
ATOM     53  N   UNL     1      -7.939  19.623  -2.491  1.00  0.00    -0.248 NA
ATOM     54  C   UNL     1      -9.087  19.820  -4.515  1.00  0.00     0.031 C 
ATOM     55  C   UNL     1      -9.341  21.337   1.360  1.00  0.00     0.029 A 
ATOM     56  C   UNL     1      -8.930  20.805   0.148  1.00  0.00     0.049 A 
ATOM     57  H   UNL     1      -7.229  19.632  -0.280  1.00  0.00     0.167 HD
ATOM     58  C   UNL     1      -9.092  20.370  -2.289  1.00  0.00     0.074 A 
ATOM     59  C   UNL     1      -9.746  20.485  -3.576  1.00  0.00     0.031 C 
ATOM     60  C   UNL     1      -9.566  20.913  -1.140  1.00  0.00     0.037 A 
BRANCH  47  61
ATOM     61  C   UNL     1      -6.077  19.744   3.828  1.00  0.00     0.057 A 
ATOM     62  C   UNL     1      -5.050  20.526   4.374  1.00  0.00     0.134 A 
ATOM     63  C   UNL     1      -6.940  19.098   4.722  1.00  0.00     0.134 A 
ATOM     64  F   UNL     1      -4.180  21.161   3.574  1.00  0.00    -0.206 F 
ATOM     65  C   UNL     1      -4.867  20.633   5.754  1.00  0.00     0.040 A 
ATOM     66  C   UNL     1      -6.785  19.221   6.104  1.00  0.00     0.040 A 
ATOM     67  F   UNL     1      -7.948  18.338   4.268  1.00  0.00    -0.206 F 
ATOM     68  C   UNL     1      -5.741  19.983   6.623  1.00  0.00     0.006 A 
ENDBRANCH  47  61
BRANCH  48  69
ATOM     69  C   UNL     1      -7.064  18.316  -6.002  1.00  0.00     0.057 A 
ATOM     70  C   UNL     1      -6.942  19.366  -6.918  1.00  0.00     0.134 A 
ATOM     71  C   UNL     1      -7.340  17.042  -6.513  1.00  0.00     0.134 A 
ATOM     72  F   UNL     1      -6.696  20.612  -6.487  1.00  0.00    -0.206 F 
ATOM     73  C   UNL     1      -7.104  19.164  -8.290  1.00  0.00     0.040 A 
ATOM     74  C   UNL     1      -7.481  16.820  -7.884  1.00  0.00     0.040 A 
ATOM     75  F   UNL     1      -7.461  15.992  -5.688  1.00  0.00    -0.206 F 
ATOM     76  C   UNL     1      -7.368  17.885  -8.776  1.00  0.00     0.006 A 
ENDBRANCH  48  69
BRANCH  60  77
ATOM     77  C   UNL     1     -10.836  21.706  -1.230  1.00  0.00     0.057 A 
ATOM     78  C   UNL     1     -12.080  21.092  -1.421  1.00  0.00     0.134 A 
ATOM     79  C   UNL     1     -10.817  23.099  -1.082  1.00  0.00     0.134 A 
ATOM     80  F   UNL     1     -12.165  19.763  -1.583  1.00  0.00    -0.206 F 
ATOM     81  C   UNL     1     -13.259  21.838  -1.483  1.00  0.00     0.040 A 
ATOM     82  C   UNL     1     -11.991  23.853  -1.116  1.00  0.00     0.040 A 
ATOM     83  F   UNL     1      -9.659  23.748  -0.888  1.00  0.00    -0.206 F 
ATOM     84  C   UNL     1     -13.216  23.222  -1.323  1.00  0.00     0.006 A 
ENDBRANCH  60  77
ENDBRANCH  34  35
ENDBRANCH  26  29
ENDBRANCH  24  25
ENDBRANCH  23  24
ENDBRANCH  22  23
ENDBRANCH   1  22
TORSDOF 15
