REMARK SMILES COc1ccc(C[N@@H+]2C[C@@H](C(=O)NCCCCNC(=O)c3ccc(-c4c5nc(c(-c6c(F)cccc6F)c6ccc([nH]6)c(-c6c(F)cccc6F)c6nc(c(-c7c(F)cccc7F)c7ccc4[nH]7)C=C6)C=C5)cc3)[C@H](c3ccccc3OC)C2)c(OC)c1
REMARK SMILES IDX 15 1 14 2 13 3 11 4 12 5 10 7 8 8 9 9 84 10 75 12 7 13 6 14
REMARK SMILES IDX 3 15 4 16 88 17 5 18 85 19 2 20 1 21 86 22 87 23 76 24 77 25
REMARK SMILES IDX 81 26 78 27 80 28 79 29 82 30 83 31 16 32 17 33 18 34 19 35
REMARK SMILES IDX 20 37 21 38 22 39 74 40 23 41 73 42 24 43 25 44 26 45 67 46
REMARK SMILES IDX 27 47 72 48 66 49 68 50 28 51 71 52 65 53 64 54 29 56 55 57
REMARK SMILES IDX 38 58 54 59 39 60 42 61 53 62 69 63 40 64 41 65 52 67 70 68
REMARK SMILES IDX 43 69 30 70 31 71 36 72 32 73 33 74 35 75 37 76 34 77 56 78
REMARK SMILES IDX 57 79 62 80 58 81 59 82 61 83 63 84 60 85 44 86 45 87 50 88
REMARK SMILES IDX 46 89 47 90 49 91 51 92 48 93
REMARK H PARENT 13 6 8 11 18 36 68 55 42 66
REMARK Flexibility Score: inf
ROOT
ATOM      1  C   UNL     1      -3.066  -3.671   2.460  1.00  0.00     0.023 C 
ENDROOT
BRANCH   1   2
ATOM      2  C   UNL     1      -2.035  -3.316   3.528  1.00  0.00     0.116 C 
BRANCH   2   3
ATOM      3  N   UNL     1      -1.970  -4.298   4.595  1.00  0.00    -0.356 N 
ATOM      4  C   UNL     1      -0.866  -4.890   5.155  1.00  0.00     0.229 C 
ATOM      5  O   UNL     1      -1.030  -5.558   6.177  1.00  0.00    -0.275 OA
ATOM      6  H   UNL     1      -2.836  -4.578   4.969  1.00  0.00     0.163 HD
BRANCH   4   7
ATOM      7  C   UNL     1       0.467  -4.819   4.435  1.00  0.00     0.146 C 
ATOM      8  N   UNL     1       2.002  -6.360   3.481  1.00  0.00    -0.330 N 
ATOM      9  C   UNL     1       0.596  -6.207   3.800  1.00  0.00     0.276 C 
ATOM     10  C   UNL     1       2.711  -5.698   4.588  1.00  0.00     0.272 C 
ATOM     11  H   UNL     1       2.287  -7.338   3.441  1.00  0.00     0.348 HD
ATOM     12  C   UNL     1       1.768  -4.645   5.259  1.00  0.00     0.096 C 
BRANCH   8  13
ATOM     13  C   UNL     1       2.389  -6.040   2.094  1.00  0.00     0.303 C 
BRANCH  13  14
ATOM     14  C   UNL     1       2.016  -4.685   1.510  1.00  0.00     0.048 A 
ATOM     15  C   UNL     1       1.181  -2.095   0.803  1.00  0.00     0.122 A 
ATOM     16  C   UNL     1       0.295  -3.158   0.707  1.00  0.00     0.047 A 
ATOM     17  C   UNL     1       2.515  -2.334   1.122  1.00  0.00     0.093 A 
ATOM     18  C   UNL     1       0.707  -4.445   1.054  1.00  0.00     0.017 A 
ATOM     19  C   UNL     1       2.946  -3.639   1.410  1.00  0.00     0.131 A 
BRANCH  15  20
ATOM     20  O   UNL     1       0.639  -0.843   0.705  1.00  0.00    -0.497 OA
ATOM     21  C   UNL     1       1.276  -0.015  -0.260  1.00  0.00     0.278 C 
ENDBRANCH  15  20
BRANCH  19  22
ATOM     22  O   UNL     1       4.253  -3.960   1.671  1.00  0.00    -0.496 OA
ATOM     23  C   UNL     1       5.228  -3.159   1.014  1.00  0.00     0.278 C 
ENDBRANCH  19  22
ENDBRANCH  13  14
ENDBRANCH   8  13
BRANCH  12  24
ATOM     24  C   UNL     1       2.294  -3.196   5.308  1.00  0.00     0.004 A 
ATOM     25  C   UNL     1       3.397  -2.777   4.545  1.00  0.00     0.008 A 
ATOM     26  C   UNL     1       1.729  -2.209   6.137  1.00  0.00     0.122 A 
ATOM     27  C   UNL     1       3.841  -1.450   4.506  1.00  0.00     0.001 A 
ATOM     28  C   UNL     1       2.143  -0.864   6.082  1.00  0.00     0.047 A 
ATOM     29  C   UNL     1       3.186  -0.480   5.243  1.00  0.00     0.004 A 
BRANCH  26  30
ATOM     30  O   UNL     1       0.964  -2.579   7.212  1.00  0.00    -0.496 OA
ATOM     31  C   UNL     1      -0.429  -2.432   6.995  1.00  0.00     0.278 C 
ENDBRANCH  26  30
ENDBRANCH  12  24
ENDBRANCH   4   7
ENDBRANCH   2   3
ENDBRANCH   1   2
BRANCH   1  32
ATOM     32  C   UNL     1      -4.471  -3.155   2.759  1.00  0.00     0.023 C 
BRANCH  32  33
ATOM     33  C   UNL     1      -4.590  -1.635   2.849  1.00  0.00     0.116 C 
BRANCH  33  34
ATOM     34  N   UNL     1      -4.253  -0.945   1.611  1.00  0.00    -0.352 N 
ATOM     35  C   UNL     1      -4.951   0.054   0.970  1.00  0.00     0.251 C 
ATOM     36  H   UNL     1      -3.418  -1.230   1.175  1.00  0.00     0.163 HD
ATOM     37  O   UNL     1      -4.593   0.468  -0.129  1.00  0.00    -0.269 OA
BRANCH  35  38
ATOM     38  C   UNL     1      -6.167   0.599   1.607  1.00  0.00     0.039 A 
ATOM     39  C   UNL     1      -7.357   0.637   0.878  1.00  0.00     0.014 A 
ATOM     40  C   UNL     1      -6.142   0.997   2.947  1.00  0.00     0.014 A 
ATOM     41  C   UNL     1      -8.545   0.988   1.520  1.00  0.00     0.010 A 
ATOM     42  C   UNL     1      -7.338   1.268   3.603  1.00  0.00     0.010 A 
ATOM     43  C   UNL     1      -8.552   1.257   2.899  1.00  0.00    -0.014 A 
BRANCH  43  44
ATOM     44  C   UNL     1      -9.819   1.507   3.633  1.00  0.00     0.031 A 
ATOM     45  C   UNL     1     -10.049   2.828   4.310  1.00  0.00     0.074 A 
ATOM     46  C   UNL     1     -10.720   0.514   3.767  1.00  0.00     0.049 A 
ATOM     47  N   UNL     1     -11.039   3.202   5.079  1.00  0.00    -0.248 NA
ATOM     48  C   UNL     1      -9.012   3.855   4.123  1.00  0.00     0.031 C 
ATOM     49  C   UNL     1     -10.589  -0.833   3.206  1.00  0.00     0.029 A 
ATOM     50  N   UNL     1     -11.919   0.479   4.434  1.00  0.00    -0.354 N 
ATOM     51  C   UNL     1     -10.736   4.495   5.482  1.00  0.00     0.074 A 
ATOM     52  C   UNL     1      -9.446   4.824   4.915  1.00  0.00     0.031 C 
ATOM     53  C   UNL     1     -11.671  -1.555   3.539  1.00  0.00     0.029 A 
ATOM     54  C   UNL     1     -12.552  -0.740   4.369  1.00  0.00     0.049 A 
ATOM     55  H   UNL     1     -12.291   1.253   4.915  1.00  0.00     0.167 HD
ATOM     56  C   UNL     1     -11.475   5.341   6.238  1.00  0.00     0.037 A 
ATOM     57  C   UNL     1     -13.704  -1.158   4.926  1.00  0.00     0.037 A 
ATOM     58  C   UNL     1     -12.771   5.022   6.775  1.00  0.00     0.049 A 
ATOM     59  C   UNL     1     -14.505  -0.202   5.765  1.00  0.00     0.074 A 
ATOM     60  C   UNL     1     -13.636   5.841   7.480  1.00  0.00     0.029 A 
ATOM     61  N   UNL     1     -13.386   3.784   6.672  1.00  0.00    -0.354 N 
ATOM     62  N   UNL     1     -14.246   1.047   6.069  1.00  0.00    -0.248 NA
ATOM     63  C   UNL     1     -15.758  -0.712   6.340  1.00  0.00     0.031 C 
ATOM     64  C   UNL     1     -14.753   5.083   7.846  1.00  0.00     0.029 A 
ATOM     65  C   UNL     1     -14.605   3.806   7.329  1.00  0.00     0.049 A 
ATOM     66  H   UNL     1     -13.012   3.004   6.201  1.00  0.00     0.167 HD
ATOM     67  C   UNL     1     -15.309   1.476   6.853  1.00  0.00     0.074 A 
ATOM     68  C   UNL     1     -16.226   0.361   6.963  1.00  0.00     0.031 C 
ATOM     69  C   UNL     1     -15.506   2.686   7.432  1.00  0.00     0.037 A 
BRANCH  56  70
ATOM     70  C   UNL     1     -10.897   6.695   6.527  1.00  0.00     0.057 A 
ATOM     71  C   UNL     1     -10.768   7.673   5.532  1.00  0.00     0.134 A 
ATOM     72  C   UNL     1     -10.491   7.036   7.824  1.00  0.00     0.134 A 
ATOM     73  F   UNL     1     -11.127   7.407   4.267  1.00  0.00    -0.206 F 
ATOM     74  C   UNL     1     -10.230   8.931   5.809  1.00  0.00     0.040 A 
ATOM     75  C   UNL     1      -9.977   8.300   8.119  1.00  0.00     0.040 A 
ATOM     76  F   UNL     1     -10.591   6.149   8.825  1.00  0.00    -0.206 F 
ATOM     77  C   UNL     1      -9.839   9.249   7.108  1.00  0.00     0.006 A 
ENDBRANCH  56  70
BRANCH  57  78
ATOM     78  C   UNL     1     -14.175  -2.548   4.702  1.00  0.00     0.057 A 
ATOM     79  C   UNL     1     -15.293  -2.812   3.904  1.00  0.00     0.134 A 
ATOM     80  C   UNL     1     -13.523  -3.643   5.281  1.00  0.00     0.134 A 
ATOM     81  F   UNL     1     -15.972  -1.803   3.338  1.00  0.00    -0.206 F 
ATOM     82  C   UNL     1     -15.756  -4.113   3.700  1.00  0.00     0.040 A 
ATOM     83  C   UNL     1     -13.960  -4.952   5.067  1.00  0.00     0.040 A 
ATOM     84  F   UNL     1     -12.441  -3.458   6.052  1.00  0.00    -0.206 F 
ATOM     85  C   UNL     1     -15.085  -5.188   4.279  1.00  0.00     0.006 A 
ENDBRANCH  57  78
BRANCH  69  86
ATOM     86  C   UNL     1     -16.766   2.872   8.224  1.00  0.00     0.057 A 
ATOM     87  C   UNL     1     -16.939   2.280   9.481  1.00  0.00     0.134 A 
ATOM     88  C   UNL     1     -17.796   3.692   7.747  1.00  0.00     0.134 A 
ATOM     89  F   UNL     1     -15.995   1.472   9.988  1.00  0.00    -0.206 F 
ATOM     90  C   UNL     1     -18.100   2.484  10.229  1.00  0.00     0.040 A 
ATOM     91  C   UNL     1     -18.950   3.924   8.496  1.00  0.00     0.040 A 
ATOM     92  F   UNL     1     -17.690   4.295   6.553  1.00  0.00    -0.206 F 
ATOM     93  C   UNL     1     -19.106   3.316   9.740  1.00  0.00     0.006 A 
ENDBRANCH  69  86
ENDBRANCH  43  44
ENDBRANCH  35  38
ENDBRANCH  33  34
ENDBRANCH  32  33
ENDBRANCH   1  32
TORSDOF 17
