REMARK SMILES O=C(NCCCCNC(=O)c1nnn(-c2cccc(OC(F)(F)F)c2)c1-c1ccncc1)c1ccc(-c2c3nc(c(-c4c(F)cccc4F)c4ccc([nH]4)c(-c4c(F)cccc4F)c4nc(c(-c5c(F)cccc5F)c5ccc2[nH]5)C=C4)C=C3)cc1
REMARK SMILES IDX 6 1 5 2 4 3 3 4 1 5 2 6 33 8 34 9 86 10 35 11 85 12 36 13
REMARK SMILES IDX 37 14 38 15 79 16 39 17 84 18 78 19 80 20 40 21 83 22 77 23
REMARK SMILES IDX 76 24 41 26 67 27 50 28 66 29 51 30 54 31 65 32 81 33 52 34
REMARK SMILES IDX 53 35 64 37 82 38 55 39 42 40 43 41 48 42 44 43 45 44 47 45
REMARK SMILES IDX 49 46 46 47 68 48 69 49 74 50 70 51 71 52 73 53 75 54 72 55
REMARK SMILES IDX 56 56 57 57 62 58 58 59 59 60 61 61 63 62 60 63 7 64 8 65
REMARK SMILES IDX 9 66 10 68 11 69 12 70 26 71 13 72 14 73 27 74 28 75 32 76
REMARK SMILES IDX 29 77 31 78 30 79 15 80 16 81 25 82 17 83 19 84 18 85 20 86
REMARK SMILES IDX 21 87 22 88 23 89 24 90
REMARK H PARENT 3 7 80 25 54 36 8 67
REMARK Flexibility Score: inf
ROOT
ATOM      1  C   UNL     1       4.569   0.584  -3.402  1.00  0.00     0.023 C 
ENDROOT
BRANCH   1   2
ATOM      2  C   UNL     1       5.099  -0.008  -2.098  1.00  0.00     0.023 C 
BRANCH   2   3
ATOM      3  C   UNL     1       4.801   0.785  -0.819  1.00  0.00     0.116 C 
BRANCH   3   4
ATOM      4  N   UNL     1       3.410   1.131  -0.600  1.00  0.00    -0.352 N 
ATOM      5  O   UNL     1       1.296   1.130   0.055  1.00  0.00    -0.269 OA
ATOM      6  C   UNL     1       2.313   0.457  -0.132  1.00  0.00     0.251 C 
ATOM      7  H   UNL     1       3.208   2.063  -0.843  1.00  0.00     0.163 HD
BRANCH   6   8
ATOM      8  C   UNL     1       2.247  -1.013   0.104  1.00  0.00     0.039 A 
ATOM      9  C   UNL     1       3.331  -1.888   0.061  1.00  0.00     0.014 A 
ATOM     10  C   UNL     1       0.971  -1.552   0.357  1.00  0.00     0.014 A 
ATOM     11  C   UNL     1       3.142  -3.265   0.129  1.00  0.00     0.010 A 
ATOM     12  C   UNL     1       0.782  -2.927   0.482  1.00  0.00     0.010 A 
ATOM     13  C   UNL     1       1.864  -3.790   0.315  1.00  0.00    -0.014 A 
BRANCH  13  14
ATOM     14  C   UNL     1       1.735  -5.246   0.408  1.00  0.00     0.031 A 
ATOM     15  C   UNL     1       2.431  -5.916   1.551  1.00  0.00     0.074 A 
ATOM     16  C   UNL     1       0.908  -5.962  -0.380  1.00  0.00     0.049 A 
ATOM     17  N   UNL     1       3.207  -6.956   1.540  1.00  0.00    -0.248 NA
ATOM     18  C   UNL     1       2.240  -5.330   2.888  1.00  0.00     0.031 C 
ATOM     19  C   UNL     1      -0.082  -5.455  -1.333  1.00  0.00     0.029 A 
ATOM     20  N   UNL     1       0.698  -7.311  -0.395  1.00  0.00    -0.354 N 
ATOM     21  C   UNL     1       3.471  -7.257   2.877  1.00  0.00     0.074 A 
ATOM     22  C   UNL     1       2.920  -6.180   3.658  1.00  0.00     0.031 C 
ATOM     23  C   UNL     1      -0.931  -6.454  -1.657  1.00  0.00     0.029 A 
ATOM     24  C   UNL     1      -0.471  -7.685  -1.036  1.00  0.00     0.049 A 
ATOM     25  H   UNL     1       1.320  -7.957   0.012  1.00  0.00     0.167 HD
ATOM     26  C   UNL     1       3.980  -8.454   3.280  1.00  0.00     0.037 A 
ATOM     27  C   UNL     1      -1.071  -8.897  -0.996  1.00  0.00     0.037 A 
ATOM     28  C   UNL     1       4.675  -9.138   2.226  1.00  0.00     0.049 A 
ATOM     29  C   UNL     1      -0.083  -9.900  -0.540  1.00  0.00     0.074 A 
ATOM     30  C   UNL     1       5.763  -8.855   1.424  1.00  0.00     0.029 A 
ATOM     31  N   UNL     1       4.109 -10.261   1.681  1.00  0.00    -0.354 N 
ATOM     32  N   UNL     1       0.929 -10.324  -1.243  1.00  0.00    -0.248 NA
ATOM     33  C   UNL     1      -0.030 -10.213   0.880  1.00  0.00     0.031 C 
ATOM     34  C   UNL     1       5.502  -9.518   0.189  1.00  0.00     0.029 A 
ATOM     35  C   UNL     1       4.269 -10.154   0.326  1.00  0.00     0.049 A 
ATOM     36  H   UNL     1       3.675 -10.999   2.168  1.00  0.00     0.167 HD
ATOM     37  C   UNL     1       1.919 -10.594  -0.311  1.00  0.00     0.074 A 
ATOM     38  C   UNL     1       1.232 -10.632   0.974  1.00  0.00     0.031 C 
ATOM     39  C   UNL     1       3.241 -10.486  -0.631  1.00  0.00     0.037 A 
BRANCH  26  40
ATOM     40  C   UNL     1       3.596  -9.144   4.568  1.00  0.00     0.057 A 
ATOM     41  C   UNL     1       4.310 -10.280   4.997  1.00  0.00     0.134 A 
ATOM     42  C   UNL     1       2.381  -8.913   5.243  1.00  0.00     0.134 A 
ATOM     43  F   UNL     1       5.470 -10.624   4.417  1.00  0.00    -0.206 F 
ATOM     44  C   UNL     1       3.820 -11.151   5.978  1.00  0.00     0.040 A 
ATOM     45  C   UNL     1       1.907  -9.749   6.260  1.00  0.00     0.040 A 
ATOM     46  F   UNL     1       1.547  -7.927   4.890  1.00  0.00    -0.206 F 
ATOM     47  C   UNL     1       2.612 -10.889   6.610  1.00  0.00     0.006 A 
ENDBRANCH  26  40
BRANCH  27  48
ATOM     48  C   UNL     1      -2.515  -9.195  -1.086  1.00  0.00     0.057 A 
ATOM     49  C   UNL     1      -2.978 -10.469  -1.439  1.00  0.00     0.134 A 
ATOM     50  C   UNL     1      -3.481  -8.299  -0.595  1.00  0.00     0.134 A 
ATOM     51  F   UNL     1      -2.123 -11.410  -1.865  1.00  0.00    -0.206 F 
ATOM     52  C   UNL     1      -4.325 -10.830  -1.312  1.00  0.00     0.040 A 
ATOM     53  C   UNL     1      -4.830  -8.641  -0.477  1.00  0.00     0.040 A 
ATOM     54  F   UNL     1      -3.134  -7.087  -0.137  1.00  0.00    -0.206 F 
ATOM     55  C   UNL     1      -5.255  -9.916  -0.827  1.00  0.00     0.006 A 
ENDBRANCH  27  48
BRANCH  39  56
ATOM     56  C   UNL     1       3.606 -10.371  -2.081  1.00  0.00     0.057 A 
ATOM     57  C   UNL     1       3.238  -9.283  -2.885  1.00  0.00     0.134 A 
ATOM     58  C   UNL     1       4.481 -11.309  -2.641  1.00  0.00     0.134 A 
ATOM     59  F   UNL     1       2.494  -8.282  -2.395  1.00  0.00    -0.206 F 
ATOM     60  C   UNL     1       3.679  -9.161  -4.205  1.00  0.00     0.040 A 
ATOM     61  C   UNL     1       4.955 -11.182  -3.949  1.00  0.00     0.040 A 
ATOM     62  F   UNL     1       4.928 -12.341  -1.908  1.00  0.00    -0.206 F 
ATOM     63  C   UNL     1       4.544 -10.111  -4.739  1.00  0.00     0.006 A 
ENDBRANCH  39  56
ENDBRANCH  13  14
ENDBRANCH   6   8
ENDBRANCH   3   4
ENDBRANCH   2   3
ENDBRANCH   1   2
BRANCH   1  64
ATOM     64  C   UNL     1       4.931   2.038  -3.641  1.00  0.00     0.116 C 
BRANCH  64  65
ATOM     65  N   UNL     1       6.354   2.270  -3.784  1.00  0.00    -0.351 N 
ATOM     66  C   UNL     1       6.982   3.244  -4.535  1.00  0.00     0.274 C 
ATOM     67  H   UNL     1       6.944   1.660  -3.285  1.00  0.00     0.163 HD
ATOM     68  O   UNL     1       8.204   3.285  -4.544  1.00  0.00    -0.267 OA
BRANCH  66  69
ATOM     69  C   UNL     1       6.164   4.184  -5.287  1.00  0.00     0.178 A 
ATOM     70  N   UNL     1       6.201   4.235  -6.659  1.00  0.00    -0.124 NA
ATOM     71  C   UNL     1       5.207   5.077  -4.820  1.00  0.00     0.108 A 
ATOM     72  N   UNL     1       5.258   5.070  -7.069  1.00  0.00    -0.061 NA
ATOM     73  N   UNL     1       4.741   5.681  -5.982  1.00  0.00    -0.212 N 
BRANCH  71  74
ATOM     74  C   UNL     1       4.618   5.245  -3.490  1.00  0.00     0.006 A 
ATOM     75  C   UNL     1       5.404   5.565  -2.385  1.00  0.00     0.030 A 
ATOM     76  C   UNL     1       3.248   5.010  -3.300  1.00  0.00     0.030 A 
ATOM     77  C   UNL     1       4.790   5.627  -1.145  1.00  0.00     0.111 A 
ATOM     78  C   UNL     1       2.730   5.087  -2.021  1.00  0.00     0.111 A 
ATOM     79  N   UNL     1       3.478   5.378  -0.939  1.00  0.00    -0.265 NA
ENDBRANCH  71  74
BRANCH  73  80
ATOM     80  C   UNL     1       3.797   6.727  -6.091  1.00  0.00     0.071 A 
ATOM     81  C   UNL     1       2.810   6.670  -7.077  1.00  0.00     0.029 A 
ATOM     82  C   UNL     1       3.812   7.768  -5.147  1.00  0.00     0.075 A 
ATOM     83  C   UNL     1       1.779   7.608  -7.050  1.00  0.00     0.006 A 
ATOM     84  C   UNL     1       2.797   8.720  -5.139  1.00  0.00     0.131 A 
ATOM     85  C   UNL     1       1.769   8.617  -6.080  1.00  0.00     0.047 A 
BRANCH  84  86
ATOM     86  O   UNL     1       2.686   9.766  -4.268  1.00  0.00    -0.406 OA
BRANCH  86  87
ATOM     87  C   UNL     1       3.759   9.989  -3.365  1.00  0.00     0.573 C 
ATOM     88  F   UNL     1       3.920   8.941  -2.529  1.00  0.00    -0.132 F 
ATOM     89  F   UNL     1       4.914  10.209  -4.030  1.00  0.00    -0.132 F 
ATOM     90  F   UNL     1       3.486  11.083  -2.621  1.00  0.00    -0.132 F 
ENDBRANCH  86  87
ENDBRANCH  84  86
ENDBRANCH  73  80
ENDBRANCH  66  69
ENDBRANCH  64  65
ENDBRANCH   1  64
TORSDOF 15
