REMARK SMILES C[NH2+][C@@]1(C(=O)NCCCCNC(=O)c2ccc(-c3c4nc(c(-c5c(F)cccc5F)c5ccc([nH]5)c(-c5c(F)cccc5F)c5nc(c(-c6c(F)cccc6F)c6ccc3[nH]6)C=C5)C=C4)cc2)CC[C@H](Sc2ccc(C)c(C)c2)C1
REMARK SMILES IDX 8 1 7 2 6 3 4 4 5 5 3 7 68 8 80 9 69 10 70 11 2 12 1 13
REMARK SMILES IDX 71 16 72 17 73 18 79 19 74 20 77 21 75 22 78 23 76 24 9 25
REMARK SMILES IDX 10 26 11 27 12 28 13 30 14 31 15 32 67 33 16 34 66 35 17 36
REMARK SMILES IDX 18 37 19 38 60 39 20 40 65 41 59 42 61 43 21 44 64 45 58 46
REMARK SMILES IDX 57 47 22 49 48 50 31 51 47 52 32 53 35 54 46 55 62 56 33 57
REMARK SMILES IDX 34 58 45 60 63 61 36 62 23 63 24 64 29 65 25 66 26 67 28 68
REMARK SMILES IDX 30 69 27 70 49 71 50 72 55 73 51 74 52 75 54 76 56 77 53 78
REMARK SMILES IDX 37 79 38 80 43 81 39 82 40 83 42 84 44 85 41 86
REMARK H PARENT 6 6 2 14 2 15 11 29 61 48 35 59
REMARK Flexibility Score: inf
ROOT
ATOM      1  C   UNL     1      -4.523  -2.991   1.750  1.00  0.00     0.023 C 
ENDROOT
BRANCH   1   2
ATOM      2  C   UNL     1      -3.825  -1.717   1.305  1.00  0.00     0.116 C 
BRANCH   2   3
ATOM      3  N   UNL     1      -2.507  -1.569   1.854  1.00  0.00    -0.351 N 
ATOM      4  C   UNL     1      -1.291  -1.475   1.245  1.00  0.00     0.281 C 
ATOM      5  O   UNL     1      -0.341  -1.453   2.038  1.00  0.00    -0.268 OA
ATOM      6  H   UNL     1      -2.476  -1.529   2.837  1.00  0.00     0.163 HD
BRANCH   4   7
ATOM      7  C   UNL     1      -1.101  -1.396  -0.339  1.00  0.00     0.176 C 
ATOM      8  C   UNL     1      -1.786  -0.185  -1.008  1.00  0.00     0.080 C 
ATOM      9  C   UNL     1      -1.712  -2.640  -1.032  1.00  0.00     0.094 C 
ATOM     10  C   UNL     1      -3.014  -0.685  -1.768  1.00  0.00     0.022 C 
ATOM     11  C   UNL     1      -2.724  -2.146  -2.092  1.00  0.00     0.058 C 
BRANCH   7  12
ATOM     12  N   UNL     1       0.363  -1.389  -0.635  1.00  0.00    -0.336 N 
ATOM     13  C   UNL     1       1.084  -0.186  -0.224  1.00  0.00     0.331 C 
ATOM     14  H   UNL     1       0.784  -2.186  -0.158  1.00  0.00     0.346 HD
ATOM     15  H   UNL     1       0.443  -1.429  -1.651  1.00  0.00     0.346 HD
ENDBRANCH   7  12
BRANCH  11  16
ATOM     16  S   UNL     1      -4.079  -3.400  -2.272  1.00  0.00    -0.122 SA
BRANCH  16  17
ATOM     17  C   UNL     1      -5.663  -2.608  -2.034  1.00  0.00     0.008 A 
ATOM     18  C   UNL     1      -6.036  -1.421  -2.651  1.00  0.00     0.015 A 
ATOM     19  C   UNL     1      -6.642  -3.308  -1.303  1.00  0.00     0.018 A 
ATOM     20  C   UNL     1      -7.341  -0.931  -2.518  1.00  0.00     0.005 A 
ATOM     21  C   UNL     1      -7.958  -2.823  -1.143  1.00  0.00    -0.047 A 
ATOM     22  C   UNL     1      -8.317  -1.625  -1.781  1.00  0.00    -0.048 A 
ATOM     23  C   UNL     1      -8.942  -3.637  -0.343  1.00  0.00     0.044 C 
ATOM     24  C   UNL     1      -9.716  -1.065  -1.771  1.00  0.00     0.044 C 
ENDBRANCH  16  17
ENDBRANCH  11  16
ENDBRANCH   4   7
ENDBRANCH   2   3
ENDBRANCH   1   2
BRANCH   1  25
ATOM     25  C   UNL     1      -5.284  -2.894   3.058  1.00  0.00     0.023 C 
BRANCH  25  26
ATOM     26  C   UNL     1      -6.144  -1.652   3.231  1.00  0.00     0.116 C 
BRANCH  26  27
ATOM     27  N   UNL     1      -7.036  -1.339   2.119  1.00  0.00    -0.352 N 
ATOM     28  C   UNL     1      -8.334  -0.875   2.184  1.00  0.00     0.251 C 
ATOM     29  H   UNL     1      -6.669  -1.475   1.215  1.00  0.00     0.163 HD
ATOM     30  O   UNL     1      -8.957  -0.512   1.205  1.00  0.00    -0.269 OA
BRANCH  28  31
ATOM     31  C   UNL     1      -8.991  -0.878   3.497  1.00  0.00     0.039 A 
ATOM     32  C   UNL     1     -10.077  -1.732   3.696  1.00  0.00     0.014 A 
ATOM     33  C   UNL     1      -8.435  -0.141   4.540  1.00  0.00     0.014 A 
ATOM     34  C   UNL     1     -10.571  -1.906   4.986  1.00  0.00     0.010 A 
ATOM     35  C   UNL     1      -8.865  -0.391   5.831  1.00  0.00     0.010 A 
ATOM     36  C   UNL     1      -9.940  -1.268   6.063  1.00  0.00    -0.014 A 
BRANCH  36  37
ATOM     37  C   UNL     1     -10.404  -1.443   7.456  1.00  0.00     0.031 A 
ATOM     38  C   UNL     1     -10.896  -0.236   8.200  1.00  0.00     0.074 A 
ATOM     39  C   UNL     1     -10.276  -2.633   8.072  1.00  0.00     0.049 A 
ATOM     40  N   UNL     1     -11.141  -0.091   9.475  1.00  0.00    -0.248 NA
ATOM     41  C   UNL     1     -11.084   0.990   7.405  1.00  0.00     0.031 C 
ATOM     42  C   UNL     1      -9.774  -3.863   7.456  1.00  0.00     0.029 A 
ATOM     43  N   UNL     1     -10.536  -2.993   9.369  1.00  0.00    -0.354 N 
ATOM     44  C   UNL     1     -11.461   1.250   9.639  1.00  0.00     0.074 A 
ATOM     45  C   UNL     1     -11.333   1.885   8.347  1.00  0.00     0.031 C 
ATOM     46  C   UNL     1      -9.772  -4.844   8.374  1.00  0.00     0.029 A 
ATOM     47  C   UNL     1     -10.228  -4.302   9.649  1.00  0.00     0.049 A 
ATOM     48  H   UNL     1     -10.908  -2.372  10.036  1.00  0.00     0.167 HD
ATOM     49  C   UNL     1     -11.846   1.889  10.767  1.00  0.00     0.037 A 
ATOM     50  C   UNL     1     -10.292  -4.976  10.812  1.00  0.00     0.037 A 
ATOM     51  C   UNL     1     -12.027   1.231  12.032  1.00  0.00     0.049 A 
ATOM     52  C   UNL     1     -10.765  -4.254  12.044  1.00  0.00     0.074 A 
ATOM     53  C   UNL     1     -12.487   1.762  13.222  1.00  0.00     0.029 A 
ATOM     54  N   UNL     1     -11.766  -0.112  12.261  1.00  0.00    -0.354 N 
ATOM     55  N   UNL     1     -11.106  -2.995  12.184  1.00  0.00    -0.248 NA
ATOM     56  C   UNL     1     -10.866  -5.045  13.278  1.00  0.00     0.031 C 
ATOM     57  C   UNL     1     -12.478   0.744  14.182  1.00  0.00     0.029 A 
ATOM     58  C   UNL     1     -12.050  -0.428  13.578  1.00  0.00     0.049 A 
ATOM     59  H   UNL     1     -11.429  -0.746  11.588  1.00  0.00     0.167 HD
ATOM     60  C   UNL     1     -11.486  -2.848  13.511  1.00  0.00     0.074 A 
ATOM     61  C   UNL     1     -11.344  -4.150  14.131  1.00  0.00     0.031 C 
ATOM     62  C   UNL     1     -11.911  -1.738  14.162  1.00  0.00     0.037 A 
BRANCH  49  63
ATOM     63  C   UNL     1     -12.098   3.364  10.672  1.00  0.00     0.057 A 
ATOM     64  C   UNL     1     -13.190   3.886   9.966  1.00  0.00     0.134 A 
ATOM     65  C   UNL     1     -11.239   4.276  11.298  1.00  0.00     0.134 A 
ATOM     66  F   UNL     1     -14.040   3.068   9.326  1.00  0.00    -0.206 F 
ATOM     67  C   UNL     1     -13.402   5.262   9.860  1.00  0.00     0.040 A 
ATOM     68  C   UNL     1     -11.457   5.652  11.224  1.00  0.00     0.040 A 
ATOM     69  F   UNL     1     -10.174   3.844  11.990  1.00  0.00    -0.206 F 
ATOM     70  C   UNL     1     -12.536   6.149  10.496  1.00  0.00     0.006 A 
ENDBRANCH  49  63
BRANCH  50  71
ATOM     71  C   UNL     1      -9.919  -6.412  10.863  1.00  0.00     0.057 A 
ATOM     72  C   UNL     1     -10.895  -7.401  11.034  1.00  0.00     0.134 A 
ATOM     73  C   UNL     1      -8.590  -6.832  10.741  1.00  0.00     0.134 A 
ATOM     74  F   UNL     1     -12.184  -7.059  11.174  1.00  0.00    -0.206 F 
ATOM     75  C   UNL     1     -10.561  -8.755  11.099  1.00  0.00     0.040 A 
ATOM     76  C   UNL     1      -8.244  -8.184  10.782  1.00  0.00     0.040 A 
ATOM     77  F   UNL     1      -7.609  -5.934  10.566  1.00  0.00    -0.206 F 
ATOM     78  C   UNL     1      -9.231  -9.150  10.968  1.00  0.00     0.006 A 
ENDBRANCH  50  71
BRANCH  62  79
ATOM     79  C   UNL     1     -12.290  -1.893  15.604  1.00  0.00     0.057 A 
ATOM     80  C   UNL     1     -11.327  -2.049  16.607  1.00  0.00     0.134 A 
ATOM     81  C   UNL     1     -13.634  -1.835  15.994  1.00  0.00     0.134 A 
ATOM     82  F   UNL     1     -10.024  -2.124  16.294  1.00  0.00    -0.206 F 
ATOM     83  C   UNL     1     -11.689  -2.159  17.950  1.00  0.00     0.040 A 
ATOM     84  C   UNL     1     -14.006  -1.918  17.335  1.00  0.00     0.040 A 
ATOM     85  F   UNL     1     -14.603  -1.677  15.080  1.00  0.00    -0.206 F 
ATOM     86  C   UNL     1     -13.032  -2.086  18.317  1.00  0.00     0.006 A 
ENDBRANCH  62  79
ENDBRANCH  36  37
ENDBRANCH  28  31
ENDBRANCH  26  27
ENDBRANCH  25  26
ENDBRANCH   1  25
TORSDOF 14
