REMARK SMILES CC1(C)Oc2ccc(NC(=O)[C@H]3CC=CC[C@@H]3C(=O)NCCCCNC(=O)c3ccc(-c4c5nc(c(-c6c(F)cccc6F)c6ccc([nH]6)c(-c6c(F)cccc6F)c6nc(c(-c7c(F)cccc7F)c7ccc4[nH]7)C=C6)C=C5)cc3)cc2NC1=O
REMARK SMILES IDX 22 1 21 2 20 3 18 4 19 5 17 7 12 8 13 9 14 10 16 11 15 12
REMARK SMILES IDX 10 13 9 14 11 16 8 17 1 18 2 19 3 20 4 21 85 22 5 23 84 24
REMARK SMILES IDX 86 25 6 26 83 27 7 29 82 30 23 31 24 32 25 33 26 34 27 36
REMARK SMILES IDX 28 37 29 38 81 39 30 40 80 41 31 42 32 43 33 44 74 45 34 46
REMARK SMILES IDX 79 47 73 48 75 49 35 50 78 51 72 52 71 53 36 55 62 56 45 57
REMARK SMILES IDX 61 58 46 59 49 60 60 61 76 62 47 63 48 64 59 66 77 67 50 68
REMARK SMILES IDX 37 69 38 70 43 71 39 72 40 73 42 74 44 75 41 76 63 77 64 78
REMARK SMILES IDX 69 79 65 80 66 81 68 82 70 83 67 84 51 85 52 86 57 87 53 88
REMARK SMILES IDX 54 89 56 90 58 91 55 92
REMARK H PARENT 20 6 9 15 84 28 25 35 75 54 49 65
REMARK Flexibility Score: inf
ROOT
ATOM      1  C   UNL     1       4.401  -8.289  -1.821  1.00  0.00     0.023 C 
ENDROOT
BRANCH   1   2
ATOM      2  C   UNL     1       3.131  -7.490  -2.095  1.00  0.00     0.116 C 
BRANCH   2   3
ATOM      3  N   UNL     1       2.178  -8.245  -2.886  1.00  0.00    -0.356 N 
ATOM      4  C   UNL     1       1.068  -8.984  -2.645  1.00  0.00     0.224 C 
ATOM      5  O   UNL     1       0.587  -9.494  -3.667  1.00  0.00    -0.275 OA
ATOM      6  H   UNL     1       2.393  -8.212  -3.846  1.00  0.00     0.163 HD
BRANCH   4   7
ATOM      7  C   UNL     1       0.321  -9.092  -1.298  1.00  0.00     0.095 C 
ATOM      8  C   UNL     1       1.162  -9.138  -0.010  1.00  0.00     0.095 C 
ATOM      9  C   UNL     1       1.877 -10.500   0.165  1.00  0.00     0.041 C 
ATOM     10  C   UNL     1       1.168 -11.691  -0.403  1.00  0.00    -0.030 C 
ATOM     11  C   UNL     1      -0.658 -10.294  -1.342  1.00  0.00     0.041 C 
ATOM     12  C   UNL     1       0.012 -11.604  -1.071  1.00  0.00    -0.030 C 
BRANCH   8  13
ATOM     13  C   UNL     1       0.325  -8.784   1.223  1.00  0.00     0.228 C 
ATOM     14  N   UNL     1       0.137  -7.502   1.663  1.00  0.00    -0.326 N 
ATOM     15  H   UNL     1      -0.286  -7.480   2.552  1.00  0.00     0.169 HD
ATOM     16  O   UNL     1      -0.173  -9.671   1.926  1.00  0.00    -0.274 OA
BRANCH  14  17
ATOM     17  C   UNL     1       0.391  -6.205   1.175  1.00  0.00     0.043 A 
ATOM     18  C   UNL     1       1.079   0.049   0.258  1.00  0.00     0.067 C 
ATOM     19  C   UNL     1       0.348  -1.249   0.616  1.00  0.00     0.182 C 
ATOM     20  C   UNL     1      -1.116  -1.141   0.159  1.00  0.00     0.067 C 
ATOM     21  O   UNL     1       0.977  -2.280  -0.152  1.00  0.00    -0.476 OA
ATOM     22  C   UNL     1       0.375  -1.451   2.151  1.00  0.00     0.268 C 
ATOM     23  C   UNL     1       0.767  -3.540   0.333  1.00  0.00     0.144 A 
ATOM     24  N   UNL     1       0.327  -2.760   2.565  1.00  0.00    -0.319 N 
ATOM     25  O   UNL     1       0.338  -0.534   2.968  1.00  0.00    -0.270 OA
ATOM     26  C   UNL     1       0.902  -4.578  -0.569  1.00  0.00     0.051 A 
ATOM     27  C   UNL     1       0.450  -3.816   1.660  1.00  0.00     0.086 A 
ATOM     28  H   UNL     1       0.203  -2.958   3.521  1.00  0.00     0.170 HD
ATOM     29  C   UNL     1       0.688  -5.892  -0.147  1.00  0.00     0.030 A 
ATOM     30  C   UNL     1       0.271  -5.140   2.084  1.00  0.00     0.056 A 
ENDBRANCH  14  17
ENDBRANCH   8  13
ENDBRANCH   4   7
ENDBRANCH   2   3
ENDBRANCH   1   2
BRANCH   1  31
ATOM     31  C   UNL     1       5.420  -8.251  -2.956  1.00  0.00     0.023 C 
BRANCH  31  32
ATOM     32  C   UNL     1       5.928  -6.862  -3.322  1.00  0.00     0.116 C 
BRANCH  32  33
ATOM     33  N   UNL     1       6.511  -6.125  -2.208  1.00  0.00    -0.352 N 
ATOM     34  C   UNL     1       7.553  -5.222  -2.249  1.00  0.00     0.251 C 
ATOM     35  H   UNL     1       6.115  -6.292  -1.322  1.00  0.00     0.163 HD
ATOM     36  O   UNL     1       7.996  -4.717  -1.230  1.00  0.00    -0.269 OA
BRANCH  34  37
ATOM     37  C   UNL     1       8.156  -4.926  -3.563  1.00  0.00     0.039 A 
ATOM     38  C   UNL     1       7.340  -4.541  -4.628  1.00  0.00     0.014 A 
ATOM     39  C   UNL     1       9.515  -5.179  -3.757  1.00  0.00     0.014 A 
ATOM     40  C   UNL     1       7.842  -4.596  -5.920  1.00  0.00     0.010 A 
ATOM     41  C   UNL     1      10.038  -5.148  -5.052  1.00  0.00     0.010 A 
ATOM     42  C   UNL     1       9.191  -4.920  -6.148  1.00  0.00    -0.014 A 
BRANCH  42  43
ATOM     43  C   UNL     1       9.677  -5.047  -7.545  1.00  0.00     0.031 A 
ATOM     44  C   UNL     1      10.134  -6.376  -8.084  1.00  0.00     0.074 A 
ATOM     45  C   UNL     1       9.631  -3.971  -8.352  1.00  0.00     0.049 A 
ATOM     46  N   UNL     1      10.573  -6.673  -9.283  1.00  0.00    -0.248 NA
ATOM     47  C   UNL     1      10.101  -7.522  -7.161  1.00  0.00     0.031 C 
ATOM     48  C   UNL     1       9.190  -2.634  -7.948  1.00  0.00     0.029 A 
ATOM     49  N   UNL     1       9.925  -3.838  -9.683  1.00  0.00    -0.354 N 
ATOM     50  C   UNL     1      10.895  -8.024  -9.249  1.00  0.00     0.074 A 
ATOM     51  C   UNL     1      10.616  -8.490  -7.907  1.00  0.00     0.031 C 
ATOM     52  C   UNL     1       9.183  -1.832  -9.023  1.00  0.00     0.029 A 
ATOM     53  C   UNL     1       9.679  -2.579 -10.173  1.00  0.00     0.049 A 
ATOM     54  H   UNL     1      10.279  -4.573 -10.234  1.00  0.00     0.167 HD
ATOM     55  C   UNL     1      11.373  -8.806 -10.246  1.00  0.00     0.037 A 
ATOM     56  C   UNL     1       9.845  -2.078 -11.410  1.00  0.00     0.037 A 
ATOM     57  C   UNL     1      11.617  -8.351 -11.591  1.00  0.00     0.049 A 
ATOM     58  C   UNL     1      10.392  -2.962 -12.490  1.00  0.00     0.074 A 
ATOM     59  C   UNL     1      12.081  -9.073 -12.677  1.00  0.00     0.029 A 
ATOM     60  N   UNL     1      11.408  -7.054 -12.033  1.00  0.00    -0.354 N 
ATOM     61  N   UNL     1      10.707  -4.232 -12.436  1.00  0.00    -0.248 NA
ATOM     62  C   UNL     1      10.624  -2.335 -13.798  1.00  0.00     0.031 C 
ATOM     63  C   UNL     1      12.179  -8.204 -13.771  1.00  0.00     0.029 A 
ATOM     64  C   UNL     1      11.747  -6.950 -13.373  1.00  0.00     0.049 A 
ATOM     65  H   UNL     1      11.069  -6.315 -11.478  1.00  0.00     0.167 HD
ATOM     66  C   UNL     1      11.175  -4.559 -13.701  1.00  0.00     0.074 A 
ATOM     67  C   UNL     1      11.076  -3.359 -14.508  1.00  0.00     0.031 C 
ATOM     68  C   UNL     1      11.652  -5.744 -14.152  1.00  0.00     0.037 A 
BRANCH  55  69
ATOM     69  C   UNL     1      11.682 -10.237  -9.917  1.00  0.00     0.057 A 
ATOM     70  C   UNL     1      13.010 -10.669  -9.803  1.00  0.00     0.134 A 
ATOM     71  C   UNL     1      10.674 -11.193  -9.748  1.00  0.00     0.134 A 
ATOM     72  F   UNL     1      14.024  -9.804  -9.958  1.00  0.00    -0.206 F 
ATOM     73  C   UNL     1      13.323 -12.003  -9.535  1.00  0.00     0.040 A 
ATOM     74  C   UNL     1      10.974 -12.526  -9.460  1.00  0.00     0.040 A 
ATOM     75  F   UNL     1       9.382 -10.840  -9.829  1.00  0.00    -0.206 F 
ATOM     76  C   UNL     1      12.303 -12.935  -9.358  1.00  0.00     0.006 A 
ENDBRANCH  55  69
BRANCH  56  77
ATOM     77  C   UNL     1       9.498  -0.664 -11.682  1.00  0.00     0.057 A 
ATOM     78  C   UNL     1      10.262   0.387 -11.161  1.00  0.00     0.134 A 
ATOM     79  C   UNL     1       8.383  -0.332 -12.459  1.00  0.00     0.134 A 
ATOM     80  F   UNL     1      11.339   0.130 -10.404  1.00  0.00    -0.206 F 
ATOM     81  C   UNL     1       9.921   1.720 -11.389  1.00  0.00     0.040 A 
ATOM     82  C   UNL     1       8.043   0.997 -12.714  1.00  0.00     0.040 A 
ATOM     83  F   UNL     1       7.624  -1.297 -12.998  1.00  0.00    -0.206 F 
ATOM     84  C   UNL     1       8.810   2.027 -12.172  1.00  0.00     0.006 A 
ENDBRANCH  56  77
BRANCH  68  85
ATOM     85  C   UNL     1      12.096  -5.787 -15.582  1.00  0.00     0.057 A 
ATOM     86  C   UNL     1      11.309  -6.408 -16.559  1.00  0.00     0.134 A 
ATOM     87  C   UNL     1      13.307  -5.213 -15.988  1.00  0.00     0.134 A 
ATOM     88  F   UNL     1      10.140  -6.977 -16.231  1.00  0.00    -0.206 F 
ATOM     89  C   UNL     1      11.710  -6.452 -17.894  1.00  0.00     0.040 A 
ATOM     90  C   UNL     1      13.710  -5.235 -17.323  1.00  0.00     0.040 A 
ATOM     91  F   UNL     1      14.095  -4.590 -15.099  1.00  0.00    -0.206 F 
ATOM     92  C   UNL     1      12.911  -5.859 -18.280  1.00  0.00     0.006 A 
ENDBRANCH  68  85
ENDBRANCH  42  43
ENDBRANCH  34  37
ENDBRANCH  32  33
ENDBRANCH  31  32
ENDBRANCH   1  31
TORSDOF 13
