REMARK SMILES Cc1cccc(CN(C)c2ccc(C(=O)NCCCCNC(=O)c3ccc(-c4c5nc(c(-c6c(F)cccc6F)c6ccc([nH]6)c(-c6c(F)cccc6F)c6nc(c(-c7c(F)cccc7F)c7ccc4[nH]7)C=C6)C=C5)cc3)cc2C)n1
REMARK SMILES IDX 18 1 17 2 16 3 14 4 15 5 13 7 10 8 11 9 79 10 12 11 78 12
REMARK SMILES IDX 80 13 8 14 9 15 7 16 6 17 1 18 2 19 3 20 81 21 4 22 5 23
REMARK SMILES IDX 19 24 20 25 21 26 22 27 23 29 24 30 25 31 77 32 26 33 76 34
REMARK SMILES IDX 27 35 28 36 29 37 70 38 30 39 75 40 69 41 71 42 31 43 74 44
REMARK SMILES IDX 68 45 67 46 32 48 58 49 41 50 57 51 42 52 45 53 56 54 72 55
REMARK SMILES IDX 43 56 44 57 55 59 73 60 46 61 33 62 34 63 39 64 35 65 36 66
REMARK SMILES IDX 38 67 40 68 37 69 59 70 60 71 65 72 61 73 62 74 64 75 66 76
REMARK SMILES IDX 63 77 47 78 48 79 53 80 49 81 50 82 52 83 54 84 51 85
REMARK H PARENT 16 6 21 28 71 47 45 58
REMARK Flexibility Score: inf
ROOT
ATOM      1  C   UNL     1       0.527  -1.471   6.164  1.00  0.00     0.023 C 
ENDROOT
BRANCH   1   2
ATOM      2  C   UNL     1      -0.934  -1.204   5.796  1.00  0.00     0.116 C 
BRANCH   2   3
ATOM      3  N   UNL     1      -1.591  -0.172   6.596  1.00  0.00    -0.352 N 
ATOM      4  C   UNL     1      -2.098   1.081   6.307  1.00  0.00     0.251 C 
ATOM      5  O   UNL     1      -2.575   1.733   7.236  1.00  0.00    -0.269 OA
ATOM      6  H   UNL     1      -1.694  -0.423   7.542  1.00  0.00     0.163 HD
BRANCH   4   7
ATOM      7  C   UNL     1      -2.062   1.689   4.949  1.00  0.00     0.040 A 
ATOM      8  C   UNL     1      -1.708   2.901   2.368  1.00  0.00     0.040 A 
ATOM      9  C   UNL     1      -1.868   1.523   2.563  1.00  0.00     0.027 A 
ATOM     10  C   UNL     1      -1.929   3.692   3.515  1.00  0.00    -0.027 A 
ATOM     11  C   UNL     1      -2.118   0.934   3.800  1.00  0.00     0.016 A 
ATOM     12  C   UNL     1      -2.040   3.082   4.796  1.00  0.00     0.019 A 
ATOM     13  C   UNL     1      -2.116   5.185   3.449  1.00  0.00     0.046 C 
BRANCH   8  14
ATOM     14  N   UNL     1      -1.352   3.412   1.119  1.00  0.00    -0.368 N 
ATOM     15  C   UNL     1      -0.216   4.333   1.059  1.00  0.00     0.144 C 
BRANCH  14  16
ATOM     16  C   UNL     1      -1.712   2.747  -0.157  1.00  0.00     0.172 C 
BRANCH  16  17
ATOM     17  C   UNL     1      -1.014   1.413  -0.427  1.00  0.00     0.060 A 
ATOM     18  C   UNL     1       2.408   0.069  -0.160  1.00  0.00     0.067 C 
ATOM     19  C   UNL     1       0.919   0.116  -0.329  1.00  0.00     0.038 A 
ATOM     20  C   UNL     1       0.185  -1.061  -0.445  1.00  0.00     0.023 A 
ATOM     21  N   UNL     1       0.341   1.344  -0.324  1.00  0.00    -0.256 NA
ATOM     22  C   UNL     1      -1.191  -0.979  -0.610  1.00  0.00     0.004 A 
ATOM     23  C   UNL     1      -1.799   0.271  -0.629  1.00  0.00     0.026 A 
ENDBRANCH  16  17
ENDBRANCH  14  16
ENDBRANCH   8  14
ENDBRANCH   4   7
ENDBRANCH   2   3
ENDBRANCH   1   2
BRANCH   1  24
ATOM     24  C   UNL     1       0.778  -2.151   7.506  1.00  0.00     0.023 C 
BRANCH  24  25
ATOM     25  C   UNL     1       0.159  -3.535   7.656  1.00  0.00     0.116 C 
BRANCH  25  26
ATOM     26  N   UNL     1       0.843  -4.623   6.974  1.00  0.00    -0.352 N 
ATOM     27  C   UNL     1       0.480  -5.961   6.826  1.00  0.00     0.251 C 
ATOM     28  H   UNL     1       1.697  -4.376   6.551  1.00  0.00     0.163 HD
ATOM     29  O   UNL     1       1.257  -6.734   6.308  1.00  0.00    -0.269 OA
BRANCH  27  30
ATOM     30  C   UNL     1      -0.908  -6.415   7.153  1.00  0.00     0.039 A 
ATOM     31  C   UNL     1      -1.476  -7.415   6.348  1.00  0.00     0.014 A 
ATOM     32  C   UNL     1      -1.715  -5.738   8.056  1.00  0.00     0.014 A 
ATOM     33  C   UNL     1      -2.865  -7.510   6.241  1.00  0.00     0.010 A 
ATOM     34  C   UNL     1      -3.078  -5.728   7.854  1.00  0.00     0.010 A 
ATOM     35  C   UNL     1      -3.648  -6.564   6.893  1.00  0.00    -0.014 A 
BRANCH  35  36
ATOM     36  C   UNL     1      -5.035  -6.267   6.553  1.00  0.00     0.031 A 
ATOM     37  C   UNL     1      -6.124  -6.551   7.508  1.00  0.00     0.074 A 
ATOM     38  C   UNL     1      -5.282  -5.537   5.442  1.00  0.00     0.049 A 
ATOM     39  N   UNL     1      -7.377  -6.556   7.204  1.00  0.00    -0.248 NA
ATOM     40  C   UNL     1      -5.873  -6.871   8.908  1.00  0.00     0.031 C 
ATOM     41  C   UNL     1      -6.506  -4.819   5.098  1.00  0.00     0.029 A 
ATOM     42  N   UNL     1      -4.503  -5.465   4.279  1.00  0.00    -0.354 N 
ATOM     43  C   UNL     1      -8.096  -6.603   8.376  1.00  0.00     0.074 A 
ATOM     44  C   UNL     1      -7.112  -6.839   9.407  1.00  0.00     0.031 C 
ATOM     45  C   UNL     1      -6.544  -4.644   3.768  1.00  0.00     0.029 A 
ATOM     46  C   UNL     1      -5.424  -5.380   3.208  1.00  0.00     0.049 A 
ATOM     47  H   UNL     1      -3.520  -5.472   4.219  1.00  0.00     0.167 HD
ATOM     48  C   UNL     1      -9.431  -6.323   8.352  1.00  0.00     0.037 A 
ATOM     49  C   UNL     1      -5.529  -6.406   2.312  1.00  0.00     0.037 A 
ATOM     50  C   UNL     1      -9.909  -6.114   6.986  1.00  0.00     0.049 A 
ATOM     51  C   UNL     1      -6.871  -7.114   2.317  1.00  0.00     0.074 A 
ATOM     52  C   UNL     1     -10.152  -4.997   6.203  1.00  0.00     0.029 A 
ATOM     53  N   UNL     1      -9.909  -7.191   6.120  1.00  0.00    -0.354 N 
ATOM     54  N   UNL     1      -7.851  -6.833   3.130  1.00  0.00    -0.248 NA
ATOM     55  C   UNL     1      -7.178  -8.259   1.456  1.00  0.00     0.031 C 
ATOM     56  C   UNL     1     -10.245  -5.418   4.845  1.00  0.00     0.029 A 
ATOM     57  C   UNL     1     -10.068  -6.789   4.808  1.00  0.00     0.049 A 
ATOM     58  H   UNL     1      -9.809  -8.129   6.403  1.00  0.00     0.167 HD
ATOM     59  C   UNL     1      -8.851  -7.754   2.972  1.00  0.00     0.074 A 
ATOM     60  C   UNL     1      -8.394  -8.618   1.900  1.00  0.00     0.031 C 
ATOM     61  C   UNL     1      -9.965  -7.782   3.755  1.00  0.00     0.037 A 
BRANCH  48  62
ATOM     62  C   UNL     1     -10.252  -6.017   9.582  1.00  0.00     0.057 A 
ATOM     63  C   UNL     1     -11.356  -5.146   9.513  1.00  0.00     0.134 A 
ATOM     64  C   UNL     1      -9.986  -6.511  10.871  1.00  0.00     0.134 A 
ATOM     65  F   UNL     1     -11.809  -4.674   8.344  1.00  0.00    -0.206 F 
ATOM     66  C   UNL     1     -12.057  -4.710  10.645  1.00  0.00     0.040 A 
ATOM     67  C   UNL     1     -10.638  -6.039  12.020  1.00  0.00     0.040 A 
ATOM     68  F   UNL     1      -9.129  -7.519  11.073  1.00  0.00    -0.206 F 
ATOM     69  C   UNL     1     -11.671  -5.122  11.911  1.00  0.00     0.006 A 
ENDBRANCH  48  62
BRANCH  49  70
ATOM     70  C   UNL     1      -4.218  -7.057   2.045  1.00  0.00     0.057 A 
ATOM     71  C   UNL     1      -3.195  -6.287   1.461  1.00  0.00     0.134 A 
ATOM     72  C   UNL     1      -3.839  -8.235   2.693  1.00  0.00     0.134 A 
ATOM     73  F   UNL     1      -3.491  -5.143   0.823  1.00  0.00    -0.206 F 
ATOM     74  C   UNL     1      -1.846  -6.607   1.627  1.00  0.00     0.040 A 
ATOM     75  C   UNL     1      -2.490  -8.575   2.849  1.00  0.00     0.040 A 
ATOM     76  F   UNL     1      -4.753  -9.009   3.295  1.00  0.00    -0.206 F 
ATOM     77  C   UNL     1      -1.490  -7.737   2.356  1.00  0.00     0.006 A 
ENDBRANCH  49  70
BRANCH  61  78
ATOM     78  C   UNL     1     -11.062  -8.779   3.564  1.00  0.00     0.057 A 
ATOM     79  C   UNL     1     -11.691  -8.954   2.325  1.00  0.00     0.134 A 
ATOM     80  C   UNL     1     -11.611  -9.486   4.648  1.00  0.00     0.134 A 
ATOM     81  F   UNL     1     -11.255  -8.303   1.236  1.00  0.00    -0.206 F 
ATOM     82  C   UNL     1     -12.801  -9.790   2.171  1.00  0.00     0.040 A 
ATOM     83  C   UNL     1     -12.745 -10.290   4.516  1.00  0.00     0.040 A 
ATOM     84  F   UNL     1     -11.058  -9.432   5.869  1.00  0.00    -0.206 F 
ATOM     85  C   UNL     1     -13.342 -10.447   3.273  1.00  0.00     0.006 A 
ENDBRANCH  61  78
ENDBRANCH  35  36
ENDBRANCH  27  30
ENDBRANCH  25  26
ENDBRANCH  24  25
ENDBRANCH   1  24
TORSDOF 14
