REMARK SMILES C#CCNC(=O)[C@H](C)S(=O)(=O)c1ccc(C(=O)NCCCCNC(=O)c2ccc(-c3c4nc(c(-c5c(F)cccc5F)c5ccc([nH]5)c(-c5c(F)cccc5F)c5nc(c(-c6c(F)cccc6F)c6ccc3[nH]6)C=C5)C=C4)cc2)cc1F
REMARK SMILES IDX 19 1 18 2 16 3 17 4 15 6 12 7 13 8 81 9 14 10 80 11 82 12
REMARK SMILES IDX 9 13 10 14 11 15 7 16 8 17 5 18 4 19 6 21 3 22 2 23 1 24
REMARK SMILES IDX 20 25 21 26 22 27 23 28 24 29 25 31 26 32 27 33 79 34 28 35
REMARK SMILES IDX 78 36 29 37 30 38 31 39 72 40 32 41 77 42 71 43 73 44 33 45
REMARK SMILES IDX 76 46 70 47 69 48 34 50 60 51 43 52 59 53 44 54 47 55 58 56
REMARK SMILES IDX 74 57 45 58 46 59 57 61 75 62 48 63 35 64 36 65 41 66 37 67
REMARK SMILES IDX 38 68 40 69 42 70 39 71 61 72 62 73 67 74 63 75 64 76 66 77
REMARK SMILES IDX 68 78 65 79 49 80 50 81 55 82 51 83 52 84 54 85 56 86 53 87
REMARK H PARENT 18 5 4 20 23 30 73 49 47 60
REMARK Flexibility Score: inf
ROOT
ATOM      1  C   UNL     1      -0.196  -0.264   5.481  1.00  0.00     0.116 C 
ENDROOT
BRANCH   1   2
ATOM      2  N   UNL     1      -0.226   1.160   5.190  1.00  0.00    -0.352 N 
ATOM      3  C   UNL     1      -0.841   1.898   4.206  1.00  0.00     0.251 C 
ATOM      4  O   UNL     1      -0.760   3.124   4.273  1.00  0.00    -0.269 OA
ATOM      5  H   UNL     1       0.298   1.704   5.822  1.00  0.00     0.163 HD
BRANCH   3   6
ATOM      6  C   UNL     1      -1.624   1.294   3.092  1.00  0.00     0.042 A 
ATOM      7  C   UNL     1      -3.240   0.198   1.060  1.00  0.00     0.103 A 
ATOM      8  C   UNL     1      -3.391   1.540   1.419  1.00  0.00     0.024 A 
ATOM      9  C   UNL     1      -2.293  -0.563   1.713  1.00  0.00     0.142 A 
ATOM     10  C   UNL     1      -2.592   2.078   2.441  1.00  0.00     0.015 A 
ATOM     11  C   UNL     1      -1.452  -0.012   2.662  1.00  0.00     0.054 A 
ATOM     12  F   UNL     1      -2.192  -1.877   1.533  1.00  0.00    -0.206 F 
BRANCH   7  13
ATOM     13  S   UNL     1      -4.403  -0.589  -0.002  1.00  0.00     0.192 S 
ATOM     14  O   UNL     1      -5.178   0.488  -0.604  1.00  0.00    -0.223 OA
ATOM     15  O   UNL     1      -5.112  -1.528   0.848  1.00  0.00    -0.223 OA
BRANCH  13  16
ATOM     16  C   UNL     1      -3.617  -1.475  -1.335  1.00  0.00     0.199 C 
ATOM     17  C   UNL     1      -3.310  -0.525  -2.502  1.00  0.00     0.036 C 
BRANCH  16  18
ATOM     18  C   UNL     1      -2.353  -2.233  -0.990  1.00  0.00     0.239 C 
ATOM     19  N   UNL     1      -2.388  -3.525  -0.534  1.00  0.00    -0.344 N 
ATOM     20  H   UNL     1      -1.689  -4.134  -0.865  1.00  0.00     0.164 HD
ATOM     21  O   UNL     1      -1.238  -1.747  -1.205  1.00  0.00    -0.274 OA
BRANCH  19  22
ATOM     22  C   UNL     1      -3.352  -4.077   0.384  1.00  0.00     0.206 C 
BRANCH  22  23
ATOM     23  C   UNL     1      -3.719  -5.521   0.086  1.00  0.00    -0.085 C 
ATOM     24  C   UNL     1      -4.034  -6.760  -0.169  1.00  0.00     0.006 C 
ENDBRANCH  22  23
ENDBRANCH  19  22
ENDBRANCH  16  18
ENDBRANCH  13  16
ENDBRANCH   7  13
ENDBRANCH   3   6
ENDBRANCH   1   2
BRANCH   1  25
ATOM     25  C   UNL     1       1.032  -0.946   4.863  1.00  0.00     0.023 C 
BRANCH  25  26
ATOM     26  C   UNL     1       2.354  -0.664   5.576  1.00  0.00     0.023 C 
BRANCH  26  27
ATOM     27  C   UNL     1       2.433  -1.205   6.995  1.00  0.00     0.116 C 
BRANCH  27  28
ATOM     28  N   UNL     1       2.296  -2.650   7.066  1.00  0.00    -0.352 N 
ATOM     29  C   UNL     1       2.737  -3.494   8.056  1.00  0.00     0.251 C 
ATOM     30  H   UNL     1       1.831  -3.077   6.311  1.00  0.00     0.163 HD
ATOM     31  O   UNL     1       2.646  -4.710   7.920  1.00  0.00    -0.269 OA
BRANCH  29  32
ATOM     32  C   UNL     1       3.368  -2.929   9.268  1.00  0.00     0.039 A 
ATOM     33  C   UNL     1       4.574  -3.478   9.711  1.00  0.00     0.014 A 
ATOM     34  C   UNL     1       2.785  -1.861   9.956  1.00  0.00     0.014 A 
ATOM     35  C   UNL     1       5.221  -2.922  10.815  1.00  0.00     0.010 A 
ATOM     36  C   UNL     1       3.462  -1.266  11.015  1.00  0.00     0.010 A 
ATOM     37  C   UNL     1       4.681  -1.798  11.460  1.00  0.00    -0.014 A 
BRANCH  37  38
ATOM     38  C   UNL     1       5.366  -1.185  12.621  1.00  0.00     0.031 A 
ATOM     39  C   UNL     1       4.741  -1.256  13.985  1.00  0.00     0.074 A 
ATOM     40  C   UNL     1       6.525  -0.525  12.439  1.00  0.00     0.049 A 
ATOM     41  N   UNL     1       5.168  -0.754  15.115  1.00  0.00    -0.248 NA
ATOM     42  C   UNL     1       3.454  -1.963  14.088  1.00  0.00     0.031 C 
ATOM     43  C   UNL     1       7.203  -0.343  11.155  1.00  0.00     0.029 A 
ATOM     44  N   UNL     1       7.338   0.114  13.340  1.00  0.00    -0.354 N 
ATOM     45  C   UNL     1       4.196  -1.066  16.056  1.00  0.00     0.074 A 
ATOM     46  C   UNL     1       3.138  -1.763  15.359  1.00  0.00     0.031 C 
ATOM     47  C   UNL     1       8.345   0.336  11.355  1.00  0.00     0.029 A 
ATOM     48  C   UNL     1       8.467   0.652  12.775  1.00  0.00     0.049 A 
ATOM     49  H   UNL     1       7.130   0.181  14.300  1.00  0.00     0.167 HD
ATOM     50  C   UNL     1       4.197  -0.815  17.386  1.00  0.00     0.037 A 
ATOM     51  C   UNL     1       9.492   1.315  13.342  1.00  0.00     0.037 A 
ATOM     52  C   UNL     1       5.267  -0.158  18.085  1.00  0.00     0.049 A 
ATOM     53  C   UNL     1       9.495   1.538  14.827  1.00  0.00     0.074 A 
ATOM     54  C   UNL     1       5.383   0.098  19.440  1.00  0.00     0.029 A 
ATOM     55  N   UNL     1       6.413   0.338  17.483  1.00  0.00    -0.354 N 
ATOM     56  N   UNL     1       8.591   1.196  15.713  1.00  0.00    -0.248 NA
ATOM     57  C   UNL     1      10.662   2.229  15.393  1.00  0.00     0.031 C 
ATOM     58  C   UNL     1       6.593   0.767  19.655  1.00  0.00     0.029 A 
ATOM     59  C   UNL     1       7.242   0.900  18.438  1.00  0.00     0.049 A 
ATOM     60  H   UNL     1       6.608   0.296  16.519  1.00  0.00     0.167 HD
ATOM     61  C   UNL     1       9.088   1.609  16.942  1.00  0.00     0.074 A 
ATOM     62  C   UNL     1      10.377   2.220  16.689  1.00  0.00     0.031 C 
ATOM     63  C   UNL     1       8.526   1.493  18.168  1.00  0.00     0.037 A 
BRANCH  50  64
ATOM     64  C   UNL     1       3.004  -1.269  18.172  1.00  0.00     0.057 A 
ATOM     65  C   UNL     1       2.080  -0.343  18.672  1.00  0.00     0.134 A 
ATOM     66  C   UNL     1       2.788  -2.622  18.460  1.00  0.00     0.134 A 
ATOM     67  F   UNL     1       2.232   0.968  18.433  1.00  0.00    -0.206 F 
ATOM     68  C   UNL     1       0.983  -0.749  19.433  1.00  0.00     0.040 A 
ATOM     69  C   UNL     1       1.683  -3.042  19.201  1.00  0.00     0.040 A 
ATOM     70  F   UNL     1       3.629  -3.558  17.995  1.00  0.00    -0.206 F 
ATOM     71  C   UNL     1       0.779  -2.103  19.695  1.00  0.00     0.006 A 
ENDBRANCH  50  64
BRANCH  51  72
ATOM     72  C   UNL     1      10.630   1.759  12.503  1.00  0.00     0.057 A 
ATOM     73  C   UNL     1      10.520   2.855  11.640  1.00  0.00     0.134 A 
ATOM     74  C   UNL     1      11.849   1.073  12.529  1.00  0.00     0.134 A 
ATOM     75  F   UNL     1       9.373   3.546  11.566  1.00  0.00    -0.206 F 
ATOM     76  C   UNL     1      11.582   3.247  10.823  1.00  0.00     0.040 A 
ATOM     77  C   UNL     1      12.924   1.464  11.730  1.00  0.00     0.040 A 
ATOM     78  F   UNL     1      12.014   0.024  13.348  1.00  0.00    -0.206 F 
ATOM     79  C   UNL     1      12.789   2.552  10.870  1.00  0.00     0.006 A 
ENDBRANCH  51  72
BRANCH  63  80
ATOM     80  C   UNL     1       9.307   2.012  19.336  1.00  0.00     0.057 A 
ATOM     81  C   UNL     1       9.927   1.128  20.227  1.00  0.00     0.134 A 
ATOM     82  C   UNL     1       9.388   3.381  19.613  1.00  0.00     0.134 A 
ATOM     83  F   UNL     1       9.877  -0.197  20.019  1.00  0.00    -0.206 F 
ATOM     84  C   UNL     1      10.595   1.589  21.361  1.00  0.00     0.040 A 
ATOM     85  C   UNL     1      10.069   3.855  20.735  1.00  0.00     0.040 A 
ATOM     86  F   UNL     1       8.822   4.276  18.790  1.00  0.00    -0.206 F 
ATOM     87  C   UNL     1      10.669   2.957  21.617  1.00  0.00     0.006 A 
ENDBRANCH  63  80
ENDBRANCH  37  38
ENDBRANCH  29  32
ENDBRANCH  27  28
ENDBRANCH  26  27
ENDBRANCH  25  26
ENDBRANCH   1  25
TORSDOF 16
