REMARK SMILES CC(C)N1C[C@@]2(CCCN(c3ccc(C(=O)NCCCCNC(=O)c4ccc(-c5c6nc(c(-c7c(F)cccc7F)c7ccc([nH]7)c(-c7c(F)cccc7F)c7nc(c(-c8c(F)cccc8F)c8ccc5[nH]8)C=C7)C=C6)cc4)cn3)C2)CCC1=O
REMARK SMILES IDX 19 1 18 2 17 3 15 4 16 5 14 7 11 8 12 9 80 10 13 11 79 12
REMARK SMILES IDX 10 13 4 14 5 15 84 16 6 17 83 18 85 19 7 20 81 21 82 22 8 23
REMARK SMILES IDX 9 24 2 25 1 26 3 27 20 28 21 29 22 30 23 31 24 33 25 34
REMARK SMILES IDX 26 35 78 36 27 37 77 38 28 39 29 40 30 41 71 42 31 43 76 44
REMARK SMILES IDX 70 45 72 46 32 47 75 48 69 49 68 50 33 52 59 53 42 54 58 55
REMARK SMILES IDX 43 56 46 57 57 58 73 59 44 60 45 61 56 63 74 64 47 65 34 66
REMARK SMILES IDX 35 67 40 68 36 69 37 70 39 71 41 72 38 73 60 74 61 75 66 76
REMARK SMILES IDX 62 77 63 78 65 79 67 80 64 81 48 82 49 83 54 84 50 85 51 86
REMARK SMILES IDX 53 87 55 88 52 89
REMARK H PARENT 17 6 22 32 72 51 46 62
REMARK Flexibility Score: inf
ROOT
ATOM      1  C   UNL     1      -6.618  -3.292  -1.223  1.00  0.00     0.023 C 
ENDROOT
BRANCH   1   2
ATOM      2  C   UNL     1      -7.004  -2.424  -0.027  1.00  0.00     0.116 C 
BRANCH   2   3
ATOM      3  N   UNL     1      -7.126  -3.166   1.220  1.00  0.00    -0.352 N 
ATOM      4  C   UNL     1      -6.629  -2.835   2.465  1.00  0.00     0.252 C 
ATOM      5  O   UNL     1      -6.764  -3.580   3.423  1.00  0.00    -0.269 OA
ATOM      6  H   UNL     1      -7.627  -4.012   1.169  1.00  0.00     0.163 HD
BRANCH   4   7
ATOM      7  C   UNL     1      -5.872  -1.585   2.603  1.00  0.00     0.058 A 
ATOM      8  C   UNL     1      -4.210   0.574   2.172  1.00  0.00     0.128 A 
ATOM      9  C   UNL     1      -5.597   0.754   2.177  1.00  0.00     0.048 A 
ATOM     10  N   UNL     1      -3.686  -0.604   2.583  1.00  0.00    -0.239 NA
ATOM     11  C   UNL     1      -6.441  -0.342   2.369  1.00  0.00     0.019 A 
ATOM     12  C   UNL     1      -4.511  -1.656   2.799  1.00  0.00     0.127 A 
BRANCH   8  13
ATOM     13  N   UNL     1      -3.344   1.498   1.605  1.00  0.00    -0.356 N 
ATOM     14  N   UNL     1      -0.762  -0.919  -1.143  1.00  0.00    -0.340 N 
ATOM     15  C   UNL     1      -1.339   0.386  -1.474  1.00  0.00     0.128 C 
ATOM     16  C   UNL     1      -1.607  -2.023  -1.050  1.00  0.00     0.222 C 
ATOM     17  C   UNL     1      -2.586   0.754  -0.651  1.00  0.00     0.006 C 
ATOM     18  C   UNL     1      -3.014  -1.749  -0.564  1.00  0.00     0.101 C 
ATOM     19  O   UNL     1      -1.263  -3.192  -1.215  1.00  0.00    -0.275 OA
ATOM     20  C   UNL     1      -3.160   2.096  -1.194  1.00  0.00     0.012 C 
ATOM     21  C   UNL     1      -2.203   0.941   0.852  1.00  0.00     0.127 C 
ATOM     22  C   UNL     1      -3.585  -0.387  -0.914  1.00  0.00     0.020 C 
ATOM     23  C   UNL     1      -4.237   2.722  -0.299  1.00  0.00     0.022 C 
ATOM     24  C   UNL     1      -3.768   2.816   1.153  1.00  0.00     0.118 C 
BRANCH  14  25
ATOM     25  C   UNL     1       0.715  -1.032  -1.240  1.00  0.00     0.078 C 
ATOM     26  C   UNL     1       1.381  -0.194  -0.137  1.00  0.00     0.031 C 
ATOM     27  C   UNL     1       1.313  -2.441  -1.175  1.00  0.00     0.031 C 
ENDBRANCH  14  25
ENDBRANCH   8  13
ENDBRANCH   4   7
ENDBRANCH   2   3
ENDBRANCH   1   2
BRANCH   1  28
ATOM     28  C   UNL     1      -7.658  -4.321  -1.659  1.00  0.00     0.023 C 
BRANCH  28  29
ATOM     29  C   UNL     1      -9.039  -3.768  -1.995  1.00  0.00     0.116 C 
BRANCH  29  30
ATOM     30  N   UNL     1      -9.041  -2.852  -3.127  1.00  0.00    -0.352 N 
ATOM     31  C   UNL     1      -9.854  -2.839  -4.238  1.00  0.00     0.251 C 
ATOM     32  H   UNL     1      -8.364  -2.139  -3.092  1.00  0.00     0.163 HD
ATOM     33  O   UNL     1      -9.648  -2.035  -5.142  1.00  0.00    -0.269 OA
BRANCH  31  34
ATOM     34  C   UNL     1     -10.951  -3.826  -4.366  1.00  0.00     0.039 A 
ATOM     35  C   UNL     1     -11.084  -4.532  -5.565  1.00  0.00     0.014 A 
ATOM     36  C   UNL     1     -11.821  -4.080  -3.304  1.00  0.00     0.014 A 
ATOM     37  C   UNL     1     -12.024  -5.561  -5.663  1.00  0.00     0.010 A 
ATOM     38  C   UNL     1     -12.709  -5.151  -3.378  1.00  0.00     0.010 A 
ATOM     39  C   UNL     1     -12.808  -5.913  -4.553  1.00  0.00    -0.014 A 
BRANCH  39  40
ATOM     40  C   UNL     1     -13.703  -7.098  -4.584  1.00  0.00     0.031 A 
ATOM     41  C   UNL     1     -15.190  -6.937  -4.438  1.00  0.00     0.074 A 
ATOM     42  C   UNL     1     -13.167  -8.333  -4.658  1.00  0.00     0.049 A 
ATOM     43  N   UNL     1     -16.117  -7.858  -4.356  1.00  0.00    -0.248 NA
ATOM     44  C   UNL     1     -15.700  -5.560  -4.344  1.00  0.00     0.031 C 
ATOM     45  C   UNL     1     -11.736  -8.633  -4.745  1.00  0.00     0.029 A 
ATOM     46  N   UNL     1     -13.764  -9.569  -4.656  1.00  0.00    -0.354 N 
ATOM     47  C   UNL     1     -17.313  -7.175  -4.181  1.00  0.00     0.074 A 
ATOM     48  C   UNL     1     -16.991  -5.765  -4.127  1.00  0.00     0.031 C 
ATOM     49  C   UNL     1     -11.568  -9.963  -4.808  1.00  0.00     0.029 A 
ATOM     50  C   UNL     1     -12.873 -10.612  -4.733  1.00  0.00     0.049 A 
ATOM     51  H   UNL     1     -14.739  -9.697  -4.605  1.00  0.00     0.167 HD
ATOM     52  C   UNL     1     -18.569  -7.676  -4.093  1.00  0.00     0.037 A 
ATOM     53  C   UNL     1     -13.081 -11.942  -4.737  1.00  0.00     0.037 A 
ATOM     54  C   UNL     1     -18.896  -9.075  -4.181  1.00  0.00     0.049 A 
ATOM     55  C   UNL     1     -14.485 -12.472  -4.655  1.00  0.00     0.074 A 
ATOM     56  C   UNL     1     -20.146  -9.669  -4.175  1.00  0.00     0.029 A 
ATOM     57  N   UNL     1     -17.966 -10.097  -4.290  1.00  0.00    -0.354 N 
ATOM     58  N   UNL     1     -15.612 -11.810  -4.560  1.00  0.00    -0.248 NA
ATOM     59  C   UNL     1     -14.646 -13.933  -4.684  1.00  0.00     0.031 C 
ATOM     60  C   UNL     1     -19.971 -11.056  -4.251  1.00  0.00     0.029 A 
ATOM     61  C   UNL     1     -18.614 -11.320  -4.338  1.00  0.00     0.049 A 
ATOM     62  H   UNL     1     -16.991  -9.972  -4.329  1.00  0.00     0.167 HD
ATOM     63  C   UNL     1     -16.615 -12.769  -4.544  1.00  0.00     0.074 A 
ATOM     64  C   UNL     1     -15.965 -14.059  -4.648  1.00  0.00     0.031 C 
ATOM     65  C   UNL     1     -17.956 -12.595  -4.452  1.00  0.00     0.037 A 
BRANCH  52  66
ATOM     66  C   UNL     1     -19.689  -6.698  -3.901  1.00  0.00     0.057 A 
ATOM     67  C   UNL     1     -20.118  -5.859  -4.937  1.00  0.00     0.134 A 
ATOM     68  C   UNL     1     -20.369  -6.618  -2.679  1.00  0.00     0.134 A 
ATOM     69  F   UNL     1     -19.500  -5.879  -6.128  1.00  0.00    -0.206 F 
ATOM     70  C   UNL     1     -21.170  -4.959  -4.759  1.00  0.00     0.040 A 
ATOM     71  C   UNL     1     -21.437  -5.739  -2.496  1.00  0.00     0.040 A 
ATOM     72  F   UNL     1     -20.011  -7.398  -1.648  1.00  0.00    -0.206 F 
ATOM     73  C   UNL     1     -21.837  -4.902  -3.537  1.00  0.00     0.006 A 
ENDBRANCH  52  66
BRANCH  53  74
ATOM     74  C   UNL     1     -11.931 -12.872  -4.849  1.00  0.00     0.057 A 
ATOM     75  C   UNL     1     -11.692 -13.578  -6.034  1.00  0.00     0.134 A 
ATOM     76  C   UNL     1     -11.049 -13.078  -3.783  1.00  0.00     0.134 A 
ATOM     77  F   UNL     1     -12.516 -13.434  -7.082  1.00  0.00    -0.206 F 
ATOM     78  C   UNL     1     -10.625 -14.469  -6.150  1.00  0.00     0.040 A 
ATOM     79  C   UNL     1      -9.965 -13.951  -3.892  1.00  0.00     0.040 A 
ATOM     80  F   UNL     1     -11.222 -12.426  -2.624  1.00  0.00    -0.206 F 
ATOM     81  C   UNL     1      -9.755 -14.654  -5.077  1.00  0.00     0.006 A 
ENDBRANCH  53  74
BRANCH  65  82
ATOM     82  C   UNL     1     -18.811 -13.825  -4.490  1.00  0.00     0.057 A 
ATOM     83  C   UNL     1     -18.919 -14.682  -3.389  1.00  0.00     0.134 A 
ATOM     84  C   UNL     1     -19.568 -14.131  -5.628  1.00  0.00     0.134 A 
ATOM     85  F   UNL     1     -18.207 -14.450  -2.275  1.00  0.00    -0.206 F 
ATOM     86  C   UNL     1     -19.739 -15.810  -3.422  1.00  0.00     0.040 A 
ATOM     87  C   UNL     1     -20.408 -15.245  -5.667  1.00  0.00     0.040 A 
ATOM     88  F   UNL     1     -19.513 -13.346  -6.715  1.00  0.00    -0.206 F 
ATOM     89  C   UNL     1     -20.492 -16.090  -4.562  1.00  0.00     0.006 A 
ENDBRANCH  65  82
ENDBRANCH  39  40
ENDBRANCH  31  34
ENDBRANCH  29  30
ENDBRANCH  28  29
ENDBRANCH   1  28
TORSDOF 13
