REMARK SMILES O=C(NCCCCNC(=O)c1ccc(-c2c3nc(c(-c4c(F)cccc4F)c4ccc([nH]4)c(-c4c(F)cccc4F)c4nc(c(-c5c(F)cccc5F)c5ccc2[nH]5)C=C4)C=C3)cc1)C1=Cc2c(Cl)ccc(Cl)c2O[C@@H]1C(F)(F)F
REMARK SMILES IDX 6 1 5 2 4 3 3 4 1 5 2 6 65 8 66 9 76 10 67 11 75 12 68 13
REMARK SMILES IDX 74 14 69 15 70 16 72 17 71 18 73 19 77 20 78 21 79 22 80 23
REMARK SMILES IDX 7 24 8 25 9 26 10 28 11 29 12 30 64 31 13 32 63 33 14 34
REMARK SMILES IDX 15 35 16 36 57 37 17 38 62 39 56 40 58 41 18 42 61 43 55 44
REMARK SMILES IDX 54 45 19 47 45 48 28 49 44 50 29 51 32 52 43 53 59 54 30 55
REMARK SMILES IDX 31 56 42 58 60 59 33 60 20 61 21 62 26 63 22 64 23 65 25 66
REMARK SMILES IDX 27 67 24 68 46 69 47 70 52 71 48 72 49 73 51 74 53 75 50 76
REMARK SMILES IDX 34 77 35 78 40 79 36 80 37 81 39 82 41 83 38 84
REMARK H PARENT 3 7 8 27 58 46 32 57
REMARK Flexibility Score: inf
ROOT
ATOM      1  C   UNL     1       4.137   2.836  -3.435  1.00  0.00     0.023 C 
ENDROOT
BRANCH   1   2
ATOM      2  C   UNL     1       4.227   1.415  -2.868  1.00  0.00     0.023 C 
BRANCH   2   3
ATOM      3  C   UNL     1       3.535   1.235  -1.512  1.00  0.00     0.116 C 
BRANCH   3   4
ATOM      4  N   UNL     1       2.514   0.182  -1.519  1.00  0.00    -0.352 N 
ATOM      5  O   UNL     1       1.232  -1.476  -0.660  1.00  0.00    -0.270 OA
ATOM      6  C   UNL     1       2.292  -0.863  -0.654  1.00  0.00     0.251 C 
ATOM      7  H   UNL     1       1.881   0.233  -2.271  1.00  0.00     0.163 HD
BRANCH   6   8
ATOM      8  C   UNL     1       3.325  -1.152   0.354  1.00  0.00     0.067 C 
ATOM      9  C   UNL     1       4.540  -1.540  -0.050  1.00  0.00     0.027 C 
ATOM     10  C   UNL     1       3.069  -0.704   1.754  1.00  0.00     0.314 C 
ATOM     11  C   UNL     1       5.626  -0.742   0.558  1.00  0.00     0.037 A 
ATOM     12  O   UNL     1       4.070   0.237   2.194  1.00  0.00    -0.474 OA
ATOM     13  C   UNL     1       6.864  -0.613  -0.104  1.00  0.00     0.052 A 
ATOM     14  C   UNL     1       5.301   0.193   1.574  1.00  0.00     0.148 A 
ATOM     15  Cl  UNL     1       7.328  -1.637  -1.422  1.00  0.00    -0.084 Cl
ATOM     16  C   UNL     1       7.722   0.449   0.196  1.00  0.00     0.023 A 
ATOM     17  C   UNL     1       6.181   1.245   1.873  1.00  0.00     0.083 A 
ATOM     18  C   UNL     1       7.376   1.382   1.172  1.00  0.00     0.026 A 
ATOM     19  Cl  UNL     1       5.756   2.476   3.010  1.00  0.00    -0.080 Cl
BRANCH  10  20
ATOM     20  C   UNL     1       2.978  -1.903   2.717  1.00  0.00     0.429 C 
ATOM     21  F   UNL     1       2.638  -1.503   3.966  1.00  0.00    -0.167 F 
ATOM     22  F   UNL     1       2.042  -2.798   2.323  1.00  0.00    -0.167 F 
ATOM     23  F   UNL     1       4.153  -2.569   2.818  1.00  0.00    -0.167 F 
ENDBRANCH  10  20
ENDBRANCH   6   8
ENDBRANCH   3   4
ENDBRANCH   2   3
ENDBRANCH   1   2
BRANCH   1  24
ATOM     24  C   UNL     1       4.690   3.962  -2.562  1.00  0.00     0.116 C 
BRANCH  24  25
ATOM     25  N   UNL     1       6.119   3.882  -2.297  1.00  0.00    -0.352 N 
ATOM     26  C   UNL     1       7.037   4.912  -2.252  1.00  0.00     0.251 C 
ATOM     27  H   UNL     1       6.476   2.980  -2.129  1.00  0.00     0.163 HD
ATOM     28  O   UNL     1       8.222   4.684  -2.025  1.00  0.00    -0.269 OA
BRANCH  26  29
ATOM     29  C   UNL     1       6.588   6.290  -2.552  1.00  0.00     0.039 A 
ATOM     30  C   UNL     1       7.189   6.978  -3.610  1.00  0.00     0.014 A 
ATOM     31  C   UNL     1       5.497   6.846  -1.877  1.00  0.00     0.014 A 
ATOM     32  C   UNL     1       6.611   8.159  -4.080  1.00  0.00     0.010 A 
ATOM     33  C   UNL     1       4.884   7.987  -2.390  1.00  0.00     0.010 A 
ATOM     34  C   UNL     1       5.411   8.630  -3.521  1.00  0.00    -0.014 A 
BRANCH  34  35
ATOM     35  C   UNL     1       4.639   9.723  -4.169  1.00  0.00     0.031 A 
ATOM     36  C   UNL     1       4.394  11.022  -3.459  1.00  0.00     0.074 A 
ATOM     37  C   UNL     1       4.064   9.498  -5.368  1.00  0.00     0.049 A 
ATOM     38  N   UNL     1       3.683  12.051  -3.845  1.00  0.00    -0.248 NA
ATOM     39  C   UNL     1       5.005  11.173  -2.131  1.00  0.00     0.031 C 
ATOM     40  C   UNL     1       4.157   8.251  -6.131  1.00  0.00     0.029 A 
ATOM     41  N   UNL     1       3.269  10.303  -6.147  1.00  0.00    -0.354 N 
ATOM     42  C   UNL     1       3.752  12.968  -2.805  1.00  0.00     0.074 A 
ATOM     43  C   UNL     1       4.532  12.352  -1.752  1.00  0.00     0.031 C 
ATOM     44  C   UNL     1       3.462   8.379  -7.271  1.00  0.00     0.029 A 
ATOM     45  C   UNL     1       2.848   9.702  -7.308  1.00  0.00     0.049 A 
ATOM     46  H   UNL     1       3.025  11.223  -5.896  1.00  0.00     0.167 HD
ATOM     47  C   UNL     1       3.230  14.217  -2.741  1.00  0.00     0.037 A 
ATOM     48  C   UNL     1       2.049  10.158  -8.291  1.00  0.00     0.037 A 
ATOM     49  C   UNL     1       2.466  14.836  -3.792  1.00  0.00     0.049 A 
ATOM     50  C   UNL     1       1.485  11.547  -8.202  1.00  0.00     0.074 A 
ATOM     51  C   UNL     1       1.972  16.128  -3.854  1.00  0.00     0.029 A 
ATOM     52  N   UNL     1       2.076  14.203  -4.963  1.00  0.00    -0.354 N 
ATOM     53  N   UNL     1       1.635  12.437  -7.252  1.00  0.00    -0.248 NA
ATOM     54  C   UNL     1       0.643  11.994  -9.320  1.00  0.00     0.031 C 
ATOM     55  C   UNL     1       1.247  16.263  -5.044  1.00  0.00     0.029 A 
ATOM     56  C   UNL     1       1.321  15.067  -5.740  1.00  0.00     0.049 A 
ATOM     57  H   UNL     1       2.302  13.276  -5.206  1.00  0.00     0.167 HD
ATOM     58  C   UNL     1       0.915  13.552  -7.659  1.00  0.00     0.074 A 
ATOM     59  C   UNL     1       0.344  13.233  -8.952  1.00  0.00     0.031 C 
ATOM     60  C   UNL     1       0.742  14.732  -7.016  1.00  0.00     0.037 A 
BRANCH  47  61
ATOM     61  C   UNL     1       3.479  14.995  -1.483  1.00  0.00     0.057 A 
ATOM     62  C   UNL     1       4.749  15.497  -1.169  1.00  0.00     0.134 A 
ATOM     63  C   UNL     1       2.440  15.250  -0.580  1.00  0.00     0.134 A 
ATOM     64  F   UNL     1       5.789  15.275  -1.987  1.00  0.00    -0.206 F 
ATOM     65  C   UNL     1       4.984  16.196   0.016  1.00  0.00     0.040 A 
ATOM     66  C   UNL     1       2.658  15.970   0.596  1.00  0.00     0.040 A 
ATOM     67  F   UNL     1       1.200  14.803  -0.824  1.00  0.00    -0.206 F 
ATOM     68  C   UNL     1       3.936  16.437   0.901  1.00  0.00     0.006 A 
ENDBRANCH  47  61
BRANCH  48  69
ATOM     69  C   UNL     1       1.750   9.289  -9.455  1.00  0.00     0.057 A 
ATOM     70  C   UNL     1       2.342   9.525 -10.700  1.00  0.00     0.134 A 
ATOM     71  C   UNL     1       0.888   8.192  -9.344  1.00  0.00     0.134 A 
ATOM     72  F   UNL     1       3.162  10.572 -10.870  1.00  0.00    -0.206 F 
ATOM     73  C   UNL     1       2.084   8.703 -11.798  1.00  0.00     0.040 A 
ATOM     74  C   UNL     1       0.635   7.350 -10.429  1.00  0.00     0.040 A 
ATOM     75  F   UNL     1       0.297   7.911  -8.174  1.00  0.00    -0.206 F 
ATOM     76  C   UNL     1       1.233   7.607 -11.662  1.00  0.00     0.006 A 
ENDBRANCH  48  69
BRANCH  60  77
ATOM     77  C   UNL     1      -0.105  15.763  -7.699  1.00  0.00     0.057 A 
ATOM     78  C   UNL     1      -1.500  15.648  -7.750  1.00  0.00     0.134 A 
ATOM     79  C   UNL     1       0.473  16.898  -8.281  1.00  0.00     0.134 A 
ATOM     80  F   UNL     1      -2.113  14.576  -7.224  1.00  0.00    -0.206 F 
ATOM     81  C   UNL     1      -2.289  16.619  -8.368  1.00  0.00     0.040 A 
ATOM     82  C   UNL     1      -0.307  17.885  -8.884  1.00  0.00     0.040 A 
ATOM     83  F   UNL     1       1.804  17.069  -8.263  1.00  0.00    -0.206 F 
ATOM     84  C   UNL     1      -1.693  17.745  -8.931  1.00  0.00     0.006 A 
ENDBRANCH  60  77
ENDBRANCH  34  35
ENDBRANCH  26  29
ENDBRANCH  24  25
ENDBRANCH   1  24
TORSDOF 12
