REMARK SMILES O=C(C[C@H]1CN(S(=O)(=O)c2cc(F)cc(F)c2)CCO1)NCCCCNC(=O)c1ccc(-c2c3nc(c(-c4c(F)cccc4F)c4ccc([nH]4)c(-c4c(F)cccc4F)c4nc(c(-c5c(F)cccc5F)c5ccc2[nH]5)C=C4)C=C3)cc1
REMARK SMILES IDX 23 1 22 2 21 3 1 4 2 5 3 7 4 8 5 9 20 10 6 11 19 12 18 13
REMARK SMILES IDX 7 14 8 15 9 16 10 17 11 18 17 19 12 20 15 21 13 22 14 23
REMARK SMILES IDX 16 24 24 25 25 26 26 27 27 28 28 30 29 31 30 32 82 33 31 34
REMARK SMILES IDX 81 35 32 36 33 37 34 38 75 39 35 40 80 41 74 42 76 43 36 44
REMARK SMILES IDX 79 45 73 46 72 47 37 49 63 50 46 51 62 52 47 53 50 54 61 55
REMARK SMILES IDX 77 56 48 57 49 58 60 60 78 61 51 62 38 63 39 64 44 65 40 66
REMARK SMILES IDX 41 67 43 68 45 69 42 70 64 71 65 72 70 73 66 74 67 75 69 76
REMARK SMILES IDX 71 77 68 78 52 79 53 80 58 81 54 82 55 83 57 84 59 85 56 86
REMARK H PARENT 21 6 26 29 76 48 50 59
REMARK Flexibility Score: inf
ROOT
ATOM      1  C   UNL     1       8.291  -1.647  -3.452  1.00  0.00     0.023 C 
ENDROOT
BRANCH   1   2
ATOM      2  C   UNL     1       7.132  -2.139  -2.579  1.00  0.00     0.116 C 
BRANCH   2   3
ATOM      3  N   UNL     1       5.978  -1.275  -2.720  1.00  0.00    -0.356 N 
ATOM      4  O   UNL     1       4.405  -2.524  -1.638  1.00  0.00    -0.275 OA
ATOM      5  C   UNL     1       4.730  -1.475  -2.180  1.00  0.00     0.222 C 
ATOM      6  H   UNL     1       6.100  -0.460  -3.259  1.00  0.00     0.163 HD
BRANCH   5   7
ATOM      7  C   UNL     1       3.777  -0.280  -2.313  1.00  0.00     0.133 C 
BRANCH   7   8
ATOM      8  C   UNL     1       4.255   0.989  -1.586  1.00  0.00     0.142 C 
ATOM      9  C   UNL     1       5.715   1.358  -1.809  1.00  0.00     0.135 C 
ATOM     10  O   UNL     1       3.364   2.101  -1.787  1.00  0.00    -0.375 OA
ATOM     11  N   UNL     1       5.974   2.201  -3.028  1.00  0.00    -0.193 NA
ATOM     12  C   UNL     1       3.867   3.359  -2.288  1.00  0.00     0.177 C 
ATOM     13  C   UNL     1       5.378   3.523  -2.581  1.00  0.00     0.131 C 
BRANCH  11  14
ATOM     14  S   UNL     1       5.493   1.952  -4.688  1.00  0.00     0.243 S 
ATOM     15  O   UNL     1       4.058   1.784  -4.730  1.00  0.00    -0.207 OA
ATOM     16  O   UNL     1       6.095   3.054  -5.412  1.00  0.00    -0.207 OA
BRANCH  14  17
ATOM     17  C   UNL     1       6.169   0.484  -5.459  1.00  0.00     0.088 A 
ATOM     18  C   UNL     1       5.389  -0.680  -5.569  1.00  0.00     0.061 A 
ATOM     19  C   UNL     1       7.346   0.563  -6.215  1.00  0.00     0.061 A 
ATOM     20  C   UNL     1       5.870  -1.796  -6.255  1.00  0.00     0.127 A 
ATOM     21  C   UNL     1       7.775  -0.550  -6.952  1.00  0.00     0.127 A 
ATOM     22  F   UNL     1       5.175  -2.941  -6.216  1.00  0.00    -0.207 F 
ATOM     23  C   UNL     1       7.067  -1.746  -6.948  1.00  0.00     0.078 A 
ATOM     24  F   UNL     1       8.910  -0.473  -7.657  1.00  0.00    -0.207 F 
ENDBRANCH  14  17
ENDBRANCH  11  14
ENDBRANCH   7   8
ENDBRANCH   5   7
ENDBRANCH   2   3
ENDBRANCH   1   2
BRANCH   1  25
ATOM     25  C   UNL     1       8.993  -0.358  -3.013  1.00  0.00     0.023 C 
BRANCH  25  26
ATOM     26  C   UNL     1      10.032  -0.577  -1.931  1.00  0.00     0.116 C 
BRANCH  26  27
ATOM     27  N   UNL     1      11.085  -1.492  -2.356  1.00  0.00    -0.352 N 
ATOM     28  C   UNL     1      12.438  -1.423  -2.155  1.00  0.00     0.251 C 
ATOM     29  H   UNL     1      10.777  -2.277  -2.864  1.00  0.00     0.163 HD
ATOM     30  O   UNL     1      13.190  -2.219  -2.710  1.00  0.00    -0.269 OA
BRANCH  28  31
ATOM     31  C   UNL     1      12.979  -0.360  -1.293  1.00  0.00     0.039 A 
ATOM     32  C   UNL     1      14.118   0.336  -1.699  1.00  0.00     0.014 A 
ATOM     33  C   UNL     1      12.319  -0.020  -0.112  1.00  0.00     0.014 A 
ATOM     34  C   UNL     1      14.556   1.423  -0.945  1.00  0.00     0.010 A 
ATOM     35  C   UNL     1      12.675   1.135   0.558  1.00  0.00     0.010 A 
ATOM     36  C   UNL     1      13.813   1.854   0.166  1.00  0.00    -0.014 A 
BRANCH  36  37
ATOM     37  C   UNL     1      14.224   3.019   0.981  1.00  0.00     0.031 A 
ATOM     38  C   UNL     1      14.489   2.826   2.450  1.00  0.00     0.074 A 
ATOM     39  C   UNL     1      14.269   4.245   0.427  1.00  0.00     0.049 A 
ATOM     40  N   UNL     1      14.709   3.722   3.375  1.00  0.00    -0.248 NA
ATOM     41  C   UNL     1      14.441   1.443   2.958  1.00  0.00     0.031 C 
ATOM     42  C   UNL     1      13.967   4.560  -0.971  1.00  0.00     0.029 A 
ATOM     43  N   UNL     1      14.585   5.460   0.979  1.00  0.00    -0.354 N 
ATOM     44  C   UNL     1      14.780   3.015   4.569  1.00  0.00     0.074 A 
ATOM     45  C   UNL     1      14.505   1.631   4.266  1.00  0.00     0.031 C 
ATOM     46  C   UNL     1      14.162   5.872  -1.179  1.00  0.00     0.029 A 
ATOM     47  C   UNL     1      14.559   6.497   0.078  1.00  0.00     0.049 A 
ATOM     48  H   UNL     1      14.810   5.577   1.930  1.00  0.00     0.167 HD
ATOM     49  C   UNL     1      15.092   3.474   5.802  1.00  0.00     0.037 A 
ATOM     50  C   UNL     1      14.833   7.803   0.254  1.00  0.00     0.037 A 
ATOM     51  C   UNL     1      15.450   4.838   6.073  1.00  0.00     0.049 A 
ATOM     52  C   UNL     1      15.234   8.280   1.622  1.00  0.00     0.074 A 
ATOM     53  C   UNL     1      15.865   5.399   7.266  1.00  0.00     0.029 A 
ATOM     54  N   UNL     1      15.459   5.850   5.124  1.00  0.00    -0.354 N 
ATOM     55  N   UNL     1      15.344   7.594   2.735  1.00  0.00    -0.248 NA
ATOM     56  C   UNL     1      15.551   9.707   1.761  1.00  0.00     0.031 C 
ATOM     57  C   UNL     1      16.101   6.758   7.046  1.00  0.00     0.029 A 
ATOM     58  C   UNL     1      15.868   7.035   5.707  1.00  0.00     0.049 A 
ATOM     59  H   UNL     1      15.212   5.740   4.178  1.00  0.00     0.167 HD
ATOM     60  C   UNL     1      15.765   8.498   3.700  1.00  0.00     0.074 A 
ATOM     61  C   UNL     1      15.904   9.780   3.038  1.00  0.00     0.031 C 
ATOM     62  C   UNL     1      16.011   8.291   5.016  1.00  0.00     0.037 A 
BRANCH  49  63
ATOM     63  C   UNL     1      15.098   2.487   6.932  1.00  0.00     0.057 A 
ATOM     64  C   UNL     1      14.145   2.562   7.955  1.00  0.00     0.134 A 
ATOM     65  C   UNL     1      16.067   1.478   7.026  1.00  0.00     0.134 A 
ATOM     66  F   UNL     1      13.190   3.505   7.928  1.00  0.00    -0.206 F 
ATOM     67  C   UNL     1      14.157   1.673   9.030  1.00  0.00     0.040 A 
ATOM     68  C   UNL     1      16.071   0.564   8.080  1.00  0.00     0.040 A 
ATOM     69  F   UNL     1      16.999   1.340   6.070  1.00  0.00    -0.206 F 
ATOM     70  C   UNL     1      15.119   0.666   9.092  1.00  0.00     0.006 A 
ENDBRANCH  49  63
BRANCH  50  71
ATOM     71  C   UNL     1      14.793   8.731  -0.904  1.00  0.00     0.057 A 
ATOM     72  C   UNL     1      13.589   9.102  -1.514  1.00  0.00     0.134 A 
ATOM     73  C   UNL     1      15.976   9.251  -1.443  1.00  0.00     0.134 A 
ATOM     74  F   UNL     1      12.422   8.627  -1.053  1.00  0.00    -0.206 F 
ATOM     75  C   UNL     1      13.563   9.949  -2.623  1.00  0.00     0.040 A 
ATOM     76  C   UNL     1      15.963  10.117  -2.538  1.00  0.00     0.040 A 
ATOM     77  F   UNL     1      17.160   8.942  -0.895  1.00  0.00    -0.206 F 
ATOM     78  C   UNL     1      14.753  10.464  -3.135  1.00  0.00     0.006 A 
ENDBRANCH  50  71
BRANCH  62  79
ATOM     79  C   UNL     1      16.476   9.463   5.824  1.00  0.00     0.057 A 
ATOM     80  C   UNL     1      17.796   9.529   6.286  1.00  0.00     0.134 A 
ATOM     81  C   UNL     1      15.596  10.477   6.217  1.00  0.00     0.134 A 
ATOM     82  F   UNL     1      18.683   8.579   5.953  1.00  0.00    -0.206 F 
ATOM     83  C   UNL     1      18.221  10.558   7.126  1.00  0.00     0.040 A 
ATOM     84  C   UNL     1      16.015  11.524   7.037  1.00  0.00     0.040 A 
ATOM     85  F   UNL     1      14.321  10.471   5.798  1.00  0.00    -0.206 F 
ATOM     86  C   UNL     1      17.329  11.560   7.502  1.00  0.00     0.006 A 
ENDBRANCH  62  79
ENDBRANCH  36  37
ENDBRANCH  28  31
ENDBRANCH  26  27
ENDBRANCH  25  26
ENDBRANCH   1  25
TORSDOF 14
