REMARK SMILES O=C(CCc1ccco1)N[C@H]1CCCCC[C@H]1C(=O)NCCCCNC(=O)c1ccc(-c2c3nc(c(-c4c(F)cccc4F)c4ccc([nH]4)c(-c4c(F)cccc4F)c4nc(c(-c5c(F)cccc5F)c5ccc2[nH]5)C=C4)C=C3)cc1
REMARK SMILES IDX 21 1 20 2 18 3 19 4 17 6 11 7 10 9 1 10 2 11 3 13 4 14 5 15
REMARK SMILES IDX 6 16 9 17 7 18 8 19 16 20 15 21 14 22 13 23 12 24 22 26
REMARK SMILES IDX 23 27 24 28 25 29 26 30 27 32 28 33 29 34 81 35 30 36 80 37
REMARK SMILES IDX 31 38 32 39 33 40 74 41 34 42 79 43 73 44 75 45 35 46 78 47
REMARK SMILES IDX 72 48 71 49 36 51 62 52 45 53 61 54 46 55 49 56 60 57 76 58
REMARK SMILES IDX 47 59 48 60 59 62 77 63 50 64 37 65 38 66 43 67 39 68 40 69
REMARK SMILES IDX 42 70 44 71 41 72 63 73 64 74 69 75 65 76 66 77 68 78 70 79
REMARK SMILES IDX 67 80 51 81 52 82 57 83 53 84 54 85 56 86 58 87 55 88
REMARK H PARENT 20 5 10 12 25 31 75 50 49 61
REMARK Flexibility Score: 100.00
ROOT
ATOM      1  C   UNL     1      -0.295   5.166   0.086  1.00  0.00     0.116 C 
ENDROOT
BRANCH   1   2
ATOM      2  N   UNL     1      -0.993   3.966  -0.277  1.00  0.00    -0.356 N 
ATOM      3  C   UNL     1      -0.679   2.668  -0.036  1.00  0.00     0.225 C 
ATOM      4  O   UNL     1      -1.613   1.864  -0.161  1.00  0.00    -0.275 OA
ATOM      5  H   UNL     1      -1.829   4.106  -0.777  1.00  0.00     0.163 HD
BRANCH   3   6
ATOM      6  C   UNL     1       0.683   2.170   0.486  1.00  0.00     0.101 C 
BRANCH   6   7
ATOM      7  C   UNL     1       2.033   2.467  -0.227  1.00  0.00     0.094 CG0
ATOM      8  G   UNL     1       3.171   2.981   0.687  1.00  0.00     0.000 G0
BRANCH   7   9
ATOM      9  N   UNL     1       2.039   3.228  -1.476  1.00  0.00    -0.353 N 
ATOM     10  O   UNL     1       0.521   1.975  -2.635  1.00  0.00    -0.275 OA
ATOM     11  C   UNL     1       1.369   2.862  -2.622  1.00  0.00     0.220 C 
ATOM     12  H   UNL     1       2.560   4.064  -1.499  1.00  0.00     0.163 HD
BRANCH  11  13
ATOM     13  C   UNL     1       1.654   3.680  -3.885  1.00  0.00     0.108 C 
BRANCH  13  14
ATOM     14  C   UNL     1       2.972   4.451  -3.956  1.00  0.00     0.085 C 
BRANCH  14  15
ATOM     15  C   UNL     1       4.149   3.546  -3.952  1.00  0.00     0.104 A 
ATOM     16  C   UNL     1       5.175   3.310  -3.061  1.00  0.00     0.045 A 
ATOM     17  O   UNL     1       4.276   2.730  -5.035  1.00  0.00    -0.469 OA
ATOM     18  C   UNL     1       5.944   2.257  -3.612  1.00  0.00     0.042 A 
ATOM     19  C   UNL     1       5.361   1.946  -4.818  1.00  0.00     0.195 A 
ENDBRANCH  14  15
ENDBRANCH  13  14
ENDBRANCH  11  13
ENDBRANCH   7   9
ENDBRANCH   6   7
BRANCH   6  20
ATOM     20  C   UNL     1       0.736   2.128   2.029  1.00  0.00     0.015 C 
BRANCH  20  21
ATOM     21  C   UNL     1       0.845   3.445   2.788  1.00  0.00     0.001 C 
BRANCH  21  22
ATOM     22  C   UNL     1       2.166   4.215   2.707  1.00  0.00     0.000 C 
BRANCH  22  23
ATOM     23  C   UNL     1       2.919   4.312   1.381  1.00  0.00     0.002 C 
BRANCH  23  24
ATOM     24  C   UNL     1       3.171   2.981   0.687  1.00  0.00     0.026 CG0
ATOM     25  G   UNL     1       2.033   2.467  -0.227  1.00  0.00     0.000 G0
ENDBRANCH  23  24
ENDBRANCH  22  23
ENDBRANCH  21  22
ENDBRANCH  20  21
ENDBRANCH   6  20
ENDBRANCH   3   6
ENDBRANCH   1   2
BRANCH   1  26
ATOM     26  C   UNL     1       0.299   5.923  -1.089  1.00  0.00     0.023 C 
BRANCH  26  27
ATOM     27  C   UNL     1      -0.628   6.930  -1.741  1.00  0.00     0.023 C 
BRANCH  27  28
ATOM     28  C   UNL     1      -1.173   7.984  -0.795  1.00  0.00     0.116 C 
BRANCH  28  29
ATOM     29  N   UNL     1      -0.158   8.666   0.002  1.00  0.00    -0.352 N 
ATOM     30  C   UNL     1      -0.177   9.979   0.431  1.00  0.00     0.251 C 
ATOM     31  H   UNL     1       0.627   8.132   0.262  1.00  0.00     0.163 HD
ATOM     32  O   UNL     1       0.747  10.467   1.054  1.00  0.00    -0.269 OA
BRANCH  30  33
ATOM     33  C   UNL     1      -1.353  10.782   0.048  1.00  0.00     0.039 A 
ATOM     34  C   UNL     1      -1.172  11.874  -0.800  1.00  0.00     0.014 A 
ATOM     35  C   UNL     1      -2.628  10.295   0.345  1.00  0.00     0.014 A 
ATOM     36  C   UNL     1      -2.282  12.422  -1.440  1.00  0.00     0.010 A 
ATOM     37  C   UNL     1      -3.710  10.771  -0.377  1.00  0.00     0.010 A 
ATOM     38  C   UNL     1      -3.548  11.834  -1.280  1.00  0.00    -0.014 A 
BRANCH  38  39
ATOM     39  C   UNL     1      -4.726  12.305  -2.047  1.00  0.00     0.031 A 
ATOM     40  C   UNL     1      -5.928  12.818  -1.306  1.00  0.00     0.074 A 
ATOM     41  C   UNL     1      -4.755  12.178  -3.388  1.00  0.00     0.049 A 
ATOM     42  N   UNL     1      -7.100  13.165  -1.770  1.00  0.00    -0.248 NA
ATOM     43  C   UNL     1      -5.812  12.903   0.159  1.00  0.00     0.031 C 
ATOM     44  C   UNL     1      -3.681  11.624  -4.216  1.00  0.00     0.029 A 
ATOM     45  N   UNL     1      -5.734  12.501  -4.293  1.00  0.00    -0.354 N 
ATOM     46  C   UNL     1      -7.866  13.473  -0.653  1.00  0.00     0.074 A 
ATOM     47  C   UNL     1      -7.050  13.210   0.510  1.00  0.00     0.031 C 
ATOM     48  C   UNL     1      -4.046  11.679  -5.508  1.00  0.00     0.029 A 
ATOM     49  C   UNL     1      -5.390  12.239  -5.597  1.00  0.00     0.049 A 
ATOM     50  H   UNL     1      -6.603  12.884  -4.032  1.00  0.00     0.167 HD
ATOM     51  C   UNL     1      -9.126  13.964  -0.602  1.00  0.00     0.037 A 
ATOM     52  C   UNL     1      -6.083  12.434  -6.734  1.00  0.00     0.037 A 
ATOM     53  C   UNL     1      -9.910  14.280  -1.762  1.00  0.00     0.049 A 
ATOM     54  C   UNL     1      -7.463  13.025  -6.657  1.00  0.00     0.074 A 
ATOM     55  C   UNL     1     -11.162  14.864  -1.825  1.00  0.00     0.029 A 
ATOM     56  N   UNL     1      -9.508  14.046  -3.069  1.00  0.00    -0.354 N 
ATOM     57  N   UNL     1      -8.149  13.383  -5.598  1.00  0.00    -0.248 NA
ATOM     58  C   UNL     1      -8.164  13.243  -7.930  1.00  0.00     0.031 C 
ATOM     59  C   UNL     1     -11.529  14.960  -3.172  1.00  0.00     0.029 A 
ATOM     60  C   UNL     1     -10.492  14.464  -3.947  1.00  0.00     0.049 A 
ATOM     61  H   UNL     1      -8.650  13.641  -3.333  1.00  0.00     0.167 HD
ATOM     62  C   UNL     1      -9.351  13.888  -6.076  1.00  0.00     0.074 A 
ATOM     63  C   UNL     1      -9.294  13.803  -7.521  1.00  0.00     0.031 C 
ATOM     64  C   UNL     1     -10.407  14.377  -5.382  1.00  0.00     0.037 A 
BRANCH  51  65
ATOM     65  C   UNL     1      -9.710  14.201   0.759  1.00  0.00     0.057 A 
ATOM     66  C   UNL     1      -9.240  15.223   1.595  1.00  0.00     0.134 A 
ATOM     67  C   UNL     1     -10.746  13.394   1.243  1.00  0.00     0.134 A 
ATOM     68  F   UNL     1      -8.235  16.018   1.198  1.00  0.00    -0.206 F 
ATOM     69  C   UNL     1      -9.754  15.410   2.879  1.00  0.00     0.040 A 
ATOM     70  C   UNL     1     -11.288  13.590   2.514  1.00  0.00     0.040 A 
ATOM     71  F   UNL     1     -11.243  12.399   0.493  1.00  0.00    -0.206 F 
ATOM     72  C   UNL     1     -10.785  14.594   3.340  1.00  0.00     0.006 A 
ENDBRANCH  51  65
BRANCH  52  73
ATOM     73  C   UNL     1      -5.469  12.110  -8.046  1.00  0.00     0.057 A 
ATOM     74  C   UNL     1      -5.050  13.129  -8.911  1.00  0.00     0.134 A 
ATOM     75  C   UNL     1      -5.284  10.789  -8.468  1.00  0.00     0.134 A 
ATOM     76  F   UNL     1      -5.216  14.415  -8.568  1.00  0.00    -0.206 F 
ATOM     77  C   UNL     1      -4.484  12.846 -10.155  1.00  0.00     0.040 A 
ATOM     78  C   UNL     1      -4.701  10.491  -9.701  1.00  0.00     0.040 A 
ATOM     79  F   UNL     1      -5.657   9.769  -7.682  1.00  0.00    -0.206 F 
ATOM     80  C   UNL     1      -4.304  11.523 -10.551  1.00  0.00     0.006 A 
ENDBRANCH  52  73
BRANCH  64  81
ATOM     81  C   UNL     1     -11.572  14.881  -6.177  1.00  0.00     0.057 A 
ATOM     82  C   UNL     1     -12.471  14.007  -6.800  1.00  0.00     0.134 A 
ATOM     83  C   UNL     1     -11.826  16.255  -6.276  1.00  0.00     0.134 A 
ATOM     84  F   UNL     1     -12.273  12.681  -6.750  1.00  0.00    -0.206 F 
ATOM     85  C   UNL     1     -13.575  14.482  -7.507  1.00  0.00     0.040 A 
ATOM     86  C   UNL     1     -12.938  16.741  -6.962  1.00  0.00     0.040 A 
ATOM     87  F   UNL     1     -11.006  17.143  -5.694  1.00  0.00    -0.206 F 
ATOM     88  C   UNL     1     -13.815  15.854  -7.583  1.00  0.00     0.006 A 
ENDBRANCH  64  81
ENDBRANCH  38  39
ENDBRANCH  30  33
ENDBRANCH  28  29
ENDBRANCH  27  28
ENDBRANCH  26  27
ENDBRANCH   1  26
TORSDOF 15
