REMARK SMILES Cc1ccccc1C(=O)Nc1cc(C(=O)NCCCCNC(=O)c2ccc(-c3c4nc(c(-c5c(F)cccc5F)c5ccc([nH]5)c(-c5c(F)cccc5F)c5nc(c(-c6c(F)cccc6F)c6ccc3[nH]6)C=C5)C=C4)cc2)ccc1N1CC[NH+](CC(=O)Nc2ccc(F)cc2)CC1
REMARK SMILES IDX 17 1 16 2 14 3 15 4 13 6 11 7 12 8 80 9 79 10 78 11 10 12
REMARK SMILES IDX 8 13 9 14 7 16 1 17 2 18 3 19 4 20 6 21 5 22 81 23 82 24
REMARK SMILES IDX 97 25 83 26 96 27 84 28 85 30 86 31 87 32 88 33 89 35 90 36
REMARK SMILES IDX 95 37 91 38 94 39 92 40 93 41 18 42 19 43 20 44 21 45 22 46
REMARK SMILES IDX 23 48 24 49 25 50 77 51 26 52 76 53 27 54 28 55 29 56 70 57
REMARK SMILES IDX 30 58 75 59 69 60 71 61 31 62 74 63 68 64 67 65 32 67 58 68
REMARK SMILES IDX 41 69 57 70 42 71 45 72 56 73 72 74 43 75 44 76 55 78 73 79
REMARK SMILES IDX 46 80 33 81 34 82 39 83 35 84 36 85 38 86 40 87 37 88 59 89
REMARK SMILES IDX 60 90 65 91 61 92 62 93 64 94 66 95 63 96 47 97 48 98 53 99
REMARK SMILES IDX 49 100 50 101 52 102 54 103 51 104
REMARK H PARENT 16 5 10 15 84 29 88 34 21 47 71 66 45 77
REMARK Flexibility Score: inf
ROOT
ATOM      1  C   UNL     1       1.414  -1.251  -3.133  1.00  0.00     0.116 C 
ENDROOT
BRANCH   1   2
ATOM      2  N   UNL     1       2.588  -2.105  -3.011  1.00  0.00    -0.352 N 
ATOM      3  C   UNL     1       3.792  -1.985  -2.352  1.00  0.00     0.251 C 
ATOM      4  O   UNL     1       4.547  -2.959  -2.393  1.00  0.00    -0.269 OA
ATOM      5  H   UNL     1       2.503  -2.951  -3.507  1.00  0.00     0.163 HD
BRANCH   3   6
ATOM      6  C   UNL     1       4.228  -0.780  -1.583  1.00  0.00     0.042 A 
ATOM      7  C   UNL     1       3.854   1.430  -0.665  1.00  0.00     0.065 A 
ATOM      8  C   UNL     1       3.489   0.382  -1.504  1.00  0.00     0.042 A 
ATOM      9  C   UNL     1       5.068   1.437   0.066  1.00  0.00     0.061 A 
ATOM     10  C   UNL     1       5.855   0.285  -0.080  1.00  0.00     0.029 A 
ATOM     11  C   UNL     1       5.430  -0.814  -0.862  1.00  0.00     0.016 A 
BRANCH   7  12
ATOM     12  N   UNL     1       2.942   2.489  -0.564  1.00  0.00    -0.320 N 
ATOM     13  C   UNL     1       1.638   2.432  -0.095  1.00  0.00     0.255 C 
ATOM     14  O   UNL     1       1.075   3.494   0.180  1.00  0.00    -0.269 OA
ATOM     15  H   UNL     1       3.262   3.372  -0.859  1.00  0.00     0.170 HD
BRANCH  13  16
ATOM     16  C   UNL     1       0.869   1.161   0.071  1.00  0.00     0.043 A 
ATOM     17  C   UNL     1       2.422  -0.153   1.687  1.00  0.00     0.045 C 
ATOM     18  C   UNL     1       1.220   0.003   0.802  1.00  0.00    -0.038 A 
ATOM     19  C   UNL     1       0.374  -1.126   0.735  1.00  0.00     0.004 A 
ATOM     20  C   UNL     1      -0.828  -1.084   0.039  1.00  0.00     0.000 A 
ATOM     21  C   UNL     1      -0.372   1.200  -0.582  1.00  0.00     0.014 A 
ATOM     22  C   UNL     1      -1.207   0.089  -0.597  1.00  0.00     0.001 A 
ENDBRANCH  13  16
ENDBRANCH   7  12
BRANCH   9  23
ATOM     23  N   UNL     1       5.418   2.472   0.925  1.00  0.00    -0.359 N 
ATOM     24  C   UNL     1       6.766   2.652   1.528  1.00  0.00     0.178 C 
ATOM     25  C   UNL     1       4.393   3.090   1.762  1.00  0.00     0.178 C 
ATOM     26  C   UNL     1       6.969   4.095   2.156  1.00  0.00     0.284 C 
ATOM     27  C   UNL     1       4.665   4.592   1.770  1.00  0.00     0.284 C 
ATOM     28  N   UNL     1       5.799   4.875   2.637  1.00  0.00    -0.324 N 
ATOM     29  H   UNL     1       6.095   5.849   2.567  1.00  0.00     0.348 HD
BRANCH  28  30
ATOM     30  C   UNL     1       5.455   4.843   4.080  1.00  0.00     0.364 C 
BRANCH  30  31
ATOM     31  C   UNL     1       5.260   3.484   4.752  1.00  0.00     0.279 C 
ATOM     32  O   UNL     1       6.246   2.753   4.938  1.00  0.00    -0.268 OA
ATOM     33  N   UNL     1       4.072   3.008   5.241  1.00  0.00    -0.321 N 
ATOM     34  H   UNL     1       4.226   2.302   5.910  1.00  0.00     0.170 HD
BRANCH  33  35
ATOM     35  C   UNL     1       2.688   3.238   5.062  1.00  0.00     0.041 A 
ATOM     36  C   UNL     1       1.823   2.464   5.860  1.00  0.00     0.029 A 
ATOM     37  C   UNL     1       2.103   4.054   4.099  1.00  0.00     0.029 A 
ATOM     38  C   UNL     1       0.435   2.477   5.668  1.00  0.00     0.041 A 
ATOM     39  C   UNL     1       0.718   4.026   3.857  1.00  0.00     0.041 A 
ATOM     40  C   UNL     1      -0.105   3.239   4.646  1.00  0.00     0.123 A 
ATOM     41  F   UNL     1      -1.426   3.221   4.426  1.00  0.00    -0.207 F 
ENDBRANCH  33  35
ENDBRANCH  30  31
ENDBRANCH  28  30
ENDBRANCH   9  23
ENDBRANCH   3   6
ENDBRANCH   1   2
BRANCH   1  42
ATOM     42  C   UNL     1       1.567  -0.162  -4.211  1.00  0.00     0.023 C 
BRANCH  42  43
ATOM     43  C   UNL     1       1.380  -0.676  -5.636  1.00  0.00     0.023 C 
BRANCH  43  44
ATOM     44  C   UNL     1      -0.073  -0.979  -5.964  1.00  0.00     0.116 C 
BRANCH  44  45
ATOM     45  N   UNL     1      -0.832   0.133  -6.515  1.00  0.00    -0.352 N 
ATOM     46  C   UNL     1      -2.186   0.233  -6.808  1.00  0.00     0.251 C 
ATOM     47  H   UNL     1      -0.303   0.941  -6.711  1.00  0.00     0.163 HD
ATOM     48  O   UNL     1      -2.605   1.230  -7.366  1.00  0.00    -0.269 OA
BRANCH  46  49
ATOM     49  C   UNL     1      -3.152  -0.785  -6.298  1.00  0.00     0.039 A 
ATOM     50  C   UNL     1      -4.418  -0.329  -5.897  1.00  0.00     0.014 A 
ATOM     51  C   UNL     1      -2.766  -2.082  -5.986  1.00  0.00     0.014 A 
ATOM     52  C   UNL     1      -5.140  -1.046  -4.947  1.00  0.00     0.010 A 
ATOM     53  C   UNL     1      -3.397  -2.726  -4.948  1.00  0.00     0.010 A 
ATOM     54  C   UNL     1      -4.540  -2.164  -4.378  1.00  0.00    -0.014 A 
BRANCH  54  55
ATOM     55  C   UNL     1      -4.929  -2.747  -3.104  1.00  0.00     0.031 A 
ATOM     56  C   UNL     1      -5.561  -4.073  -3.062  1.00  0.00     0.074 A 
ATOM     57  C   UNL     1      -4.537  -2.127  -1.969  1.00  0.00     0.049 A 
ATOM     58  N   UNL     1      -6.139  -4.560  -2.020  1.00  0.00    -0.248 NA
ATOM     59  C   UNL     1      -5.673  -4.933  -4.235  1.00  0.00     0.031 C 
ATOM     60  C   UNL     1      -4.459  -2.681  -0.622  1.00  0.00     0.029 A 
ATOM     61  N   UNL     1      -4.331  -0.762  -1.784  1.00  0.00    -0.354 N 
ATOM     62  C   UNL     1      -6.410  -5.883  -2.276  1.00  0.00     0.074 A 
ATOM     63  C   UNL     1      -6.248  -6.014  -3.701  1.00  0.00     0.031 C 
ATOM     64  C   UNL     1      -4.521  -1.673   0.262  1.00  0.00     0.029 A 
ATOM     65  C   UNL     1      -4.785  -0.459  -0.493  1.00  0.00     0.049 A 
ATOM     66  H   UNL     1      -3.941  -0.133  -2.433  1.00  0.00     0.167 HD
ATOM     67  C   UNL     1      -6.587  -6.719  -1.215  1.00  0.00     0.037 A 
ATOM     68  C   UNL     1      -5.776   0.438  -0.229  1.00  0.00     0.037 A 
ATOM     69  C   UNL     1      -6.757  -5.938   0.019  1.00  0.00     0.049 A 
ATOM     70  C   UNL     1      -6.929  -0.226   0.487  1.00  0.00     0.074 A 
ATOM     71  C   UNL     1      -5.927  -5.669   1.095  1.00  0.00     0.029 A 
ATOM     72  N   UNL     1      -7.826  -5.045   0.118  1.00  0.00    -0.354 N 
ATOM     73  N   UNL     1      -7.133  -1.516   0.464  1.00  0.00    -0.248 NA
ATOM     74  C   UNL     1      -7.922   0.481   1.288  1.00  0.00     0.031 C 
ATOM     75  C   UNL     1      -6.452  -4.536   1.778  1.00  0.00     0.029 A 
ATOM     76  C   UNL     1      -7.625  -4.149   1.150  1.00  0.00     0.049 A 
ATOM     77  H   UNL     1      -8.616  -5.053  -0.469  1.00  0.00     0.167 HD
ATOM     78  C   UNL     1      -8.207  -1.826   1.251  1.00  0.00     0.074 A 
ATOM     79  C   UNL     1      -8.681  -0.539   1.730  1.00  0.00     0.031 C 
ATOM     80  C   UNL     1      -8.610  -3.115   1.452  1.00  0.00     0.037 A 
BRANCH  67  81
ATOM     81  C   UNL     1      -6.367  -8.227  -1.233  1.00  0.00     0.057 A 
ATOM     82  C   UNL     1      -6.377  -8.957  -0.025  1.00  0.00     0.134 A 
ATOM     83  C   UNL     1      -6.026  -9.011  -2.356  1.00  0.00     0.134 A 
ATOM     84  F   UNL     1      -6.696  -8.380   1.141  1.00  0.00    -0.206 F 
ATOM     85  C   UNL     1      -6.039 -10.319   0.058  1.00  0.00     0.040 A 
ATOM     86  C   UNL     1      -5.711 -10.377  -2.290  1.00  0.00     0.040 A 
ATOM     87  F   UNL     1      -5.944  -8.516  -3.591  1.00  0.00    -0.206 F 
ATOM     88  C   UNL     1      -5.701 -11.036  -1.078  1.00  0.00     0.006 A 
ENDBRANCH  67  81
BRANCH  68  89
ATOM     89  C   UNL     1      -5.854   1.546  -1.217  1.00  0.00     0.057 A 
ATOM     90  C   UNL     1      -4.783   2.460  -1.245  1.00  0.00     0.134 A 
ATOM     91  C   UNL     1      -6.634   1.445  -2.374  1.00  0.00     0.134 A 
ATOM     92  F   UNL     1      -3.999   2.608  -0.167  1.00  0.00    -0.206 F 
ATOM     93  C   UNL     1      -4.409   3.122  -2.417  1.00  0.00     0.040 A 
ATOM     94  C   UNL     1      -6.273   2.115  -3.552  1.00  0.00     0.040 A 
ATOM     95  F   UNL     1      -7.644   0.567  -2.440  1.00  0.00    -0.206 F 
ATOM     96  C   UNL     1      -5.132   2.917  -3.587  1.00  0.00     0.006 A 
ENDBRANCH  68  89
BRANCH  80  97
ATOM     97  C   UNL     1      -9.937  -3.527   2.038  1.00  0.00     0.057 A 
ATOM     98  C   UNL     1     -11.113  -2.772   1.914  1.00  0.00     0.134 A 
ATOM     99  C   UNL     1     -10.105  -4.813   2.598  1.00  0.00     0.134 A 
ATOM    100  F   UNL     1     -11.119  -1.576   1.309  1.00  0.00    -0.206 F 
ATOM    101  C   UNL     1     -12.356  -3.241   2.356  1.00  0.00     0.040 A 
ATOM    102  C   UNL     1     -11.349  -5.313   2.990  1.00  0.00     0.040 A 
ATOM    103  F   UNL     1      -9.072  -5.652   2.761  1.00  0.00    -0.206 F 
ATOM    104  C   UNL     1     -12.481  -4.521   2.881  1.00  0.00     0.006 A 
ENDBRANCH  80  97
ENDBRANCH  54  55
ENDBRANCH  46  49
ENDBRANCH  44  45
ENDBRANCH  43  44
ENDBRANCH  42  43
ENDBRANCH   1  42
TORSDOF 17
