REMARK SMILES O=C(NCCCCNC(=O)[C@H]1CC=CC[C@H]1C(=O)N[C@@H]1CCN(c2cccc(Cl)c2)C1)c1ccc(-c2c3nc(c(-c4c(F)cccc4F)c4ccc([nH]4)c(-c4c(F)cccc4F)c4nc(c(-c5c(F)cccc5F)c5ccc2[nH]5)C=C4)C=C3)cc1
REMARK SMILES IDX 6 1 5 2 4 3 3 4 1 5 2 6 32 8 33 9 85 10 34 11 84 12 35 13
REMARK SMILES IDX 36 14 37 15 78 16 38 17 83 18 77 19 79 20 39 21 82 22 76 23
REMARK SMILES IDX 75 24 40 26 66 27 49 28 65 29 50 30 53 31 64 32 80 33 51 34
REMARK SMILES IDX 52 35 63 37 81 38 54 39 41 40 42 41 47 42 43 43 44 44 46 45
REMARK SMILES IDX 48 46 45 47 67 48 68 49 73 50 69 51 70 52 72 53 74 54 71 55
REMARK SMILES IDX 55 56 56 57 61 58 57 59 58 60 60 61 62 62 59 63 7 64 8 65
REMARK SMILES IDX 9 66 10 68 11 69 12 70 16 71 13 72 15 73 14 74 17 75 18 76
REMARK SMILES IDX 19 77 20 79 21 80 31 81 22 82 23 83 24 84 25 85 30 86 26 87
REMARK SMILES IDX 28 88 27 89 29 90
REMARK H PARENT 3 7 79 25 53 36 8 67 19 78
REMARK Flexibility Score: inf
ROOT
ATOM      1  C   UNL     1       3.273  -2.805   2.284  1.00  0.00     0.023 C 
ENDROOT
BRANCH   1   2
ATOM      2  C   UNL     1       4.051  -1.663   1.619  1.00  0.00     0.023 C 
BRANCH   2   3
ATOM      3  C   UNL     1       3.925  -1.585   0.106  1.00  0.00     0.116 C 
BRANCH   3   4
ATOM      4  N   UNL     1       2.568  -1.267  -0.297  1.00  0.00    -0.352 N 
ATOM      5  O   UNL     1       0.773   0.023  -0.664  1.00  0.00    -0.269 OA
ATOM      6  C   UNL     1       2.003  -0.079  -0.677  1.00  0.00     0.251 C 
ATOM      7  H   UNL     1       1.950  -2.033  -0.297  1.00  0.00     0.163 HD
BRANCH   6   8
ATOM      8  C   UNL     1       2.817   1.075  -1.128  1.00  0.00     0.039 A 
ATOM      9  C   UNL     1       3.973   0.906  -1.894  1.00  0.00     0.014 A 
ATOM     10  C   UNL     1       2.327   2.367  -0.899  1.00  0.00     0.014 A 
ATOM     11  C   UNL     1       4.675   2.015  -2.364  1.00  0.00     0.010 A 
ATOM     12  C   UNL     1       2.983   3.476  -1.441  1.00  0.00     0.010 A 
ATOM     13  C   UNL     1       4.162   3.308  -2.182  1.00  0.00    -0.014 A 
BRANCH  13  14
ATOM     14  C   UNL     1       4.790   4.462  -2.874  1.00  0.00     0.031 A 
ATOM     15  C   UNL     1       5.406   5.588  -2.099  1.00  0.00     0.074 A 
ATOM     16  C   UNL     1       4.762   4.502  -4.220  1.00  0.00     0.049 A 
ATOM     17  N   UNL     1       5.918   6.710  -2.539  1.00  0.00    -0.248 NA
ATOM     18  C   UNL     1       5.443   5.442  -0.636  1.00  0.00     0.031 C 
ATOM     19  C   UNL     1       4.174   3.470  -5.080  1.00  0.00     0.029 A 
ATOM     20  N   UNL     1       5.229   5.441  -5.104  1.00  0.00    -0.354 N 
ATOM     21  C   UNL     1       6.312   7.416  -1.410  1.00  0.00     0.074 A 
ATOM     22  C   UNL     1       5.967   6.601  -0.263  1.00  0.00     0.031 C 
ATOM     23  C   UNL     1       4.338   3.820  -6.363  1.00  0.00     0.029 A 
ATOM     24  C   UNL     1       4.978   5.128  -6.418  1.00  0.00     0.049 A 
ATOM     25  H   UNL     1       5.699   6.259  -4.824  1.00  0.00     0.167 HD
ATOM     26  C   UNL     1       6.904   8.633  -1.342  1.00  0.00     0.037 A 
ATOM     27  C   UNL     1       5.205   5.829  -7.544  1.00  0.00     0.037 A 
ATOM     28  C   UNL     1       7.248   9.430  -2.492  1.00  0.00     0.049 A 
ATOM     29  C   UNL     1       5.846   7.179  -7.443  1.00  0.00     0.074 A 
ATOM     30  C   UNL     1       7.879  10.662  -2.532  1.00  0.00     0.029 A 
ATOM     31  N   UNL     1       6.980   9.076  -3.808  1.00  0.00    -0.354 N 
ATOM     32  N   UNL     1       6.236   7.825  -6.371  1.00  0.00    -0.248 NA
ATOM     33  C   UNL     1       6.075   7.902  -8.701  1.00  0.00     0.031 C 
ATOM     34  C   UNL     1       7.956  11.071  -3.869  1.00  0.00     0.029 A 
ATOM     35  C   UNL     1       7.416  10.073  -4.665  1.00  0.00     0.049 A 
ATOM     36  H   UNL     1       6.545   8.239  -4.090  1.00  0.00     0.167 HD
ATOM     37  C   UNL     1       6.771   9.023  -6.822  1.00  0.00     0.074 A 
ATOM     38  C   UNL     1       6.663   9.009  -8.268  1.00  0.00     0.031 C 
ATOM     39  C   UNL     1       7.305  10.039  -6.102  1.00  0.00     0.037 A 
BRANCH  26  40
ATOM     40  C   UNL     1       7.186   9.187   0.025  1.00  0.00     0.057 A 
ATOM     41  C   UNL     1       8.189   8.662   0.849  1.00  0.00     0.134 A 
ATOM     42  C   UNL     1       6.447  10.271   0.519  1.00  0.00     0.134 A 
ATOM     43  F   UNL     1       8.925   7.617   0.443  1.00  0.00    -0.206 F 
ATOM     44  C   UNL     1       8.428   9.174   2.127  1.00  0.00     0.040 A 
ATOM     45  C   UNL     1       6.693  10.807   1.784  1.00  0.00     0.040 A 
ATOM     46  F   UNL     1       5.476  10.827  -0.220  1.00  0.00    -0.206 F 
ATOM     47  C   UNL     1       7.681  10.253   2.596  1.00  0.00     0.006 A 
ENDBRANCH  26  40
BRANCH  27  48
ATOM     48  C   UNL     1       4.804   5.252  -8.851  1.00  0.00     0.057 A 
ATOM     49  C   UNL     1       5.758   4.767  -9.752  1.00  0.00     0.134 A 
ATOM     50  C   UNL     1       3.455   5.111  -9.199  1.00  0.00     0.134 A 
ATOM     51  F   UNL     1       7.065   4.886  -9.480  1.00  0.00    -0.206 F 
ATOM     52  C   UNL     1       5.384   4.159 -10.952  1.00  0.00     0.040 A 
ATOM     53  C   UNL     1       3.067   4.485 -10.384  1.00  0.00     0.040 A 
ATOM     54  F   UNL     1       2.494   5.547  -8.371  1.00  0.00    -0.206 F 
ATOM     55  C   UNL     1       4.034   4.007 -11.265  1.00  0.00     0.006 A 
ENDBRANCH  27  48
BRANCH  39  56
ATOM     56  C   UNL     1       7.847  11.206  -6.869  1.00  0.00     0.057 A 
ATOM     57  C   UNL     1       7.007  12.164  -7.448  1.00  0.00     0.134 A 
ATOM     58  C   UNL     1       9.230  11.399  -6.983  1.00  0.00     0.134 A 
ATOM     59  F   UNL     1       5.674  12.027  -7.385  1.00  0.00    -0.206 F 
ATOM     60  C   UNL     1       7.524  13.271  -8.123  1.00  0.00     0.040 A 
ATOM     61  C   UNL     1       9.758  12.511  -7.638  1.00  0.00     0.040 A 
ATOM     62  F   UNL     1      10.087  10.517  -6.446  1.00  0.00    -0.206 F 
ATOM     63  C   UNL     1       8.904  13.450  -8.212  1.00  0.00     0.006 A 
ENDBRANCH  39  56
ENDBRANCH  13  14
ENDBRANCH   6   8
ENDBRANCH   3   4
ENDBRANCH   2   3
ENDBRANCH   1   2
BRANCH   1  64
ATOM     64  C   UNL     1       3.836  -4.212   2.103  1.00  0.00     0.116 C 
BRANCH  64  65
ATOM     65  N   UNL     1       5.281  -4.310   2.129  1.00  0.00    -0.356 N 
ATOM     66  C   UNL     1       6.015  -5.183   2.867  1.00  0.00     0.224 C 
ATOM     67  H   UNL     1       5.780  -3.683   1.557  1.00  0.00     0.163 HD
ATOM     68  O   UNL     1       6.754  -5.935   2.223  1.00  0.00    -0.275 OA
BRANCH  66  69
ATOM     69  C   UNL     1       5.926  -5.259   4.400  1.00  0.00     0.095 C 
ATOM     70  C   UNL     1       7.053  -6.211   4.890  1.00  0.00     0.041 C 
ATOM     71  C   UNL     1       5.789  -3.947   5.216  1.00  0.00     0.095 C 
ATOM     72  C   UNL     1       7.606  -6.007   6.260  1.00  0.00    -0.030 C 
ATOM     73  C   UNL     1       6.524  -3.793   6.560  1.00  0.00     0.041 C 
ATOM     74  C   UNL     1       7.378  -4.924   7.001  1.00  0.00    -0.030 C 
BRANCH  71  75
ATOM     75  C   UNL     1       5.787  -2.592   4.540  1.00  0.00     0.224 C 
ATOM     76  O   UNL     1       4.839  -1.824   4.759  1.00  0.00    -0.275 OA
ATOM     77  N   UNL     1       6.759  -2.064   3.778  1.00  0.00    -0.351 N 
ATOM     78  H   UNL     1       6.412  -1.409   3.130  1.00  0.00     0.163 HD
BRANCH  77  79
ATOM     79  C   UNL     1       8.212  -2.228   3.678  1.00  0.00     0.103 C 
ATOM     80  C   UNL     1       8.780  -0.917   3.103  1.00  0.00     0.048 C 
ATOM     81  C   UNL     1       8.753  -3.234   2.640  1.00  0.00     0.141 C 
ATOM     82  C   UNL     1       8.558  -1.078   1.597  1.00  0.00     0.119 C 
ATOM     83  N   UNL     1       8.822  -2.494   1.362  1.00  0.00    -0.369 N 
BRANCH  83  84
ATOM     84  C   UNL     1       9.838  -2.908   0.507  1.00  0.00     0.038 A 
ATOM     85  C   UNL     1      11.055  -2.218   0.405  1.00  0.00     0.026 A 
ATOM     86  C   UNL     1       9.692  -4.091  -0.230  1.00  0.00     0.046 A 
ATOM     87  C   UNL     1      12.093  -2.684  -0.406  1.00  0.00     0.004 A 
ATOM     88  C   UNL     1      10.724  -4.550  -1.053  1.00  0.00     0.043 A 
ATOM     89  C   UNL     1      11.927  -3.853  -1.140  1.00  0.00     0.020 A 
ATOM     90  Cl  UNL     1      10.517  -5.995  -1.967  1.00  0.00    -0.084 Cl
ENDBRANCH  83  84
ENDBRANCH  77  79
ENDBRANCH  71  75
ENDBRANCH  66  69
ENDBRANCH  64  65
ENDBRANCH   1  64
TORSDOF 14
