REMARK SMILES Cc1ccnc(C(=O)c2[nH]c3ccc(OC(F)(F)F)cc3c2CC(=O)NCCCCNC(=O)c2ccc(-c3c4nc(c(-c5c(F)cccc5F)c5ccc([nH]5)c(-c5c(F)cccc5F)c5nc(c(-c6c(F)cccc6F)c6ccc3[nH]6)C=C5)C=C4)cc2)c1
REMARK SMILES IDX 28 1 27 2 26 3 24 4 25 5 23 7 22 8 9 9 10 10 11 11 21 13
REMARK SMILES IDX 12 14 20 15 13 16 14 17 7 18 8 19 6 20 1 21 2 22 3 23 88 24
REMARK SMILES IDX 4 25 5 26 15 27 16 28 17 29 18 30 19 31 29 32 30 33 31 34
REMARK SMILES IDX 32 35 33 37 34 38 35 39 87 40 36 41 86 42 37 43 38 44 39 45
REMARK SMILES IDX 80 46 40 47 85 48 79 49 81 50 41 51 84 52 78 53 77 54 42 56
REMARK SMILES IDX 68 57 51 58 67 59 52 60 55 61 66 62 82 63 53 64 54 65 65 67
REMARK SMILES IDX 83 68 56 69 43 70 44 71 49 72 45 73 46 74 48 75 50 76 47 77
REMARK SMILES IDX 69 78 70 79 75 80 71 81 72 82 74 83 76 84 73 85 57 86 58 87
REMARK SMILES IDX 63 88 59 89 60 90 62 91 64 92 61 93
REMARK H PARENT 26 6 10 12 31 36 81 55 55 66
REMARK Flexibility Score: inf
ROOT
ATOM      1  C   UNL     1       2.905  -6.952  -0.750  1.00  0.00     0.023 C 
ENDROOT
BRANCH   1   2
ATOM      2  C   UNL     1       3.292  -6.887   0.727  1.00  0.00     0.116 C 
BRANCH   2   3
ATOM      3  N   UNL     1       3.858  -5.611   1.111  1.00  0.00    -0.356 N 
ATOM      4  C   UNL     1       3.264  -4.562   1.753  1.00  0.00     0.224 C 
ATOM      5  O   UNL     1       3.979  -3.626   2.122  1.00  0.00    -0.275 OA
ATOM      6  H   UNL     1       4.805  -5.481   0.875  1.00  0.00     0.163 HD
BRANCH   4   7
ATOM      7  C   UNL     1       1.787  -4.599   2.109  1.00  0.00     0.138 C 
BRANCH   7   8
ATOM      8  C   UNL     1       0.848  -4.629   0.936  1.00  0.00    -0.002 A 
ATOM      9  C   UNL     1       0.747  -3.698  -0.094  1.00  0.00     0.093 A 
ATOM     10  N   UNL     1      -0.206  -4.156  -0.974  1.00  0.00    -0.352 N 
ATOM     11  C   UNL     1      -0.769  -5.322  -0.520  1.00  0.00     0.046 A 
ATOM     12  H   UNL     1      -0.452  -3.707  -1.815  1.00  0.00     0.167 HD
ATOM     13  C   UNL     1      -0.147  -5.636   0.684  1.00  0.00     0.008 A 
ATOM     14  C   UNL     1      -1.760  -6.124  -1.092  1.00  0.00     0.030 A 
ATOM     15  C   UNL     1      -0.553  -6.810   1.354  1.00  0.00     0.057 A 
ATOM     16  C   UNL     1      -2.131  -7.292  -0.414  1.00  0.00     0.049 A 
ATOM     17  C   UNL     1      -1.536  -7.641   0.797  1.00  0.00     0.130 A 
BRANCH   9  18
ATOM     18  C   UNL     1       1.524  -2.495  -0.340  1.00  0.00     0.227 C 
ATOM     19  O   UNL     1       2.708  -2.564  -0.652  1.00  0.00    -0.285 OA
BRANCH  18  20
ATOM     20  C   UNL     1       0.817  -1.162  -0.275  1.00  0.00     0.113 A 
ATOM     21  C   UNL     1      -2.486   0.401   0.745  1.00  0.00     0.044 C 
ATOM     22  C   UNL     1      -1.095   0.217   0.217  1.00  0.00    -0.047 A 
ATOM     23  C   UNL     1      -0.374   1.310  -0.265  1.00  0.00     0.023 A 
ATOM     24  C   UNL     1      -0.476  -1.037   0.234  1.00  0.00     0.036 A 
ATOM     25  C   UNL     1       0.911   1.102  -0.737  1.00  0.00     0.112 A 
ATOM     26  N   UNL     1       1.512  -0.104  -0.768  1.00  0.00    -0.253 NA
ENDBRANCH  18  20
ENDBRANCH   9  18
BRANCH  17  27
ATOM     27  O   UNL     1      -1.808  -8.755   1.542  1.00  0.00    -0.406 OA
BRANCH  27  28
ATOM     28  C   UNL     1      -2.709  -9.708   1.005  1.00  0.00     0.573 C 
ATOM     29  F   UNL     1      -3.942  -9.179   0.855  1.00  0.00    -0.132 F 
ATOM     30  F   UNL     1      -2.272 -10.178  -0.183  1.00  0.00    -0.132 F 
ATOM     31  F   UNL     1      -2.800 -10.749   1.861  1.00  0.00    -0.132 F 
ENDBRANCH  27  28
ENDBRANCH  17  27
ENDBRANCH   7   8
ENDBRANCH   4   7
ENDBRANCH   2   3
ENDBRANCH   1   2
BRANCH   1  32
ATOM     32  C   UNL     1       4.069  -6.886  -1.744  1.00  0.00     0.023 C 
BRANCH  32  33
ATOM     33  C   UNL     1       5.163  -7.935  -1.563  1.00  0.00     0.116 C 
BRANCH  33  34
ATOM     34  N   UNL     1       4.658  -9.297  -1.579  1.00  0.00    -0.352 N 
ATOM     35  C   UNL     1       5.264 -10.449  -2.012  1.00  0.00     0.251 C 
ATOM     36  H   UNL     1       3.746  -9.411  -1.227  1.00  0.00     0.163 HD
ATOM     37  O   UNL     1       4.631 -11.502  -2.022  1.00  0.00    -0.269 OA
BRANCH  35  38
ATOM     38  C   UNL     1       6.660 -10.435  -2.503  1.00  0.00     0.039 A 
ATOM     39  C   UNL     1       6.953 -11.141  -3.676  1.00  0.00     0.014 A 
ATOM     40  C   UNL     1       7.682  -9.782  -1.808  1.00  0.00     0.014 A 
ATOM     41  C   UNL     1       8.253 -11.145  -4.185  1.00  0.00     0.010 A 
ATOM     42  C   UNL     1       8.977  -9.765  -2.329  1.00  0.00     0.010 A 
ATOM     43  C   UNL     1       9.268 -10.440  -3.524  1.00  0.00    -0.014 A 
BRANCH  43  44
ATOM     44  C   UNL     1      10.639 -10.387  -4.078  1.00  0.00     0.031 A 
ATOM     45  C   UNL     1      11.737 -11.205  -3.468  1.00  0.00     0.074 A 
ATOM     46  C   UNL     1      10.906  -9.562  -5.106  1.00  0.00     0.049 A 
ATOM     47  N   UNL     1      13.017 -11.199  -3.740  1.00  0.00    -0.248 NA
ATOM     48  C   UNL     1      11.347 -12.145  -2.406  1.00  0.00     0.031 C 
ATOM     49  C   UNL     1       9.930  -8.705  -5.780  1.00  0.00     0.029 A 
ATOM     50  N   UNL     1      12.086  -9.303  -5.754  1.00  0.00    -0.354 N 
ATOM     51  C   UNL     1      13.593 -12.102  -2.859  1.00  0.00     0.074 A 
ATOM     52  C   UNL     1      12.521 -12.654  -2.056  1.00  0.00     0.031 C 
ATOM     53  C   UNL     1      10.551  -8.018  -6.754  1.00  0.00     0.029 A 
ATOM     54  C   UNL     1      11.968  -8.373  -6.755  1.00  0.00     0.049 A 
ATOM     55  H   UNL     1      12.936  -9.742  -5.523  1.00  0.00     0.167 HD
ATOM     56  C   UNL     1      14.898 -12.435  -2.726  1.00  0.00     0.037 A 
ATOM     57  C   UNL     1      12.900  -7.853  -7.573  1.00  0.00     0.037 A 
ATOM     58  C   UNL     1      15.965 -11.925  -3.543  1.00  0.00     0.049 A 
ATOM     59  C   UNL     1      14.331  -8.276  -7.439  1.00  0.00     0.074 A 
ATOM     60  C   UNL     1      17.315 -12.228  -3.492  1.00  0.00     0.029 A 
ATOM     61  N   UNL     1      15.797 -11.013  -4.572  1.00  0.00    -0.354 N 
ATOM     62  N   UNL     1      14.864  -9.117  -6.588  1.00  0.00    -0.248 NA
ATOM     63  C   UNL     1      15.291  -7.668  -8.372  1.00  0.00     0.031 C 
ATOM     64  C   UNL     1      17.965 -11.498  -4.496  1.00  0.00     0.029 A 
ATOM     65  C   UNL     1      17.018 -10.743  -5.168  1.00  0.00     0.049 A 
ATOM     66  H   UNL     1      14.937 -10.615  -4.840  1.00  0.00     0.167 HD
ATOM     67  C   UNL     1      16.221  -9.137  -6.877  1.00  0.00     0.074 A 
ATOM     68  C   UNL     1      16.430  -8.229  -7.987  1.00  0.00     0.031 C 
ATOM     69  C   UNL     1      17.205  -9.841  -6.271  1.00  0.00     0.037 A 
BRANCH  56  70
ATOM     70  C   UNL     1      15.239 -13.395  -1.634  1.00  0.00     0.057 A 
ATOM     71  C   UNL     1      15.229 -14.777  -1.849  1.00  0.00     0.134 A 
ATOM     72  C   UNL     1      15.591 -12.932  -0.361  1.00  0.00     0.134 A 
ATOM     73  F   UNL     1      14.887 -15.276  -3.046  1.00  0.00    -0.206 F 
ATOM     74  C   UNL     1      15.555 -15.671  -0.828  1.00  0.00     0.040 A 
ATOM     75  C   UNL     1      15.921 -13.815   0.666  1.00  0.00     0.040 A 
ATOM     76  F   UNL     1      15.607 -11.617  -0.097  1.00  0.00    -0.206 F 
ATOM     77  C   UNL     1      15.904 -15.190   0.433  1.00  0.00     0.006 A 
ENDBRANCH  56  70
BRANCH  57  78
ATOM     78  C   UNL     1      12.503  -6.859  -8.591  1.00  0.00     0.057 A 
ATOM     79  C   UNL     1      12.168  -7.258  -9.888  1.00  0.00     0.134 A 
ATOM     80  C   UNL     1      12.438  -5.497  -8.284  1.00  0.00     0.134 A 
ATOM     81  F   UNL     1      12.226  -8.552 -10.234  1.00  0.00    -0.206 F 
ATOM     82  C   UNL     1      11.779  -6.329 -10.853  1.00  0.00     0.040 A 
ATOM     83  C   UNL     1      12.048  -4.558  -9.239  1.00  0.00     0.040 A 
ATOM     84  F   UNL     1      12.755  -5.065  -7.056  1.00  0.00    -0.206 F 
ATOM     85  C   UNL     1      11.716  -4.974 -10.528  1.00  0.00     0.006 A 
ENDBRANCH  57  78
BRANCH  69  86
ATOM     86  C   UNL     1      18.590  -9.654  -6.800  1.00  0.00     0.057 A 
ATOM     87  C   UNL     1      19.429  -8.660  -6.285  1.00  0.00     0.134 A 
ATOM     88  C   UNL     1      19.092 -10.476  -7.814  1.00  0.00     0.134 A 
ATOM     89  F   UNL     1      18.995  -7.837  -5.319  1.00  0.00    -0.206 F 
ATOM     90  C   UNL     1      20.727  -8.488  -6.765  1.00  0.00     0.040 A 
ATOM     91  C   UNL     1      20.389 -10.315  -8.302  1.00  0.00     0.040 A 
ATOM     92  F   UNL     1      18.327 -11.439  -8.351  1.00  0.00    -0.206 F 
ATOM     93  C   UNL     1      21.210  -9.318  -7.776  1.00  0.00     0.006 A 
ENDBRANCH  69  86
ENDBRANCH  43  44
ENDBRANCH  35  38
ENDBRANCH  33  34
ENDBRANCH  32  33
ENDBRANCH   1  32
TORSDOF 16
