REMARK SMILES C[C@H]1[C@H](C(=O)NCCCCNC(=O)c2ccc(-c3c4nc(c(-c5c(F)cccc5F)c5ccc([nH]5)c(-c5c(F)cccc5F)c5nc(c(-c6c(F)cccc6F)c6ccc3[nH]6)C=C5)C=C4)cc2)CCN1c1ncnc2sccc12
REMARK SMILES IDX 9 1 8 2 7 3 6 4 4 5 5 6 3 8 1 9 2 10 70 11 68 12 69 13 71 14
REMARK SMILES IDX 72 15 79 16 73 17 75 18 78 19 74 20 76 21 77 22 10 23 11 24
REMARK SMILES IDX 12 25 13 27 14 28 15 29 67 30 16 31 66 32 17 33 18 34 19 35
REMARK SMILES IDX 60 36 20 37 65 38 59 39 61 40 21 41 64 42 58 43 57 44 22 46
REMARK SMILES IDX 48 47 31 48 47 49 32 50 35 51 46 52 62 53 33 54 34 55 45 57
REMARK SMILES IDX 63 58 36 59 23 60 24 61 29 62 25 63 26 64 28 65 30 66 27 67
REMARK SMILES IDX 49 68 50 69 55 70 51 71 52 72 54 73 56 74 53 75 37 76 38 77
REMARK SMILES IDX 43 78 39 79 40 80 42 81 44 82 41 83
REMARK H PARENT 6 7 11 26 61 45 35 56
REMARK Flexibility Score: inf
ROOT
ATOM      1  C   UNL     1       0.119   0.609   5.236  1.00  0.00     0.023 C 
ENDROOT
BRANCH   1   2
ATOM      2  C   UNL     1       0.024  -0.116   3.893  1.00  0.00     0.023 C 
BRANCH   2   3
ATOM      3  C   UNL     1      -0.940   0.524   2.898  1.00  0.00     0.116 C 
BRANCH   3   4
ATOM      4  N   UNL     1      -0.445   1.796   2.404  1.00  0.00    -0.356 N 
ATOM      5  C   UNL     1       0.024   2.154   1.178  1.00  0.00     0.225 C 
ATOM      6  O   UNL     1       0.428   3.314   1.047  1.00  0.00    -0.275 OA
ATOM      7  H   UNL     1      -0.450   2.523   3.068  1.00  0.00     0.163 HD
BRANCH   5   8
ATOM      8  C   UNL     1       0.030   1.209  -0.014  1.00  0.00     0.102 C 
ATOM      9  C   UNL     1       2.037  -0.121  -0.769  1.00  0.00     0.032 C 
ATOM     10  C   UNL     1       0.871  -0.054   0.220  1.00  0.00     0.093 C 
ATOM     11  N   UNL     1      -0.061  -1.170   0.016  1.00  0.00    -0.352 N 
ATOM     12  C   UNL     1      -1.368   0.759  -0.424  1.00  0.00     0.037 C 
ATOM     13  C   UNL     1      -1.312  -0.755  -0.582  1.00  0.00     0.119 C 
BRANCH  11  14
ATOM     14  C   UNL     1       0.235  -2.437   0.473  1.00  0.00     0.141 A 
ATOM     15  N   UNL     1       1.402  -2.583   1.158  1.00  0.00    -0.219 NA
ATOM     16  C   UNL     1      -0.572  -3.600   0.327  1.00  0.00     0.054 A 
ATOM     17  C   UNL     1       1.754  -3.776   1.653  1.00  0.00     0.225 A 
ATOM     18  C   UNL     1      -0.088  -4.764   0.918  1.00  0.00     0.128 A 
ATOM     19  C   UNL     1      -1.831  -3.886  -0.318  1.00  0.00     0.026 A 
ATOM     20  N   UNL     1       1.065  -4.910   1.587  1.00  0.00    -0.225 NA
ATOM     21  S   UNL     1      -1.128  -6.104   0.738  1.00  0.00    -0.124 S 
ATOM     22  C   UNL     1      -2.252  -5.188  -0.153  1.00  0.00     0.068 A 
ENDBRANCH  11  14
ENDBRANCH   5   8
ENDBRANCH   3   4
ENDBRANCH   2   3
ENDBRANCH   1   2
BRANCH   1  23
ATOM     23  C   UNL     1      -1.204   0.785   5.973  1.00  0.00     0.116 C 
BRANCH  23  24
ATOM     24  N   UNL     1      -1.888  -0.473   6.231  1.00  0.00    -0.352 N 
ATOM     25  C   UNL     1      -2.535  -0.882   7.372  1.00  0.00     0.251 C 
ATOM     26  H   UNL     1      -1.888  -1.119   5.488  1.00  0.00     0.163 HD
ATOM     27  O   UNL     1      -2.969  -2.025   7.467  1.00  0.00    -0.269 OA
BRANCH  25  28
ATOM     28  C   UNL     1      -2.671   0.057   8.504  1.00  0.00     0.039 A 
ATOM     29  C   UNL     1      -2.309  -0.372   9.782  1.00  0.00     0.014 A 
ATOM     30  C   UNL     1      -3.118   1.365   8.295  1.00  0.00     0.014 A 
ATOM     31  C   UNL     1      -2.326   0.535  10.843  1.00  0.00     0.010 A 
ATOM     32  C   UNL     1      -3.065   2.284   9.338  1.00  0.00     0.010 A 
ATOM     33  C   UNL     1      -2.667   1.879  10.621  1.00  0.00    -0.014 A 
BRANCH  33  34
ATOM     34  C   UNL     1      -2.604   2.879  11.716  1.00  0.00     0.031 A 
ATOM     35  C   UNL     1      -3.857   3.566  12.183  1.00  0.00     0.074 A 
ATOM     36  C   UNL     1      -1.411   3.219  12.240  1.00  0.00     0.049 A 
ATOM     37  N   UNL     1      -3.996   4.514  13.074  1.00  0.00    -0.248 NA
ATOM     38  C   UNL     1      -5.116   3.151  11.544  1.00  0.00     0.031 C 
ATOM     39  C   UNL     1      -0.118   2.663  11.836  1.00  0.00     0.029 A 
ATOM     40  N   UNL     1      -1.090   4.124  13.220  1.00  0.00    -0.354 N 
ATOM     41  C   UNL     1      -5.351   4.820  13.091  1.00  0.00     0.074 A 
ATOM     42  C   UNL     1      -5.983   3.994  12.085  1.00  0.00     0.031 C 
ATOM     43  C   UNL     1       0.852   3.223  12.577  1.00  0.00     0.029 A 
ATOM     44  C   UNL     1       0.256   4.200  13.482  1.00  0.00     0.049 A 
ATOM     45  H   UNL     1      -1.762   4.668  13.692  1.00  0.00     0.167 HD
ATOM     46  C   UNL     1      -6.011   5.691  13.889  1.00  0.00     0.037 A 
ATOM     47  C   UNL     1       0.934   4.975  14.349  1.00  0.00     0.037 A 
ATOM     48  C   UNL     1      -5.384   6.492  14.907  1.00  0.00     0.049 A 
ATOM     49  C   UNL     1       0.177   5.934  15.225  1.00  0.00     0.074 A 
ATOM     50  C   UNL     1      -5.976   7.357  15.810  1.00  0.00     0.029 A 
ATOM     51  N   UNL     1      -4.020   6.525  15.156  1.00  0.00    -0.354 N 
ATOM     52  N   UNL     1      -1.113   6.162  15.279  1.00  0.00    -0.248 NA
ATOM     53  C   UNL     1       0.969   6.741  16.163  1.00  0.00     0.031 C 
ATOM     54  C   UNL     1      -4.967   7.945  16.579  1.00  0.00     0.029 A 
ATOM     55  C   UNL     1      -3.750   7.411  16.185  1.00  0.00     0.049 A 
ATOM     56  H   UNL     1      -3.345   5.997  14.672  1.00  0.00     0.167 HD
ATOM     57  C   UNL     1      -1.290   7.115  16.274  1.00  0.00     0.074 A 
ATOM     58  C   UNL     1       0.024   7.413  16.805  1.00  0.00     0.031 C 
ATOM     59  C   UNL     1      -2.437   7.691  16.707  1.00  0.00     0.037 A 
BRANCH  46  60
ATOM     60  C   UNL     1      -7.494   5.818  13.694  1.00  0.00     0.057 A 
ATOM     61  C   UNL     1      -8.377   4.792  14.058  1.00  0.00     0.134 A 
ATOM     62  C   UNL     1      -8.049   6.989  13.164  1.00  0.00     0.134 A 
ATOM     63  F   UNL     1      -7.909   3.639  14.560  1.00  0.00    -0.206 F 
ATOM     64  C   UNL     1      -9.755   4.916  13.878  1.00  0.00     0.040 A 
ATOM     65  C   UNL     1      -9.428   7.136  13.004  1.00  0.00     0.040 A 
ATOM     66  F   UNL     1      -7.262   8.012  12.799  1.00  0.00    -0.206 F 
ATOM     67  C   UNL     1     -10.285   6.094  13.355  1.00  0.00     0.006 A 
ENDBRANCH  46  60
BRANCH  47  68
ATOM     68  C   UNL     1       2.410   4.860  14.452  1.00  0.00     0.057 A 
ATOM     69  C   UNL     1       3.011   4.294  15.583  1.00  0.00     0.134 A 
ATOM     70  C   UNL     1       3.254   5.317  13.433  1.00  0.00     0.134 A 
ATOM     71  F   UNL     1       2.256   3.855  16.600  1.00  0.00    -0.206 F 
ATOM     72  C   UNL     1       4.399   4.204  15.706  1.00  0.00     0.040 A 
ATOM     73  C   UNL     1       4.643   5.212  13.532  1.00  0.00     0.040 A 
ATOM     74  F   UNL     1       2.740   5.863  12.322  1.00  0.00    -0.206 F 
ATOM     75  C   UNL     1       5.218   4.660  14.675  1.00  0.00     0.006 A 
ENDBRANCH  47  68
BRANCH  59  76
ATOM     76  C   UNL     1      -2.326   8.677  17.833  1.00  0.00     0.057 A 
ATOM     77  C   UNL     1      -1.789   9.957  17.645  1.00  0.00     0.134 A 
ATOM     78  C   UNL     1      -2.798   8.354  19.111  1.00  0.00     0.134 A 
ATOM     79  F   UNL     1      -1.307  10.322  16.447  1.00  0.00    -0.206 F 
ATOM     80  C   UNL     1      -1.706  10.873  18.694  1.00  0.00     0.040 A 
ATOM     81  C   UNL     1      -2.744   9.271  20.162  1.00  0.00     0.040 A 
ATOM     82  F   UNL     1      -3.332   7.148  19.356  1.00  0.00    -0.206 F 
ATOM     83  C   UNL     1      -2.191  10.533  19.956  1.00  0.00     0.006 A 
ENDBRANCH  59  76
ENDBRANCH  33  34
ENDBRANCH  25  28
ENDBRANCH  23  24
ENDBRANCH   1  23
TORSDOF 12
