REMARK SMILES C[NH+]1CCC([N@@H+](C)Cc2ccc(C(=O)NCCCCNC(=O)c3ccc(-c4c5nc(c(-c6c(F)cccc6F)c6ccc([nH]6)c(-c6c(F)cccc6F)c6nc(c(-c7c(F)cccc7F)c7ccc4[nH]7)C=C6)C=C5)cc3)cn2)CC1
REMARK SMILES IDX 17 1 16 2 15 3 13 4 14 5 12 7 9 8 10 9 78 10 11 11 77 12
REMARK SMILES IDX 8 13 6 14 7 15 5 17 1 18 2 19 3 20 80 21 4 23 79 24 18 25
REMARK SMILES IDX 19 26 20 27 21 28 22 30 23 31 24 32 76 33 25 34 75 35 26 36
REMARK SMILES IDX 27 37 28 38 69 39 29 40 74 41 68 42 70 43 30 44 73 45 67 46
REMARK SMILES IDX 66 47 31 49 57 50 40 51 56 52 41 53 44 54 55 55 71 56 42 57
REMARK SMILES IDX 43 58 54 60 72 61 45 62 32 63 33 64 38 65 34 66 35 67 37 68
REMARK SMILES IDX 39 69 36 70 58 71 59 72 64 73 60 74 61 75 63 76 65 77 62 78
REMARK SMILES IDX 46 79 47 80 52 81 48 82 49 83 51 84 53 85 50 86
REMARK H PARENT 15 6 6 16 2 22 20 29 70 48 44 59
REMARK Flexibility Score: inf
ROOT
ATOM      1  C   UNL     1      -1.016   3.410   6.128  1.00  0.00     0.023 C 
ENDROOT
BRANCH   1   2
ATOM      2  C   UNL     1      -1.136   3.762   4.645  1.00  0.00     0.116 C 
BRANCH   2   3
ATOM      3  N   UNL     1      -0.163   4.774   4.289  1.00  0.00    -0.352 N 
ATOM      4  C   UNL     1       1.122   4.696   3.818  1.00  0.00     0.252 C 
ATOM      5  O   UNL     1       1.715   5.761   3.636  1.00  0.00    -0.269 OA
ATOM      6  H   UNL     1      -0.487   5.696   4.408  1.00  0.00     0.163 HD
BRANCH   4   7
ATOM      7  C   UNL     1       1.801   3.426   3.454  1.00  0.00     0.058 A 
ATOM      8  C   UNL     1       3.062   1.226   2.333  1.00  0.00     0.095 A 
ATOM      9  C   UNL     1       2.111   1.032   3.332  1.00  0.00     0.030 A 
ATOM     10  N   UNL     1       3.486   2.465   1.987  1.00  0.00    -0.255 NA
ATOM     11  C   UNL     1       1.490   2.146   3.905  1.00  0.00     0.017 A 
ATOM     12  C   UNL     1       2.844   3.524   2.539  1.00  0.00     0.125 A 
BRANCH   8  13
ATOM     13  C   UNL     1       3.570   0.046   1.521  1.00  0.00     0.319 C 
BRANCH  13  14
ATOM     14  N   UNL     1       3.260   0.031   0.073  1.00  0.00    -0.330 N 
ATOM     15  C   UNL     1       4.045   1.022  -0.663  1.00  0.00     0.333 C 
ATOM     16  H   UNL     1       3.561  -0.904  -0.200  1.00  0.00     0.348 HD
BRANCH  14  17
ATOM     17  C   UNL     1       1.838   0.002  -0.340  1.00  0.00     0.195 C 
ATOM     18  C   UNL     1      -2.479  -0.098  -0.239  1.00  0.00     0.332 C 
ATOM     19  N   UNL     1      -1.060  -0.010   0.100  1.00  0.00    -0.337 N 
ATOM     20  C   UNL     1      -0.435   1.128  -0.586  1.00  0.00     0.268 C 
ATOM     21  C   UNL     1      -0.362  -1.255  -0.244  1.00  0.00     0.268 C 
ATOM     22  H   UNL     1      -0.985   0.133   1.107  1.00  0.00     0.347 HD
ATOM     23  C   UNL     1       1.019   1.294  -0.141  1.00  0.00     0.126 C 
ATOM     24  C   UNL     1       1.087  -1.206   0.247  1.00  0.00     0.126 C 
ENDBRANCH  14  17
ENDBRANCH  13  14
ENDBRANCH   8  13
ENDBRANCH   4   7
ENDBRANCH   2   3
ENDBRANCH   1   2
BRANCH   1  25
ATOM     25  C   UNL     1      -1.595   4.470   7.072  1.00  0.00     0.023 C 
BRANCH  25  26
ATOM     26  C   UNL     1      -3.087   4.743   6.904  1.00  0.00     0.116 C 
BRANCH  26  27
ATOM     27  N   UNL     1      -3.904   3.544   7.005  1.00  0.00    -0.352 N 
ATOM     28  C   UNL     1      -5.173   3.401   7.512  1.00  0.00     0.251 C 
ATOM     29  H   UNL     1      -3.490   2.720   6.662  1.00  0.00     0.163 HD
ATOM     30  O   UNL     1      -5.672   2.289   7.616  1.00  0.00    -0.269 OA
BRANCH  28  31
ATOM     31  C   UNL     1      -5.915   4.593   7.972  1.00  0.00     0.039 A 
ATOM     32  C   UNL     1      -6.543   4.545   9.218  1.00  0.00     0.014 A 
ATOM     33  C   UNL     1      -5.976   5.753   7.194  1.00  0.00     0.014 A 
ATOM     34  C   UNL     1      -7.175   5.685   9.716  1.00  0.00     0.010 A 
ATOM     35  C   UNL     1      -6.547   6.908   7.720  1.00  0.00     0.010 A 
ATOM     36  C   UNL     1      -7.147   6.886   8.988  1.00  0.00    -0.014 A 
BRANCH  36  37
ATOM     37  C   UNL     1      -7.710   8.131   9.566  1.00  0.00     0.031 A 
ATOM     38  C   UNL     1      -8.903   8.796   8.940  1.00  0.00     0.074 A 
ATOM     39  C   UNL     1      -7.109   8.688  10.635  1.00  0.00     0.049 A 
ATOM     40  N   UNL     1      -9.528   9.885   9.311  1.00  0.00    -0.248 NA
ATOM     41  C   UNL     1      -9.450   8.172   7.726  1.00  0.00     0.031 C 
ATOM     42  C   UNL     1      -5.905   8.173  11.291  1.00  0.00     0.029 A 
ATOM     43  N   UNL     1      -7.427   9.809  11.358  1.00  0.00    -0.354 N 
ATOM     44  C   UNL     1     -10.536  10.079   8.376  1.00  0.00     0.074 A 
ATOM     45  C   UNL     1     -10.404   9.028   7.389  1.00  0.00     0.031 C 
ATOM     46  C   UNL     1      -5.606   8.957  12.339  1.00  0.00     0.029 A 
ATOM     47  C   UNL     1      -6.577  10.044  12.411  1.00  0.00     0.049 A 
ATOM     48  H   UNL     1      -8.192  10.390  11.143  1.00  0.00     0.167 HD
ATOM     49  C   UNL     1     -11.499  11.032   8.354  1.00  0.00     0.037 A 
ATOM     50  C   UNL     1      -6.582  11.023  13.335  1.00  0.00     0.037 A 
ATOM     51  C   UNL     1     -11.636  12.067   9.346  1.00  0.00     0.049 A 
ATOM     52  C   UNL     1      -7.668  12.060  13.295  1.00  0.00     0.074 A 
ATOM     53  C   UNL     1     -12.615  13.040   9.448  1.00  0.00     0.029 A 
ATOM     54  N   UNL     1     -10.764  12.266  10.406  1.00  0.00    -0.354 N 
ATOM     55  N   UNL     1      -8.665  12.183  12.453  1.00  0.00    -0.248 NA
ATOM     56  C   UNL     1      -7.636  13.089  14.344  1.00  0.00     0.031 C 
ATOM     57  C   UNL     1     -12.311  13.854  10.545  1.00  0.00     0.029 A 
ATOM     58  C   UNL     1     -11.169  13.360  11.154  1.00  0.00     0.049 A 
ATOM     59  H   UNL     1      -9.974  11.711  10.599  1.00  0.00     0.167 HD
ATOM     60  C   UNL     1      -9.389  13.289  12.879  1.00  0.00     0.074 A 
ATOM     61  C   UNL     1      -8.730  13.785  14.070  1.00  0.00     0.031 C 
ATOM     62  C   UNL     1     -10.497  13.846  12.332  1.00  0.00     0.037 A 
BRANCH  49  63
ATOM     63  C   UNL     1     -12.485  10.992   7.223  1.00  0.00     0.057 A 
ATOM     64  C   UNL     1     -13.454   9.984   7.125  1.00  0.00     0.134 A 
ATOM     65  C   UNL     1     -12.488  11.987   6.238  1.00  0.00     0.134 A 
ATOM     66  F   UNL     1     -13.498   8.993   8.028  1.00  0.00    -0.206 F 
ATOM     67  C   UNL     1     -14.373   9.953   6.074  1.00  0.00     0.040 A 
ATOM     68  C   UNL     1     -13.420  11.982   5.198  1.00  0.00     0.040 A 
ATOM     69  F   UNL     1     -11.592  12.985   6.274  1.00  0.00    -0.206 F 
ATOM     70  C   UNL     1     -14.362  10.959   5.111  1.00  0.00     0.006 A 
ENDBRANCH  49  63
BRANCH  50  71
ATOM     71  C   UNL     1      -5.545  11.049  14.395  1.00  0.00     0.057 A 
ATOM     72  C   UNL     1      -5.867  10.763  15.727  1.00  0.00     0.134 A 
ATOM     73  C   UNL     1      -4.212  11.366  14.108  1.00  0.00     0.134 A 
ATOM     74  F   UNL     1      -7.131  10.469  16.067  1.00  0.00    -0.206 F 
ATOM     75  C   UNL     1      -4.907  10.811  16.739  1.00  0.00     0.040 A 
ATOM     76  C   UNL     1      -3.236  11.393  15.105  1.00  0.00     0.040 A 
ATOM     77  F   UNL     1      -3.838  11.641  12.850  1.00  0.00    -0.206 F 
ATOM     78  C   UNL     1      -3.585  11.123  16.427  1.00  0.00     0.006 A 
ENDBRANCH  50  71
BRANCH  62  79
ATOM     79  C   UNL     1     -11.070  15.043  13.033  1.00  0.00     0.057 A 
ATOM     80  C   UNL     1     -10.426  16.288  13.014  1.00  0.00     0.134 A 
ATOM     81  C   UNL     1     -12.283  14.953  13.728  1.00  0.00     0.134 A 
ATOM     82  F   UNL     1      -9.254  16.437  12.378  1.00  0.00    -0.206 F 
ATOM     83  C   UNL     1     -10.951  17.390  13.689  1.00  0.00     0.040 A 
ATOM     84  C   UNL     1     -12.832  16.055  14.383  1.00  0.00     0.040 A 
ATOM     85  F   UNL     1     -12.955  13.793  13.778  1.00  0.00    -0.206 F 
ATOM     86  C   UNL     1     -12.161  17.276  14.373  1.00  0.00     0.006 A 
ENDBRANCH  62  79
ENDBRANCH  36  37
ENDBRANCH  28  31
ENDBRANCH  26  27
ENDBRANCH  25  26
ENDBRANCH   1  25
TORSDOF 14
