REMARK SMILES O=C(C[C@@H](C(=O)N(c1ccccc1)c1ccccc1)[NH+]1CCOCC1)NCCCCNC(=O)c1ccc(-c2c3nc(c(-c4c(F)cccc4F)c4ccc([nH]4)c(-c4c(F)cccc4F)c4nc(c(-c5c(F)cccc5F)c5ccc2[nH]5)C=C4)C=C3)cc1
REMARK SMILES IDX 28 1 27 2 26 3 1 4 2 5 3 7 4 8 5 9 6 10 7 11 8 12 9 13 13 14
REMARK SMILES IDX 10 15 12 16 11 17 14 18 15 19 19 20 16 21 18 22 17 23 20 24
REMARK SMILES IDX 21 25 25 26 22 28 24 29 23 30 29 31 30 32 31 33 32 34 33 36
REMARK SMILES IDX 34 37 35 38 87 39 36 40 86 41 37 42 38 43 39 44 80 45 40 46
REMARK SMILES IDX 85 47 79 48 81 49 41 50 84 51 78 52 77 53 42 55 68 56 51 57
REMARK SMILES IDX 67 58 52 59 55 60 66 61 82 62 53 63 54 64 65 66 83 67 56 68
REMARK SMILES IDX 43 69 44 70 49 71 45 72 46 73 48 74 50 75 47 76 69 77 70 78
REMARK SMILES IDX 75 79 71 80 72 81 74 82 76 83 73 84 57 85 58 86 63 87 59 88
REMARK SMILES IDX 60 89 62 90 64 91 61 92
REMARK H PARENT 26 6 20 27 31 35 81 54 55 65
REMARK Flexibility Score: inf
ROOT
ATOM      1  C   UNL     1       2.556  -1.612   3.934  1.00  0.00     0.023 C 
ENDROOT
BRANCH   1   2
ATOM      2  C   UNL     1       2.264  -0.727   2.721  1.00  0.00     0.116 C 
BRANCH   2   3
ATOM      3  N   UNL     1       3.024  -1.052   1.519  1.00  0.00    -0.356 N 
ATOM      4  O   UNL     1       1.237  -0.906   0.074  1.00  0.00    -0.275 OA
ATOM      5  C   UNL     1       2.445  -1.021   0.265  1.00  0.00     0.226 C 
ATOM      6  H   UNL     1       3.973  -1.299   1.604  1.00  0.00     0.163 HD
BRANCH   5   7
ATOM      7  C   UNL     1       3.411  -1.085  -0.904  1.00  0.00     0.175 C 
BRANCH   7   8
ATOM      8  C   UNL     1       3.718   0.321  -1.473  1.00  0.00     0.284 C 
BRANCH   8   9
ATOM      9  C   UNL     1       4.671   0.999  -0.459  1.00  0.00     0.290 C 
ATOM     10  O   UNL     1       5.858   0.610  -0.511  1.00  0.00    -0.267 OA
ATOM     11  N   UNL     1       4.288   1.914   0.542  1.00  0.00    -0.276 N 
BRANCH  11  12
ATOM     12  C   UNL     1       2.985   2.367   1.018  1.00  0.00     0.049 A 
ATOM     13  C   UNL     1       2.870   3.037   2.263  1.00  0.00     0.027 A 
ATOM     14  C   UNL     1       1.763   2.116   0.385  1.00  0.00     0.027 A 
ATOM     15  C   UNL     1       1.634   3.287   2.885  1.00  0.00     0.002 A 
ATOM     16  C   UNL     1       0.521   2.342   1.007  1.00  0.00     0.002 A 
ATOM     17  C   UNL     1       0.455   2.903   2.270  1.00  0.00     0.000 A 
ENDBRANCH  11  12
BRANCH  11  18
ATOM     18  C   UNL     1       5.397   2.271   1.388  1.00  0.00     0.049 A 
ATOM     19  C   UNL     1       5.836   1.350   2.350  1.00  0.00     0.027 A 
ATOM     20  C   UNL     1       6.168   3.405   1.120  1.00  0.00     0.027 A 
ATOM     21  C   UNL     1       7.022   1.559   3.047  1.00  0.00     0.002 A 
ATOM     22  C   UNL     1       7.357   3.615   1.827  1.00  0.00     0.002 A 
ATOM     23  C   UNL     1       7.782   2.694   2.787  1.00  0.00     0.000 A 
ENDBRANCH  11  18
ENDBRANCH   8   9
BRANCH   8  24
ATOM     24  N   UNL     1       4.430   0.385  -2.789  1.00  0.00    -0.320 N 
ATOM     25  C   UNL     1       3.889   1.391  -3.719  1.00  0.00     0.291 C 
ATOM     26  C   UNL     1       4.715  -0.858  -3.513  1.00  0.00     0.291 C 
ATOM     27  H   UNL     1       5.344   0.677  -2.443  1.00  0.00     0.348 HD
ATOM     28  C   UNL     1       2.696   0.850  -4.522  1.00  0.00     0.221 C 
ATOM     29  C   UNL     1       3.554  -1.346  -4.396  1.00  0.00     0.221 C 
ATOM     30  O   UNL     1       3.074  -0.315  -5.268  1.00  0.00    -0.370 OA
ENDBRANCH   8  24
ENDBRANCH   7   8
ENDBRANCH   5   7
ENDBRANCH   2   3
ENDBRANCH   1   2
BRANCH   1  31
ATOM     31  C   UNL     1       3.960  -1.494   4.541  1.00  0.00     0.023 C 
BRANCH  31  32
ATOM     32  C   UNL     1       4.355  -0.128   5.113  1.00  0.00     0.116 C 
BRANCH  32  33
ATOM     33  N   UNL     1       3.806   0.172   6.423  1.00  0.00    -0.352 N 
ATOM     34  C   UNL     1       4.447   0.676   7.533  1.00  0.00     0.251 C 
ATOM     35  H   UNL     1       2.845  -0.011   6.533  1.00  0.00     0.163 HD
ATOM     36  O   UNL     1       3.812   0.890   8.566  1.00  0.00    -0.269 OA
BRANCH  34  37
ATOM     37  C   UNL     1       5.911   0.914   7.524  1.00  0.00     0.039 A 
ATOM     38  C   UNL     1       6.694   0.285   8.495  1.00  0.00     0.014 A 
ATOM     39  C   UNL     1       6.522   1.746   6.584  1.00  0.00     0.014 A 
ATOM     40  C   UNL     1       8.090   0.418   8.470  1.00  0.00     0.010 A 
ATOM     41  C   UNL     1       7.922   1.832   6.531  1.00  0.00     0.010 A 
ATOM     42  C   UNL     1       8.731   1.149   7.454  1.00  0.00    -0.014 A 
BRANCH  42  43
ATOM     43  C   UNL     1      10.225   1.141   7.327  1.00  0.00     0.031 A 
ATOM     44  C   UNL     1      11.040   2.413   7.365  1.00  0.00     0.074 A 
ATOM     45  C   UNL     1      10.874  -0.025   7.121  1.00  0.00     0.049 A 
ATOM     46  N   UNL     1      12.340   2.565   7.262  1.00  0.00    -0.248 NA
ATOM     47  C   UNL     1      10.303   3.676   7.503  1.00  0.00     0.031 C 
ATOM     48  C   UNL     1      10.238  -1.335   6.972  1.00  0.00     0.029 A 
ATOM     49  N   UNL     1      12.218  -0.300   7.002  1.00  0.00    -0.354 N 
ATOM     50  C   UNL     1      12.572   3.935   7.297  1.00  0.00     0.074 A 
ATOM     51  C   UNL     1      11.274   4.572   7.383  1.00  0.00     0.031 C 
ATOM     52  C   UNL     1      11.186  -2.275   6.834  1.00  0.00     0.029 A 
ATOM     53  C   UNL     1      12.499  -1.638   6.846  1.00  0.00     0.049 A 
ATOM     54  H   UNL     1      12.914   0.396   7.026  1.00  0.00     0.167 HD
ATOM     55  C   UNL     1      13.752   4.606   7.285  1.00  0.00     0.037 A 
ATOM     56  C   UNL     1      13.674  -2.289   6.731  1.00  0.00     0.037 A 
ATOM     57  C   UNL     1      15.055   3.991   7.256  1.00  0.00     0.049 A 
ATOM     58  C   UNL     1      14.970  -1.528   6.768  1.00  0.00     0.074 A 
ATOM     59  C   UNL     1      16.297   4.602   7.345  1.00  0.00     0.029 A 
ATOM     60  N   UNL     1      15.292   2.632   7.130  1.00  0.00    -0.354 N 
ATOM     61  N   UNL     1      15.168  -0.240   6.900  1.00  0.00    -0.248 NA
ATOM     62  C   UNL     1      16.207  -2.315   6.647  1.00  0.00     0.031 C 
ATOM     63  C   UNL     1      17.284   3.617   7.234  1.00  0.00     0.029 A 
ATOM     64  C   UNL     1      16.658   2.389   7.121  1.00  0.00     0.049 A 
ATOM     65  H   UNL     1      14.594   1.942   7.058  1.00  0.00     0.167 HD
ATOM     66  C   UNL     1      16.547  -0.068   6.906  1.00  0.00     0.074 A 
ATOM     67  C   UNL     1      17.138  -1.382   6.780  1.00  0.00     0.031 C 
ATOM     68  C   UNL     1      17.255   1.083   7.009  1.00  0.00     0.037 A 
BRANCH  55  69
ATOM     69  C   UNL     1      13.698   6.108   7.326  1.00  0.00     0.057 A 
ATOM     70  C   UNL     1      13.313   6.801   8.481  1.00  0.00     0.134 A 
ATOM     71  C   UNL     1      14.101   6.869   6.221  1.00  0.00     0.134 A 
ATOM     72  F   UNL     1      12.915   6.133   9.574  1.00  0.00    -0.206 F 
ATOM     73  C   UNL     1      13.303   8.196   8.526  1.00  0.00     0.040 A 
ATOM     74  C   UNL     1      14.122   8.264   6.263  1.00  0.00     0.040 A 
ATOM     75  F   UNL     1      14.498   6.269   5.088  1.00  0.00    -0.206 F 
ATOM     76  C   UNL     1      13.715   8.932   7.417  1.00  0.00     0.006 A 
ENDBRANCH  55  69
BRANCH  56  77
ATOM     77  C   UNL     1      13.691  -3.770   6.609  1.00  0.00     0.057 A 
ATOM     78  C   UNL     1      14.141  -4.572   7.665  1.00  0.00     0.134 A 
ATOM     79  C   UNL     1      13.286  -4.413   5.435  1.00  0.00     0.134 A 
ATOM     80  F   UNL     1      14.565  -4.009   8.806  1.00  0.00    -0.206 F 
ATOM     81  C   UNL     1      14.208  -5.961   7.551  1.00  0.00     0.040 A 
ATOM     82  C   UNL     1      13.323  -5.803   5.316  1.00  0.00     0.040 A 
ATOM     83  F   UNL     1      12.840  -3.700   4.391  1.00  0.00    -0.206 F 
ATOM     84  C   UNL     1      13.793  -6.580   6.374  1.00  0.00     0.006 A 
ENDBRANCH  56  77
BRANCH  68  85
ATOM     85  C   UNL     1      18.753   0.979   7.031  1.00  0.00     0.057 A 
ATOM     86  C   UNL     1      19.491   0.661   5.884  1.00  0.00     0.134 A 
ATOM     87  C   UNL     1      19.468   1.235   8.208  1.00  0.00     0.134 A 
ATOM     88  F   UNL     1      18.868   0.391   4.727  1.00  0.00    -0.206 F 
ATOM     89  C   UNL     1      20.886   0.580   5.912  1.00  0.00     0.040 A 
ATOM     90  C   UNL     1      20.863   1.181   8.243  1.00  0.00     0.040 A 
ATOM     91  F   UNL     1      18.824   1.551   9.341  1.00  0.00    -0.206 F 
ATOM     92  C   UNL     1      21.576   0.847   7.094  1.00  0.00     0.006 A 
ENDBRANCH  68  85
ENDBRANCH  42  43
ENDBRANCH  34  37
ENDBRANCH  32  33
ENDBRANCH  31  32
ENDBRANCH   1  31
TORSDOF 16
