REMARK SMILES COc1ccc(/C=C/c2nc(C(=O)NCCCCNC(=O)c3ccc(-c4c5nc(c(-c6c(F)cccc6F)c6ccc([nH]6)c(-c6c(F)cccc6F)c6nc(c(-c7c(F)cccc7F)c7ccc4[nH]7)C=C6)C=C5)cc3)ccc2C#N)cc1F
REMARK SMILES IDX 16 1 15 2 14 3 12 4 13 5 11 7 9 8 10 9 78 10 77 11 76 12
REMARK SMILES IDX 8 13 7 14 6 15 3 16 4 17 82 18 5 19 81 20 83 21 2 22 1 23
REMARK SMILES IDX 79 24 80 25 17 26 18 27 19 28 20 29 21 31 22 32 23 33 75 34
REMARK SMILES IDX 24 35 74 36 25 37 26 38 27 39 68 40 28 41 73 42 67 43 69 44
REMARK SMILES IDX 29 45 72 46 66 47 65 48 30 50 56 51 39 52 55 53 40 54 43 55
REMARK SMILES IDX 54 56 70 57 41 58 42 59 53 61 71 62 44 63 31 64 32 65 37 66
REMARK SMILES IDX 33 67 34 68 36 69 38 70 35 71 57 72 58 73 63 74 59 75 60 76
REMARK SMILES IDX 62 77 64 78 61 79 45 80 46 81 51 82 47 83 48 84 50 85 52 86
REMARK SMILES IDX 49 87
REMARK H PARENT 14 6 19 30 69 49 43 60
REMARK Flexibility Score: inf
ROOT
ATOM      1  C   UNL     1       0.768   9.240  11.582  1.00  0.00     0.023 C 
ENDROOT
BRANCH   1   2
ATOM      2  C   UNL     1       1.402   7.960  11.063  1.00  0.00     0.116 C 
BRANCH   2   3
ATOM      3  N   UNL     1       0.452   6.928  10.700  1.00  0.00    -0.351 N 
ATOM      4  C   UNL     1       0.249   6.205   9.539  1.00  0.00     0.269 C 
ATOM      5  O   UNL     1      -0.674   5.389   9.558  1.00  0.00    -0.268 OA
ATOM      6  H   UNL     1      -0.174   6.695  11.423  1.00  0.00     0.163 HD
BRANCH   4   7
ATOM      7  C   UNL     1       1.056   6.399   8.277  1.00  0.00     0.128 A 
ATOM      8  C   UNL     1       1.101   6.167   5.959  1.00  0.00     0.082 A 
ATOM      9  N   UNL     1       0.460   5.962   7.135  1.00  0.00    -0.242 NA
ATOM     10  C   UNL     1       2.244   6.960   5.850  1.00  0.00     0.078 A 
ATOM     11  C   UNL     1       2.879   7.333   7.027  1.00  0.00     0.024 A 
ATOM     12  C   UNL     1       2.325   6.960   8.247  1.00  0.00     0.035 A 
BRANCH   8  13
ATOM     13  C   UNL     1       0.592   5.364   4.840  1.00  0.00     0.030 C 
ATOM     14  C   UNL     1       1.433   4.539   4.190  1.00  0.00     0.010 C 
BRANCH  14  15
ATOM     15  C   UNL     1       1.149   3.686   3.031  1.00  0.00    -0.022 A 
ATOM     16  C   UNL     1       0.756   2.029   0.794  1.00  0.00     0.154 A 
ATOM     17  C   UNL     1      -0.318   2.717   1.355  1.00  0.00     0.050 A 
ATOM     18  C   UNL     1       2.030   2.199   1.329  1.00  0.00     0.165 A 
ATOM     19  C   UNL     1      -0.126   3.530   2.477  1.00  0.00     0.012 A 
ATOM     20  C   UNL     1       2.229   3.012   2.439  1.00  0.00     0.051 A 
ATOM     21  F   UNL     1       3.098   1.601   0.779  1.00  0.00    -0.203 F 
BRANCH  16  22
ATOM     22  O   UNL     1       0.484   1.257  -0.302  1.00  0.00    -0.494 OA
ATOM     23  C   UNL     1       0.956  -0.080  -0.149  1.00  0.00     0.278 C 
ENDBRANCH  16  22
ENDBRANCH  14  15
ENDBRANCH   8  13
BRANCH  10  24
ATOM     24  C   UNL     1       2.815   7.333   4.594  1.00  0.00     0.101 C 
ATOM     25  N   UNL     1       3.309   7.652   3.591  1.00  0.00    -0.192 NA
ENDBRANCH  10  24
ENDBRANCH   4   7
ENDBRANCH   2   3
ENDBRANCH   1   2
BRANCH   1  26
ATOM     26  C   UNL     1       0.201   9.169  12.990  1.00  0.00     0.023 C 
BRANCH  26  27
ATOM     27  C   UNL     1       1.148   8.613  14.043  1.00  0.00     0.116 C 
BRANCH  27  28
ATOM     28  N   UNL     1       2.427   9.312  14.110  1.00  0.00    -0.352 N 
ATOM     29  C   UNL     1       3.078   9.814  15.212  1.00  0.00     0.251 C 
ATOM     30  H   UNL     1       2.886   9.441  13.248  1.00  0.00     0.163 HD
ATOM     31  O   UNL     1       4.098  10.483  15.084  1.00  0.00    -0.269 OA
BRANCH  29  32
ATOM     32  C   UNL     1       2.509   9.568  16.551  1.00  0.00     0.039 A 
ATOM     33  C   UNL     1       2.336  10.642  17.424  1.00  0.00     0.014 A 
ATOM     34  C   UNL     1       2.076   8.287  16.904  1.00  0.00     0.014 A 
ATOM     35  C   UNL     1       1.654  10.443  18.624  1.00  0.00     0.010 A 
ATOM     36  C   UNL     1       1.305   8.116  18.045  1.00  0.00     0.010 A 
ATOM     37  C   UNL     1       1.091   9.189  18.922  1.00  0.00    -0.014 A 
BRANCH  37  38
ATOM     38  C   UNL     1       0.277   8.980  20.145  1.00  0.00     0.031 A 
ATOM     39  C   UNL     1       0.717   7.984  21.181  1.00  0.00     0.074 A 
ATOM     40  C   UNL     1      -0.881   9.653  20.302  1.00  0.00     0.049 A 
ATOM     41  N   UNL     1       0.125   7.636  22.295  1.00  0.00    -0.248 NA
ATOM     42  C   UNL     1       1.975   7.264  20.922  1.00  0.00     0.031 C 
ATOM     43  C   UNL     1      -1.435  10.615  19.348  1.00  0.00     0.029 A 
ATOM     44  N   UNL     1      -1.797   9.633  21.323  1.00  0.00    -0.354 N 
ATOM     45  C   UNL     1       0.937   6.665  22.865  1.00  0.00     0.074 A 
ATOM     46  C   UNL     1       2.020   6.420  21.941  1.00  0.00     0.031 C 
ATOM     47  C   UNL     1      -2.569  11.129  19.851  1.00  0.00     0.029 A 
ATOM     48  C   UNL     1      -2.850  10.497  21.136  1.00  0.00     0.049 A 
ATOM     49  H   UNL     1      -1.709   9.055  22.115  1.00  0.00     0.167 HD
ATOM     50  C   UNL     1       0.811   6.060  24.068  1.00  0.00     0.037 A 
ATOM     51  C   UNL     1      -3.921  10.752  21.912  1.00  0.00     0.037 A 
ATOM     52  C   UNL     1      -0.264   6.316  24.989  1.00  0.00     0.049 A 
ATOM     53  C   UNL     1      -4.066  10.029  23.222  1.00  0.00     0.074 A 
ATOM     54  C   UNL     1      -0.462   5.776  26.247  1.00  0.00     0.029 A 
ATOM     55  N   UNL     1      -1.323   7.179  24.752  1.00  0.00    -0.354 N 
ATOM     56  N   UNL     1      -3.262   9.153  23.775  1.00  0.00    -0.248 NA
ATOM     57  C   UNL     1      -5.264  10.330  24.020  1.00  0.00     0.031 C 
ATOM     58  C   UNL     1      -1.673   6.263  26.744  1.00  0.00     0.029 A 
ATOM     59  C   UNL     1      -2.193   7.164  25.829  1.00  0.00     0.049 A 
ATOM     60  H   UNL     1      -1.439   7.722  23.939  1.00  0.00     0.167 HD
ATOM     61  C   UNL     1      -3.838   8.821  24.995  1.00  0.00     0.074 A 
ATOM     62  C   UNL     1      -5.054   9.601  25.107  1.00  0.00     0.031 C 
ATOM     63  C   UNL     1      -3.397   7.951  25.935  1.00  0.00     0.037 A 
BRANCH  50  64
ATOM     64  C   UNL     1       1.870   5.072  24.468  1.00  0.00     0.057 A 
ATOM     65  C   UNL     1       1.563   3.716  24.631  1.00  0.00     0.134 A 
ATOM     66  C   UNL     1       3.183   5.474  24.755  1.00  0.00     0.134 A 
ATOM     67  F   UNL     1       0.326   3.261  24.379  1.00  0.00    -0.206 F 
ATOM     68  C   UNL     1       2.515   2.800  25.081  1.00  0.00     0.040 A 
ATOM     69  C   UNL     1       4.152   4.562  25.172  1.00  0.00     0.040 A 
ATOM     70  F   UNL     1       3.550   6.756  24.606  1.00  0.00    -0.206 F 
ATOM     71  C   UNL     1       3.816   3.221  25.348  1.00  0.00     0.006 A 
ENDBRANCH  50  64
BRANCH  51  72
ATOM     72  C   UNL     1      -4.915  11.771  21.483  1.00  0.00     0.057 A 
ATOM     73  C   UNL     1      -5.737  11.573  20.367  1.00  0.00     0.134 A 
ATOM     74  C   UNL     1      -5.040  12.987  22.166  1.00  0.00     0.134 A 
ATOM     75  F   UNL     1      -5.662  10.434  19.663  1.00  0.00    -0.206 F 
ATOM     76  C   UNL     1      -6.628  12.555  19.931  1.00  0.00     0.040 A 
ATOM     77  C   UNL     1      -5.948  13.966  21.759  1.00  0.00     0.040 A 
ATOM     78  F   UNL     1      -4.293  13.229  23.253  1.00  0.00    -0.206 F 
ATOM     79  C   UNL     1      -6.738  13.755  20.631  1.00  0.00     0.006 A 
ENDBRANCH  51  72
BRANCH  63  80
ATOM     80  C   UNL     1      -4.207   7.805  27.193  1.00  0.00     0.057 A 
ATOM     81  C   UNL     1      -3.686   8.223  28.426  1.00  0.00     0.134 A 
ATOM     82  C   UNL     1      -5.455   7.172  27.202  1.00  0.00     0.134 A 
ATOM     83  F   UNL     1      -2.489   8.825  28.491  1.00  0.00    -0.206 F 
ATOM     84  C   UNL     1      -4.367   7.997  29.622  1.00  0.00     0.040 A 
ATOM     85  C   UNL     1      -6.162   6.971  28.389  1.00  0.00     0.040 A 
ATOM     86  F   UNL     1      -6.015   6.755  26.056  1.00  0.00    -0.206 F 
ATOM     87  C   UNL     1      -5.612   7.372  29.605  1.00  0.00     0.006 A 
ENDBRANCH  63  80
ENDBRANCH  37  38
ENDBRANCH  29  32
ENDBRANCH  27  28
ENDBRANCH  26  27
ENDBRANCH   1  26
TORSDOF 15
