REMARK SMILES COc1ccc(-c2cc3c(N4CCC[C@@H](C(=O)NCCCCNC(=O)c5ccc(-c6c7nc(c(-c8c(F)cccc8F)c8ccc([nH]8)c(-c8c(F)cccc8F)c8nc(c(-c9c(F)cccc9F)c9ccc6[nH]9)C=C8)C=C7)cc5)C4)nccn3n2)cc1OC
REMARK SMILES IDX 20 1 19 2 18 3 16 4 17 5 15 7 11 8 12 9 80 10 13 11 14 12
REMARK SMILES IDX 10 13 7 14 8 15 85 16 9 17 84 18 83 19 81 20 82 21 6 22 3 23
REMARK SMILES IDX 4 24 87 25 5 26 86 27 2 28 1 29 88 30 89 31 21 32 22 33
REMARK SMILES IDX 23 34 24 35 25 37 26 38 27 39 79 40 28 41 78 42 29 43 30 44
REMARK SMILES IDX 31 45 72 46 32 47 77 48 71 49 73 50 33 51 76 52 70 53 69 54
REMARK SMILES IDX 34 56 60 57 43 58 59 59 44 60 47 61 58 62 74 63 45 64 46 65
REMARK SMILES IDX 57 67 75 68 48 69 35 70 36 71 41 72 37 73 38 74 40 75 42 76
REMARK SMILES IDX 39 77 61 78 62 79 67 80 63 81 64 82 66 83 68 84 65 85 49 86
REMARK SMILES IDX 50 87 55 88 51 89 52 90 54 91 56 92 53 93
REMARK H PARENT 18 6 23 36 73 55 47 66
REMARK Flexibility Score: inf
ROOT
ATOM      1  C   UNL     1      -4.449 -10.001   2.768  1.00  0.00     0.023 C 
ENDROOT
BRANCH   1   2
ATOM      2  C   UNL     1      -3.996  -9.369   4.094  1.00  0.00     0.116 C 
BRANCH   2   3
ATOM      3  N   UNL     1      -3.370 -10.338   4.974  1.00  0.00    -0.356 N 
ATOM      4  C   UNL     1      -2.046 -10.564   5.227  1.00  0.00     0.224 C 
ATOM      5  O   UNL     1      -1.759 -11.473   6.007  1.00  0.00    -0.275 OA
ATOM      6  H   UNL     1      -3.994 -10.922   5.463  1.00  0.00     0.163 HD
BRANCH   4   7
ATOM      7  C   UNL     1      -0.989  -9.681   4.579  1.00  0.00     0.098 C 
ATOM      8  N   UNL     1       1.366  -9.117   4.503  1.00  0.00    -0.354 N 
ATOM      9  C   UNL     1       1.498  -9.275   3.062  1.00  0.00     0.118 C 
ATOM     10  C   UNL     1       0.403  -9.995   5.160  1.00  0.00     0.131 C 
ATOM     11  C   UNL     1       0.154  -9.010   2.406  1.00  0.00     0.022 C 
ATOM     12  C   UNL     1      -0.949  -9.841   3.049  1.00  0.00     0.017 C 
BRANCH   8  13
ATOM     13  C   UNL     1       2.199  -8.281   5.214  1.00  0.00     0.154 A 
ATOM     14  C   UNL     1       2.028  -4.762   4.283  1.00  0.00     0.094 A 
ATOM     15  C   UNL     1       1.427  -6.033   4.186  1.00  0.00     0.063 A 
ATOM     16  N   UNL     1       3.070  -4.780   5.129  1.00  0.00    -0.168 NA
ATOM     17  C   UNL     1       2.213  -6.858   4.949  1.00  0.00     0.109 A 
ATOM     18  N   UNL     1       3.144  -6.062   5.570  1.00  0.00    -0.235 N 
ATOM     19  C   UNL     1       3.998  -6.625   6.500  1.00  0.00     0.133 A 
ATOM     20  N   UNL     1       2.996  -8.777   6.130  1.00  0.00    -0.235 NA
ATOM     21  C   UNL     1       3.891  -7.937   6.761  1.00  0.00     0.133 A 
BRANCH  14  22
ATOM     22  C   UNL     1       1.657  -3.581   3.512  1.00  0.00     0.006 A 
ATOM     23  C   UNL     1       1.027  -1.317   1.960  1.00  0.00     0.160 A 
ATOM     24  C   UNL     1       0.041  -1.950   2.735  1.00  0.00     0.051 A 
ATOM     25  C   UNL     1       2.329  -1.834   1.938  1.00  0.00     0.161 A 
ATOM     26  C   UNL     1       0.351  -3.084   3.500  1.00  0.00     0.014 A 
ATOM     27  C   UNL     1       2.626  -2.959   2.720  1.00  0.00     0.060 A 
BRANCH  23  28
ATOM     28  O   UNL     1       0.722  -0.086   1.441  1.00  0.00    -0.493 OA
ATOM     29  C   UNL     1       0.110  -0.135   0.154  1.00  0.00     0.278 C 
ENDBRANCH  23  28
BRANCH  25  30
ATOM     30  O   UNL     1       3.435  -1.365   1.286  1.00  0.00    -0.493 OA
ATOM     31  C   UNL     1       3.260  -0.478   0.199  1.00  0.00     0.278 C 
ENDBRANCH  25  30
ENDBRANCH  14  22
ENDBRANCH   8  13
ENDBRANCH   4   7
ENDBRANCH   2   3
ENDBRANCH   1   2
BRANCH   1  32
ATOM     32  C   UNL     1      -5.591 -11.019   2.859  1.00  0.00     0.023 C 
BRANCH  32  33
ATOM     33  C   UNL     1      -6.885 -10.457   3.419  1.00  0.00     0.116 C 
BRANCH  33  34
ATOM     34  N   UNL     1      -7.480  -9.411   2.580  1.00  0.00    -0.352 N 
ATOM     35  C   UNL     1      -8.673  -8.715   2.790  1.00  0.00     0.251 C 
ATOM     36  H   UNL     1      -6.976  -9.169   1.770  1.00  0.00     0.163 HD
ATOM     37  O   UNL     1      -9.280  -8.203   1.878  1.00  0.00    -0.269 OA
BRANCH  35  38
ATOM     38  C   UNL     1      -9.134  -8.554   4.185  1.00  0.00     0.039 A 
ATOM     39  C   UNL     1     -10.472  -8.565   4.598  1.00  0.00     0.014 A 
ATOM     40  C   UNL     1      -8.132  -8.403   5.117  1.00  0.00     0.014 A 
ATOM     41  C   UNL     1     -10.743  -8.427   5.968  1.00  0.00     0.010 A 
ATOM     42  C   UNL     1      -8.431  -8.784   6.380  1.00  0.00     0.010 A 
ATOM     43  C   UNL     1      -9.678  -8.488   6.871  1.00  0.00    -0.014 A 
BRANCH  43  44
ATOM     44  C   UNL     1      -9.772  -8.585   8.322  1.00  0.00     0.031 A 
ATOM     45  C   UNL     1     -10.543  -9.788   8.718  1.00  0.00     0.074 A 
ATOM     46  C   UNL     1      -9.020  -7.814   9.155  1.00  0.00     0.049 A 
ATOM     47  N   UNL     1     -11.793  -9.815   9.040  1.00  0.00    -0.248 NA
ATOM     48  C   UNL     1      -9.986 -11.129   8.448  1.00  0.00     0.031 C 
ATOM     49  C   UNL     1      -8.031  -6.776   8.814  1.00  0.00     0.029 A 
ATOM     50  N   UNL     1      -8.952  -7.822  10.525  1.00  0.00    -0.354 N 
ATOM     51  C   UNL     1     -12.063 -11.146   9.339  1.00  0.00     0.074 A 
ATOM     52  C   UNL     1     -11.050 -11.906   8.669  1.00  0.00     0.031 C 
ATOM     53  C   UNL     1      -7.325  -6.412   9.914  1.00  0.00     0.029 A 
ATOM     54  C   UNL     1      -7.896  -7.065  11.075  1.00  0.00     0.049 A 
ATOM     55  H   UNL     1      -9.593  -8.318  11.083  1.00  0.00     0.167 HD
ATOM     56  C   UNL     1     -12.834 -11.447  10.423  1.00  0.00     0.037 A 
ATOM     57  C   UNL     1      -7.567  -6.968  12.397  1.00  0.00     0.037 A 
ATOM     58  C   UNL     1     -13.500 -10.246  10.884  1.00  0.00     0.049 A 
ATOM     59  C   UNL     1      -8.774  -7.370  13.155  1.00  0.00     0.074 A 
ATOM     60  C   UNL     1     -14.426  -9.362  10.374  1.00  0.00     0.029 A 
ATOM     61  N   UNL     1     -12.835  -9.585  11.885  1.00  0.00    -0.354 N 
ATOM     62  N   UNL     1      -9.877  -6.677  13.153  1.00  0.00    -0.248 NA
ATOM     63  C   UNL     1      -8.910  -8.780  13.472  1.00  0.00     0.031 C 
ATOM     64  C   UNL     1     -14.025  -8.076  10.853  1.00  0.00     0.029 A 
ATOM     65  C   UNL     1     -12.950  -8.234  11.729  1.00  0.00     0.049 A 
ATOM     66  H   UNL     1     -12.342 -10.024  12.615  1.00  0.00     0.167 HD
ATOM     67  C   UNL     1     -10.876  -7.625  12.991  1.00  0.00     0.074 A 
ATOM     68  C   UNL     1     -10.226  -8.908  13.281  1.00  0.00     0.031 C 
ATOM     69  C   UNL     1     -12.025  -7.297  12.326  1.00  0.00     0.037 A 
BRANCH  56  70
ATOM     70  C   UNL     1     -12.576 -12.606  11.376  1.00  0.00     0.057 A 
ATOM     71  C   UNL     1     -13.445 -12.764  12.474  1.00  0.00     0.134 A 
ATOM     72  C   UNL     1     -11.386 -13.360  11.460  1.00  0.00     0.134 A 
ATOM     73  F   UNL     1     -14.617 -12.111  12.524  1.00  0.00    -0.206 F 
ATOM     74  C   UNL     1     -13.110 -13.521  13.604  1.00  0.00     0.040 A 
ATOM     75  C   UNL     1     -11.061 -14.153  12.566  1.00  0.00     0.040 A 
ATOM     76  F   UNL     1     -10.424 -13.315  10.535  1.00  0.00    -0.206 F 
ATOM     77  C   UNL     1     -11.907 -14.209  13.659  1.00  0.00     0.006 A 
ENDBRANCH  56  70
BRANCH  57  78
ATOM     78  C   UNL     1      -6.248  -6.878  13.087  1.00  0.00     0.057 A 
ATOM     79  C   UNL     1      -6.140  -6.523  14.446  1.00  0.00     0.134 A 
ATOM     80  C   UNL     1      -5.108  -7.473  12.526  1.00  0.00     0.134 A 
ATOM     81  F   UNL     1      -7.188  -5.999  15.099  1.00  0.00    -0.206 F 
ATOM     82  C   UNL     1      -4.979  -6.766  15.202  1.00  0.00     0.040 A 
ATOM     83  C   UNL     1      -3.945  -7.726  13.270  1.00  0.00     0.040 A 
ATOM     84  F   UNL     1      -5.125  -7.920  11.262  1.00  0.00    -0.206 F 
ATOM     85  C   UNL     1      -3.881  -7.385  14.616  1.00  0.00     0.006 A 
ENDBRANCH  57  78
BRANCH  69  86
ATOM     86  C   UNL     1     -12.289  -5.834  12.079  1.00  0.00     0.057 A 
ATOM     87  C   UNL     1     -11.557  -5.011  11.207  1.00  0.00     0.134 A 
ATOM     88  C   UNL     1     -13.424  -5.272  12.669  1.00  0.00     0.134 A 
ATOM     89  F   UNL     1     -10.504  -5.482  10.527  1.00  0.00    -0.206 F 
ATOM     90  C   UNL     1     -11.921  -3.680  10.969  1.00  0.00     0.040 A 
ATOM     91  C   UNL     1     -13.815  -3.957  12.417  1.00  0.00     0.040 A 
ATOM     92  F   UNL     1     -14.201  -6.016  13.472  1.00  0.00    -0.206 F 
ATOM     93  C   UNL     1     -13.057  -3.151  11.573  1.00  0.00     0.006 A 
ENDBRANCH  69  86
ENDBRANCH  43  44
ENDBRANCH  35  38
ENDBRANCH  33  34
ENDBRANCH  32  33
ENDBRANCH   1  32
TORSDOF 15
