REMARK SMILES O=C(Cn1nc(-c2ccccc2)ccc1=O)N[C@@H](C(=O)NCCCCNC(=O)c1ccc(-c2c3nc(c(-c4c(F)cccc4F)c4ccc([nH]4)c(-c4c(F)cccc4F)c4nc(c(-c5c(F)cccc5F)c5ccc2[nH]5)C=C4)C=C3)cc1)c1ccccc1
REMARK SMILES IDX 22 1 21 2 19 3 20 4 18 6 17 7 1 8 2 9 3 11 4 12 5 13 15 14
REMARK SMILES IDX 6 15 14 16 16 17 13 18 7 19 8 20 12 21 9 22 11 23 10 24
REMARK SMILES IDX 83 25 84 26 88 27 85 28 87 29 86 30 23 31 24 32 25 33 26 34
REMARK SMILES IDX 27 35 28 37 29 38 30 39 82 40 31 41 81 42 32 43 33 44 34 45
REMARK SMILES IDX 75 46 35 47 80 48 74 49 76 50 36 51 79 52 73 53 72 54 37 56
REMARK SMILES IDX 63 57 46 58 62 59 47 60 50 61 61 62 77 63 48 64 49 65 60 67
REMARK SMILES IDX 78 68 51 69 38 70 39 71 44 72 40 73 41 74 43 75 45 76 42 77
REMARK SMILES IDX 64 78 65 79 70 80 66 81 67 82 69 83 71 84 68 85 52 86 53 87
REMARK SMILES IDX 58 88 54 89 55 90 57 91 59 92 56 93
REMARK H PARENT 21 5 17 10 26 36 76 55 50 66
REMARK Flexibility Score: inf
ROOT
ATOM      1  C   UNL     1       1.509   3.268   0.111  1.00  0.00     0.116 C 
ENDROOT
BRANCH   1   2
ATOM      2  N   UNL     1       2.320   3.599  -1.043  1.00  0.00    -0.354 N 
ATOM      3  C   UNL     1       2.866   2.750  -1.972  1.00  0.00     0.247 C 
ATOM      4  O   UNL     1       3.802   3.203  -2.636  1.00  0.00    -0.272 OA
ATOM      5  H   UNL     1       2.504   4.557  -1.178  1.00  0.00     0.163 HD
BRANCH   3   6
ATOM      6  C   UNL     1       2.343   1.286  -2.095  1.00  0.00     0.202 C 
BRANCH   6   7
ATOM      7  N   UNL     1       2.989   0.520  -1.032  1.00  0.00    -0.339 N 
ATOM      8  O   UNL     1       1.086  -0.024   0.121  1.00  0.00    -0.273 OA
ATOM      9  C   UNL     1       2.308  -0.078   0.005  1.00  0.00     0.242 C 
ATOM     10  H   UNL     1       3.969   0.426  -1.059  1.00  0.00     0.164 HD
BRANCH   9  11
ATOM     11  C   UNL     1       3.205  -0.690   1.079  1.00  0.00     0.248 C 
BRANCH  11  12
ATOM     12  N   UNL     1       3.981  -1.777   0.504  1.00  0.00    -0.220 N 
ATOM     13  N   UNL     1       5.013  -1.416  -0.337  1.00  0.00    -0.169 NA
ATOM     14  C   UNL     1       3.592  -3.087   0.746  1.00  0.00     0.267 A 
ATOM     15  C   UNL     1       5.622  -2.369  -0.967  1.00  0.00     0.091 A 
ATOM     16  C   UNL     1       4.358  -4.131   0.037  1.00  0.00     0.075 A 
ATOM     17  O   UNL     1       2.677  -3.427   1.490  1.00  0.00    -0.268 OA
ATOM     18  C   UNL     1       5.335  -3.808  -0.811  1.00  0.00     0.036 A 
BRANCH  15  19
ATOM     19  C   UNL     1       6.688  -2.024  -1.925  1.00  0.00     0.002 A 
ATOM     20  C   UNL     1       7.804  -1.314  -1.475  1.00  0.00     0.010 A 
ATOM     21  C   UNL     1       6.545  -2.352  -3.276  1.00  0.00     0.010 A 
ATOM     22  C   UNL     1       8.797  -0.951  -2.384  1.00  0.00     0.001 A 
ATOM     23  C   UNL     1       7.537  -1.977  -4.181  1.00  0.00     0.001 A 
ATOM     24  C   UNL     1       8.662  -1.282  -3.733  1.00  0.00     0.000 A 
ENDBRANCH  15  19
ENDBRANCH  11  12
ENDBRANCH   9  11
ENDBRANCH   6   7
BRANCH   6  25
ATOM     25  C   UNL     1       2.566   0.632  -3.464  1.00  0.00    -0.016 A 
ATOM     26  C   UNL     1       2.615   1.385  -4.651  1.00  0.00     0.006 A 
ATOM     27  C   UNL     1       2.624  -0.770  -3.582  1.00  0.00     0.006 A 
ATOM     28  C   UNL     1       2.778   0.767  -5.895  1.00  0.00     0.000 A 
ATOM     29  C   UNL     1       2.778  -1.388  -4.826  1.00  0.00     0.000 A 
ATOM     30  C   UNL     1       2.864  -0.618  -5.982  1.00  0.00     0.000 A 
ENDBRANCH   6  25
ENDBRANCH   3   6
ENDBRANCH   1   2
BRANCH   1  31
ATOM     31  C   UNL     1       2.387   3.080   1.351  1.00  0.00     0.023 C 
BRANCH  31  32
ATOM     32  C   UNL     1       3.050   4.363   1.859  1.00  0.00     0.023 C 
BRANCH  32  33
ATOM     33  C   UNL     1       2.086   5.476   2.242  1.00  0.00     0.116 C 
BRANCH  33  34
ATOM     34  N   UNL     1       1.177   5.110   3.317  1.00  0.00    -0.352 N 
ATOM     35  C   UNL     1       0.672   5.913   4.314  1.00  0.00     0.251 C 
ATOM     36  H   UNL     1       0.886   4.169   3.334  1.00  0.00     0.163 HD
ATOM     37  O   UNL     1      -0.003   5.439   5.221  1.00  0.00    -0.269 OA
BRANCH  35  38
ATOM     38  C   UNL     1       1.000   7.354   4.305  1.00  0.00     0.039 A 
ATOM     39  C   UNL     1       0.863   8.104   3.136  1.00  0.00     0.014 A 
ATOM     40  C   UNL     1       1.518   7.938   5.464  1.00  0.00     0.014 A 
ATOM     41  C   UNL     1       1.401   9.384   3.075  1.00  0.00     0.010 A 
ATOM     42  C   UNL     1       1.988   9.253   5.422  1.00  0.00     0.010 A 
ATOM     43  C   UNL     1       1.985   9.966   4.212  1.00  0.00    -0.014 A 
BRANCH  43  44
ATOM     44  C   UNL     1       2.618  11.305   4.102  1.00  0.00     0.031 A 
ATOM     45  C   UNL     1       4.106  11.464   4.272  1.00  0.00     0.074 A 
ATOM     46  C   UNL     1       1.859  12.371   3.788  1.00  0.00     0.049 A 
ATOM     47  N   UNL     1       4.834  12.551   4.196  1.00  0.00    -0.248 NA
ATOM     48  C   UNL     1       4.877  10.247   4.567  1.00  0.00     0.031 C 
ATOM     49  C   UNL     1       0.409  12.343   3.582  1.00  0.00     0.029 A 
ATOM     50  N   UNL     1       2.203  13.679   3.563  1.00  0.00    -0.354 N 
ATOM     51  C   UNL     1       6.140  12.152   4.453  1.00  0.00     0.074 A 
ATOM     52  C   UNL     1       6.103  10.730   4.714  1.00  0.00     0.031 C 
ATOM     53  C   UNL     1      -0.004  13.566   3.215  1.00  0.00     0.029 A 
ATOM     54  C   UNL     1       1.138  14.473   3.216  1.00  0.00     0.049 A 
ATOM     55  H   UNL     1       3.125  14.015   3.643  1.00  0.00     0.167 HD
ATOM     56  C   UNL     1       7.270  12.900   4.457  1.00  0.00     0.037 A 
ATOM     57  C   UNL     1       1.086  15.789   2.942  1.00  0.00     0.037 A 
ATOM     58  C   UNL     1       7.313  14.312   4.176  1.00  0.00     0.049 A 
ATOM     59  C   UNL     1       2.346  16.602   3.002  1.00  0.00     0.074 A 
ATOM     60  C   UNL     1       8.412  15.152   4.133  1.00  0.00     0.029 A 
ATOM     61  N   UNL     1       6.204  15.092   3.888  1.00  0.00    -0.354 N 
ATOM     62  N   UNL     1       3.573  16.210   3.241  1.00  0.00    -0.248 NA
ATOM     63  C   UNL     1       2.208  18.046   2.767  1.00  0.00     0.031 C 
ATOM     64  C   UNL     1       7.963  16.449   3.855  1.00  0.00     0.029 A 
ATOM     65  C   UNL     1       6.589  16.408   3.688  1.00  0.00     0.049 A 
ATOM     66  H   UNL     1       5.278  14.760   3.834  1.00  0.00     0.167 HD
ATOM     67  C   UNL     1       4.356  17.355   3.176  1.00  0.00     0.074 A 
ATOM     68  C   UNL     1       3.467  18.452   2.850  1.00  0.00     0.031 C 
ATOM     69  C   UNL     1       5.690  17.488   3.374  1.00  0.00     0.037 A 
BRANCH  56  70
ATOM     70  C   UNL     1       8.557  12.204   4.794  1.00  0.00     0.057 A 
ATOM     71  C   UNL     1       9.191  12.430   6.022  1.00  0.00     0.134 A 
ATOM     72  C   UNL     1       9.182  11.331   3.895  1.00  0.00     0.134 A 
ATOM     73  F   UNL     1       8.648  13.259   6.926  1.00  0.00    -0.206 F 
ATOM     74  C   UNL     1      10.400  11.812   6.345  1.00  0.00     0.040 A 
ATOM     75  C   UNL     1      10.380  10.689   4.215  1.00  0.00     0.040 A 
ATOM     76  F   UNL     1       8.620  11.060   2.707  1.00  0.00    -0.206 F 
ATOM     77  C   UNL     1      10.995  10.933   5.441  1.00  0.00     0.006 A 
ENDBRANCH  56  70
BRANCH  57  78
ATOM     78  C   UNL     1      -0.209  16.424   2.598  1.00  0.00     0.057 A 
ATOM     79  C   UNL     1      -1.216  16.589   3.556  1.00  0.00     0.134 A 
ATOM     80  C   UNL     1      -0.464  16.890   1.304  1.00  0.00     0.134 A 
ATOM     81  F   UNL     1      -1.032  16.160   4.814  1.00  0.00    -0.206 F 
ATOM     82  C   UNL     1      -2.436  17.186   3.238  1.00  0.00     0.040 A 
ATOM     83  C   UNL     1      -1.669  17.512   0.977  1.00  0.00     0.040 A 
ATOM     84  F   UNL     1       0.472  16.777   0.350  1.00  0.00    -0.206 F 
ATOM     85  C   UNL     1      -2.662  17.657   1.946  1.00  0.00     0.006 A 
ENDBRANCH  57  78
BRANCH  69  86
ATOM     86  C   UNL     1       6.258  18.867   3.230  1.00  0.00     0.057 A 
ATOM     87  C   UNL     1       7.025  19.213   2.110  1.00  0.00     0.134 A 
ATOM     88  C   UNL     1       6.048  19.853   4.202  1.00  0.00     0.134 A 
ATOM     89  F   UNL     1       7.267  18.313   1.145  1.00  0.00    -0.206 F 
ATOM     90  C   UNL     1       7.560  20.493   1.962  1.00  0.00     0.040 A 
ATOM     91  C   UNL     1       6.558  21.143   4.053  1.00  0.00     0.040 A 
ATOM     92  F   UNL     1       5.307  19.588   5.289  1.00  0.00    -0.206 F 
ATOM     93  C   UNL     1       7.320  21.465   2.932  1.00  0.00     0.006 A 
ENDBRANCH  69  86
ENDBRANCH  43  44
ENDBRANCH  35  38
ENDBRANCH  33  34
ENDBRANCH  32  33
ENDBRANCH  31  32
ENDBRANCH   1  31
TORSDOF 16
