REMARK SMILES O=C(NCCCCNC(=O)c1cc2n[nH]cc2cc1[N+](=O)[O-])c1ccc(-c2c3nc(c(-c4c(F)cccc4F)c4ccc([nH]4)c(-c4c(F)cccc4F)c4nc(c(-c5c(F)cccc5F)c5ccc2[nH]5)C=C4)C=C3)cc1
REMARK SMILES IDX 5 1 4 2 3 3 1 4 2 5 23 7 24 8 76 9 25 10 75 11 26 12 27 13
REMARK SMILES IDX 28 14 69 15 29 16 74 17 68 18 70 19 30 20 73 21 67 22 66 23
REMARK SMILES IDX 31 25 57 26 40 27 56 28 41 29 44 30 55 31 71 32 42 33 43 34
REMARK SMILES IDX 54 36 72 37 45 38 32 39 33 40 38 41 34 42 35 43 37 44 39 45
REMARK SMILES IDX 36 46 58 47 59 48 64 49 60 50 61 51 63 52 65 53 62 54 46 55
REMARK SMILES IDX 47 56 52 57 48 58 49 59 51 60 53 61 50 62 6 63 7 64 8 65
REMARK SMILES IDX 9 66 10 68 11 69 12 70 19 71 13 72 18 73 14 74 17 75 15 76
REMARK SMILES IDX 16 77 20 79 21 80 22 81
REMARK H PARENT 3 6 70 24 44 35 8 67 15 78
REMARK Flexibility Score: inf
ROOT
ATOM      1  C   UNL     1       4.878  -0.207  -2.883  1.00  0.00     0.023 C 
ENDROOT
BRANCH   1   2
ATOM      2  C   UNL     1       4.572   0.327  -1.490  1.00  0.00     0.116 C 
BRANCH   2   3
ATOM      3  N   UNL     1       3.149   0.408  -1.201  1.00  0.00    -0.352 N 
ATOM      4  O   UNL     1       1.220  -0.046  -0.117  1.00  0.00    -0.269 OA
ATOM      5  C   UNL     1       2.444  -0.119  -0.142  1.00  0.00     0.251 C 
ATOM      6  H   UNL     1       2.613   0.912  -1.855  1.00  0.00     0.163 HD
BRANCH   5   7
ATOM      7  C   UNL     1       3.165  -0.809   0.951  1.00  0.00     0.039 A 
ATOM      8  C   UNL     1       4.324  -0.257   1.497  1.00  0.00     0.014 A 
ATOM      9  C   UNL     1       2.687  -2.037   1.419  1.00  0.00     0.014 A 
ATOM     10  C   UNL     1       5.095  -1.008   2.375  1.00  0.00     0.010 A 
ATOM     11  C   UNL     1       3.415  -2.749   2.378  1.00  0.00     0.010 A 
ATOM     12  C   UNL     1       4.648  -2.260   2.833  1.00  0.00    -0.014 A 
BRANCH  12  13
ATOM     13  C   UNL     1       5.481  -2.995   3.819  1.00  0.00     0.031 A 
ATOM     14  C   UNL     1       6.128  -4.310   3.479  1.00  0.00     0.074 A 
ATOM     15  C   UNL     1       5.714  -2.418   5.014  1.00  0.00     0.049 A 
ATOM     16  N   UNL     1       6.958  -5.026   4.197  1.00  0.00    -0.248 NA
ATOM     17  C   UNL     1       5.800  -4.904   2.175  1.00  0.00     0.031 C 
ATOM     18  C   UNL     1       5.121  -1.157   5.467  1.00  0.00     0.029 A 
ATOM     19  N   UNL     1       6.537  -2.788   6.045  1.00  0.00    -0.354 N 
ATOM     20  C   UNL     1       7.241  -6.157   3.441  1.00  0.00     0.074 A 
ATOM     21  C   UNL     1       6.474  -6.047   2.219  1.00  0.00     0.031 C 
ATOM     22  C   UNL     1       5.651  -0.824   6.652  1.00  0.00     0.029 A 
ATOM     23  C   UNL     1       6.579  -1.870   7.066  1.00  0.00     0.049 A 
ATOM     24  H   UNL     1       7.048  -3.630   6.054  1.00  0.00     0.167 HD
ATOM     25  C   UNL     1       8.071  -7.186   3.737  1.00  0.00     0.037 A 
ATOM     26  C   UNL     1       7.287  -1.866   8.210  1.00  0.00     0.037 A 
ATOM     27  C   UNL     1       8.846  -7.287   4.948  1.00  0.00     0.049 A 
ATOM     28  C   UNL     1       8.219  -3.004   8.496  1.00  0.00     0.074 A 
ATOM     29  C   UNL     1       9.718  -8.292   5.335  1.00  0.00     0.029 A 
ATOM     30  N   UNL     1       8.848  -6.345   5.965  1.00  0.00    -0.354 N 
ATOM     31  N   UNL     1       8.480  -4.059   7.765  1.00  0.00    -0.248 NA
ATOM     32  C   UNL     1       8.952  -2.952   9.768  1.00  0.00     0.031 C 
ATOM     33  C   UNL     1      10.228  -7.969   6.597  1.00  0.00     0.029 A 
ATOM     34  C   UNL     1       9.700  -6.747   6.981  1.00  0.00     0.049 A 
ATOM     35  H   UNL     1       8.322  -5.513   5.965  1.00  0.00     0.167 HD
ATOM     36  C   UNL     1       9.403  -4.801   8.488  1.00  0.00     0.074 A 
ATOM     37  C   UNL     1       9.684  -4.055   9.698  1.00  0.00     0.031 C 
ATOM     38  C   UNL     1       9.957  -5.999   8.184  1.00  0.00     0.037 A 
BRANCH  25  39
ATOM     39  C   UNL     1       8.186  -8.297   2.734  1.00  0.00     0.057 A 
ATOM     40  C   UNL     1       8.910  -8.142   1.545  1.00  0.00     0.134 A 
ATOM     41  C   UNL     1       7.618  -9.552   2.986  1.00  0.00     0.134 A 
ATOM     42  F   UNL     1       9.469  -6.962   1.239  1.00  0.00    -0.206 F 
ATOM     43  C   UNL     1       9.055  -9.193   0.637  1.00  0.00     0.040 A 
ATOM     44  C   UNL     1       7.772 -10.616   2.095  1.00  0.00     0.040 A 
ATOM     45  F   UNL     1       6.917  -9.769   4.109  1.00  0.00    -0.206 F 
ATOM     46  C   UNL     1       8.491 -10.437   0.915  1.00  0.00     0.006 A 
ENDBRANCH  25  39
BRANCH  26  47
ATOM     47  C   UNL     1       7.136  -0.739   9.161  1.00  0.00     0.057 A 
ATOM     48  C   UNL     1       8.160   0.194   9.350  1.00  0.00     0.134 A 
ATOM     49  C   UNL     1       5.952  -0.558   9.887  1.00  0.00     0.134 A 
ATOM     50  F   UNL     1       9.322   0.064   8.694  1.00  0.00    -0.206 F 
ATOM     51  C   UNL     1       8.018   1.262  10.237  1.00  0.00     0.040 A 
ATOM     52  C   UNL     1       5.787   0.519  10.757  1.00  0.00     0.040 A 
ATOM     53  F   UNL     1       4.931  -1.415   9.741  1.00  0.00    -0.206 F 
ATOM     54  C   UNL     1       6.825   1.430  10.938  1.00  0.00     0.006 A 
ENDBRANCH  26  47
BRANCH  38  55
ATOM     55  C   UNL     1      10.917  -6.567   9.183  1.00  0.00     0.057 A 
ATOM     56  C   UNL     1      10.471  -7.120  10.391  1.00  0.00     0.134 A 
ATOM     57  C   UNL     1      12.295  -6.564   8.939  1.00  0.00     0.134 A 
ATOM     58  F   UNL     1       9.163  -7.138  10.688  1.00  0.00    -0.206 F 
ATOM     59  C   UNL     1      11.367  -7.627  11.333  1.00  0.00     0.040 A 
ATOM     60  C   UNL     1      13.198  -7.086   9.865  1.00  0.00     0.040 A 
ATOM     61  F   UNL     1      12.783  -6.052   7.799  1.00  0.00    -0.206 F 
ATOM     62  C   UNL     1      12.735  -7.613  11.069  1.00  0.00     0.006 A 
ENDBRANCH  38  55
ENDBRANCH  12  13
ENDBRANCH   5   7
ENDBRANCH   2   3
ENDBRANCH   1   2
BRANCH   1  63
ATOM     63  C   UNL     1       4.383   0.652  -4.043  1.00  0.00     0.023 C 
BRANCH  63  64
ATOM     64  C   UNL     1       4.737   2.133  -3.959  1.00  0.00     0.116 C 
BRANCH  64  65
ATOM     65  N   UNL     1       6.168   2.375  -3.841  1.00  0.00    -0.352 N 
ATOM     66  C   UNL     1       6.984   3.164  -4.609  1.00  0.00     0.258 C 
ATOM     67  H   UNL     1       6.614   1.903  -3.102  1.00  0.00     0.163 HD
ATOM     68  O   UNL     1       8.194   3.205  -4.419  1.00  0.00    -0.269 OA
BRANCH  66  69
ATOM     69  C   UNL     1       6.398   3.923  -5.724  1.00  0.00     0.119 A 
ATOM     70  C   UNL     1       6.745   3.460  -7.015  1.00  0.00     0.052 A 
ATOM     71  C   UNL     1       5.477   4.997  -5.492  1.00  0.00     0.282 A 
ATOM     72  C   UNL     1       6.038   4.104  -8.040  1.00  0.00     0.093 A 
ATOM     73  C   UNL     1       4.750   5.668  -6.503  1.00  0.00     0.098 A 
ATOM     74  N   UNL     1       6.066   3.898  -9.365  1.00  0.00    -0.176 NA
ATOM     75  C   UNL     1       5.086   5.150  -7.747  1.00  0.00     0.026 A 
ATOM     76  N   UNL     1       5.171   4.766  -9.873  1.00  0.00    -0.285 N 
ATOM     77  C   UNL     1       4.544   5.540  -8.938  1.00  0.00     0.114 A 
ATOM     78  H   UNL     1       4.983   4.837 -10.837  1.00  0.00     0.189 HD
BRANCH  71  79
ATOM     79  N   UNL     1       5.225   5.422  -4.125  1.00  0.00     0.063 N 
ATOM     80  O   UNL     1       4.048   5.384  -3.741  1.00  0.00    -0.258 OA
ATOM     81  O   UNL     1       6.190   5.808  -3.457  1.00  0.00    -0.258 OA
ENDBRANCH  71  79
ENDBRANCH  66  69
ENDBRANCH  64  65
ENDBRANCH  63  64
ENDBRANCH   1  63
TORSDOF 12
