REMARK SMILES O=C(NCCCCNC(=O)c1cccnc1C[N@@H+]1CCC[C@H]1c1ccccn1)c1ccc(-c2c3nc(c(-c4c(F)cccc4F)c4ccc([nH]4)c(-c4c(F)cccc4F)c4nc(c(-c5c(F)cccc5F)c5ccc2[nH]5)C=C4)C=C3)cc1
REMARK SMILES IDX 6 1 5 2 4 3 3 4 1 5 2 6 29 8 30 9 82 10 31 11 81 12 32 13
REMARK SMILES IDX 33 14 34 15 75 16 35 17 80 18 74 19 76 20 36 21 79 22 73 23
REMARK SMILES IDX 72 24 37 26 63 27 46 28 62 29 47 30 50 31 61 32 77 33 48 34
REMARK SMILES IDX 49 35 60 37 78 38 51 39 38 40 39 41 44 42 40 43 41 44 43 45
REMARK SMILES IDX 45 46 42 47 64 48 65 49 70 50 66 51 67 52 69 53 71 54 68 55
REMARK SMILES IDX 52 56 53 57 58 58 54 59 55 60 57 61 59 62 56 63 7 64 8 65
REMARK SMILES IDX 9 66 10 68 11 69 12 70 16 71 13 72 15 73 14 74 17 75 18 76
REMARK SMILES IDX 19 77 22 78 20 80 21 81 23 82 24 83 28 84 25 85 27 86 26 87
REMARK H PARENT 3 7 76 25 50 36 8 67 18 79
REMARK Flexibility Score: inf
ROOT
ATOM      1  C   UNL     1       4.350  -3.102   2.182  1.00  0.00     0.023 C 
ENDROOT
BRANCH   1   2
ATOM      2  C   UNL     1       4.823  -1.681   1.883  1.00  0.00     0.023 C 
BRANCH   2   3
ATOM      3  C   UNL     1       4.486  -1.163   0.491  1.00  0.00     0.116 C 
BRANCH   3   4
ATOM      4  N   UNL     1       3.054  -1.065   0.252  1.00  0.00    -0.352 N 
ATOM      5  O   UNL     1       1.073  -0.044  -0.103  1.00  0.00    -0.269 OA
ATOM      6  C   UNL     1       2.293   0.035  -0.074  1.00  0.00     0.251 C 
ATOM      7  H   UNL     1       2.555  -1.909   0.336  1.00  0.00     0.163 HD
BRANCH   6   8
ATOM      8  C   UNL     1       2.958   1.326  -0.362  1.00  0.00     0.039 A 
ATOM      9  C   UNL     1       4.078   1.381  -1.194  1.00  0.00     0.014 A 
ATOM     10  C   UNL     1       2.455   2.494   0.217  1.00  0.00     0.014 A 
ATOM     11  C   UNL     1       4.788   2.569  -1.315  1.00  0.00     0.010 A 
ATOM     12  C   UNL     1       3.117   3.708   0.015  1.00  0.00     0.010 A 
ATOM     13  C   UNL     1       4.310   3.749  -0.724  1.00  0.00    -0.014 A 
BRANCH  13  14
ATOM     14  C   UNL     1       5.042   5.023  -0.942  1.00  0.00     0.031 A 
ATOM     15  C   UNL     1       5.673   5.766   0.202  1.00  0.00     0.074 A 
ATOM     16  C   UNL     1       5.150   5.498  -2.198  1.00  0.00     0.049 A 
ATOM     17  N   UNL     1       6.340   6.894   0.183  1.00  0.00    -0.248 NA
ATOM     18  C   UNL     1       5.532   5.176   1.541  1.00  0.00     0.031 C 
ATOM     19  C   UNL     1       4.575   4.867  -3.389  1.00  0.00     0.029 A 
ATOM     20  N   UNL     1       5.787   6.609  -2.686  1.00  0.00    -0.354 N 
ATOM     21  C   UNL     1       6.683   7.157   1.504  1.00  0.00     0.074 A 
ATOM     22  C   UNL     1       6.126   6.085   2.303  1.00  0.00     0.031 C 
ATOM     23  C   UNL     1       4.918   5.578  -4.472  1.00  0.00     0.029 A 
ATOM     24  C   UNL     1       5.677   6.748  -4.048  1.00  0.00     0.049 A 
ATOM     25  H   UNL     1       6.277   7.245  -2.116  1.00  0.00     0.167 HD
ATOM     26  C   UNL     1       7.403   8.192   2.000  1.00  0.00     0.037 A 
ATOM     27  C   UNL     1       6.116   7.721  -4.867  1.00  0.00     0.037 A 
ATOM     28  C   UNL     1       7.963   9.250   1.197  1.00  0.00     0.049 A 
ATOM     29  C   UNL     1       6.877   8.875  -4.285  1.00  0.00     0.074 A 
ATOM     30  C   UNL     1       8.736  10.325   1.603  1.00  0.00     0.029 A 
ATOM     31  N   UNL     1       7.804   9.371  -0.176  1.00  0.00    -0.354 N 
ATOM     32  N   UNL     1       7.221   9.093  -3.039  1.00  0.00    -0.248 NA
ATOM     33  C   UNL     1       7.307   9.921  -5.221  1.00  0.00     0.031 C 
ATOM     34  C   UNL     1       9.000  11.123   0.485  1.00  0.00     0.029 A 
ATOM     35  C   UNL     1       8.441  10.517  -0.628  1.00  0.00     0.049 A 
ATOM     36  H   UNL     1       7.311   8.737  -0.746  1.00  0.00     0.167 HD
ATOM     37  C   UNL     1       7.926  10.288  -3.044  1.00  0.00     0.074 A 
ATOM     38  C   UNL     1       7.976  10.738  -4.420  1.00  0.00     0.031 C 
ATOM     39  C   UNL     1       8.483  10.953  -2.002  1.00  0.00     0.037 A 
BRANCH  26  40
ATOM     40  C   UNL     1       7.611   8.248   3.488  1.00  0.00     0.057 A 
ATOM     41  C   UNL     1       8.452   7.348   4.156  1.00  0.00     0.134 A 
ATOM     42  C   UNL     1       6.995   9.245   4.257  1.00  0.00     0.134 A 
ATOM     43  F   UNL     1       9.066   6.364   3.482  1.00  0.00    -0.206 F 
ATOM     44  C   UNL     1       8.654   7.423   5.536  1.00  0.00     0.040 A 
ATOM     45  C   UNL     1       7.210   9.346   5.633  1.00  0.00     0.040 A 
ATOM     46  F   UNL     1       6.184  10.145   3.682  1.00  0.00    -0.206 F 
ATOM     47  C   UNL     1       8.037   8.429   6.277  1.00  0.00     0.006 A 
ENDBRANCH  26  40
BRANCH  27  48
ATOM     48  C   UNL     1       5.834   7.642  -6.321  1.00  0.00     0.057 A 
ATOM     49  C   UNL     1       6.858   7.420  -7.247  1.00  0.00     0.134 A 
ATOM     50  C   UNL     1       4.530   7.771  -6.817  1.00  0.00     0.134 A 
ATOM     51  F   UNL     1       8.129   7.303  -6.834  1.00  0.00    -0.206 F 
ATOM     52  C   UNL     1       6.600   7.345  -8.617  1.00  0.00     0.040 A 
ATOM     53  C   UNL     1       4.253   7.668  -8.181  1.00  0.00     0.040 A 
ATOM     54  F   UNL     1       3.503   7.975  -5.979  1.00  0.00    -0.206 F 
ATOM     55  C   UNL     1       5.292   7.462  -9.085  1.00  0.00     0.006 A 
ENDBRANCH  27  48
BRANCH  39  56
ATOM     56  C   UNL     1       9.223  12.219  -2.318  1.00  0.00     0.057 A 
ATOM     57  C   UNL     1       8.558  13.392  -2.699  1.00  0.00     0.134 A 
ATOM     58  C   UNL     1      10.619  12.272  -2.214  1.00  0.00     0.134 A 
ATOM     59  F   UNL     1       7.223  13.403  -2.833  1.00  0.00    -0.206 F 
ATOM     60  C   UNL     1       9.257  14.565  -2.990  1.00  0.00     0.040 A 
ATOM     61  C   UNL     1      11.326  13.447  -2.474  1.00  0.00     0.040 A 
ATOM     62  F   UNL     1      11.317  11.187  -1.847  1.00  0.00    -0.206 F 
ATOM     63  C   UNL     1      10.645  14.595  -2.871  1.00  0.00     0.006 A 
ENDBRANCH  39  56
ENDBRANCH  13  14
ENDBRANCH   6   8
ENDBRANCH   3   4
ENDBRANCH   2   3
ENDBRANCH   1   2
BRANCH   1  64
ATOM     64  C   UNL     1       4.750  -4.154   1.153  1.00  0.00     0.116 C 
BRANCH  64  65
ATOM     65  N   UNL     1       6.187  -4.229   0.953  1.00  0.00    -0.352 N 
ATOM     66  C   UNL     1       7.003  -5.330   0.958  1.00  0.00     0.253 C 
ATOM     67  H   UNL     1       6.638  -3.369   0.792  1.00  0.00     0.163 HD
ATOM     68  O   UNL     1       8.212  -5.211   0.791  1.00  0.00    -0.269 OA
BRANCH  66  69
ATOM     69  C   UNL     1       6.418  -6.669   1.126  1.00  0.00     0.067 A 
ATOM     70  C   UNL     1       5.492  -7.117   0.173  1.00  0.00     0.017 A 
ATOM     71  C   UNL     1       6.801  -7.523   2.162  1.00  0.00     0.107 A 
ATOM     72  C   UNL     1       4.941  -8.386   0.292  1.00  0.00     0.021 A 
ATOM     73  N   UNL     1       6.290  -8.788   2.246  1.00  0.00    -0.254 NA
ATOM     74  C   UNL     1       5.375  -9.181   1.332  1.00  0.00     0.111 A 
BRANCH  71  75
ATOM     75  C   UNL     1       7.786  -7.120   3.255  1.00  0.00     0.321 C 
BRANCH  75  76
ATOM     76  N   UNL     1       7.283  -7.025   4.646  1.00  0.00    -0.322 N 
ATOM     77  C   UNL     1       6.747  -8.277   5.175  1.00  0.00     0.263 C 
ATOM     78  C   UNL     1       6.270  -5.970   4.842  1.00  0.00     0.234 C 
ATOM     79  H   UNL     1       8.125  -6.782   5.168  1.00  0.00     0.349 HD
ATOM     80  C   UNL     1       5.233  -8.160   5.165  1.00  0.00     0.068 C 
ATOM     81  C   UNL     1       4.923  -6.680   5.004  1.00  0.00     0.078 C 
BRANCH  78  82
ATOM     82  C   UNL     1       6.560  -5.047   6.027  1.00  0.00     0.098 A 
ATOM     83  C   UNL     1       6.750  -5.542   7.320  1.00  0.00     0.030 A 
ATOM     84  N   UNL     1       6.554  -3.710   5.772  1.00  0.00    -0.255 NA
ATOM     85  C   UNL     1       6.942  -4.652   8.374  1.00  0.00     0.004 A 
ATOM     86  C   UNL     1       6.759  -2.871   6.813  1.00  0.00     0.111 A 
ATOM     87  C   UNL     1       6.949  -3.289   8.118  1.00  0.00     0.020 A 
ENDBRANCH  78  82
ENDBRANCH  75  76
ENDBRANCH  71  75
ENDBRANCH  66  69
ENDBRANCH  64  65
ENDBRANCH   1  64
TORSDOF 14
