REMARK SMILES O=C(NCCCCNC(=O)[C@@H]1CCC[N@@H+](Cc2cccc3ccccc23)C1)c1ccc(-c2c3nc(c(-c4c(F)cccc4F)c4ccc([nH]4)c(-c4c(F)cccc4F)c4nc(c(-c5c(F)cccc5F)c5ccc2[nH]5)C=C4)C=C3)cc1
REMARK SMILES IDX 5 1 4 2 3 3 1 4 2 5 28 7 29 8 81 9 30 10 80 11 31 12 32 13
REMARK SMILES IDX 33 14 74 15 34 16 79 17 73 18 75 19 35 20 78 21 72 22 71 23
REMARK SMILES IDX 36 25 62 26 45 27 61 28 46 29 49 30 60 31 76 32 47 33 48 34
REMARK SMILES IDX 59 36 77 37 50 38 37 39 38 40 43 41 39 42 40 43 42 44 44 45
REMARK SMILES IDX 41 46 63 47 64 48 69 49 65 50 66 51 68 52 70 53 67 54 51 55
REMARK SMILES IDX 52 56 57 57 53 58 54 59 56 60 58 61 55 62 6 63 7 64 8 65
REMARK SMILES IDX 9 66 10 68 11 69 12 70 27 71 13 72 15 73 14 74 16 76 17 77
REMARK SMILES IDX 18 78 26 79 19 80 21 81 25 82 20 83 22 84 24 85 23 86
REMARK H PARENT 3 6 75 24 49 35 8 67 15 75
REMARK Flexibility Score: inf
ROOT
ATOM      1  C   UNL     1       5.949   0.537  -2.011  1.00  0.00     0.023 C 
ENDROOT
BRANCH   1   2
ATOM      2  C   UNL     1       5.088   0.905  -0.802  1.00  0.00     0.116 C 
BRANCH   2   3
ATOM      3  N   UNL     1       3.645   0.772  -0.991  1.00  0.00    -0.352 N 
ATOM      4  O   UNL     1       1.550  -0.052  -0.782  1.00  0.00    -0.269 OA
ATOM      5  C   UNL     1       2.744  -0.158  -0.514  1.00  0.00     0.251 C 
ATOM      6  H   UNL     1       3.245   1.469  -1.560  1.00  0.00     0.163 HD
BRANCH   5   7
ATOM      7  C   UNL     1       3.215  -1.331   0.251  1.00  0.00     0.039 A 
ATOM      8  C   UNL     1       4.147  -1.190   1.271  1.00  0.00     0.014 A 
ATOM      9  C   UNL     1       2.768  -2.606  -0.113  1.00  0.00     0.014 A 
ATOM     10  C   UNL     1       4.842  -2.307   1.711  1.00  0.00     0.010 A 
ATOM     11  C   UNL     1       3.372  -3.740   0.441  1.00  0.00     0.010 A 
ATOM     12  C   UNL     1       4.473  -3.598   1.297  1.00  0.00    -0.014 A 
BRANCH  12  13
ATOM     13  C   UNL     1       5.267  -4.761   1.778  1.00  0.00     0.031 A 
ATOM     14  C   UNL     1       5.995  -5.666   0.816  1.00  0.00     0.074 A 
ATOM     15  C   UNL     1       5.406  -4.943   3.106  1.00  0.00     0.049 A 
ATOM     16  N   UNL     1       6.765  -6.694   1.076  1.00  0.00    -0.248 NA
ATOM     17  C   UNL     1       5.837  -5.394  -0.622  1.00  0.00     0.031 C 
ATOM     18  C   UNL     1       4.748  -4.137   4.139  1.00  0.00     0.029 A 
ATOM     19  N   UNL     1       6.176  -5.825   3.818  1.00  0.00    -0.354 N 
ATOM     20  C   UNL     1       7.152  -7.208  -0.157  1.00  0.00     0.074 A 
ATOM     21  C   UNL     1       6.522  -6.389  -1.169  1.00  0.00     0.031 C 
ATOM     22  C   UNL     1       5.205  -4.504   5.343  1.00  0.00     0.029 A 
ATOM     23  C   UNL     1       6.123  -5.624   5.176  1.00  0.00     0.049 A 
ATOM     24  H   UNL     1       6.715  -6.534   3.398  1.00  0.00     0.167 HD
ATOM     25  C   UNL     1       7.962  -8.262  -0.418  1.00  0.00     0.037 A 
ATOM     26  C   UNL     1       6.732  -6.276   6.183  1.00  0.00     0.037 A 
ATOM     27  C   UNL     1       8.619  -9.053   0.592  1.00  0.00     0.049 A 
ATOM     28  C   UNL     1       7.633  -7.429   5.862  1.00  0.00     0.074 A 
ATOM     29  C   UNL     1       9.470 -10.132   0.425  1.00  0.00     0.029 A 
ATOM     30  N   UNL     1       8.508  -8.840   1.957  1.00  0.00    -0.354 N 
ATOM     31  N   UNL     1       7.972  -7.908   4.690  1.00  0.00    -0.248 NA
ATOM     32  C   UNL     1       8.225  -8.141   7.002  1.00  0.00     0.031 C 
ATOM     33  C   UNL     1       9.851 -10.591   1.691  1.00  0.00     0.029 A 
ATOM     34  C   UNL     1       9.267  -9.774   2.645  1.00  0.00     0.049 A 
ATOM     35  H   UNL     1       7.971  -8.130   2.377  1.00  0.00     0.167 HD
ATOM     36  C   UNL     1       8.809  -8.982   4.950  1.00  0.00     0.074 A 
ATOM     37  C   UNL     1       8.958  -9.059   6.389  1.00  0.00     0.031 C 
ATOM     38  C   UNL     1       9.391  -9.839   4.077  1.00  0.00     0.037 A 
BRANCH  25  39
ATOM     39  C   UNL     1       8.182  -8.640  -1.855  1.00  0.00     0.057 A 
ATOM     40  C   UNL     1       9.015  -7.895  -2.698  1.00  0.00     0.134 A 
ATOM     41  C   UNL     1       7.610  -9.807  -2.379  1.00  0.00     0.134 A 
ATOM     42  F   UNL     1       9.585  -6.761  -2.262  1.00  0.00    -0.206 F 
ATOM     43  C   UNL     1       9.265  -8.292  -4.014  1.00  0.00     0.040 A 
ATOM     44  C   UNL     1       7.868 -10.225  -3.687  1.00  0.00     0.040 A 
ATOM     45  F   UNL     1       6.807 -10.571  -1.623  1.00  0.00    -0.206 F 
ATOM     46  C   UNL     1       8.697  -9.465  -4.508  1.00  0.00     0.006 A 
ENDBRANCH  25  39
BRANCH  26  47
ATOM     47  C   UNL     1       6.482  -5.863   7.586  1.00  0.00     0.057 A 
ATOM     48  C   UNL     1       7.484  -5.264   8.356  1.00  0.00     0.134 A 
ATOM     49  C   UNL     1       5.227  -6.041   8.181  1.00  0.00     0.134 A 
ATOM     50  F   UNL     1       8.711  -5.083   7.847  1.00  0.00    -0.206 F 
ATOM     51  C   UNL     1       7.250  -4.865   9.673  1.00  0.00     0.040 A 
ATOM     52  C   UNL     1       4.971  -5.621   9.486  1.00  0.00     0.040 A 
ATOM     53  F   UNL     1       4.223  -6.601   7.491  1.00  0.00    -0.206 F 
ATOM     54  C   UNL     1       5.987  -5.036  10.239  1.00  0.00     0.006 A 
ENDBRANCH  26  47
BRANCH  38  55
ATOM     55  C   UNL     1      10.236 -10.925   4.668  1.00  0.00     0.057 A 
ATOM     56  C   UNL     1       9.663 -12.026   5.316  1.00  0.00     0.134 A 
ATOM     57  C   UNL     1      11.632 -10.869   4.590  1.00  0.00     0.134 A 
ATOM     58  F   UNL     1       8.330 -12.127   5.436  1.00  0.00    -0.206 F 
ATOM     59  C   UNL     1      10.451 -13.021   5.894  1.00  0.00     0.040 A 
ATOM     60  C   UNL     1      12.431 -11.870   5.145  1.00  0.00     0.040 A 
ATOM     61  F   UNL     1      12.241  -9.843   3.978  1.00  0.00    -0.206 F 
ATOM     62  C   UNL     1      11.840 -12.945   5.806  1.00  0.00     0.006 A 
ENDBRANCH  38  55
ENDBRANCH  12  13
ENDBRANCH   5   7
ENDBRANCH   2   3
ENDBRANCH   1   2
BRANCH   1  63
ATOM     63  C   UNL     1       5.913   1.481  -3.212  1.00  0.00     0.023 C 
BRANCH  63  64
ATOM     64  C   UNL     1       5.971   2.971  -2.907  1.00  0.00     0.116 C 
BRANCH  64  65
ATOM     65  N   UNL     1       7.229   3.547  -2.519  1.00  0.00    -0.356 N 
ATOM     66  C   UNL     1       7.511   4.842  -2.188  1.00  0.00     0.228 C 
ATOM     67  H   UNL     1       7.991   2.924  -2.486  1.00  0.00     0.163 HD
ATOM     68  O   UNL     1       8.665   5.042  -1.784  1.00  0.00    -0.275 OA
BRANCH  66  69
ATOM     69  C   UNL     1       6.552   6.057  -2.354  1.00  0.00     0.133 C 
ATOM     70  C   UNL     1       6.606   6.955  -1.095  1.00  0.00     0.025 C 
ATOM     71  C   UNL     1       5.077   5.890  -2.736  1.00  0.00     0.276 C 
ATOM     72  C   UNL     1       5.713   6.413   0.028  1.00  0.00     0.062 C 
ATOM     73  N   UNL     1       4.338   5.289  -1.641  1.00  0.00    -0.331 N 
ATOM     74  C   UNL     1       4.284   6.102  -0.440  1.00  0.00     0.262 C 
ATOM     75  H   UNL     1       4.947   4.519  -1.364  1.00  0.00     0.348 HD
BRANCH  73  76
ATOM     76  C   UNL     1       3.189   4.456  -1.956  1.00  0.00     0.299 C 
BRANCH  76  77
ATOM     77  C   UNL     1       1.838   5.073  -2.208  1.00  0.00     0.014 A 
ATOM     78  C   UNL     1       1.684   5.861  -3.364  1.00  0.00     0.010 A 
ATOM     79  C   UNL     1       0.690   4.704  -1.440  1.00  0.00    -0.010 A 
ATOM     80  C   UNL     1       0.428   6.284  -3.776  1.00  0.00     0.001 A 
ATOM     81  C   UNL     1      -0.584   5.136  -1.885  1.00  0.00    -0.018 A 
ATOM     82  C   UNL     1       0.724   3.896  -0.274  1.00  0.00     0.009 A 
ATOM     83  C   UNL     1      -0.696   5.920  -3.043  1.00  0.00     0.009 A 
ATOM     84  C   UNL     1      -1.743   4.755  -1.188  1.00  0.00     0.009 A 
ATOM     85  C   UNL     1      -0.437   3.517   0.403  1.00  0.00     0.001 A 
ATOM     86  C   UNL     1      -1.672   3.947  -0.055  1.00  0.00     0.001 A 
ENDBRANCH  76  77
ENDBRANCH  73  76
ENDBRANCH  66  69
ENDBRANCH  64  65
ENDBRANCH  63  64
ENDBRANCH   1  63
TORSDOF 13
