REMARK SMILES CC(C)[C@@H](NC(=O)/C(=C\c1ccccc1F)NC(=O)c1ccccc1)C(=O)NCCCCNC(=O)c1ccc(-c2c3nc(c(-c4c(F)cccc4F)c4ccc([nH]4)c(-c4c(F)cccc4F)c4nc(c(-c5c(F)cccc5F)c5ccc2[nH]5)C=C4)C=C3)cc1
REMARK SMILES IDX 29 1 28 2 26 3 27 4 4 6 2 7 1 8 3 9 5 10 6 11 7 13 8 14 9 15
REMARK SMILES IDX 17 16 18 17 19 19 20 20 21 21 25 22 22 23 24 24 23 25 10 26
REMARK SMILES IDX 11 27 15 28 12 29 14 30 16 31 13 32 30 33 31 34 32 35 33 36
REMARK SMILES IDX 34 37 35 39 36 40 37 41 89 42 38 43 88 44 39 45 40 46 41 47
REMARK SMILES IDX 82 48 42 49 87 50 81 51 83 52 43 53 86 54 80 55 79 56 44 58
REMARK SMILES IDX 70 59 53 60 69 61 54 62 57 63 68 64 84 65 55 66 56 67 67 69
REMARK SMILES IDX 85 70 58 71 45 72 46 73 51 74 47 75 48 76 50 77 52 78 49 79
REMARK SMILES IDX 71 80 72 81 77 82 73 83 74 84 76 85 78 86 75 87 59 88 60 89
REMARK SMILES IDX 65 90 61 91 62 92 64 93 66 94 63 95
REMARK H PARENT 28 5 5 12 17 18 33 38 83 57 57 68
REMARK Flexibility Score: inf
ROOT
ATOM      1  C   UNL     1       0.358  -2.253  -3.525  1.00  0.00     0.116 C 
ENDROOT
BRANCH   1   2
ATOM      2  N   UNL     1      -0.155  -2.910  -2.350  1.00  0.00    -0.354 N 
ATOM      3  C   UNL     1      -0.030  -2.433  -1.085  1.00  0.00     0.242 C 
ATOM      4  O   UNL     1       0.407  -3.205  -0.230  1.00  0.00    -0.273 OA
ATOM      5  H   UNL     1      -0.629  -3.764  -2.473  1.00  0.00     0.163 HD
BRANCH   3   6
ATOM      6  C   UNL     1      -0.249  -0.946  -0.797  1.00  0.00     0.174 C 
BRANCH   6   7
ATOM      7  C   UNL     1       1.124  -0.190  -0.886  1.00  0.00     0.015 C 
ATOM      8  C   UNL     1       1.128   1.106  -0.069  1.00  0.00     0.010 C 
ATOM      9  C   UNL     1       2.321  -1.041  -0.418  1.00  0.00     0.010 C 
ENDBRANCH   6   7
BRANCH   6  10
ATOM     10  N   UNL     1      -1.301  -0.331  -1.646  1.00  0.00    -0.339 N 
ATOM     11  C   UNL     1      -2.647  -0.639  -1.660  1.00  0.00     0.268 C 
ATOM     12  H   UNL     1      -1.007   0.375  -2.266  1.00  0.00     0.164 HD
ATOM     13  O   UNL     1      -3.453   0.275  -1.479  1.00  0.00    -0.268 OA
BRANCH  11  14
ATOM     14  C   UNL     1      -3.150  -1.978  -2.159  1.00  0.00     0.107 C 
ATOM     15  C   UNL     1      -3.246  -3.093  -1.399  1.00  0.00     0.043 C 
BRANCH  14  16
ATOM     16  N   UNL     1      -3.650  -2.113  -3.451  1.00  0.00    -0.317 N 
ATOM     17  C   UNL     1      -3.860  -1.286  -4.524  1.00  0.00     0.255 C 
ATOM     18  H   UNL     1      -3.921  -3.039  -3.644  1.00  0.00     0.170 HD
ATOM     19  O   UNL     1      -4.362  -1.761  -5.545  1.00  0.00    -0.269 OA
BRANCH  17  20
ATOM     20  C   UNL     1      -3.525   0.138  -4.526  1.00  0.00     0.040 A 
ATOM     21  C   UNL     1      -4.565   1.071  -4.526  1.00  0.00     0.014 A 
ATOM     22  C   UNL     1      -2.199   0.547  -4.665  1.00  0.00     0.014 A 
ATOM     23  C   UNL     1      -4.264   2.431  -4.589  1.00  0.00     0.001 A 
ATOM     24  C   UNL     1      -1.902   1.908  -4.718  1.00  0.00     0.001 A 
ATOM     25  C   UNL     1      -2.934   2.847  -4.671  1.00  0.00     0.000 A 
ENDBRANCH  17  20
ENDBRANCH  14  16
BRANCH  15  26
ATOM     26  C   UNL     1      -2.801  -3.387  -0.033  1.00  0.00     0.012 A 
ATOM     27  C   UNL     1      -2.091  -4.587   0.161  1.00  0.00     0.011 A 
ATOM     28  C   UNL     1      -2.994  -2.547   1.061  1.00  0.00     0.130 A 
ATOM     29  C   UNL     1      -1.467  -4.854   1.381  1.00  0.00     0.001 A 
ATOM     30  C   UNL     1      -2.387  -2.817   2.286  1.00  0.00     0.040 A 
ATOM     31  F   UNL     1      -3.742  -1.442   0.947  1.00  0.00    -0.206 F 
ATOM     32  C   UNL     1      -1.592  -3.954   2.435  1.00  0.00     0.003 A 
ENDBRANCH  15  26
ENDBRANCH  11  14
ENDBRANCH   6  10
ENDBRANCH   3   6
ENDBRANCH   1   2
BRANCH   1  33
ATOM     33  C   UNL     1       1.576  -3.034  -4.006  1.00  0.00     0.023 C 
BRANCH  33  34
ATOM     34  C   UNL     1       1.189  -4.378  -4.625  1.00  0.00     0.023 C 
BRANCH  34  35
ATOM     35  C   UNL     1       0.203  -4.247  -5.777  1.00  0.00     0.116 C 
BRANCH  35  36
ATOM     36  N   UNL     1       0.688  -3.320  -6.790  1.00  0.00    -0.352 N 
ATOM     37  C   UNL     1       0.899  -3.557  -8.124  1.00  0.00     0.251 C 
ATOM     38  H   UNL     1       0.889  -2.408  -6.477  1.00  0.00     0.163 HD
ATOM     39  O   UNL     1       1.541  -2.781  -8.812  1.00  0.00    -0.269 OA
BRANCH  37  40
ATOM     40  C   UNL     1       0.335  -4.792  -8.692  1.00  0.00     0.039 A 
ATOM     41  C   UNL     1       1.163  -5.656  -9.406  1.00  0.00     0.014 A 
ATOM     42  C   UNL     1      -1.002  -5.111  -8.438  1.00  0.00     0.014 A 
ATOM     43  C   UNL     1       0.655  -6.882  -9.830  1.00  0.00     0.010 A 
ATOM     44  C   UNL     1      -1.478  -6.364  -8.786  1.00  0.00     0.010 A 
ATOM     45  C   UNL     1      -0.658  -7.255  -9.496  1.00  0.00    -0.014 A 
BRANCH  45  46
ATOM     46  C   UNL     1      -1.225  -8.557  -9.912  1.00  0.00     0.031 A 
ATOM     47  C   UNL     1      -2.400  -8.577 -10.848  1.00  0.00     0.074 A 
ATOM     48  C   UNL     1      -0.735  -9.702  -9.401  1.00  0.00     0.049 A 
ATOM     49  N   UNL     1      -3.132  -9.589 -11.232  1.00  0.00    -0.248 NA
ATOM     50  C   UNL     1      -2.828  -7.280 -11.404  1.00  0.00     0.031 C 
ATOM     51  C   UNL     1       0.390  -9.803  -8.469  1.00  0.00     0.029 A 
ATOM     52  N   UNL     1      -1.129 -11.002  -9.588  1.00  0.00    -0.354 N 
ATOM     53  C   UNL     1      -4.110  -9.051 -12.059  1.00  0.00     0.074 A 
ATOM     54  C   UNL     1      -3.917  -7.619 -12.075  1.00  0.00     0.031 C 
ATOM     55  C   UNL     1       0.613 -11.098  -8.190  1.00  0.00     0.029 A 
ATOM     56  C   UNL     1      -0.381 -11.913  -8.881  1.00  0.00     0.049 A 
ATOM     57  H   UNL     1      -1.877 -11.259 -10.174  1.00  0.00     0.167 HD
ATOM     58  C   UNL     1      -5.064  -9.699 -12.764  1.00  0.00     0.037 A 
ATOM     59  C   UNL     1      -0.493 -13.252  -8.796  1.00  0.00     0.037 A 
ATOM     60  C   UNL     1      -5.227 -11.126 -12.770  1.00  0.00     0.049 A 
ATOM     61  C   UNL     1      -1.585 -13.945  -9.567  1.00  0.00     0.074 A 
ATOM     62  C   UNL     1      -6.147 -11.882 -13.474  1.00  0.00     0.029 A 
ATOM     63  N   UNL     1      -4.445 -12.012 -12.046  1.00  0.00    -0.354 N 
ATOM     64  N   UNL     1      -2.488 -13.427 -10.363  1.00  0.00    -0.248 NA
ATOM     65  C   UNL     1      -1.675 -15.405  -9.428  1.00  0.00     0.031 C 
ATOM     66  C   UNL     1      -5.945 -13.225 -13.148  1.00  0.00     0.029 A 
ATOM     67  C   UNL     1      -4.867 -13.308 -12.281  1.00  0.00     0.049 A 
ATOM     68  H   UNL     1      -3.701 -11.757 -11.454  1.00  0.00     0.167 HD
ATOM     69  C   UNL     1      -3.227 -14.498 -10.850  1.00  0.00     0.074 A 
ATOM     70  C   UNL     1      -2.666 -15.695 -10.259  1.00  0.00     0.031 C 
ATOM     71  C   UNL     1      -4.273 -14.489 -11.709  1.00  0.00     0.037 A 
BRANCH  58  72
ATOM     72  C   UNL     1      -5.987  -8.877 -13.612  1.00  0.00     0.057 A 
ATOM     73  C   UNL     1      -7.346  -8.764 -13.291  1.00  0.00     0.134 A 
ATOM     74  C   UNL     1      -5.546  -8.259 -14.789  1.00  0.00     0.134 A 
ATOM     75  F   UNL     1      -7.834  -9.335 -12.180  1.00  0.00    -0.206 F 
ATOM     76  C   UNL     1      -8.236  -8.081 -14.121  1.00  0.00     0.040 A 
ATOM     77  C   UNL     1      -6.420  -7.551 -15.613  1.00  0.00     0.040 A 
ATOM     78  F   UNL     1      -4.253  -8.318 -15.144  1.00  0.00    -0.206 F 
ATOM     79  C   UNL     1      -7.773  -7.471 -15.285  1.00  0.00     0.006 A 
ENDBRANCH  58  72
BRANCH  59  80
ATOM     80  C   UNL     1       0.471 -14.030  -7.978  1.00  0.00     0.057 A 
ATOM     81  C   UNL     1       0.484 -13.954  -6.580  1.00  0.00     0.134 A 
ATOM     82  C   UNL     1       1.410 -14.872  -8.585  1.00  0.00     0.134 A 
ATOM     83  F   UNL     1      -0.384 -13.159  -5.936  1.00  0.00    -0.206 F 
ATOM     84  C   UNL     1       1.401 -14.679  -5.817  1.00  0.00     0.040 A 
ATOM     85  C   UNL     1       2.316 -15.622  -7.834  1.00  0.00     0.040 A 
ATOM     86  F   UNL     1       1.437 -15.000  -9.920  1.00  0.00    -0.206 F 
ATOM     87  C   UNL     1       2.316 -15.522  -6.444  1.00  0.00     0.006 A 
ENDBRANCH  59  80
BRANCH  71  88
ATOM     88  C   UNL     1      -4.857 -15.808 -12.119  1.00  0.00     0.057 A 
ATOM     89  C   UNL     1      -4.690 -16.278 -13.429  1.00  0.00     0.134 A 
ATOM     90  C   UNL     1      -5.675 -16.551 -11.261  1.00  0.00     0.134 A 
ATOM     91  F   UNL     1      -3.928 -15.602 -14.303  1.00  0.00    -0.206 F 
ATOM     92  C   UNL     1      -5.337 -17.429 -13.878  1.00  0.00     0.040 A 
ATOM     93  C   UNL     1      -6.307 -17.718 -11.692  1.00  0.00     0.040 A 
ATOM     94  F   UNL     1      -5.867 -16.157  -9.993  1.00  0.00    -0.206 F 
ATOM     95  C   UNL     1      -6.149 -18.152 -13.007  1.00  0.00     0.006 A 
ENDBRANCH  71  88
ENDBRANCH  45  46
ENDBRANCH  37  40
ENDBRANCH  35  36
ENDBRANCH  34  35
ENDBRANCH  33  34
ENDBRANCH   1  33
TORSDOF 17
