REMARK SMILES COc1ncccc1C(=O)N[C@@](C)(C(=O)NCCCCNC(=O)c1ccc(-c2c3nc(c(-c4c(F)cccc4F)c4ccc([nH]4)c(-c4c(F)cccc4F)c4nc(c(-c5c(F)cccc5F)c5ccc2[nH]5)C=C4)C=C3)cc1)C(F)(F)F
REMARK SMILES IDX 18 1 17 2 16 3 14 4 15 5 12 7 13 8 11 9 9 10 10 11 8 13 3 14
REMARK SMILES IDX 4 15 5 16 7 17 6 18 2 19 1 20 78 21 79 22 80 23 81 24 19 25
REMARK SMILES IDX 20 26 21 27 22 28 23 30 24 31 25 32 77 33 26 34 76 35 27 36
REMARK SMILES IDX 28 37 29 38 70 39 30 40 75 41 69 42 71 43 31 44 74 45 68 46
REMARK SMILES IDX 67 47 32 49 58 50 41 51 57 52 42 53 45 54 56 55 72 56 43 57
REMARK SMILES IDX 44 58 55 60 73 61 46 62 33 63 34 64 39 65 35 66 36 67 38 68
REMARK SMILES IDX 40 69 37 70 59 71 60 72 65 73 61 74 62 75 64 76 66 77 63 78
REMARK SMILES IDX 47 79 48 80 53 81 49 82 50 83 52 84 54 85 51 86
REMARK H PARENT 16 6 11 12 21 29 71 48 45 59
REMARK Flexibility Score: inf
ROOT
ATOM      1  C   UNL     1       7.827   0.056  -0.415  1.00  0.00     0.023 C 
ENDROOT
BRANCH   1   2
ATOM      2  C   UNL     1       7.469   1.476  -0.851  1.00  0.00     0.116 C 
BRANCH   2   3
ATOM      3  N   UNL     1       7.288   1.584  -2.291  1.00  0.00    -0.354 N 
ATOM      4  C   UNL     1       6.405   2.239  -3.099  1.00  0.00     0.254 C 
ATOM      5  O   UNL     1       6.652   2.138  -4.304  1.00  0.00    -0.272 OA
ATOM      6  H   UNL     1       7.955   1.066  -2.797  1.00  0.00     0.163 HD
BRANCH   4   7
ATOM      7  C   UNL     1       5.152   2.983  -2.569  1.00  0.00     0.212 C 
ATOM      8  C   UNL     1       5.518   4.050  -1.519  1.00  0.00     0.056 C 
BRANCH   7   9
ATOM      9  N   UNL     1       4.361   1.880  -1.912  1.00  0.00    -0.330 N 
ATOM     10  C   UNL     1       3.185   1.215  -1.762  1.00  0.00     0.257 C 
ATOM     11  O   UNL     1       3.332   0.282  -0.962  1.00  0.00    -0.269 OA
ATOM     12  H   UNL     1       4.994   1.431  -1.307  1.00  0.00     0.165 HD
BRANCH  10  13
ATOM     13  C   UNL     1       1.846   1.440  -2.372  1.00  0.00     0.101 A 
ATOM     14  C   UNL     1       0.761   0.617  -2.019  1.00  0.00     0.226 A 
ATOM     15  N   UNL     1      -0.502   0.729  -2.517  1.00  0.00    -0.221 NA
ATOM     16  C   UNL     1      -0.726   1.700  -3.414  1.00  0.00     0.115 A 
ATOM     17  C   UNL     1       1.540   2.436  -3.292  1.00  0.00     0.021 A 
ATOM     18  C   UNL     1       0.255   2.573  -3.827  1.00  0.00     0.021 A 
BRANCH  14  19
ATOM     19  O   UNL     1       0.895  -0.440  -1.159  1.00  0.00    -0.480 OA
ATOM     20  C   UNL     1       0.490  -0.055   0.152  1.00  0.00     0.280 C 
ENDBRANCH  14  19
ENDBRANCH  10  13
ENDBRANCH   7   9
BRANCH   7  21
ATOM     21  C   UNL     1       4.613   3.754  -3.786  1.00  0.00     0.420 C 
ATOM     22  F   UNL     1       4.106   2.960  -4.750  1.00  0.00    -0.168 F 
ATOM     23  F   UNL     1       3.626   4.609  -3.399  1.00  0.00    -0.168 F 
ATOM     24  F   UNL     1       5.556   4.549  -4.350  1.00  0.00    -0.168 F 
ENDBRANCH   7  21
ENDBRANCH   4   7
ENDBRANCH   2   3
ENDBRANCH   1   2
BRANCH   1  25
ATOM     25  C   UNL     1       9.079  -0.541  -1.060  1.00  0.00     0.023 C 
BRANCH  25  26
ATOM     26  C   UNL     1      10.324   0.336  -1.017  1.00  0.00     0.116 C 
BRANCH  26  27
ATOM     27  N   UNL     1      10.733   0.678   0.336  1.00  0.00    -0.352 N 
ATOM     28  C   UNL     1      11.962   0.533   0.937  1.00  0.00     0.251 C 
ATOM     29  H   UNL     1      10.029   1.069   0.903  1.00  0.00     0.163 HD
ATOM     30  O   UNL     1      12.097   0.765   2.131  1.00  0.00    -0.269 OA
BRANCH  28  31
ATOM     31  C   UNL     1      13.111   0.058   0.139  1.00  0.00     0.039 A 
ATOM     32  C   UNL     1      13.876  -1.004   0.627  1.00  0.00     0.014 A 
ATOM     33  C   UNL     1      13.407   0.631  -1.101  1.00  0.00     0.014 A 
ATOM     34  C   UNL     1      14.887  -1.548  -0.167  1.00  0.00     0.010 A 
ATOM     35  C   UNL     1      14.367   0.042  -1.919  1.00  0.00     0.010 A 
ATOM     36  C   UNL     1      15.108  -1.060  -1.465  1.00  0.00    -0.014 A 
BRANCH  36  37
ATOM     37  C   UNL     1      16.089  -1.705  -2.374  1.00  0.00     0.031 A 
ATOM     38  C   UNL     1      17.292  -0.944  -2.854  1.00  0.00     0.074 A 
ATOM     39  C   UNL     1      15.853  -2.952  -2.828  1.00  0.00     0.049 A 
ATOM     40  N   UNL     1      18.210  -1.306  -3.714  1.00  0.00    -0.248 NA
ATOM     41  C   UNL     1      17.473   0.414  -2.317  1.00  0.00     0.031 C 
ATOM     42  C   UNL     1      14.698  -3.779  -2.472  1.00  0.00     0.029 A 
ATOM     43  N   UNL     1      16.567  -3.738  -3.698  1.00  0.00    -0.354 N 
ATOM     44  C   UNL     1      19.067  -0.220  -3.830  1.00  0.00     0.074 A 
ATOM     45  C   UNL     1      18.533   0.832  -2.993  1.00  0.00     0.031 C 
ATOM     46  C   UNL     1      14.792  -4.961  -3.102  1.00  0.00     0.029 A 
ATOM     47  C   UNL     1      15.990  -4.962  -3.936  1.00  0.00     0.049 A 
ATOM     48  H   UNL     1      17.413  -3.452  -4.112  1.00  0.00     0.167 HD
ATOM     49  C   UNL     1      20.209  -0.117  -4.551  1.00  0.00     0.037 A 
ATOM     50  C   UNL     1      16.375  -5.967  -4.745  1.00  0.00     0.037 A 
ATOM     51  C   UNL     1      20.749  -1.173  -5.367  1.00  0.00     0.049 A 
ATOM     52  C   UNL     1      17.634  -5.819  -5.553  1.00  0.00     0.074 A 
ATOM     53  C   UNL     1      21.933  -1.188  -6.085  1.00  0.00     0.029 A 
ATOM     54  N   UNL     1      20.138  -2.400  -5.578  1.00  0.00    -0.354 N 
ATOM     55  N   UNL     1      18.473  -4.813  -5.598  1.00  0.00    -0.248 NA
ATOM     56  C   UNL     1      18.001  -6.947  -6.421  1.00  0.00     0.031 C 
ATOM     57  C   UNL     1      22.015  -2.406  -6.767  1.00  0.00     0.029 A 
ATOM     58  C   UNL     1      20.907  -3.169  -6.436  1.00  0.00     0.049 A 
ATOM     59  H   UNL     1      19.285  -2.683  -5.176  1.00  0.00     0.167 HD
ATOM     60  C   UNL     1      19.477  -5.194  -6.479  1.00  0.00     0.074 A 
ATOM     61  C   UNL     1      19.151  -6.530  -6.933  1.00  0.00     0.031 C 
ATOM     62  C   UNL     1      20.570  -4.498  -6.877  1.00  0.00     0.037 A 
BRANCH  49  63
ATOM     63  C   UNL     1      20.954   1.184  -4.486  1.00  0.00     0.057 A 
ATOM     64  C   UNL     1      21.632   1.589  -3.328  1.00  0.00     0.134 A 
ATOM     65  C   UNL     1      21.024   2.026  -5.603  1.00  0.00     0.134 A 
ATOM     66  F   UNL     1      21.595   0.834  -2.220  1.00  0.00    -0.206 F 
ATOM     67  C   UNL     1      22.331   2.796  -3.275  1.00  0.00     0.040 A 
ATOM     68  C   UNL     1      21.743   3.222  -5.571  1.00  0.00     0.040 A 
ATOM     69  F   UNL     1      20.403   1.697  -6.745  1.00  0.00    -0.206 F 
ATOM     70  C   UNL     1      22.394   3.613  -4.402  1.00  0.00     0.006 A 
ENDBRANCH  49  63
BRANCH  50  71
ATOM     71  C   UNL     1      15.566  -7.210  -4.824  1.00  0.00     0.057 A 
ATOM     72  C   UNL     1      16.045  -8.415  -4.296  1.00  0.00     0.134 A 
ATOM     73  C   UNL     1      14.306  -7.228  -5.433  1.00  0.00     0.134 A 
ATOM     74  F   UNL     1      17.254  -8.465  -3.717  1.00  0.00    -0.206 F 
ATOM     75  C   UNL     1      15.308  -9.597  -4.386  1.00  0.00     0.040 A 
ATOM     76  C   UNL     1      13.548  -8.398  -5.508  1.00  0.00     0.040 A 
ATOM     77  F   UNL     1      13.789  -6.106  -5.953  1.00  0.00    -0.206 F 
ATOM     78  C   UNL     1      14.052  -9.589  -4.990  1.00  0.00     0.006 A 
ENDBRANCH  50  71
BRANCH  62  79
ATOM     79  C   UNL     1      21.506  -5.178  -7.832  1.00  0.00     0.057 A 
ATOM     80  C   UNL     1      21.176  -5.369  -9.179  1.00  0.00     0.134 A 
ATOM     81  C   UNL     1      22.771  -5.606  -7.408  1.00  0.00     0.134 A 
ATOM     82  F   UNL     1      19.975  -4.995  -9.644  1.00  0.00    -0.206 F 
ATOM     83  C   UNL     1      22.064  -5.977 -10.068  1.00  0.00     0.040 A 
ATOM     84  C   UNL     1      23.678  -6.191  -8.293  1.00  0.00     0.040 A 
ATOM     85  F   UNL     1      23.153  -5.445  -6.132  1.00  0.00    -0.206 F 
ATOM     86  C   UNL     1      23.323  -6.382  -9.626  1.00  0.00     0.006 A 
ENDBRANCH  62  79
ENDBRANCH  36  37
ENDBRANCH  28  31
ENDBRANCH  26  27
ENDBRANCH  25  26
ENDBRANCH   1  25
TORSDOF 15
