REMARK SMILES NS(=O)(=O)c1ccc(-n2nc(C(F)F)cc2-c2ccc(C(=O)NCCCCNC(=O)c3ccc(-c4c5nc(c(-c6c(F)cccc6F)c6ccc([nH]6)c(-c6c(F)cccc6F)c6nc(c(-c7c(F)cccc7F)c7ccc4[nH]7)C=C6)C=C5)cc3)cc2)cc1
REMARK SMILES IDX 24 1 23 2 21 3 22 4 20 6 17 7 18 8 86 9 19 10 85 11 16 12
REMARK SMILES IDX 9 13 10 14 11 15 15 16 8 17 5 18 6 19 88 20 7 21 87 22 2 23
REMARK SMILES IDX 3 24 4 25 1 26 12 29 13 30 14 31 25 32 26 33 27 34 28 35
REMARK SMILES IDX 29 36 30 38 31 39 32 40 84 41 33 42 83 43 34 44 35 45 36 46
REMARK SMILES IDX 77 47 37 48 82 49 76 50 78 51 38 52 81 53 75 54 74 55 39 57
REMARK SMILES IDX 65 58 48 59 64 60 49 61 52 62 63 63 79 64 50 65 51 66 62 68
REMARK SMILES IDX 80 69 53 70 40 71 41 72 46 73 42 74 43 75 45 76 47 77 44 78
REMARK SMILES IDX 66 79 67 80 72 81 68 82 69 83 71 84 73 85 70 86 54 87 55 88
REMARK SMILES IDX 60 89 56 90 57 91 59 92 61 93 58 94
REMARK H PARENT 23 5 1 27 1 28 28 37 78 56 52 67
REMARK Flexibility Score: inf
ROOT
ATOM      1  C   UNL     1       6.420  -5.561   4.491  1.00  0.00     0.116 C 
ENDROOT
BRANCH   1   2
ATOM      2  N   UNL     1       6.758  -4.503   3.559  1.00  0.00    -0.352 N 
ATOM      3  C   UNL     1       6.399  -3.182   3.487  1.00  0.00     0.251 C 
ATOM      4  O   UNL     1       6.894  -2.510   2.580  1.00  0.00    -0.269 OA
ATOM      5  H   UNL     1       7.363  -4.790   2.837  1.00  0.00     0.163 HD
BRANCH   3   6
ATOM      6  C   UNL     1       5.492  -2.518   4.466  1.00  0.00     0.039 A 
ATOM      7  C   UNL     1       3.875  -1.113   6.298  1.00  0.00     0.000 A 
ATOM      8  C   UNL     1       4.823  -0.430   5.529  1.00  0.00     0.011 A 
ATOM      9  C   UNL     1       3.726  -2.489   6.138  1.00  0.00     0.011 A 
ATOM     10  C   UNL     1       5.629  -1.130   4.625  1.00  0.00     0.014 A 
ATOM     11  C   UNL     1       4.500  -3.175   5.199  1.00  0.00     0.014 A 
BRANCH   7  12
ATOM     12  C   UNL     1       3.000  -0.391   7.212  1.00  0.00     0.075 A 
ATOM     13  N   UNL     1       2.013   0.505   6.822  1.00  0.00    -0.233 N 
ATOM     14  N   UNL     1       1.534   1.211   7.876  1.00  0.00    -0.166 NA
ATOM     15  C   UNL     1       2.044   0.599   8.960  1.00  0.00     0.129 A 
ATOM     16  C   UNL     1       2.996  -0.379   8.590  1.00  0.00     0.060 A 
BRANCH  13  17
ATOM     17  C   UNL     1       1.514   0.718   5.511  1.00  0.00     0.065 A 
ATOM     18  C   UNL     1       0.753   1.142   2.868  1.00  0.00     0.082 A 
ATOM     19  C   UNL     1       0.927  -0.163   3.329  1.00  0.00     0.024 A 
ATOM     20  C   UNL     1       0.913   2.234   3.730  1.00  0.00     0.024 A 
ATOM     21  C   UNL     1       1.315  -0.373   4.650  1.00  0.00     0.030 A 
ATOM     22  C   UNL     1       1.264   2.021   5.067  1.00  0.00     0.030 A 
BRANCH  18  23
ATOM     23  S   UNL     1       0.380   1.424   1.163  1.00  0.00     0.238 S 
ATOM     24  O   UNL     1       1.070   2.630   0.732  1.00  0.00    -0.207 OA
ATOM     25  O   UNL     1      -1.019   1.206   0.954  1.00  0.00    -0.207 OA
BRANCH  23  26
ATOM     26  N   UNL     1       1.179   0.171   0.369  1.00  0.00    -0.225 NA
ATOM     27  H   UNL     1       1.021   0.250  -0.635  1.00  0.00     0.137 HD
ATOM     28  H   UNL     1       0.821  -0.724   0.701  1.00  0.00     0.137 HD
ENDBRANCH  23  26
ENDBRANCH  18  23
ENDBRANCH  13  17
BRANCH  15  29
ATOM     29  C   UNL     1       1.635   0.950  10.361  1.00  0.00     0.393 C 
ATOM     30  F   UNL     1       1.643   2.290  10.589  1.00  0.00    -0.203 F 
ATOM     31  F   UNL     1       0.375   0.512  10.636  1.00  0.00    -0.203 F 
ENDBRANCH  15  29
ENDBRANCH   7  12
ENDBRANCH   3   6
ENDBRANCH   1   2
BRANCH   1  32
ATOM     32  C   UNL     1       5.292  -6.443   3.945  1.00  0.00     0.023 C 
BRANCH  32  33
ATOM     33  C   UNL     1       5.713  -7.399   2.822  1.00  0.00     0.023 C 
BRANCH  33  34
ATOM     34  C   UNL     1       6.645  -8.523   3.265  1.00  0.00     0.116 C 
BRANCH  34  35
ATOM     35  N   UNL     1       6.035  -9.385   4.273  1.00  0.00    -0.352 N 
ATOM     36  C   UNL     1       6.652 -10.255   5.144  1.00  0.00     0.251 C 
ATOM     37  H   UNL     1       5.054  -9.339   4.338  1.00  0.00     0.163 HD
ATOM     38  O   UNL     1       6.025 -11.158   5.683  1.00  0.00    -0.269 OA
BRANCH  36  39
ATOM     39  C   UNL     1       8.088 -10.087   5.418  1.00  0.00     0.039 A 
ATOM     40  C   UNL     1       8.951 -11.181   5.350  1.00  0.00     0.014 A 
ATOM     41  C   UNL     1       8.570  -8.811   5.707  1.00  0.00     0.014 A 
ATOM     42  C   UNL     1      10.321 -10.968   5.479  1.00  0.00     0.010 A 
ATOM     43  C   UNL     1       9.931  -8.587   5.739  1.00  0.00     0.010 A 
ATOM     44  C   UNL     1      10.815  -9.664   5.644  1.00  0.00    -0.014 A 
BRANCH  44  45
ATOM     45  C   UNL     1      12.259  -9.424   5.572  1.00  0.00     0.031 A 
ATOM     46  C   UNL     1      12.942  -9.943   4.347  1.00  0.00     0.074 A 
ATOM     47  C   UNL     1      12.927  -8.597   6.404  1.00  0.00     0.049 A 
ATOM     48  N   UNL     1      13.921 -10.786   4.272  1.00  0.00    -0.248 NA
ATOM     49  C   UNL     1      12.425  -9.518   3.036  1.00  0.00     0.031 C 
ATOM     50  C   UNL     1      12.380  -7.738   7.459  1.00  0.00     0.029 A 
ATOM     51  N   UNL     1      14.248  -8.257   6.391  1.00  0.00    -0.354 N 
ATOM     52  C   UNL     1      14.265 -10.868   2.922  1.00  0.00     0.074 A 
ATOM     53  C   UNL     1      13.231 -10.173   2.199  1.00  0.00     0.031 C 
ATOM     54  C   UNL     1      13.304  -6.818   7.813  1.00  0.00     0.029 A 
ATOM     55  C   UNL     1      14.551  -7.127   7.138  1.00  0.00     0.049 A 
ATOM     56  H   UNL     1      14.928  -8.769   5.896  1.00  0.00     0.167 HD
ATOM     57  C   UNL     1      15.482 -11.326   2.517  1.00  0.00     0.037 A 
ATOM     58  C   UNL     1      15.732  -6.465   7.180  1.00  0.00     0.037 A 
ATOM     59  C   UNL     1      16.140 -12.073   3.558  1.00  0.00     0.049 A 
ATOM     60  C   UNL     1      16.783  -7.382   6.683  1.00  0.00     0.074 A 
ATOM     61  C   UNL     1      15.830 -13.197   4.300  1.00  0.00     0.029 A 
ATOM     62  N   UNL     1      17.185 -11.478   4.218  1.00  0.00    -0.354 N 
ATOM     63  N   UNL     1      17.197  -8.438   7.322  1.00  0.00    -0.248 NA
ATOM     64  C   UNL     1      17.110  -7.342   5.266  1.00  0.00     0.031 C 
ATOM     65  C   UNL     1      16.346 -12.930   5.602  1.00  0.00     0.029 A 
ATOM     66  C   UNL     1      16.981 -11.688   5.556  1.00  0.00     0.049 A 
ATOM     67  H   UNL     1      17.938 -10.993   3.808  1.00  0.00     0.167 HD
ATOM     68  C   UNL     1      17.432  -9.377   6.331  1.00  0.00     0.074 A 
ATOM     69  C   UNL     1      17.481  -8.612   5.088  1.00  0.00     0.031 C 
ATOM     70  C   UNL     1      17.281 -10.712   6.575  1.00  0.00     0.037 A 
BRANCH  57  71
ATOM     71  C   UNL     1      16.236 -10.808   1.313  1.00  0.00     0.057 A 
ATOM     72  C   UNL     1      17.423 -11.451   0.908  1.00  0.00     0.134 A 
ATOM     73  C   UNL     1      16.018  -9.543   0.732  1.00  0.00     0.134 A 
ATOM     74  F   UNL     1      17.756 -12.655   1.398  1.00  0.00    -0.206 F 
ATOM     75  C   UNL     1      18.356 -10.845   0.057  1.00  0.00     0.040 A 
ATOM     76  C   UNL     1      16.918  -8.951  -0.159  1.00  0.00     0.040 A 
ATOM     77  F   UNL     1      14.980  -8.769   1.072  1.00  0.00    -0.206 F 
ATOM     78  C   UNL     1      18.109  -9.585  -0.473  1.00  0.00     0.006 A 
ENDBRANCH  57  71
BRANCH  58  79
ATOM     79  C   UNL     1      15.984  -5.026   7.404  1.00  0.00     0.057 A 
ATOM     80  C   UNL     1      17.253  -4.560   7.772  1.00  0.00     0.134 A 
ATOM     81  C   UNL     1      15.057  -4.049   7.001  1.00  0.00     0.134 A 
ATOM     82  F   UNL     1      18.215  -5.420   8.138  1.00  0.00    -0.206 F 
ATOM     83  C   UNL     1      17.593  -3.203   7.713  1.00  0.00     0.040 A 
ATOM     84  C   UNL     1      15.380  -2.689   6.946  1.00  0.00     0.040 A 
ATOM     85  F   UNL     1      13.837  -4.389   6.562  1.00  0.00    -0.206 F 
ATOM     86  C   UNL     1      16.658  -2.264   7.288  1.00  0.00     0.006 A 
ENDBRANCH  58  79
BRANCH  70  87
ATOM     87  C   UNL     1      17.154 -11.158   8.005  1.00  0.00     0.057 A 
ATOM     88  C   UNL     1      16.119 -10.766   8.868  1.00  0.00     0.134 A 
ATOM     89  C   UNL     1      18.041 -12.127   8.486  1.00  0.00     0.134 A 
ATOM     90  F   UNL     1      15.158  -9.925   8.466  1.00  0.00    -0.206 F 
ATOM     91  C   UNL     1      16.008 -11.273  10.166  1.00  0.00     0.040 A 
ATOM     92  C   UNL     1      17.920 -12.670   9.767  1.00  0.00     0.040 A 
ATOM     93  F   UNL     1      19.022 -12.597   7.698  1.00  0.00    -0.206 F 
ATOM     94  C   UNL     1      16.909 -12.233  10.617  1.00  0.00     0.006 A 
ENDBRANCH  70  87
ENDBRANCH  44  45
ENDBRANCH  36  39
ENDBRANCH  34  35
ENDBRANCH  33  34
ENDBRANCH  32  33
ENDBRANCH   1  32
TORSDOF 16
