REMARK SMILES CC(C)OCCS(=O)(=O)N1CCC[C@H](C(=O)NCCCCNC(=O)c2ccc(-c3c4nc(c(-c5c(F)cccc5F)c5ccc([nH]5)c(-c5c(F)cccc5F)c5nc(c(-c6c(F)cccc6F)c6ccc3[nH]6)C=C5)C=C4)cc2)C1
REMARK SMILES IDX 18 1 17 2 15 3 16 4 14 6 10 7 11 8 79 9 12 10 13 11 7 12
REMARK SMILES IDX 8 13 9 14 6 15 5 16 4 17 2 18 1 19 3 20 19 21 20 22 21 23
REMARK SMILES IDX 22 24 23 25 24 27 25 28 26 29 78 30 27 31 77 32 28 33 29 34
REMARK SMILES IDX 30 35 71 36 31 37 76 38 70 39 72 40 32 41 75 42 69 43 68 44
REMARK SMILES IDX 33 46 59 47 42 48 58 49 43 50 46 51 57 52 73 53 44 54 45 55
REMARK SMILES IDX 56 57 74 58 47 59 34 60 35 61 40 62 36 63 37 64 39 65 41 66
REMARK SMILES IDX 38 67 60 68 61 69 66 70 62 71 63 72 65 73 67 74 64 75 48 76
REMARK SMILES IDX 49 77 54 78 50 79 51 80 53 81 55 82 52 83
REMARK H PARENT 17 5 22 26 72 45 46 56
REMARK Flexibility Score: inf
ROOT
ATOM      1  C   UNL     1       1.136   1.536   2.687  1.00  0.00     0.116 C 
ENDROOT
BRANCH   1   2
ATOM      2  N   UNL     1       1.350   2.899   3.114  1.00  0.00    -0.356 N 
ATOM      3  C   UNL     1       1.439   3.964   2.255  1.00  0.00     0.224 C 
ATOM      4  O   UNL     1       0.691   4.924   2.470  1.00  0.00    -0.275 OA
ATOM      5  H   UNL     1       1.437   3.074   4.079  1.00  0.00     0.163 HD
BRANCH   3   6
ATOM      6  C   UNL     1       2.470   4.037   1.113  1.00  0.00     0.093 C 
ATOM      7  N   UNL     1       2.039   2.508  -0.897  1.00  0.00    -0.201 NA
ATOM      8  C   UNL     1       3.437   1.960  -0.745  1.00  0.00     0.102 C 
ATOM      9  C   UNL     1       1.954   3.910  -0.332  1.00  0.00     0.115 C 
ATOM     10  C   UNL     1       3.950   1.997   0.688  1.00  0.00     0.018 C 
ATOM     11  C   UNL     1       3.808   3.350   1.361  1.00  0.00     0.016 C 
BRANCH   7  12
ATOM     12  S   UNL     1       1.575   2.397  -2.581  1.00  0.00     0.216 S 
ATOM     13  O   UNL     1       1.932   1.065  -3.038  1.00  0.00    -0.212 OA
ATOM     14  O   UNL     1       2.154   3.550  -3.232  1.00  0.00    -0.212 OA
BRANCH  12  15
ATOM     15  C   UNL     1      -0.216   2.555  -2.682  1.00  0.00     0.182 C 
BRANCH  15  16
ATOM     16  C   UNL     1      -1.012   1.252  -2.639  1.00  0.00     0.178 C 
BRANCH  16  17
ATOM     17  O   UNL     1      -1.852   1.028  -1.504  1.00  0.00    -0.378 OA
BRANCH  17  18
ATOM     18  C   UNL     1      -1.240   0.857  -0.231  1.00  0.00     0.112 C 
ATOM     19  C   UNL     1      -0.051  -0.105  -0.246  1.00  0.00     0.038 C 
ATOM     20  C   UNL     1      -1.021   2.231   0.381  1.00  0.00     0.038 C 
ENDBRANCH  17  18
ENDBRANCH  16  17
ENDBRANCH  15  16
ENDBRANCH  12  15
ENDBRANCH   7  12
ENDBRANCH   3   6
ENDBRANCH   1   2
BRANCH   1  21
ATOM     21  C   UNL     1       1.649   0.429   3.601  1.00  0.00     0.023 C 
BRANCH  21  22
ATOM     22  C   UNL     1       0.545  -0.364   4.322  1.00  0.00     0.023 C 
BRANCH  22  23
ATOM     23  C   UNL     1      -0.549  -1.011   3.463  1.00  0.00     0.116 C 
BRANCH  23  24
ATOM     24  N   UNL     1      -0.086  -2.013   2.518  1.00  0.00    -0.352 N 
ATOM     25  C   UNL     1      -0.771  -3.116   2.049  1.00  0.00     0.251 C 
ATOM     26  H   UNL     1       0.827  -1.891   2.170  1.00  0.00     0.163 HD
ATOM     27  O   UNL     1      -0.263  -3.869   1.226  1.00  0.00    -0.269 OA
BRANCH  25  28
ATOM     28  C   UNL     1      -2.102  -3.429   2.615  1.00  0.00     0.039 A 
ATOM     29  C   UNL     1      -2.273  -4.657   3.256  1.00  0.00     0.014 A 
ATOM     30  C   UNL     1      -3.130  -2.483   2.610  1.00  0.00     0.014 A 
ATOM     31  C   UNL     1      -3.437  -4.896   3.988  1.00  0.00     0.010 A 
ATOM     32  C   UNL     1      -4.263  -2.697   3.395  1.00  0.00     0.010 A 
ATOM     33  C   UNL     1      -4.414  -3.894   4.115  1.00  0.00    -0.014 A 
BRANCH  33  34
ATOM     34  C   UNL     1      -5.564  -4.075   5.041  1.00  0.00     0.031 A 
ATOM     35  C   UNL     1      -6.969  -4.136   4.515  1.00  0.00     0.074 A 
ATOM     36  C   UNL     1      -5.340  -4.142   6.370  1.00  0.00     0.049 A 
ATOM     37  N   UNL     1      -8.092  -4.277   5.173  1.00  0.00    -0.248 NA
ATOM     38  C   UNL     1      -7.138  -3.999   3.061  1.00  0.00     0.031 C 
ATOM     39  C   UNL     1      -4.027  -4.047   7.012  1.00  0.00     0.029 A 
ATOM     40  N   UNL     1      -6.209  -4.303   7.421  1.00  0.00    -0.354 N 
ATOM     41  C   UNL     1      -9.098  -4.246   4.216  1.00  0.00     0.074 A 
ATOM     42  C   UNL     1      -8.457  -4.012   2.940  1.00  0.00     0.031 C 
ATOM     43  C   UNL     1      -4.174  -4.185   8.339  1.00  0.00     0.029 A 
ATOM     44  C   UNL     1      -5.592  -4.336   8.649  1.00  0.00     0.049 A 
ATOM     45  H   UNL     1      -7.183  -4.388   7.306  1.00  0.00     0.167 HD
ATOM     46  C   UNL     1     -10.431  -4.420   4.382  1.00  0.00     0.037 A 
ATOM     47  C   UNL     1      -6.109  -4.469   9.886  1.00  0.00     0.037 A 
ATOM     48  C   UNL     1     -11.065  -4.657   5.654  1.00  0.00     0.049 A 
ATOM     49  C   UNL     1      -7.596  -4.633  10.046  1.00  0.00     0.074 A 
ATOM     50  C   UNL     1     -12.403  -4.891   5.919  1.00  0.00     0.029 A 
ATOM     51  N   UNL     1     -10.406  -4.680   6.874  1.00  0.00    -0.354 N 
ATOM     52  N   UNL     1      -8.527  -4.676   9.123  1.00  0.00    -0.248 NA
ATOM     53  C   UNL     1      -8.104  -4.774  11.418  1.00  0.00     0.031 C 
ATOM     54  C   UNL     1     -12.563  -4.998   7.304  1.00  0.00     0.029 A 
ATOM     55  C   UNL     1     -11.315  -4.896   7.898  1.00  0.00     0.049 A 
ATOM     56  H   UNL     1      -9.437  -4.560   6.995  1.00  0.00     0.167 HD
ATOM     57  C   UNL     1      -9.723  -4.881   9.798  1.00  0.00     0.074 A 
ATOM     58  C   UNL     1      -9.398  -4.969  11.207  1.00  0.00     0.031 C 
ATOM     59  C   UNL     1     -10.978  -4.988   9.297  1.00  0.00     0.037 A 
BRANCH  46  60
ATOM     60  C   UNL     1     -11.294  -4.355   3.155  1.00  0.00     0.057 A 
ATOM     61  C   UNL     1     -11.248  -5.345   2.163  1.00  0.00     0.134 A 
ATOM     62  C   UNL     1     -12.206  -3.307   2.974  1.00  0.00     0.134 A 
ATOM     63  F   UNL     1     -10.391  -6.372   2.268  1.00  0.00    -0.206 F 
ATOM     64  C   UNL     1     -12.051  -5.278   1.024  1.00  0.00     0.040 A 
ATOM     65  C   UNL     1     -13.037  -3.245   1.854  1.00  0.00     0.040 A 
ATOM     66  F   UNL     1     -12.310  -2.329   3.887  1.00  0.00    -0.206 F 
ATOM     67  C   UNL     1     -12.954  -4.228   0.870  1.00  0.00     0.006 A 
ENDBRANCH  46  60
BRANCH  47  68
ATOM     68  C   UNL     1      -5.216  -4.469  11.076  1.00  0.00     0.057 A 
ATOM     69  C   UNL     1      -5.042  -5.621  11.853  1.00  0.00     0.134 A 
ATOM     70  C   UNL     1      -4.533  -3.314  11.478  1.00  0.00     0.134 A 
ATOM     71  F   UNL     1      -5.684  -6.754  11.532  1.00  0.00    -0.206 F 
ATOM     72  C   UNL     1      -4.243  -5.619  12.998  1.00  0.00     0.040 A 
ATOM     73  C   UNL     1      -3.708  -3.306  12.604  1.00  0.00     0.040 A 
ATOM     74  F   UNL     1      -4.649  -2.178  10.775  1.00  0.00    -0.206 F 
ATOM     75  C   UNL     1      -3.569  -4.459  13.374  1.00  0.00     0.006 A 
ENDBRANCH  47  68
BRANCH  59  76
ATOM     76  C   UNL     1     -12.091  -5.252  10.271  1.00  0.00     0.057 A 
ATOM     77  C   UNL     1     -12.531  -4.282  11.181  1.00  0.00     0.134 A 
ATOM     78  C   UNL     1     -12.756  -6.486  10.272  1.00  0.00     0.134 A 
ATOM     79  F   UNL     1     -11.929  -3.084  11.242  1.00  0.00    -0.206 F 
ATOM     80  C   UNL     1     -13.574  -4.538  12.073  1.00  0.00     0.040 A 
ATOM     81  C   UNL     1     -13.821  -6.742  11.137  1.00  0.00     0.040 A 
ATOM     82  F   UNL     1     -12.393  -7.457   9.421  1.00  0.00    -0.206 F 
ATOM     83  C   UNL     1     -14.227  -5.768  12.046  1.00  0.00     0.006 A 
ENDBRANCH  59  76
ENDBRANCH  33  34
ENDBRANCH  25  28
ENDBRANCH  23  24
ENDBRANCH  22  23
ENDBRANCH  21  22
ENDBRANCH   1  21
TORSDOF 16
