REMARK SMILES O=C(NCCCCNC(=O)[C@H]1C[N@H+](Cc2ccc(Cl)c(Cl)c2)CC12CCCCC2)c1ccc(-c2c3nc(c(-c4c(F)cccc4F)c4ccc([nH]4)c(-c4c(F)cccc4F)c4nc(c(-c5c(F)cccc5F)c5ccc2[nH]5)C=C4)C=C3)cc1
REMARK SMILES IDX 5 1 4 2 3 3 1 4 2 5 30 7 31 8 83 9 32 10 82 11 33 12 34 13
REMARK SMILES IDX 35 14 76 15 36 16 81 17 75 18 77 19 37 20 80 21 74 22 73 23
REMARK SMILES IDX 38 25 64 26 47 27 63 28 48 29 51 30 62 31 78 32 49 33 50 34
REMARK SMILES IDX 61 36 79 37 52 38 39 39 40 40 45 41 41 42 42 43 44 44 46 45
REMARK SMILES IDX 43 46 65 47 66 48 71 49 67 50 68 51 70 52 72 53 69 54 53 55
REMARK SMILES IDX 54 56 59 57 55 58 56 59 58 60 60 61 57 62 6 63 7 64 8 65
REMARK SMILES IDX 9 66 10 68 11 69 12 70 24 71 13 72 23 73 25 74 29 75 26 77
REMARK SMILES IDX 28 78 27 79 14 80 15 81 16 82 22 83 17 84 20 85 18 86 21 87
REMARK SMILES IDX 19 88
REMARK H PARENT 3 6 77 24 51 35 8 67 13 76
REMARK Flexibility Score: inf
ROOT
ATOM      1  C   UNL     1       5.060   2.665  -0.280  1.00  0.00     0.023 C 
ENDROOT
BRANCH   1   2
ATOM      2  C   UNL     1       4.713   1.264   0.213  1.00  0.00     0.116 C 
BRANCH   2   3
ATOM      3  N   UNL     1       3.284   1.057   0.382  1.00  0.00    -0.352 N 
ATOM      4  O   UNL     1       1.287   0.070  -0.011  1.00  0.00    -0.269 OA
ATOM      5  C   UNL     1       2.498   0.061  -0.150  1.00  0.00     0.251 C 
ATOM      6  H   UNL     1       2.819   1.713   0.950  1.00  0.00     0.163 HD
BRANCH   5   7
ATOM      7  C   UNL     1       3.159  -1.007  -0.924  1.00  0.00     0.039 A 
ATOM      8  C   UNL     1       4.231  -1.710  -0.368  1.00  0.00     0.014 A 
ATOM      9  C   UNL     1       2.731  -1.263  -2.227  1.00  0.00     0.014 A 
ATOM     10  C   UNL     1       4.952  -2.592  -1.160  1.00  0.00     0.010 A 
ATOM     11  C   UNL     1       3.409  -2.210  -2.996  1.00  0.00     0.010 A 
ATOM     12  C   UNL     1       4.532  -2.869  -2.471  1.00  0.00    -0.014 A 
BRANCH  12  13
ATOM     13  C   UNL     1       5.203  -3.948  -3.233  1.00  0.00     0.031 A 
ATOM     14  C   UNL     1       5.988  -3.660  -4.479  1.00  0.00     0.074 A 
ATOM     15  C   UNL     1       5.073  -5.208  -2.777  1.00  0.00     0.049 A 
ATOM     16  N   UNL     1       6.594  -4.503  -5.276  1.00  0.00    -0.248 NA
ATOM     17  C   UNL     1       6.104  -2.253  -4.893  1.00  0.00     0.031 C 
ATOM     18  C   UNL     1       4.311  -5.596  -1.586  1.00  0.00     0.029 A 
ATOM     19  N   UNL     1       5.568  -6.393  -3.254  1.00  0.00    -0.354 N 
ATOM     20  C   UNL     1       7.144  -3.737  -6.295  1.00  0.00     0.074 A 
ATOM     21  C   UNL     1       6.793  -2.359  -6.023  1.00  0.00     0.031 C 
ATOM     22  C   UNL     1       4.407  -6.921  -1.413  1.00  0.00     0.029 A 
ATOM     23  C   UNL     1       5.179  -7.482  -2.514  1.00  0.00     0.049 A 
ATOM     24  H   UNL     1       6.146  -6.457  -4.048  1.00  0.00     0.167 HD
ATOM     25  C   UNL     1       7.875  -4.155  -7.356  1.00  0.00     0.037 A 
ATOM     26  C   UNL     1       5.385  -8.795  -2.720  1.00  0.00     0.037 A 
ATOM     27  C   UNL     1       8.239  -5.529  -7.597  1.00  0.00     0.049 A 
ATOM     28  C   UNL     1       6.173  -9.223  -3.920  1.00  0.00     0.074 A 
ATOM     29  C   UNL     1       9.050  -6.041  -8.595  1.00  0.00     0.029 A 
ATOM     30  N   UNL     1       7.804  -6.607  -6.841  1.00  0.00    -0.354 N 
ATOM     31  N   UNL     1       6.743  -8.482  -4.838  1.00  0.00    -0.248 NA
ATOM     32  C   UNL     1       6.337 -10.668  -4.121  1.00  0.00     0.031 C 
ATOM     33  C   UNL     1       9.064  -7.434  -8.475  1.00  0.00     0.029 A 
ATOM     34  C   UNL     1       8.296  -7.786  -7.377  1.00  0.00     0.049 A 
ATOM     35  H   UNL     1       7.232  -6.544  -6.043  1.00  0.00     0.167 HD
ATOM     36  C   UNL     1       7.334  -9.368  -5.726  1.00  0.00     0.074 A 
ATOM     37  C   UNL     1       7.080 -10.701  -5.218  1.00  0.00     0.031 C 
ATOM     38  C   UNL     1       8.018  -9.103  -6.864  1.00  0.00     0.037 A 
BRANCH  25  39
ATOM     39  C   UNL     1       8.327  -3.133  -8.355  1.00  0.00     0.057 A 
ATOM     40  C   UNL     1       9.391  -2.262  -8.095  1.00  0.00     0.134 A 
ATOM     41  C   UNL     1       7.758  -3.094  -9.635  1.00  0.00     0.134 A 
ATOM     42  F   UNL     1       9.977  -2.245  -6.888  1.00  0.00    -0.206 F 
ATOM     43  C   UNL     1       9.873  -1.387  -9.072  1.00  0.00     0.040 A 
ATOM     44  C   UNL     1       8.241  -2.238 -10.625  1.00  0.00     0.040 A 
ATOM     45  F   UNL     1       6.739  -3.909  -9.952  1.00  0.00    -0.206 F 
ATOM     46  C   UNL     1       9.304  -1.381 -10.345  1.00  0.00     0.006 A 
ENDBRANCH  25  39
BRANCH  26  47
ATOM     47  C   UNL     1       4.793  -9.790  -1.793  1.00  0.00     0.057 A 
ATOM     48  C   UNL     1       5.594 -10.566  -0.951  1.00  0.00     0.134 A 
ATOM     49  C   UNL     1       3.406  -9.983  -1.727  1.00  0.00     0.134 A 
ATOM     50  F   UNL     1       6.929 -10.436  -0.981  1.00  0.00    -0.206 F 
ATOM     51  C   UNL     1       5.041 -11.513  -0.088  1.00  0.00     0.040 A 
ATOM     52  C   UNL     1       2.838 -10.905  -0.850  1.00  0.00     0.040 A 
ATOM     53  F   UNL     1       2.584  -9.262  -2.503  1.00  0.00    -0.206 F 
ATOM     54  C   UNL     1       3.658 -11.680  -0.032  1.00  0.00     0.006 A 
ENDBRANCH  26  47
BRANCH  38  55
ATOM     55  C   UNL     1       8.529 -10.282  -7.633  1.00  0.00     0.057 A 
ATOM     56  C   UNL     1       7.668 -11.095  -8.380  1.00  0.00     0.134 A 
ATOM     57  C   UNL     1       9.893 -10.594  -7.646  1.00  0.00     0.134 A 
ATOM     58  F   UNL     1       6.347 -10.857  -8.391  1.00  0.00    -0.206 F 
ATOM     59  C   UNL     1       8.144 -12.192  -9.098  1.00  0.00     0.040 A 
ATOM     60  C   UNL     1      10.385 -11.674  -8.380  1.00  0.00     0.040 A 
ATOM     61  F   UNL     1      10.770  -9.850  -6.955  1.00  0.00    -0.206 F 
ATOM     62  C   UNL     1       9.508 -12.479  -9.104  1.00  0.00     0.006 A 
ENDBRANCH  38  55
ENDBRANCH  12  13
ENDBRANCH   5   7
ENDBRANCH   2   3
ENDBRANCH   1   2
BRANCH   1  63
ATOM     63  C   UNL     1       4.625   3.812   0.632  1.00  0.00     0.023 C 
BRANCH  63  64
ATOM     64  C   UNL     1       4.877   3.566   2.113  1.00  0.00     0.116 C 
BRANCH  64  65
ATOM     65  N   UNL     1       6.277   3.325   2.424  1.00  0.00    -0.356 N 
ATOM     66  C   UNL     1       7.013   3.575   3.537  1.00  0.00     0.229 C 
ATOM     67  H   UNL     1       6.784   2.902   1.693  1.00  0.00     0.163 HD
ATOM     68  O   UNL     1       8.151   3.097   3.566  1.00  0.00    -0.275 OA
BRANCH  66  69
ATOM     69  C   UNL     1       6.519   4.419   4.702  1.00  0.00     0.145 C 
ATOM     70  C   UNL     1       6.082   5.807   4.233  1.00  0.00     0.276 C 
ATOM     71  C   UNL     1       5.417   3.859   5.653  1.00  0.00     0.037 C 
ATOM     72  N   UNL     1       4.938   6.181   5.048  1.00  0.00    -0.330 N 
ATOM     73  C   UNL     1       4.327   4.960   5.577  1.00  0.00     0.270 C 
ATOM     74  C   UNL     1       4.896   2.448   5.293  1.00  0.00     0.014 C 
ATOM     75  C   UNL     1       5.988   3.702   7.091  1.00  0.00     0.014 C 
ATOM     76  H   UNL     1       4.231   6.622   4.459  1.00  0.00     0.348 HD
ATOM     77  C   UNL     1       3.873   1.878   6.276  1.00  0.00     0.001 C 
ATOM     78  C   UNL     1       4.963   3.200   8.113  1.00  0.00     0.001 C 
ATOM     79  C   UNL     1       4.396   1.850   7.703  1.00  0.00     0.000 C 
BRANCH  72  80
ATOM     80  C   UNL     1       5.112   7.333   5.935  1.00  0.00     0.299 C 
BRANCH  80  81
ATOM     81  C   UNL     1       6.066   7.171   7.100  1.00  0.00     0.008 A 
ATOM     82  C   UNL     1       7.457   7.160   6.912  1.00  0.00     0.011 A 
ATOM     83  C   UNL     1       5.566   6.967   8.397  1.00  0.00     0.031 A 
ATOM     84  C   UNL     1       8.319   6.827   7.960  1.00  0.00     0.022 A 
ATOM     85  C   UNL     1       6.429   6.656   9.456  1.00  0.00     0.060 A 
ATOM     86  C   UNL     1       7.806   6.554   9.229  1.00  0.00     0.059 A 
ATOM     87  Cl  UNL     1       5.721   6.346  11.001  1.00  0.00    -0.083 Cl
ATOM     88  Cl  UNL     1       8.917   6.058  10.454  1.00  0.00    -0.083 Cl
ENDBRANCH  80  81
ENDBRANCH  72  80
ENDBRANCH  66  69
ENDBRANCH  64  65
ENDBRANCH  63  64
ENDBRANCH   1  63
TORSDOF 13
