REMARK SMILES C[C@@]12CC[C@@H]3c4ccc(O)cc4/C(=N\OCC(=O)NCCCCNC(=O)c4ccc(-c5c6nc(c(-c7c(F)cccc7F)c7ccc([nH]7)c(-c7c(F)cccc7F)c7nc(c(-c8c(F)cccc8F)c8ccc5[nH]8)C=C7)C=C6)cc4)C[C@H]3[C@@H]1C[C@@H](O)[C@@H]2O
REMARK SMILES IDX 21 1 20 2 19 3 17 4 18 5 16 7 15 8 14 9 1 10 2 11 3 12 83 13
REMARK SMILES IDX 87 14 4 15 82 16 84 17 85 18 5 19 81 20 6 21 13 22 7 23
REMARK SMILES IDX 12 24 8 25 11 26 9 27 88 28 86 30 10 32 22 34 23 35 24 36
REMARK SMILES IDX 25 37 26 39 27 40 28 41 80 42 29 43 79 44 30 45 31 46 32 47
REMARK SMILES IDX 73 48 33 49 78 50 72 51 74 52 34 53 77 54 71 55 70 56 35 58
REMARK SMILES IDX 61 59 44 60 60 61 45 62 48 63 59 64 75 65 46 66 47 67 58 69
REMARK SMILES IDX 76 70 49 71 36 72 37 73 42 74 38 75 39 76 41 77 43 78 40 79
REMARK SMILES IDX 62 80 63 81 68 82 64 83 65 84 67 85 69 86 66 87 50 88 51 89
REMARK SMILES IDX 56 90 52 91 53 92 55 93 57 94 54 95
REMARK H PARENT 19 6 88 29 86 31 10 33 24 38 74 57 48 68
REMARK Flexibility Score: inf
ROOT
ATOM      1  C   UNL     1       1.179   7.671   3.482  1.00  0.00     0.023 C 
ENDROOT
BRANCH   1   2
ATOM      2  C   UNL     1       1.901   8.979   3.162  1.00  0.00     0.116 C 
BRANCH   2   3
ATOM      3  N   UNL     1       3.344   8.827   3.187  1.00  0.00    -0.353 N 
ATOM      4  C   UNL     1       4.220   8.644   2.152  1.00  0.00     0.260 C 
ATOM      5  O   UNL     1       5.418   8.544   2.432  1.00  0.00    -0.271 OA
ATOM      6  H   UNL     1       3.753   8.861   4.081  1.00  0.00     0.163 HD
BRANCH   4   7
ATOM      7  C   UNL     1       3.745   8.693   0.699  1.00  0.00     0.363 C 
BRANCH   7   8
ATOM      8  O   UNL     1       2.573   7.955   0.424  1.00  0.00    -0.385 OA
BRANCH   8   9
ATOM      9  N   UNL     1       2.849   6.679  -0.095  1.00  0.00    -0.090 NA
ATOM     10  C   UNL     1       0.494  -0.221   0.775  1.00  0.00     0.014 C 
ATOM     11  C   UNL     1      -0.104   1.184   0.485  1.00  0.00    -0.001 C 
ATOM     12  C   UNL     1      -0.511   1.745   1.850  1.00  0.00     0.010 C 
ATOM     13  C   UNL     1       0.930   2.072  -0.250  1.00  0.00     0.004 C 
ATOM     14  C   UNL     1      -1.248   1.059  -0.559  1.00  0.00     0.149 C 
ATOM     15  C   UNL     1      -0.931   3.195   1.844  1.00  0.00     0.009 C 
ATOM     16  C   UNL     1       0.661   3.610  -0.160  1.00  0.00     0.006 C 
ATOM     17  C   UNL     1       0.858   1.542  -1.716  1.00  0.00     0.039 C 
ATOM     18  C   UNL     1      -0.509   0.841  -1.890  1.00  0.00     0.144 C 
ATOM     19  C   UNL     1       0.120   4.104   1.212  1.00  0.00     0.024 C 
ATOM     20  C   UNL     1       1.931   4.449  -0.477  1.00  0.00     0.065 C 
ATOM     21  C   UNL     1      -0.384   5.528   1.004  1.00  0.00    -0.035 A 
ATOM     22  C   UNL     1       1.772   5.940  -0.139  1.00  0.00     0.088 C 
ATOM     23  C   UNL     1      -1.582   6.017   1.550  1.00  0.00     0.008 A 
ATOM     24  C   UNL     1       0.399   6.402   0.233  1.00  0.00     0.006 A 
ATOM     25  C   UNL     1      -2.000   7.325   1.303  1.00  0.00     0.046 A 
ATOM     26  C   UNL     1      -0.056   7.692  -0.075  1.00  0.00     0.056 A 
ATOM     27  C   UNL     1      -1.240   8.149   0.487  1.00  0.00     0.116 A 
BRANCH  14  28
ATOM     28  O   UNL     1      -2.068   2.220  -0.649  1.00  0.00    -0.390 OA
ATOM     29  H   UNL     1      -1.522   2.984  -0.891  1.00  0.00     0.211 HD
ENDBRANCH  14  28
BRANCH  18  30
ATOM     30  O   UNL     1      -0.322  -0.547  -2.152  1.00  0.00    -0.390 OA
ATOM     31  H   UNL     1       0.181  -0.948  -1.425  1.00  0.00     0.211 HD
ENDBRANCH  18  30
BRANCH  27  32
ATOM     32  O   UNL     1      -1.671   9.428   0.298  1.00  0.00    -0.508 OA
ATOM     33  H   UNL     1      -2.474   9.713   0.689  1.00  0.00     0.293 HD
ENDBRANCH  27  32
ENDBRANCH   8   9
ENDBRANCH   7   8
ENDBRANCH   4   7
ENDBRANCH   2   3
ENDBRANCH   1   2
BRANCH   1  34
ATOM     34  C   UNL     1       1.459   7.075   4.859  1.00  0.00     0.023 C 
BRANCH  34  35
ATOM     35  C   UNL     1       1.091   7.963   6.037  1.00  0.00     0.116 C 
BRANCH  35  36
ATOM     36  N   UNL     1      -0.344   8.176   6.189  1.00  0.00    -0.352 N 
ATOM     37  C   UNL     1      -1.120   8.044   7.322  1.00  0.00     0.251 C 
ATOM     38  H   UNL     1      -0.823   8.451   5.374  1.00  0.00     0.163 HD
ATOM     39  O   UNL     1      -2.339   8.175   7.268  1.00  0.00    -0.269 OA
BRANCH  37  40
ATOM     40  C   UNL     1      -0.469   7.679   8.599  1.00  0.00     0.039 A 
ATOM     41  C   UNL     1       0.682   8.348   9.017  1.00  0.00     0.014 A 
ATOM     42  C   UNL     1      -0.949   6.582   9.319  1.00  0.00     0.014 A 
ATOM     43  C   UNL     1       1.474   7.784  10.009  1.00  0.00     0.010 A 
ATOM     44  C   UNL     1      -0.198   6.076  10.384  1.00  0.00     0.010 A 
ATOM     45  C   UNL     1       1.058   6.626  10.687  1.00  0.00    -0.014 A 
BRANCH  45  46
ATOM     46  C   UNL     1       1.978   5.978  11.661  1.00  0.00     0.031 A 
ATOM     47  C   UNL     1       2.511   4.589  11.410  1.00  0.00     0.074 A 
ATOM     48  C   UNL     1       2.395   6.668  12.740  1.00  0.00     0.049 A 
ATOM     49  N   UNL     1       3.320   3.867  12.148  1.00  0.00    -0.248 NA
ATOM     50  C   UNL     1       2.079   3.920  10.172  1.00  0.00     0.031 C 
ATOM     51  C   UNL     1       1.976   8.027  13.086  1.00  0.00     0.029 A 
ATOM     52  N   UNL     1       3.280   6.330  13.731  1.00  0.00    -0.354 N 
ATOM     53  C   UNL     1       3.472   2.657  11.479  1.00  0.00     0.074 A 
ATOM     54  C   UNL     1       2.651   2.729  10.289  1.00  0.00     0.031 C 
ATOM     55  C   UNL     1       2.640   8.426  14.181  1.00  0.00     0.029 A 
ATOM     56  C   UNL     1       3.476   7.329  14.653  1.00  0.00     0.049 A 
ATOM     57  H   UNL     1       3.732   5.457  13.777  1.00  0.00     0.167 HD
ATOM     58  C   UNL     1       4.235   1.589  11.816  1.00  0.00     0.037 A 
ATOM     59  C   UNL     1       4.227   7.352  15.769  1.00  0.00     0.037 A 
ATOM     60  C   UNL     1       5.075   1.525  12.984  1.00  0.00     0.049 A 
ATOM     61  C   UNL     1       5.017   6.134  16.148  1.00  0.00     0.074 A 
ATOM     62  C   UNL     1       5.903   0.495  13.398  1.00  0.00     0.029 A 
ATOM     63  N   UNL     1       5.195   2.535  13.927  1.00  0.00    -0.354 N 
ATOM     64  N   UNL     1       5.149   4.999  15.506  1.00  0.00    -0.248 NA
ATOM     65  C   UNL     1       5.754   6.197  17.418  1.00  0.00     0.031 C 
ATOM     66  C   UNL     1       6.492   0.865  14.613  1.00  0.00     0.029 A 
ATOM     67  C   UNL     1       6.064   2.143  14.933  1.00  0.00     0.049 A 
ATOM     68  H   UNL     1       4.731   3.402  13.887  1.00  0.00     0.167 HD
ATOM     69  C   UNL     1       5.991   4.218  16.285  1.00  0.00     0.074 A 
ATOM     70  C   UNL     1       6.361   5.019  17.434  1.00  0.00     0.031 C 
ATOM     71  C   UNL     1       6.416   2.949  16.073  1.00  0.00     0.037 A 
BRANCH  58  72
ATOM     72  C   UNL     1       4.184   0.387  10.915  1.00  0.00     0.057 A 
ATOM     73  C   UNL     1       3.557  -0.793  11.336  1.00  0.00     0.134 A 
ATOM     74  C   UNL     1       4.784   0.381   9.649  1.00  0.00     0.134 A 
ATOM     75  F   UNL     1       2.969  -0.859  12.540  1.00  0.00    -0.206 F 
ATOM     76  C   UNL     1       3.529  -1.934  10.532  1.00  0.00     0.040 A 
ATOM     77  C   UNL     1       4.742  -0.746   8.825  1.00  0.00     0.040 A 
ATOM     78  F   UNL     1       5.391   1.482   9.179  1.00  0.00    -0.206 F 
ATOM     79  C   UNL     1       4.118  -1.911   9.270  1.00  0.00     0.006 A 
ENDBRANCH  58  72
BRANCH  59  80
ATOM     80  C   UNL     1       4.245   8.563  16.627  1.00  0.00     0.057 A 
ATOM     81  C   UNL     1       3.115   8.955  17.355  1.00  0.00     0.134 A 
ATOM     82  C   UNL     1       5.398   9.345  16.752  1.00  0.00     0.134 A 
ATOM     83  F   UNL     1       1.978   8.248  17.274  1.00  0.00    -0.206 F 
ATOM     84  C   UNL     1       3.127  10.087  18.169  1.00  0.00     0.040 A 
ATOM     85  C   UNL     1       5.433  10.464  17.585  1.00  0.00     0.040 A 
ATOM     86  F   UNL     1       6.518   9.008  16.096  1.00  0.00    -0.206 F 
ATOM     87  C   UNL     1       4.292  10.841  18.293  1.00  0.00     0.006 A 
ENDBRANCH  59  80
BRANCH  71  88
ATOM     88  C   UNL     1       7.341   2.366  17.100  1.00  0.00     0.057 A 
ATOM     89  C   UNL     1       8.700   2.179  16.815  1.00  0.00     0.134 A 
ATOM     90  C   UNL     1       6.888   1.990  18.371  1.00  0.00     0.134 A 
ATOM     91  F   UNL     1       9.197   2.512  15.614  1.00  0.00    -0.206 F 
ATOM     92  C   UNL     1       9.575   1.643  17.760  1.00  0.00     0.040 A 
ATOM     93  C   UNL     1       7.759   1.478  19.333  1.00  0.00     0.040 A 
ATOM     94  F   UNL     1       5.601   2.161  18.712  1.00  0.00    -0.206 F 
ATOM     95  C   UNL     1       9.107   1.299  19.027  1.00  0.00     0.006 A 
ENDBRANCH  71  88
ENDBRANCH  45  46
ENDBRANCH  37  40
ENDBRANCH  35  36
ENDBRANCH  34  35
ENDBRANCH   1  34
TORSDOF 16
