REMARK SMILES C[C@@H]1[C@@H](C(=O)NCCCCNC(=O)c2ccc(-c3c4nc(c(-c5c(F)cccc5F)c5ccc([nH]5)c(-c5c(F)cccc5F)c5nc(c(-c6c(F)cccc6F)c6ccc3[nH]6)C=C5)C=C4)cc2)CC[N@@H+]1[C@@H](C)c1ccc(F)cc1
REMARK SMILES IDX 8 1 7 2 6 3 4 4 5 5 3 7 1 8 2 9 70 10 68 11 69 12 71 14
REMARK SMILES IDX 72 15 73 16 74 17 79 18 75 19 78 20 76 21 77 22 9 23 10 24
REMARK SMILES IDX 11 25 12 26 13 28 14 29 15 30 67 31 16 32 66 33 17 34 18 35
REMARK SMILES IDX 19 36 60 37 20 38 65 39 59 40 61 41 21 42 64 43 58 44 57 45
REMARK SMILES IDX 22 47 48 48 31 49 47 50 32 51 35 52 46 53 62 54 33 55 34 56
REMARK SMILES IDX 45 58 63 59 36 60 23 61 24 62 29 63 25 64 26 65 28 66 30 67
REMARK SMILES IDX 27 68 49 69 50 70 55 71 51 72 52 73 54 74 56 75 53 76 37 77
REMARK SMILES IDX 38 78 43 79 39 80 40 81 42 82 44 83 41 84
REMARK H PARENT 6 6 70 13 11 27 61 46 35 57
REMARK Flexibility Score: inf
ROOT
ATOM      1  C   UNL     1      -2.833   4.488  -1.251  1.00  0.00     0.023 C 
ENDROOT
BRANCH   1   2
ATOM      2  C   UNL     1      -2.421   3.082  -0.841  1.00  0.00     0.116 C 
BRANCH   2   3
ATOM      3  N   UNL     1      -1.734   2.341  -1.879  1.00  0.00    -0.356 N 
ATOM      4  C   UNL     1      -0.782   1.367  -1.756  1.00  0.00     0.229 C 
ATOM      5  O   UNL     1      -0.376   0.851  -2.798  1.00  0.00    -0.275 OA
ATOM      6  H   UNL     1      -1.989   2.570  -2.802  1.00  0.00     0.163 HD
BRANCH   4   7
ATOM      7  C   UNL     1      -0.198   1.045  -0.378  1.00  0.00     0.142 C 
ATOM      8  C   UNL     1       2.096   0.211   0.242  1.00  0.00     0.076 C 
ATOM      9  C   UNL     1       0.764  -0.177  -0.406  1.00  0.00     0.194 C 
ATOM     10  N   UNL     1      -0.007  -1.283   0.189  1.00  0.00    -0.326 N 
ATOM     11  C   UNL     1      -1.227   0.628   0.665  1.00  0.00     0.081 C 
ATOM     12  C   UNL     1      -1.371  -0.852   0.442  1.00  0.00     0.264 C 
ATOM     13  H   UNL     1       0.056  -1.975  -0.558  1.00  0.00     0.348 HD
BRANCH  10  14
ATOM     14  C   UNL     1       0.551  -2.281   1.101  1.00  0.00     0.212 C 
ATOM     15  C   UNL     1       0.878  -1.718   2.495  1.00  0.00     0.081 C 
BRANCH  14  16
ATOM     16  C   UNL     1      -0.382  -3.511   1.165  1.00  0.00     0.009 A 
ATOM     17  C   UNL     1      -1.053  -3.905   2.340  1.00  0.00     0.013 A 
ATOM     18  C   UNL     1      -0.646  -4.231  -0.018  1.00  0.00     0.013 A 
ATOM     19  C   UNL     1      -1.952  -4.974   2.333  1.00  0.00     0.040 A 
ATOM     20  C   UNL     1      -1.551  -5.297  -0.025  1.00  0.00     0.040 A 
ATOM     21  C   UNL     1      -2.194  -5.658   1.151  1.00  0.00     0.123 A 
ATOM     22  F   UNL     1      -3.070  -6.671   1.145  1.00  0.00    -0.207 F 
ENDBRANCH  14  16
ENDBRANCH  10  14
ENDBRANCH   4   7
ENDBRANCH   2   3
ENDBRANCH   1   2
BRANCH   1  23
ATOM     23  C   UNL     1      -3.746   4.574  -2.471  1.00  0.00     0.023 C 
BRANCH  23  24
ATOM     24  C   UNL     1      -4.976   3.673  -2.438  1.00  0.00     0.116 C 
BRANCH  24  25
ATOM     25  N   UNL     1      -5.878   3.978  -1.338  1.00  0.00    -0.352 N 
ATOM     26  C   UNL     1      -7.174   4.440  -1.362  1.00  0.00     0.251 C 
ATOM     27  H   UNL     1      -5.504   3.832  -0.439  1.00  0.00     0.163 HD
ATOM     28  O   UNL     1      -7.724   4.782  -0.323  1.00  0.00    -0.269 OA
BRANCH  26  29
ATOM     29  C   UNL     1      -7.892   4.555  -2.650  1.00  0.00     0.039 A 
ATOM     30  C   UNL     1      -8.616   5.720  -2.921  1.00  0.00     0.014 A 
ATOM     31  C   UNL     1      -7.842   3.526  -3.592  1.00  0.00     0.014 A 
ATOM     32  C   UNL     1      -9.220   5.883  -4.170  1.00  0.00     0.010 A 
ATOM     33  C   UNL     1      -8.359   3.731  -4.867  1.00  0.00     0.010 A 
ATOM     34  C   UNL     1      -9.060   4.908  -5.169  1.00  0.00    -0.014 A 
BRANCH  34  35
ATOM     35  C   UNL     1      -9.631   5.089  -6.529  1.00  0.00     0.031 A 
ATOM     36  C   UNL     1     -10.658   4.120  -7.049  1.00  0.00     0.074 A 
ATOM     37  C   UNL     1      -9.180   6.080  -7.323  1.00  0.00     0.049 A 
ATOM     38  N   UNL     1     -11.218   4.059  -8.231  1.00  0.00    -0.248 NA
ATOM     39  C   UNL     1     -11.091   3.058  -6.127  1.00  0.00     0.031 C 
ATOM     40  C   UNL     1      -8.153   7.059  -6.958  1.00  0.00     0.029 A 
ATOM     41  N   UNL     1      -9.521   6.423  -8.608  1.00  0.00    -0.354 N 
ATOM     42  C   UNL     1     -12.051   2.948  -8.197  1.00  0.00     0.074 A 
ATOM     43  C   UNL     1     -11.875   2.327  -6.903  1.00  0.00     0.031 C 
ATOM     44  C   UNL     1      -7.969   7.907  -7.983  1.00  0.00     0.029 A 
ATOM     45  C   UNL     1      -8.831   7.508  -9.091  1.00  0.00     0.049 A 
ATOM     46  H   UNL     1     -10.197   5.936  -9.133  1.00  0.00     0.167 HD
ATOM     47  C   UNL     1     -12.907   2.500  -9.146  1.00  0.00     0.037 A 
ATOM     48  C   UNL     1      -8.883   8.111 -10.295  1.00  0.00     0.037 A 
ATOM     49  C   UNL     1     -13.096   3.132 -10.426  1.00  0.00     0.049 A 
ATOM     50  C   UNL     1      -9.830   7.586 -11.339  1.00  0.00     0.074 A 
ATOM     51  C   UNL     1     -13.975   2.786 -11.437  1.00  0.00     0.029 A 
ATOM     52  N   UNL     1     -12.389   4.239 -10.871  1.00  0.00    -0.354 N 
ATOM     53  N   UNL     1     -10.660   6.574 -11.270  1.00  0.00    -0.248 NA
ATOM     54  C   UNL     1      -9.854   8.295 -12.626  1.00  0.00     0.031 C 
ATOM     55  C   UNL     1     -13.765   3.653 -12.514  1.00  0.00     0.029 A 
ATOM     56  C   UNL     1     -12.799   4.577 -12.150  1.00  0.00     0.049 A 
ATOM     57  H   UNL     1     -11.699   4.715 -10.354  1.00  0.00     0.167 HD
ATOM     58  C   UNL     1     -11.331   6.547 -12.487  1.00  0.00     0.074 A 
ATOM     59  C   UNL     1     -10.817   7.651 -13.270  1.00  0.00     0.031 C 
ATOM     60  C   UNL     1     -12.288   5.688 -12.914  1.00  0.00     0.037 A 
BRANCH  47  61
ATOM     61  C   UNL     1     -13.704   1.266  -8.830  1.00  0.00     0.057 A 
ATOM     62  C   UNL     1     -14.707   1.262  -7.851  1.00  0.00     0.134 A 
ATOM     63  C   UNL     1     -13.479   0.071  -9.525  1.00  0.00     0.134 A 
ATOM     64  F   UNL     1     -14.967   2.369  -7.139  1.00  0.00    -0.206 F 
ATOM     65  C   UNL     1     -15.432   0.107  -7.550  1.00  0.00     0.040 A 
ATOM     66  C   UNL     1     -14.219  -1.082  -9.256  1.00  0.00     0.040 A 
ATOM     67  F   UNL     1     -12.539   0.004 -10.480  1.00  0.00    -0.206 F 
ATOM     68  C   UNL     1     -15.193  -1.068  -8.259  1.00  0.00     0.006 A 
ENDBRANCH  47  61
BRANCH  48  69
ATOM     69  C   UNL     1      -8.032   9.297 -10.572  1.00  0.00     0.057 A 
ATOM     70  C   UNL     1      -8.597  10.569 -10.727  1.00  0.00     0.134 A 
ATOM     71  C   UNL     1      -6.642   9.191 -10.699  1.00  0.00     0.134 A 
ATOM     72  F   UNL     1      -9.925  10.733 -10.634  1.00  0.00    -0.206 F 
ATOM     73  C   UNL     1      -7.815  11.687 -11.021  1.00  0.00     0.040 A 
ATOM     74  C   UNL     1      -5.845  10.305 -10.966  1.00  0.00     0.040 A 
ATOM     75  F   UNL     1      -6.037   8.003 -10.553  1.00  0.00    -0.206 F 
ATOM     76  C   UNL     1      -6.433  11.557 -11.136  1.00  0.00     0.006 A 
ENDBRANCH  48  69
BRANCH  60  77
ATOM     77  C   UNL     1     -12.884   5.938 -14.270  1.00  0.00     0.057 A 
ATOM     78  C   UNL     1     -12.166   5.720 -15.453  1.00  0.00     0.134 A 
ATOM     79  C   UNL     1     -14.212   6.368 -14.391  1.00  0.00     0.134 A 
ATOM     80  F   UNL     1     -10.887   5.319 -15.408  1.00  0.00    -0.206 F 
ATOM     81  C   UNL     1     -12.739   5.946 -16.706  1.00  0.00     0.040 A 
ATOM     82  C   UNL     1     -14.806   6.568 -15.638  1.00  0.00     0.040 A 
ATOM     83  F   UNL     1     -14.960   6.587 -13.299  1.00  0.00    -0.206 F 
ATOM     84  C   UNL     1     -14.065   6.364 -16.800  1.00  0.00     0.006 A 
ENDBRANCH  60  77
ENDBRANCH  34  35
ENDBRANCH  26  29
ENDBRANCH  24  25
ENDBRANCH  23  24
ENDBRANCH   1  23
TORSDOF 13
