REMARK SMILES O=C(NCCCCNC(=O)c1ccc(-c2c3nc(c(-c4c(F)cccc4F)c4ccc([nH]4)c(-c4c(F)cccc4F)c4nc(c(-c5c(F)cccc5F)c5ccc2[nH]5)C=C4)C=C3)cc1)c1ccc(NC(=O)[C@@H]2CC=CC[C@H]2C(=O)Nc2cccc([N+](=O)[O-])c2)cc1
REMARK SMILES IDX 4 1 3 2 1 3 2 4 65 6 66 7 91 8 67 9 90 10 68 11 69 12 70 13
REMARK SMILES IDX 71 15 72 16 73 17 77 18 74 19 76 20 75 21 78 22 79 23 80 24
REMARK SMILES IDX 81 26 82 27 89 28 83 29 85 30 84 31 86 32 87 33 88 34 5 35
REMARK SMILES IDX 6 36 7 37 8 38 9 39 10 41 11 42 12 43 64 44 13 45 63 46
REMARK SMILES IDX 14 47 15 48 16 49 57 50 17 51 62 52 56 53 58 54 18 55 61 56
REMARK SMILES IDX 55 57 54 58 19 60 45 61 28 62 44 63 29 64 32 65 43 66 59 67
REMARK SMILES IDX 30 68 31 69 42 71 60 72 33 73 20 74 21 75 26 76 22 77 23 78
REMARK SMILES IDX 25 79 27 80 24 81 46 82 47 83 52 84 48 85 49 86 51 87 53 88
REMARK SMILES IDX 50 89 34 90 35 91 40 92 36 93 37 94 39 95 41 96 38 97
REMARK H PARENT 3 5 69 14 80 25 8 40 58 59 32 70
REMARK Flexibility Score: inf
ROOT
ATOM      1  C   UNL     1      13.048  -2.123   5.017  1.00  0.00     0.116 C 
ENDROOT
BRANCH   1   2
ATOM      2  N   UNL     1      13.520  -0.876   5.611  1.00  0.00    -0.352 N 
ATOM      3  O   UNL     1      13.421   1.359   6.047  1.00  0.00    -0.269 OA
ATOM      4  C   UNL     1      12.909   0.363   5.560  1.00  0.00     0.251 C 
ATOM      5  H   UNL     1      14.371  -0.922   6.104  1.00  0.00     0.163 HD
BRANCH   4   6
ATOM      6  C   UNL     1      11.622   0.449   4.845  1.00  0.00     0.039 A 
ATOM      7  C   UNL     1      10.582  -0.390   5.236  1.00  0.00     0.016 A 
ATOM      8  C   UNL     1      11.552   1.160   3.650  1.00  0.00     0.016 A 
ATOM      9  C   UNL     1       9.568  -0.672   4.328  1.00  0.00     0.027 A 
ATOM     10  C   UNL     1      10.483   0.920   2.782  1.00  0.00     0.027 A 
ATOM     11  C   UNL     1       9.506  -0.039   3.094  1.00  0.00     0.041 A 
BRANCH  11  12
ATOM     12  N   UNL     1       8.585  -0.355   2.088  1.00  0.00    -0.326 N 
ATOM     13  C   UNL     1       7.477  -1.130   1.993  1.00  0.00     0.228 C 
ATOM     14  H   UNL     1       8.793   0.098   1.240  1.00  0.00     0.169 HD
ATOM     15  O   UNL     1       7.041  -1.299   0.844  1.00  0.00    -0.274 OA
BRANCH  13  16
ATOM     16  C   UNL     1       6.722  -1.791   3.145  1.00  0.00     0.095 C 
ATOM     17  C   UNL     1       6.390  -0.847   4.313  1.00  0.00     0.041 C 
ATOM     18  C   UNL     1       7.248  -3.206   3.447  1.00  0.00     0.095 C 
ATOM     19  C   UNL     1       6.561  -1.407   5.689  1.00  0.00    -0.030 C 
ATOM     20  C   UNL     1       7.126  -3.710   4.900  1.00  0.00     0.041 C 
ATOM     21  C   UNL     1       6.896  -2.674   5.949  1.00  0.00    -0.030 C 
BRANCH  18  22
ATOM     22  C   UNL     1       6.744  -4.318   2.498  1.00  0.00     0.228 C 
ATOM     23  O   UNL     1       7.560  -4.887   1.762  1.00  0.00    -0.274 OA
ATOM     24  N   UNL     1       5.479  -4.847   2.550  1.00  0.00    -0.326 N 
ATOM     25  H   UNL     1       5.366  -5.697   2.066  1.00  0.00     0.169 HD
BRANCH  24  26
ATOM     26  C   UNL     1       4.323  -4.374   3.180  1.00  0.00     0.048 A 
ATOM     27  C   UNL     1       3.673  -5.182   4.114  1.00  0.00     0.026 A 
ATOM     28  C   UNL     1       3.769  -3.145   2.840  1.00  0.00     0.111 A 
ATOM     29  C   UNL     1       2.575  -4.687   4.827  1.00  0.00     0.009 A 
ATOM     30  C   UNL     1       2.709  -2.626   3.588  1.00  0.00     0.271 A 
ATOM     31  C   UNL     1       2.111  -3.391   4.593  1.00  0.00     0.086 A 
BRANCH  30  32
ATOM     32  N   UNL     1       2.265  -1.249   3.345  1.00  0.00     0.062 N 
ATOM     33  O   UNL     1       1.309  -0.826   4.008  1.00  0.00    -0.258 OA
ATOM     34  O   UNL     1       2.896  -0.579   2.514  1.00  0.00    -0.258 OA
ENDBRANCH  30  32
ENDBRANCH  24  26
ENDBRANCH  18  22
ENDBRANCH  13  16
ENDBRANCH  11  12
ENDBRANCH   4   6
ENDBRANCH   1   2
BRANCH   1  35
ATOM     35  C   UNL     1      14.124  -2.910   4.287  1.00  0.00     0.023 C 
BRANCH  35  36
ATOM     36  C   UNL     1      15.236  -3.458   5.170  1.00  0.00     0.023 C 
BRANCH  36  37
ATOM     37  C   UNL     1      14.771  -4.292   6.359  1.00  0.00     0.116 C 
BRANCH  37  38
ATOM     38  N   UNL     1      14.025  -5.486   5.981  1.00  0.00    -0.352 N 
ATOM     39  C   UNL     1      14.277  -6.804   6.290  1.00  0.00     0.251 C 
ATOM     40  H   UNL     1      13.227  -5.328   5.427  1.00  0.00     0.163 HD
ATOM     41  O   UNL     1      13.588  -7.702   5.819  1.00  0.00    -0.269 OA
BRANCH  39  42
ATOM     42  C   UNL     1      15.426  -7.131   7.158  1.00  0.00     0.039 A 
ATOM     43  C   UNL     1      16.389  -8.028   6.690  1.00  0.00     0.014 A 
ATOM     44  C   UNL     1      15.595  -6.479   8.381  1.00  0.00     0.014 A 
ATOM     45  C   UNL     1      17.585  -8.178   7.393  1.00  0.00     0.010 A 
ATOM     46  C   UNL     1      16.816  -6.573   9.040  1.00  0.00     0.010 A 
ATOM     47  C   UNL     1      17.832  -7.400   8.536  1.00  0.00    -0.014 A 
BRANCH  47  48
ATOM     48  C   UNL     1      19.168  -7.373   9.181  1.00  0.00     0.031 A 
ATOM     49  C   UNL     1      19.337  -7.838  10.596  1.00  0.00     0.074 A 
ATOM     50  C   UNL     1      20.204  -6.813   8.526  1.00  0.00     0.049 A 
ATOM     51  N   UNL     1      20.391  -7.767  11.367  1.00  0.00    -0.248 NA
ATOM     52  C   UNL     1      18.155  -8.432  11.239  1.00  0.00     0.031 C 
ATOM     53  C   UNL     1      20.152  -6.258   7.171  1.00  0.00     0.029 A 
ATOM     54  N   UNL     1      21.499  -6.593   8.925  1.00  0.00    -0.354 N 
ATOM     55  C   UNL     1      19.996  -8.286  12.592  1.00  0.00     0.074 A 
ATOM     56  C   UNL     1      18.595  -8.632  12.473  1.00  0.00     0.031 C 
ATOM     57  C   UNL     1      21.360  -5.767   6.850  1.00  0.00     0.029 A 
ATOM     58  C   UNL     1      22.260  -5.941   7.986  1.00  0.00     0.049 A 
ATOM     59  H   UNL     1      21.848  -6.875   9.800  1.00  0.00     0.167 HD
ATOM     60  C   UNL     1      20.738  -8.473  13.709  1.00  0.00     0.037 A 
ATOM     61  C   UNL     1      23.535  -5.514   8.037  1.00  0.00     0.037 A 
ATOM     62  C   UNL     1      22.137  -8.161  13.817  1.00  0.00     0.049 A 
ATOM     63  C   UNL     1      24.343  -5.746   9.280  1.00  0.00     0.074 A 
ATOM     64  C   UNL     1      22.998  -8.408  14.872  1.00  0.00     0.029 A 
ATOM     65  N   UNL     1      22.881  -7.527  12.833  1.00  0.00    -0.354 N 
ATOM     66  N   UNL     1      23.977  -6.308  10.405  1.00  0.00    -0.248 NA
ATOM     67  C   UNL     1      25.737  -5.284   9.260  1.00  0.00     0.031 C 
ATOM     68  C   UNL     1      24.257  -7.895  14.539  1.00  0.00     0.029 A 
ATOM     69  C   UNL     1      24.186  -7.352  13.266  1.00  0.00     0.049 A 
ATOM     70  H   UNL     1      22.534  -7.244  11.957  1.00  0.00     0.167 HD
ATOM     71  C   UNL     1      25.094  -6.271  11.228  1.00  0.00     0.074 A 
ATOM     72  C   UNL     1      26.156  -5.647  10.465  1.00  0.00     0.031 C 
ATOM     73  C   UNL     1      25.225  -6.713  12.502  1.00  0.00     0.037 A 
BRANCH  60  74
ATOM     74  C   UNL     1      20.039  -9.051  14.901  1.00  0.00     0.057 A 
ATOM     75  C   UNL     1      19.664 -10.400  14.952  1.00  0.00     0.134 A 
ATOM     76  C   UNL     1      19.744  -8.253  16.013  1.00  0.00     0.134 A 
ATOM     77  F   UNL     1      19.906 -11.211  13.911  1.00  0.00    -0.206 F 
ATOM     78  C   UNL     1      18.996 -10.929  16.056  1.00  0.00     0.040 A 
ATOM     79  C   UNL     1      19.094  -8.777  17.132  1.00  0.00     0.040 A 
ATOM     80  F   UNL     1      20.077  -6.954  16.028  1.00  0.00    -0.206 F 
ATOM     81  C   UNL     1      18.712 -10.117  17.152  1.00  0.00     0.006 A 
ENDBRANCH  60  74
BRANCH  61  82
ATOM     82  C   UNL     1      24.122  -4.824   6.865  1.00  0.00     0.057 A 
ATOM     83  C   UNL     1      25.017  -5.484   6.016  1.00  0.00     0.134 A 
ATOM     84  C   UNL     1      23.784  -3.503   6.551  1.00  0.00     0.134 A 
ATOM     85  F   UNL     1      25.389  -6.745   6.278  1.00  0.00    -0.206 F 
ATOM     86  C   UNL     1      25.559  -4.853   4.896  1.00  0.00     0.040 A 
ATOM     87  C   UNL     1      24.305  -2.864   5.426  1.00  0.00     0.040 A 
ATOM     88  F   UNL     1      22.925  -2.822   7.325  1.00  0.00    -0.206 F 
ATOM     89  C   UNL     1      25.198  -3.540   4.595  1.00  0.00     0.006 A 
ENDBRANCH  61  82
BRANCH  73  90
ATOM     90  C   UNL     1      26.563  -6.531  13.150  1.00  0.00     0.057 A 
ATOM     91  C   UNL     1      26.972  -5.284  13.639  1.00  0.00     0.134 A 
ATOM     92  C   UNL     1      27.433  -7.614  13.319  1.00  0.00     0.134 A 
ATOM     93  F   UNL     1      26.187  -4.206  13.492  1.00  0.00    -0.206 F 
ATOM     94  C   UNL     1      28.208  -5.119  14.265  1.00  0.00     0.040 A 
ATOM     95  C   UNL     1      28.663  -7.465  13.959  1.00  0.00     0.040 A 
ATOM     96  F   UNL     1      27.095  -8.834  12.875  1.00  0.00    -0.206 F 
ATOM     97  C   UNL     1      29.055  -6.214  14.432  1.00  0.00     0.006 A 
ENDBRANCH  73  90
ENDBRANCH  47  48
ENDBRANCH  39  42
ENDBRANCH  37  38
ENDBRANCH  36  37
ENDBRANCH  35  36
ENDBRANCH   1  35
TORSDOF 16
