REMARK SMILES C[C@H](C(=O)NCCCCNC(=O)c1ccc(-c2c3nc(c(-c4c(F)cccc4F)c4ccc([nH]4)c(-c4c(F)cccc4F)c4nc(c(-c5c(F)cccc5F)c5ccc2[nH]5)C=C4)C=C3)cc1)c1ccc2c(c1)[nH]c1ccc(Cl)cc12
REMARK SMILES IDX 8 1 7 2 6 3 5 4 3 5 4 6 2 8 1 9 67 10 68 11 72 12 69 13
REMARK SMILES IDX 71 14 70 15 73 16 80 17 74 18 79 20 75 21 77 22 76 23 78 24
REMARK SMILES IDX 9 25 10 26 11 27 12 29 13 30 14 31 66 32 15 33 65 34 16 35
REMARK SMILES IDX 17 36 18 37 59 38 19 39 64 40 58 41 60 42 20 43 63 44 57 45
REMARK SMILES IDX 56 46 21 48 47 49 30 50 46 51 31 52 34 53 45 54 61 55 32 56
REMARK SMILES IDX 33 57 44 59 62 60 35 61 22 62 23 63 28 64 24 65 25 66 27 67
REMARK SMILES IDX 29 68 26 69 48 70 49 71 54 72 50 73 51 74 53 75 55 76 52 77
REMARK SMILES IDX 36 78 37 79 42 80 38 81 39 82 41 83 43 84 40 85
REMARK H PARENT 5 7 73 19 10 28 60 47 34 58
REMARK Flexibility Score: inf
ROOT
ATOM      1  C   UNL     1       0.940   3.850   2.089  1.00  0.00     0.023 C 
ENDROOT
BRANCH   1   2
ATOM      2  C   UNL     1       0.299   2.551   2.584  1.00  0.00     0.023 C 
BRANCH   2   3
ATOM      3  C   UNL     1      -0.456   1.752   1.527  1.00  0.00     0.116 C 
BRANCH   3   4
ATOM      4  N   UNL     1       0.384   1.370   0.408  1.00  0.00    -0.356 N 
ATOM      5  C   UNL     1       0.627   0.147  -0.139  1.00  0.00     0.227 C 
ATOM      6  O   UNL     1       1.252   0.129  -1.205  1.00  0.00    -0.274 OA
ATOM      7  H   UNL     1       0.856   2.117  -0.027  1.00  0.00     0.163 HD
BRANCH   5   8
ATOM      8  C   UNL     1       0.203  -1.156   0.537  1.00  0.00     0.105 C 
ATOM      9  C   UNL     1       0.840  -1.275   1.930  1.00  0.00     0.023 C 
BRANCH   8  10
ATOM     10  C   UNL     1      -1.285  -1.503   0.526  1.00  0.00    -0.034 A 
ATOM     11  C   UNL     1      -2.283  -0.648   0.037  1.00  0.00     0.005 A 
ATOM     12  C   UNL     1      -1.666  -2.761   1.032  1.00  0.00     0.031 A 
ATOM     13  C   UNL     1      -3.647  -0.977   0.129  1.00  0.00     0.011 A 
ATOM     14  C   UNL     1      -3.027  -3.069   1.128  1.00  0.00     0.047 A 
ATOM     15  C   UNL     1      -4.030  -2.203   0.708  1.00  0.00     0.007 A 
ATOM     16  N   UNL     1      -3.639  -4.191   1.630  1.00  0.00    -0.355 N 
ATOM     17  C   UNL     1      -5.285  -2.823   1.016  1.00  0.00     0.009 A 
ATOM     18  C   UNL     1      -5.005  -4.046   1.628  1.00  0.00     0.047 A 
ATOM     19  H   UNL     1      -3.164  -4.992   1.948  1.00  0.00     0.167 HD
ATOM     20  C   UNL     1      -6.635  -2.444   0.860  1.00  0.00     0.031 A 
ATOM     21  C   UNL     1      -5.998  -4.899   2.122  1.00  0.00     0.028 A 
ATOM     22  C   UNL     1      -7.637  -3.290   1.348  1.00  0.00     0.041 A 
ATOM     23  C   UNL     1      -7.326  -4.493   1.978  1.00  0.00     0.022 A 
ATOM     24  Cl  UNL     1      -9.289  -2.829   1.177  1.00  0.00    -0.084 Cl
ENDBRANCH   8  10
ENDBRANCH   5   8
ENDBRANCH   3   4
ENDBRANCH   2   3
ENDBRANCH   1   2
BRANCH   1  25
ATOM     25  C   UNL     1       0.032   4.775   1.284  1.00  0.00     0.116 C 
BRANCH  25  26
ATOM     26  N   UNL     1      -1.155   5.193   2.013  1.00  0.00    -0.352 N 
ATOM     27  C   UNL     1      -1.669   6.455   2.194  1.00  0.00     0.251 C 
ATOM     28  H   UNL     1      -1.664   4.466   2.439  1.00  0.00     0.163 HD
ATOM     29  O   UNL     1      -2.627   6.629   2.936  1.00  0.00    -0.269 OA
BRANCH  27  30
ATOM     30  C   UNL     1      -1.037   7.611   1.521  1.00  0.00     0.039 A 
ATOM     31  C   UNL     1      -0.758   8.754   2.273  1.00  0.00     0.014 A 
ATOM     32  C   UNL     1      -0.703   7.562   0.165  1.00  0.00     0.014 A 
ATOM     33  C   UNL     1      -0.070   9.819   1.686  1.00  0.00     0.010 A 
ATOM     34  C   UNL     1       0.047   8.592  -0.398  1.00  0.00     0.010 A 
ATOM     35  C   UNL     1       0.376   9.728   0.357  1.00  0.00    -0.014 A 
BRANCH  35  36
ATOM     36  C   UNL     1       1.200  10.802  -0.253  1.00  0.00     0.031 A 
ATOM     37  C   UNL     1       0.684  11.578  -1.432  1.00  0.00     0.074 A 
ATOM     38  C   UNL     1       2.446  11.029   0.209  1.00  0.00     0.049 A 
ATOM     39  N   UNL     1       1.286  12.497  -2.145  1.00  0.00    -0.248 NA
ATOM     40  C   UNL     1      -0.678  11.261  -1.888  1.00  0.00     0.031 C 
ATOM     41  C   UNL     1       3.086  10.309   1.312  1.00  0.00     0.029 A 
ATOM     42  N   UNL     1       3.404  11.923  -0.202  1.00  0.00    -0.354 N 
ATOM     43  C   UNL     1       0.386  12.851  -3.142  1.00  0.00     0.074 A 
ATOM     44  C   UNL     1      -0.783  12.016  -2.972  1.00  0.00     0.031 C 
ATOM     45  C   UNL     1       4.320  10.801   1.502  1.00  0.00     0.029 A 
ATOM     46  C   UNL     1       4.574  11.845   0.514  1.00  0.00     0.049 A 
ATOM     47  H   UNL     1       3.265  12.560  -0.940  1.00  0.00     0.167 HD
ATOM     48  C   UNL     1       0.513  13.801  -4.098  1.00  0.00     0.037 A 
ATOM     49  C   UNL     1       5.726  12.530   0.384  1.00  0.00     0.037 A 
ATOM     50  C   UNL     1       1.664  14.652  -4.248  1.00  0.00     0.049 A 
ATOM     51  C   UNL     1       5.839  13.585  -0.681  1.00  0.00     0.074 A 
ATOM     52  C   UNL     1       1.857  15.691  -5.141  1.00  0.00     0.029 A 
ATOM     53  N   UNL     1       2.819  14.560  -3.486  1.00  0.00    -0.354 N 
ATOM     54  N   UNL     1       4.952  13.960  -1.570  1.00  0.00    -0.248 NA
ATOM     55  C   UNL     1       7.111  14.318  -0.756  1.00  0.00     0.031 C 
ATOM     56  C   UNL     1       3.145  16.200  -4.949  1.00  0.00     0.029 A 
ATOM     57  C   UNL     1       3.737  15.510  -3.904  1.00  0.00     0.049 A 
ATOM     58  H   UNL     1       2.965  13.915  -2.756  1.00  0.00     0.167 HD
ATOM     59  C   UNL     1       5.546  14.987  -2.292  1.00  0.00     0.074 A 
ATOM     60  C   UNL     1       6.865  15.186  -1.728  1.00  0.00     0.031 C 
ATOM     61  C   UNL     1       5.044  15.701  -3.329  1.00  0.00     0.037 A 
BRANCH  48  62
ATOM     62  C   UNL     1      -0.628  13.974  -5.059  1.00  0.00     0.057 A 
ATOM     63  C   UNL     1      -1.853  14.525  -4.660  1.00  0.00     0.134 A 
ATOM     64  C   UNL     1      -0.488  13.618  -6.406  1.00  0.00     0.134 A 
ATOM     65  F   UNL     1      -2.056  14.876  -3.382  1.00  0.00    -0.206 F 
ATOM     66  C   UNL     1      -2.905  14.693  -5.561  1.00  0.00     0.040 A 
ATOM     67  C   UNL     1      -1.524  13.807  -7.322  1.00  0.00     0.040 A 
ATOM     68  F   UNL     1       0.661  13.091  -6.856  1.00  0.00    -0.206 F 
ATOM     69  C   UNL     1      -2.740  14.340  -6.899  1.00  0.00     0.006 A 
ENDBRANCH  48  62
BRANCH  49  70
ATOM     70  C   UNL     1       6.860  12.256   1.302  1.00  0.00     0.057 A 
ATOM     71  C   UNL     1       7.238  13.184   2.279  1.00  0.00     0.134 A 
ATOM     72  C   UNL     1       7.593  11.066   1.223  1.00  0.00     0.134 A 
ATOM     73  F   UNL     1       6.585  14.350   2.390  1.00  0.00    -0.206 F 
ATOM     74  C   UNL     1       8.316  12.948   3.134  1.00  0.00     0.040 A 
ATOM     75  C   UNL     1       8.658  10.806   2.088  1.00  0.00     0.040 A 
ATOM     76  F   UNL     1       7.276  10.133   0.314  1.00  0.00    -0.206 F 
ATOM     77  C   UNL     1       9.026  11.752   3.042  1.00  0.00     0.006 A 
ENDBRANCH  49  70
BRANCH  61  78
ATOM     78  C   UNL     1       5.910  16.785  -3.900  1.00  0.00     0.057 A 
ATOM     79  C   UNL     1       7.036  16.498  -4.681  1.00  0.00     0.134 A 
ATOM     80  C   UNL     1       5.586  18.133  -3.700  1.00  0.00     0.134 A 
ATOM     81  F   UNL     1       7.407  15.228  -4.899  1.00  0.00    -0.206 F 
ATOM     82  C   UNL     1       7.823  17.515  -5.225  1.00  0.00     0.040 A 
ATOM     83  C   UNL     1       6.350  19.158  -4.260  1.00  0.00     0.040 A 
ATOM     84  F   UNL     1       4.515  18.476  -2.969  1.00  0.00    -0.206 F 
ATOM     85  C   UNL     1       7.476  18.849  -5.021  1.00  0.00     0.006 A 
ENDBRANCH  61  78
ENDBRANCH  35  36
ENDBRANCH  27  30
ENDBRANCH  25  26
ENDBRANCH   1  25
TORSDOF 12
