REMARK SMILES COc1ccc(NC(=O)C[C@@H](C[NH+]2CCOCC2)C(=O)NCCCCNC(=O)c2ccc(-c3c4nc(c(-c5c(F)cccc5F)c5ccc([nH]5)c(-c5c(F)cccc5F)c5nc(c(-c6c(F)cccc6F)c6ccc3[nH]6)C=C5)C=C4)cc2)cc1
REMARK SMILES IDX 22 1 21 2 19 3 20 4 11 6 10 7 8 8 7 9 9 11 6 12 3 13 4 14
REMARK SMILES IDX 84 15 5 16 83 17 2 18 1 19 12 20 13 21 14 22 18 23 15 25
REMARK SMILES IDX 17 26 16 27 23 28 24 29 25 30 26 31 27 32 28 34 29 35 30 36
REMARK SMILES IDX 82 37 31 38 81 39 32 40 33 41 34 42 75 43 35 44 80 45 74 46
REMARK SMILES IDX 76 47 36 48 79 49 73 50 72 51 37 53 63 54 46 55 62 56 47 57
REMARK SMILES IDX 50 58 61 59 77 60 48 61 49 62 60 64 78 65 51 66 38 67 39 68
REMARK SMILES IDX 44 69 40 70 41 71 43 72 45 73 42 74 64 75 65 76 70 77 66 78
REMARK SMILES IDX 67 79 69 80 71 81 68 82 52 83 53 84 58 85 54 86 55 87 57 88
REMARK SMILES IDX 59 89 56 90
REMARK H PARENT 21 5 7 10 13 24 26 33 76 52 50 63
REMARK Flexibility Score: inf
ROOT
ATOM      1  C   UNL     1      -2.947  -4.598   3.943  1.00  0.00     0.116 C 
ENDROOT
BRANCH   1   2
ATOM      2  N   UNL     1      -3.076  -4.597   5.365  1.00  0.00    -0.356 N 
ATOM      3  C   UNL     1      -2.028  -4.372   6.222  1.00  0.00     0.229 C 
ATOM      4  O   UNL     1      -2.267  -4.347   7.431  1.00  0.00    -0.275 OA
ATOM      5  H   UNL     1      -3.965  -4.767   5.752  1.00  0.00     0.163 HD
BRANCH   3   6
ATOM      6  C   UNL     1      -0.606  -4.053   5.688  1.00  0.00     0.142 C 
BRANCH   6   7
ATOM      7  C   UNL     1       0.312  -5.221   5.218  1.00  0.00     0.119 C 
BRANCH   7   8
ATOM      8  C   UNL     1       1.875  -5.182   5.466  1.00  0.00     0.225 C 
ATOM      9  N   UNL     1       2.853  -4.495   4.768  1.00  0.00    -0.326 N 
ATOM     10  H   UNL     1       3.764  -4.697   5.081  1.00  0.00     0.169 HD
ATOM     11  O   UNL     1       2.316  -5.928   6.358  1.00  0.00    -0.275 OA
BRANCH   9  12
ATOM     12  C   UNL     1       2.826  -3.571   3.707  1.00  0.00     0.041 A 
ATOM     13  C   UNL     1       2.546  -1.246   0.886  1.00  0.00     0.119 A 
ATOM     14  C   UNL     1       1.089  -1.906   1.593  1.00  0.00     0.048 A 
ATOM     15  C   UNL     1       4.056  -1.706   1.620  1.00  0.00     0.048 A 
ATOM     16  C   UNL     1       1.327  -3.111   3.124  1.00  0.00     0.030 A 
ATOM     17  C   UNL     1       4.182  -2.827   2.967  1.00  0.00     0.030 A 
BRANCH  13  18
ATOM     18  O   UNL     1       2.600  -0.186   0.034  1.00  0.00    -0.497 OA
ATOM     19  C   UNL     1       1.537  -0.067  -0.894  1.00  0.00     0.278 C 
ENDBRANCH  13  18
ENDBRANCH   9  12
ENDBRANCH   7   8
ENDBRANCH   6   7
BRANCH   6  20
ATOM     20  C   UNL     1      -0.639  -2.695   4.931  1.00  0.00     0.276 C 
BRANCH  20  21
ATOM     21  N   UNL     1      -0.778  -2.263   3.439  1.00  0.00    -0.330 N 
ATOM     22  C   UNL     1      -0.605  -3.452   2.102  1.00  0.00     0.291 C 
ATOM     23  C   UNL     1       0.407  -1.026   3.463  1.00  0.00     0.291 C 
ATOM     24  H   UNL     1      -1.739  -2.026   3.191  1.00  0.00     0.348 HD
ATOM     25  C   UNL     1       1.034  -4.009   1.276  1.00  0.00     0.221 C 
ATOM     26  C   UNL     1       2.242  -1.427   3.083  1.00  0.00     0.221 C 
ATOM     27  O   UNL     1       2.509  -3.004   1.790  1.00  0.00    -0.370 OA
ENDBRANCH  20  21
ENDBRANCH   6  20
ENDBRANCH   3   6
ENDBRANCH   1   2
BRANCH   1  28
ATOM     28  C   UNL     1      -3.994  -5.287   3.088  1.00  0.00     0.023 C 
BRANCH  28  29
ATOM     29  C   UNL     1      -5.153  -4.407   2.627  1.00  0.00     0.023 C 
BRANCH  29  30
ATOM     30  C   UNL     1      -4.787  -3.141   1.844  1.00  0.00     0.116 C 
BRANCH  30  31
ATOM     31  N   UNL     1      -4.235  -3.389   0.515  1.00  0.00    -0.352 N 
ATOM     32  C   UNL     1      -4.747  -3.083  -0.728  1.00  0.00     0.251 C 
ATOM     33  H   UNL     1      -3.363  -3.845   0.505  1.00  0.00     0.163 HD
ATOM     34  O   UNL     1      -4.148  -3.420  -1.744  1.00  0.00    -0.269 OA
BRANCH  32  35
ATOM     35  C   UNL     1      -6.050  -2.393  -0.836  1.00  0.00     0.039 A 
ATOM     36  C   UNL     1      -7.047  -2.950  -1.640  1.00  0.00     0.014 A 
ATOM     37  C   UNL     1      -6.309  -1.238  -0.096  1.00  0.00     0.014 A 
ATOM     38  C   UNL     1      -8.337  -2.414  -1.610  1.00  0.00     0.010 A 
ATOM     39  C   UNL     1      -7.615  -0.769   0.010  1.00  0.00     0.010 A 
ATOM     40  C   UNL     1      -8.648  -1.357  -0.737  1.00  0.00    -0.014 A 
BRANCH  40  41
ATOM     41  C   UNL     1     -10.045  -0.872  -0.577  1.00  0.00     0.031 A 
ATOM     42  C   UNL     1     -10.392   0.559  -0.891  1.00  0.00     0.074 A 
ATOM     43  C   UNL     1     -10.989  -1.697  -0.077  1.00  0.00     0.049 A 
ATOM     44  N   UNL     1     -11.536   1.181  -0.753  1.00  0.00    -0.248 NA
ATOM     45  C   UNL     1      -9.305   1.412  -1.398  1.00  0.00     0.031 C 
ATOM     46  C   UNL     1     -10.772  -3.089   0.326  1.00  0.00     0.029 A 
ATOM     47  N   UNL     1     -12.320  -1.483   0.190  1.00  0.00    -0.354 N 
ATOM     48  C   UNL     1     -11.300   2.496  -1.136  1.00  0.00     0.074 A 
ATOM     49  C   UNL     1      -9.895   2.596  -1.461  1.00  0.00     0.031 C 
ATOM     50  C   UNL     1     -11.931  -3.609   0.763  1.00  0.00     0.029 A 
ATOM     51  C   UNL     1     -12.963  -2.579   0.717  1.00  0.00     0.049 A 
ATOM     52  H   UNL     1     -12.771  -0.625   0.019  1.00  0.00     0.167 HD
ATOM     53  C   UNL     1     -12.178   3.522  -1.228  1.00  0.00     0.037 A 
ATOM     54  C   UNL     1     -14.236  -2.733   1.130  1.00  0.00     0.037 A 
ATOM     55  C   UNL     1     -13.583   3.412  -0.934  1.00  0.00     0.049 A 
ATOM     56  C   UNL     1     -15.190  -1.574   1.017  1.00  0.00     0.074 A 
ATOM     57  C   UNL     1     -14.568   4.373  -1.081  1.00  0.00     0.029 A 
ATOM     58  N   UNL     1     -14.199   2.280  -0.426  1.00  0.00    -0.354 N 
ATOM     59  N   UNL     1     -14.972  -0.364   0.559  1.00  0.00    -0.248 NA
ATOM     60  C   UNL     1     -16.570  -1.802   1.471  1.00  0.00     0.031 C 
ATOM     61  C   UNL     1     -15.768   3.844  -0.597  1.00  0.00     0.029 A 
ATOM     62  C   UNL     1     -15.546   2.531  -0.217  1.00  0.00     0.049 A 
ATOM     63  H   UNL     1     -13.748   1.425  -0.240  1.00  0.00     0.167 HD
ATOM     64  C   UNL     1     -16.191   0.298   0.639  1.00  0.00     0.074 A 
ATOM     65  C   UNL     1     -17.148  -0.648   1.171  1.00  0.00     0.031 C 
ATOM     66  C   UNL     1     -16.491   1.576   0.302  1.00  0.00     0.037 A 
BRANCH  53  67
ATOM     67  C   UNL     1     -11.652   4.860  -1.661  1.00  0.00     0.057 A 
ATOM     68  C   UNL     1     -11.216   5.100  -2.971  1.00  0.00     0.134 A 
ATOM     69  C   UNL     1     -11.644   5.942  -0.770  1.00  0.00     0.134 A 
ATOM     70  F   UNL     1     -11.188   4.106  -3.872  1.00  0.00    -0.206 F 
ATOM     71  C   UNL     1     -10.772   6.361  -3.373  1.00  0.00     0.040 A 
ATOM     72  C   UNL     1     -11.232   7.214  -1.169  1.00  0.00     0.040 A 
ATOM     73  F   UNL     1     -12.054   5.784   0.497  1.00  0.00    -0.206 F 
ATOM     74  C   UNL     1     -10.790   7.425  -2.473  1.00  0.00     0.006 A 
ENDBRANCH  53  67
BRANCH  54  75
ATOM     75  C   UNL     1     -14.695  -4.032   1.694  1.00  0.00     0.057 A 
ATOM     76  C   UNL     1     -15.651  -4.814   1.034  1.00  0.00     0.134 A 
ATOM     77  C   UNL     1     -14.223  -4.500   2.926  1.00  0.00     0.134 A 
ATOM     78  F   UNL     1     -16.158  -4.413  -0.141  1.00  0.00    -0.206 F 
ATOM     79  C   UNL     1     -16.147  -5.994   1.594  1.00  0.00     0.040 A 
ATOM     80  C   UNL     1     -14.686  -5.695   3.482  1.00  0.00     0.040 A 
ATOM     81  F   UNL     1     -13.301  -3.805   3.607  1.00  0.00    -0.206 F 
ATOM     82  C   UNL     1     -15.661  -6.438   2.821  1.00  0.00     0.006 A 
ENDBRANCH  54  75
BRANCH  66  83
ATOM     83  C   UNL     1     -17.920   2.015   0.451  1.00  0.00     0.057 A 
ATOM     84  C   UNL     1     -18.517   2.196   1.705  1.00  0.00     0.134 A 
ATOM     85  C   UNL     1     -18.697   2.301  -0.680  1.00  0.00     0.134 A 
ATOM     86  F   UNL     1     -17.834   1.930   2.829  1.00  0.00    -0.206 F 
ATOM     87  C   UNL     1     -19.842   2.619   1.829  1.00  0.00     0.040 A 
ATOM     88  C   UNL     1     -20.011   2.756  -0.569  1.00  0.00     0.040 A 
ATOM     89  F   UNL     1     -18.184   2.160  -1.912  1.00  0.00    -0.206 F 
ATOM     90  C   UNL     1     -20.590   2.908   0.689  1.00  0.00     0.006 A 
ENDBRANCH  66  83
ENDBRANCH  40  41
ENDBRANCH  32  35
ENDBRANCH  30  31
ENDBRANCH  29  30
ENDBRANCH  28  29
ENDBRANCH   1  28
TORSDOF 17
