REMARK SMILES C[N@H+]([C@H]1CCC[C@]([NH3+])(C(=O)NCCCCNC(=O)c2ccc(-c3c4nc(c(-c5c(F)cccc5F)c5ccc([nH]5)c(-c5c(F)cccc5F)c5nc(c(-c6c(F)cccc6F)c6ccc3[nH]6)C=C5)C=C4)cc2)C1)[C@H]1CC[C@H](C)CC1
REMARK SMILES IDX 13 1 12 2 11 3 9 4 10 5 7 7 3 8 4 9 73 10 5 11 6 12 2 13
REMARK SMILES IDX 1 14 74 16 78 17 77 18 76 19 79 20 75 21 80 22 8 23 14 27
REMARK SMILES IDX 15 28 16 29 17 30 18 32 19 33 20 34 72 35 21 36 71 37 22 38
REMARK SMILES IDX 23 39 24 40 65 41 25 42 70 43 64 44 66 45 26 46 69 47 63 48
REMARK SMILES IDX 62 49 27 51 53 52 36 53 52 54 37 55 40 56 51 57 67 58 38 59
REMARK SMILES IDX 39 60 50 62 68 63 41 64 28 65 29 66 34 67 30 68 31 69 33 70
REMARK SMILES IDX 35 71 32 72 54 73 55 74 60 75 56 76 57 77 59 78 61 79 58 80
REMARK SMILES IDX 42 81 43 82 48 83 44 84 45 85 47 86 49 87 46 88
REMARK H PARENT 11 6 2 15 8 24 8 25 8 26 16 31 66 50 40 61
REMARK Flexibility Score: inf
ROOT
ATOM      1  C   UNL     1      -3.186  -2.914   7.346  1.00  0.00     0.023 C 
ENDROOT
BRANCH   1   2
ATOM      2  C   UNL     1      -2.041  -2.149   6.686  1.00  0.00     0.116 C 
BRANCH   2   3
ATOM      3  N   UNL     1      -1.456  -2.824   5.533  1.00  0.00    -0.351 N 
ATOM      4  C   UNL     1      -1.623  -2.555   4.183  1.00  0.00     0.281 C 
ATOM      5  O   UNL     1      -0.997  -3.229   3.364  1.00  0.00    -0.268 OA
ATOM      6  H   UNL     1      -0.857  -3.576   5.743  1.00  0.00     0.163 HD
BRANCH   4   7
ATOM      7  C   UNL     1      -2.552  -1.357   3.775  1.00  0.00     0.179 C 
ATOM      8  C   UNL     1      -3.523   0.114   1.833  1.00  0.00     0.190 C 
ATOM      9  C   UNL     1      -2.533   1.247   2.139  1.00  0.00     0.065 C 
ATOM     10  C   UNL     1      -2.857  -1.245   2.267  1.00  0.00     0.144 C 
ATOM     11  C   UNL     1      -2.087   1.287   3.590  1.00  0.00     0.013 C 
ATOM     12  C   UNL     1      -1.720  -0.081   4.166  1.00  0.00     0.079 C 
BRANCH   8  13
ATOM     13  N   UNL     1      -4.941   0.368   2.251  1.00  0.00    -0.332 N 
ATOM     14  C   UNL     1      -5.153   0.761   3.656  1.00  0.00     0.333 C 
ATOM     15  H   UNL     1      -5.323  -0.564   2.093  1.00  0.00     0.348 HD
BRANCH  13  16
ATOM     16  C   UNL     1      -5.656   1.407   1.439  1.00  0.00     0.184 C 
ATOM     17  C   UNL     1      -8.364   3.908  -0.885  1.00  0.00     0.007 C 
ATOM     18  C   UNL     1      -7.739   2.631  -0.325  1.00  0.00    -0.014 C 
ATOM     19  C   UNL     1      -7.865   2.628   1.195  1.00  0.00     0.009 C 
ATOM     20  C   UNL     1      -6.275   2.495  -0.762  1.00  0.00     0.009 C 
ATOM     21  C   UNL     1      -7.167   1.424   1.806  1.00  0.00     0.065 C 
ATOM     22  C   UNL     1      -5.554   1.312  -0.096  1.00  0.00     0.065 C 
ENDBRANCH  13  16
ENDBRANCH   8  13
BRANCH   7  23
ATOM     23  N   UNL     1      -3.843  -1.705   4.407  1.00  0.00    -0.345 N 
ATOM     24  H   UNL     1      -3.714  -1.796   5.415  1.00  0.00     0.345 HD
ATOM     25  H   UNL     1      -4.180  -2.589   4.026  1.00  0.00     0.345 HD
ATOM     26  H   UNL     1      -4.524  -0.970   4.216  1.00  0.00     0.345 HD
ENDBRANCH   7  23
ENDBRANCH   4   7
ENDBRANCH   2   3
ENDBRANCH   1   2
BRANCH   1  27
ATOM     27  C   UNL     1      -2.748  -4.083   8.212  1.00  0.00     0.023 C 
BRANCH  27  28
ATOM     28  C   UNL     1      -1.661  -3.756   9.226  1.00  0.00     0.116 C 
BRANCH  28  29
ATOM     29  N   UNL     1      -1.993  -2.646  10.110  1.00  0.00    -0.352 N 
ATOM     30  C   UNL     1      -1.715  -2.510  11.449  1.00  0.00     0.251 C 
ATOM     31  H   UNL     1      -2.478  -1.896   9.694  1.00  0.00     0.163 HD
ATOM     32  O   UNL     1      -2.137  -1.548  12.083  1.00  0.00    -0.269 OA
BRANCH  30  33
ATOM     33  C   UNL     1      -0.944  -3.571  12.129  1.00  0.00     0.039 A 
ATOM     34  C   UNL     1      -1.454  -4.120  13.305  1.00  0.00     0.014 A 
ATOM     35  C   UNL     1       0.228  -4.074  11.558  1.00  0.00     0.014 A 
ATOM     36  C   UNL     1      -0.831  -5.236  13.864  1.00  0.00     0.010 A 
ATOM     37  C   UNL     1       0.793  -5.239  12.065  1.00  0.00     0.010 A 
ATOM     38  C   UNL     1       0.266  -5.835  13.220  1.00  0.00    -0.014 A 
BRANCH  38  39
ATOM     39  C   UNL     1       0.846  -7.101  13.730  1.00  0.00     0.031 A 
ATOM     40  C   UNL     1       2.267  -7.148  14.216  1.00  0.00     0.074 A 
ATOM     41  C   UNL     1       0.103  -8.225  13.703  1.00  0.00     0.049 A 
ATOM     42  N   UNL     1       2.942  -8.162  14.695  1.00  0.00    -0.248 NA
ATOM     43  C   UNL     1       3.042  -5.900  14.128  1.00  0.00     0.031 C 
ATOM     44  C   UNL     1      -1.263  -8.325  13.184  1.00  0.00     0.029 A 
ATOM     45  N   UNL     1       0.393  -9.499  14.121  1.00  0.00    -0.354 N 
ATOM     46  C   UNL     1       4.216  -7.678  14.958  1.00  0.00     0.074 A 
ATOM     47  C   UNL     1       4.240  -6.297  14.528  1.00  0.00     0.031 C 
ATOM     48  C   UNL     1      -1.705  -9.582  13.350  1.00  0.00     0.029 A 
ATOM     49  C   UNL     1      -0.646 -10.383  13.954  1.00  0.00     0.049 A 
ATOM     50  H   UNL     1       1.262  -9.756  14.504  1.00  0.00     0.167 HD
ATOM     51  C   UNL     1       5.263  -8.317  15.531  1.00  0.00     0.037 A 
ATOM     52  C   UNL     1      -0.737 -11.690  14.260  1.00  0.00     0.037 A 
ATOM     53  C   UNL     1       5.230  -9.687  15.973  1.00  0.00     0.049 A 
ATOM     54  C   UNL     1       0.435 -12.373  14.908  1.00  0.00     0.074 A 
ATOM     55  C   UNL     1       6.216 -10.407  16.625  1.00  0.00     0.029 A 
ATOM     56  N   UNL     1       4.155 -10.546  15.802  1.00  0.00    -0.354 N 
ATOM     57  N   UNL     1       1.605 -11.878  15.232  1.00  0.00    -0.248 NA
ATOM     58  C   UNL     1       0.269 -13.794  15.242  1.00  0.00     0.031 C 
ATOM     59  C   UNL     1       5.755 -11.715  16.808  1.00  0.00     0.029 A 
ATOM     60  C   UNL     1       4.463 -11.797  16.315  1.00  0.00     0.049 A 
ATOM     61  H   UNL     1       3.300 -10.304  15.379  1.00  0.00     0.167 HD
ATOM     62  C   UNL     1       2.306 -12.920  15.826  1.00  0.00     0.074 A 
ATOM     63  C   UNL     1       1.419 -14.065  15.840  1.00  0.00     0.031 C 
ATOM     64  C   UNL     1       3.572 -12.929  16.313  1.00  0.00     0.037 A 
BRANCH  51  65
ATOM     65  C   UNL     1       6.531  -7.535  15.719  1.00  0.00     0.057 A 
ATOM     66  C   UNL     1       6.623  -6.490  16.649  1.00  0.00     0.134 A 
ATOM     67  C   UNL     1       7.681  -7.847  14.984  1.00  0.00     0.134 A 
ATOM     68  F   UNL     1       5.554  -6.130  17.375  1.00  0.00    -0.206 F 
ATOM     69  C   UNL     1       7.805  -5.768  16.822  1.00  0.00     0.040 A 
ATOM     70  C   UNL     1       8.877  -7.150  15.169  1.00  0.00     0.040 A 
ATOM     71  F   UNL     1       7.665  -8.838  14.080  1.00  0.00    -0.206 F 
ATOM     72  C   UNL     1       8.939  -6.103  16.085  1.00  0.00     0.006 A 
ENDBRANCH  51  65
BRANCH  52  73
ATOM     73  C   UNL     1      -1.993 -12.433  13.989  1.00  0.00     0.057 A 
ATOM     74  C   UNL     1      -2.815 -12.868  15.036  1.00  0.00     0.134 A 
ATOM     75  C   UNL     1      -2.399 -12.733  12.684  1.00  0.00     0.134 A 
ATOM     76  F   UNL     1      -2.470 -12.627  16.309  1.00  0.00    -0.206 F 
ATOM     77  C   UNL     1      -3.983 -13.594  14.796  1.00  0.00     0.040 A 
ATOM     78  C   UNL     1      -3.578 -13.435  12.428  1.00  0.00     0.040 A 
ATOM     79  F   UNL     1      -1.661 -12.336  11.637  1.00  0.00    -0.206 F 
ATOM     80  C   UNL     1      -4.370 -13.875  13.487  1.00  0.00     0.006 A 
ENDBRANCH  52  73
BRANCH  64  81
ATOM     81  C   UNL     1       4.057 -14.215  16.917  1.00  0.00     0.057 A 
ATOM     82  C   UNL     1       4.333 -15.343  16.133  1.00  0.00     0.134 A 
ATOM     83  C   UNL     1       4.257 -14.324  18.299  1.00  0.00     0.134 A 
ATOM     84  F   UNL     1       4.149 -15.308  14.804  1.00  0.00    -0.206 F 
ATOM     85  C   UNL     1       4.756 -16.543  16.705  1.00  0.00     0.040 A 
ATOM     86  C   UNL     1       4.709 -15.510  18.880  1.00  0.00     0.040 A 
ATOM     87  F   UNL     1       4.022 -13.279  19.107  1.00  0.00    -0.206 F 
ATOM     88  C   UNL     1       4.949 -16.627  18.083  1.00  0.00     0.006 A 
ENDBRANCH  64  81
ENDBRANCH  38  39
ENDBRANCH  30  33
ENDBRANCH  28  29
ENDBRANCH  27  28
ENDBRANCH   1  27
TORSDOF 14
