REMARK SMILES Cc1c(Cl)cc2c(c1C)O[C@@H](C(F)(F)F)C(C(=O)NCCCCNC(=O)c1ccc(-c3c4nc(c(-c5c(F)cccc5F)c5ccc([nH]5)c(-c5c(F)cccc5F)c5nc(c(-c6c(F)cccc6F)c6ccc3[nH]6)C=C5)C=C4)cc1)=C2
REMARK SMILES IDX 22 1 21 2 20 3 19 4 17 5 18 6 16 8 1 9 2 10 3 11 8 12 4 13
REMARK SMILES IDX 5 14 7 15 9 16 6 17 10 18 81 19 11 20 12 21 13 22 14 23
REMARK SMILES IDX 15 24 23 25 24 26 25 27 26 29 27 30 28 31 80 32 29 33 79 34
REMARK SMILES IDX 30 35 31 36 32 37 73 38 33 39 78 40 72 41 74 42 34 43 77 44
REMARK SMILES IDX 71 45 70 46 35 48 61 49 44 50 60 51 45 52 48 53 59 54 75 55
REMARK SMILES IDX 46 56 47 57 58 59 76 60 49 61 36 62 37 63 42 64 38 65 39 66
REMARK SMILES IDX 41 67 43 68 40 69 62 70 63 71 68 72 64 73 65 74 67 75 69 76
REMARK SMILES IDX 66 77 50 78 51 79 56 80 52 81 53 82 55 83 57 84 54 85
REMARK H PARENT 19 7 24 28 74 47 48 58
REMARK Flexibility Score: inf
ROOT
ATOM      1  C   UNL     1       2.443 -10.486   2.148  1.00  0.00     0.023 C 
ENDROOT
BRANCH   1   2
ATOM      2  C   UNL     1       2.232  -9.118   1.501  1.00  0.00     0.023 C 
BRANCH   2   3
ATOM      3  C   UNL     1       0.777  -8.796   1.166  1.00  0.00     0.116 C 
BRANCH   3   4
ATOM      4  N   UNL     1       0.088  -8.214   2.300  1.00  0.00    -0.352 N 
ATOM      5  C   UNL     1      -0.267  -6.971   2.699  1.00  0.00     0.251 C 
ATOM      6  O   UNL     1      -0.932  -6.927   3.739  1.00  0.00    -0.270 OA
ATOM      7  H   UNL     1      -0.196  -8.900   2.947  1.00  0.00     0.163 HD
BRANCH   5   8
ATOM      8  C   UNL     1       0.085  -5.702   1.995  1.00  0.00     0.067 C 
ATOM      9  C   UNL     1       0.861   0.526   0.170  1.00  0.00     0.046 C 
ATOM     10  C   UNL     1       0.464  -0.806   0.754  1.00  0.00    -0.026 A 
ATOM     11  C   UNL     1      -0.374  -0.899   1.885  1.00  0.00     0.045 A 
ATOM     12  C   UNL     1       0.932  -2.004   0.158  1.00  0.00    -0.004 A 
ATOM     13  Cl  UNL     1      -1.022   0.496   2.680  1.00  0.00    -0.084 Cl
ATOM     14  C   UNL     1      -0.727  -2.141   2.424  1.00  0.00     0.032 A 
ATOM     15  C   UNL     1       0.583  -3.241   0.734  1.00  0.00     0.131 A 
ATOM     16  C   UNL     1       1.833  -2.014  -1.053  1.00  0.00     0.049 C 
ATOM     17  C   UNL     1      -0.244  -3.315   1.854  1.00  0.00     0.019 A 
ATOM     18  O   UNL     1       1.056  -4.376   0.127  1.00  0.00    -0.475 OA
ATOM     19  C   UNL     1      -0.599  -4.617   2.404  1.00  0.00     0.025 C 
ATOM     20  C   UNL     1       1.186  -5.546   0.982  1.00  0.00     0.314 C 
BRANCH  20  21
ATOM     21  C   UNL     1       2.602  -5.609   1.580  1.00  0.00     0.429 C 
ATOM     22  F   UNL     1       3.161  -4.390   1.746  1.00  0.00    -0.167 F 
ATOM     23  F   UNL     1       2.633  -6.222   2.785  1.00  0.00    -0.167 F 
ATOM     24  F   UNL     1       3.422  -6.315   0.759  1.00  0.00    -0.167 F 
ENDBRANCH  20  21
ENDBRANCH   5   8
ENDBRANCH   3   4
ENDBRANCH   2   3
ENDBRANCH   1   2
BRANCH   1  25
ATOM     25  C   UNL     1       2.015 -11.675   1.298  1.00  0.00     0.116 C 
BRANCH  25  26
ATOM     26  N   UNL     1       2.602 -11.686  -0.035  1.00  0.00    -0.352 N 
ATOM     27  C   UNL     1       2.985 -12.775  -0.780  1.00  0.00     0.251 C 
ATOM     28  H   UNL     1       2.741 -10.806  -0.453  1.00  0.00     0.163 HD
ATOM     29  O   UNL     1       3.529 -12.639  -1.869  1.00  0.00    -0.269 OA
BRANCH  27  30
ATOM     30  C   UNL     1       2.772 -14.118  -0.211  1.00  0.00     0.039 A 
ATOM     31  C   UNL     1       3.873 -14.959  -0.050  1.00  0.00     0.014 A 
ATOM     32  C   UNL     1       1.507 -14.488   0.255  1.00  0.00     0.014 A 
ATOM     33  C   UNL     1       3.720 -16.150   0.655  1.00  0.00     0.010 A 
ATOM     34  C   UNL     1       1.373 -15.641   1.017  1.00  0.00     0.010 A 
ATOM     35  C   UNL     1       2.479 -16.478   1.227  1.00  0.00    -0.014 A 
BRANCH  35  36
ATOM     36  C   UNL     1       2.325 -17.700   2.047  1.00  0.00     0.031 A 
ATOM     37  C   UNL     1       1.468 -18.827   1.555  1.00  0.00     0.074 A 
ATOM     38  C   UNL     1       2.925 -17.773   3.250  1.00  0.00     0.049 A 
ATOM     39  N   UNL     1       1.208 -19.975   2.126  1.00  0.00    -0.248 NA
ATOM     40  C   UNL     1       0.792 -18.630   0.262  1.00  0.00     0.031 C 
ATOM     41  C   UNL     1       3.738 -16.718   3.858  1.00  0.00     0.029 A 
ATOM     42  N   UNL     1       2.950 -18.787   4.174  1.00  0.00    -0.354 N 
ATOM     43  C   UNL     1       0.338 -20.631   1.266  1.00  0.00     0.074 A 
ATOM     44  C   UNL     1       0.065 -19.732   0.167  1.00  0.00     0.031 C 
ATOM     45  C   UNL     1       4.221 -17.158   5.032  1.00  0.00     0.029 A 
ATOM     46  C   UNL     1       3.734 -18.514   5.268  1.00  0.00     0.049 A 
ATOM     47  H   UNL     1       2.453 -19.629   4.064  1.00  0.00     0.167 HD
ATOM     48  C   UNL     1      -0.161 -21.884   1.367  1.00  0.00     0.037 A 
ATOM     49  C   UNL     1       4.040 -19.282   6.330  1.00  0.00     0.037 A 
ATOM     50  C   UNL     1       0.138 -22.788   2.442  1.00  0.00     0.049 A 
ATOM     51  C   UNL     1       3.478 -20.671   6.418  1.00  0.00     0.074 A 
ATOM     52  C   UNL     1      -0.272 -24.099   2.607  1.00  0.00     0.029 A 
ATOM     53  N   UNL     1       0.930 -22.472   3.535  1.00  0.00    -0.354 N 
ATOM     54  N   UNL     1       2.702 -21.301   5.570  1.00  0.00    -0.248 NA
ATOM     55  C   UNL     1       3.833 -21.456   7.609  1.00  0.00     0.031 C 
ATOM     56  C   UNL     1       0.256 -24.570   3.814  1.00  0.00     0.029 A 
ATOM     57  C   UNL     1       1.012 -23.560   4.386  1.00  0.00     0.049 A 
ATOM     58  H   UNL     1       1.368 -21.603   3.684  1.00  0.00     0.167 HD
ATOM     59  C   UNL     1       2.490 -22.561   6.113  1.00  0.00     0.074 A 
ATOM     60  C   UNL     1       3.224 -22.609   7.361  1.00  0.00     0.031 C 
ATOM     61  C   UNL     1       1.752 -23.585   5.622  1.00  0.00     0.037 A 
BRANCH  48  62
ATOM     62  C   UNL     1      -1.062 -22.347   0.264  1.00  0.00     0.057 A 
ATOM     63  C   UNL     1      -0.558 -22.666  -1.004  1.00  0.00     0.134 A 
ATOM     64  C   UNL     1      -2.440 -22.478   0.466  1.00  0.00     0.134 A 
ATOM     65  F   UNL     1       0.752 -22.541  -1.265  1.00  0.00    -0.206 F 
ATOM     66  C   UNL     1      -1.397 -23.074  -2.041  1.00  0.00     0.040 A 
ATOM     67  C   UNL     1      -3.288 -22.906  -0.557  1.00  0.00     0.040 A 
ATOM     68  F   UNL     1      -2.985 -22.188   1.657  1.00  0.00    -0.206 F 
ATOM     69  C   UNL     1      -2.767 -23.199  -1.816  1.00  0.00     0.006 A 
ENDBRANCH  48  62
BRANCH  49  70
ATOM     70  C   UNL     1       4.977 -18.773   7.359  1.00  0.00     0.057 A 
ATOM     71  C   UNL     1       6.299 -19.230   7.406  1.00  0.00     0.134 A 
ATOM     72  C   UNL     1       4.589 -17.811   8.297  1.00  0.00     0.134 A 
ATOM     73  F   UNL     1       6.721 -20.162   6.540  1.00  0.00    -0.206 F 
ATOM     74  C   UNL     1       7.203 -18.752   8.355  1.00  0.00     0.040 A 
ATOM     75  C   UNL     1       5.487 -17.313   9.243  1.00  0.00     0.040 A 
ATOM     76  F   UNL     1       3.337 -17.331   8.296  1.00  0.00    -0.206 F 
ATOM     77  C   UNL     1       6.798 -17.786   9.274  1.00  0.00     0.006 A 
ENDBRANCH  49  70
BRANCH  61  78
ATOM     78  C   UNL     1       1.706 -24.847   6.425  1.00  0.00     0.057 A 
ATOM     79  C   UNL     1       0.888 -24.963   7.554  1.00  0.00     0.134 A 
ATOM     80  C   UNL     1       2.426 -25.978   6.020  1.00  0.00     0.134 A 
ATOM     81  F   UNL     1       0.183 -23.909   7.994  1.00  0.00    -0.206 F 
ATOM     82  C   UNL     1       0.787 -26.164   8.257  1.00  0.00     0.040 A 
ATOM     83  C   UNL     1       2.321 -27.188   6.705  1.00  0.00     0.040 A 
ATOM     84  F   UNL     1       3.222 -25.928   4.941  1.00  0.00    -0.206 F 
ATOM     85  C   UNL     1       1.499 -27.283   7.827  1.00  0.00     0.006 A 
ENDBRANCH  61  78
ENDBRANCH  35  36
ENDBRANCH  27  30
ENDBRANCH  25  26
ENDBRANCH   1  25
TORSDOF 12
