REMARK SMILES CCc1cc(S(F)(F)(F)(F)F)cc2c1O[C@@H](C(F)(F)F)C(C(=O)NCCCCNC(=O)c1ccc(-c3c4nc(c(-c5c(F)cccc5F)c5ccc([nH]5)c(-c5c(F)cccc5F)c5nc(c(-c6c(F)cccc6F)c6ccc3[nH]6)C=C5)C=C4)cc1)=C2
REMARK SMILES IDX 27 1 26 2 25 3 24 4 22 5 23 6 21 8 3 9 4 10 14 11 5 12 13 13
REMARK SMILES IDX 15 14 12 15 86 16 16 17 2 18 1 19 6 20 7 21 8 22 9 23 10 24
REMARK SMILES IDX 11 25 17 26 18 27 19 28 20 29 28 30 29 31 30 32 31 34 32 35
REMARK SMILES IDX 33 36 85 37 34 38 84 39 35 40 36 41 37 42 78 43 38 44 83 45
REMARK SMILES IDX 77 46 79 47 39 48 82 49 76 50 75 51 40 53 66 54 49 55 65 56
REMARK SMILES IDX 50 57 53 58 64 59 80 60 51 61 52 62 63 64 81 65 54 66 41 67
REMARK SMILES IDX 42 68 47 69 43 70 44 71 46 72 48 73 45 74 67 75 68 76 73 77
REMARK SMILES IDX 69 78 70 79 72 80 74 81 71 82 55 83 56 84 61 85 57 86 58 87
REMARK SMILES IDX 60 88 62 89 59 90
REMARK H PARENT 24 7 29 33 79 52 53 63
REMARK Flexibility Score: inf
ROOT
ATOM      1  C   UNL     1       0.736   8.645   4.732  1.00  0.00     0.023 C 
ENDROOT
BRANCH   1   2
ATOM      2  C   UNL     1       1.197   7.200   4.636  1.00  0.00     0.023 C 
BRANCH   2   3
ATOM      3  C   UNL     1       0.038   6.327   4.186  1.00  0.00     0.116 C 
BRANCH   3   4
ATOM      4  N   UNL     1      -0.433   6.780   2.869  1.00  0.00    -0.352 N 
ATOM      5  C   UNL     1      -0.403   5.861   1.722  1.00  0.00     0.251 C 
ATOM      6  O   UNL     1      -0.811   6.252   0.583  1.00  0.00    -0.270 OA
ATOM      7  H   UNL     1      -0.769   7.698   2.755  1.00  0.00     0.163 HD
BRANCH   5   8
ATOM      8  C   UNL     1       0.115   4.443   1.897  1.00  0.00     0.067 C 
ATOM      9  C   UNL     1       1.048   0.404   2.409  1.00  0.00    -0.004 A 
ATOM     10  C   UNL     1       1.677  -0.018   3.567  1.00  0.00     0.032 A 
ATOM     11  C   UNL     1       0.705   1.728   2.290  1.00  0.00     0.131 A 
ATOM     12  C   UNL     1       1.952   0.862   4.580  1.00  0.00     0.108 A 
ATOM     13  C   UNL     1       0.982   2.649   3.284  1.00  0.00     0.019 A 
ATOM     14  O   UNL     1      -0.019   2.110   1.187  1.00  0.00    -0.475 OA
ATOM     15  C   UNL     1       1.611   2.191   4.436  1.00  0.00     0.036 A 
ATOM     16  C   UNL     1       0.544   4.019   3.080  1.00  0.00     0.025 C 
ATOM     17  C   UNL     1       0.153   3.477   0.720  1.00  0.00     0.314 C 
BRANCH   9  18
ATOM     18  C   UNL     1       0.542  -0.543   1.333  1.00  0.00     0.036 C 
ATOM     19  C   UNL     1       1.048  -0.084  -0.025  1.00  0.00     0.009 C 
ENDBRANCH   9  18
BRANCH  12  20
ATOM     20  S   UNL     1       2.754   0.285   6.096  1.00  0.00     0.310 S 
ATOM     21  F   UNL     1       1.387   0.529   6.862  1.00  0.00    -0.094 F 
ATOM     22  F   UNL     1       3.142   1.769   6.458  1.00  0.00    -0.094 F 
ATOM     23  F   UNL     1       3.345  -0.226   7.441  1.00  0.00    -0.094 F 
ATOM     24  F   UNL     1       2.233  -1.172   5.780  1.00  0.00    -0.094 F 
ATOM     25  F   UNL     1       2.050   0.807   4.780  1.00  0.00    -0.094 F 
ENDBRANCH  12  20
BRANCH  17  26
ATOM     26  C   UNL     1      -0.975   3.820  -0.239  1.00  0.00     0.429 C 
ATOM     27  F   UNL     1      -0.823   5.068  -0.674  1.00  0.00    -0.167 F 
ATOM     28  F   UNL     1      -0.946   2.984  -1.273  1.00  0.00    -0.167 F 
ATOM     29  F   UNL     1      -2.141   3.708   0.390  1.00  0.00    -0.167 F 
ENDBRANCH  17  26
ENDBRANCH   5   8
ENDBRANCH   3   4
ENDBRANCH   2   3
ENDBRANCH   1   2
BRANCH   1  30
ATOM     30  C   UNL     1      -0.398   8.749   5.740  1.00  0.00     0.116 C 
BRANCH  30  31
ATOM     31  N   UNL     1       0.073   8.297   7.056  1.00  0.00    -0.352 N 
ATOM     32  C   UNL     1       0.043   9.216   8.203  1.00  0.00     0.251 C 
ATOM     33  H   UNL     1       0.409   7.378   7.170  1.00  0.00     0.163 HD
ATOM     34  O   UNL     1       0.451   8.824   9.342  1.00  0.00    -0.269 OA
BRANCH  32  35
ATOM     35  C   UNL     1      -0.475  10.634   8.028  1.00  0.00     0.039 A 
ATOM     36  C   UNL     1       0.231  11.687   8.585  1.00  0.00     0.014 A 
ATOM     37  C   UNL     1      -1.595  10.840   7.345  1.00  0.00     0.014 A 
ATOM     38  C   UNL     1      -0.485  12.907   8.613  1.00  0.00     0.010 A 
ATOM     39  C   UNL     1      -2.167  12.088   7.301  1.00  0.00     0.010 A 
ATOM     40  C   UNL     1      -1.554  13.164   7.881  1.00  0.00    -0.014 A 
BRANCH  40  41
ATOM     41  C   UNL     1      -2.075  14.580   7.695  1.00  0.00     0.031 A 
ATOM     42  C   UNL     1      -3.370  14.885   8.116  1.00  0.00     0.074 A 
ATOM     43  C   UNL     1      -1.219  15.491   7.101  1.00  0.00     0.049 A 
ATOM     44  N   UNL     1      -3.986  16.067   8.059  1.00  0.00    -0.248 NA
ATOM     45  C   UNL     1      -4.293  13.911   8.716  1.00  0.00     0.031 C 
ATOM     46  C   UNL     1       0.093  15.193   6.681  1.00  0.00     0.029 A 
ATOM     47  N   UNL     1      -1.463  16.815   6.810  1.00  0.00    -0.354 N 
ATOM     48  C   UNL     1      -5.214  15.972   8.575  1.00  0.00     0.074 A 
ATOM     49  C   UNL     1      -5.431  14.582   8.999  1.00  0.00     0.031 C 
ATOM     50  C   UNL     1       0.627  16.317   6.136  1.00  0.00     0.029 A 
ATOM     51  C   UNL     1      -0.341  17.337   6.205  1.00  0.00     0.049 A 
ATOM     52  H   UNL     1      -2.296  17.304   7.002  1.00  0.00     0.167 HD
ATOM     53  C   UNL     1      -6.159  16.990   8.710  1.00  0.00     0.037 A 
ATOM     54  C   UNL     1      -0.153  18.626   5.733  1.00  0.00     0.037 A 
ATOM     55  C   UNL     1      -5.955  18.291   8.277  1.00  0.00     0.049 A 
ATOM     56  C   UNL     1      -1.121  19.631   5.815  1.00  0.00     0.074 A 
ATOM     57  C   UNL     1      -6.895  19.331   8.412  1.00  0.00     0.029 A 
ATOM     58  N   UNL     1      -4.843  18.806   7.649  1.00  0.00    -0.354 N 
ATOM     59  N   UNL     1      -2.333  19.545   6.367  1.00  0.00    -0.248 NA
ATOM     60  C   UNL     1      -0.946  20.990   5.289  1.00  0.00     0.031 C 
ATOM     61  C   UNL     1      -6.360  20.455   7.866  1.00  0.00     0.029 A 
ATOM     62  C   UNL     1      -5.078  20.136   7.380  1.00  0.00     0.049 A 
ATOM     63  H   UNL     1      -4.021  18.310   7.431  1.00  0.00     0.167 HD
ATOM     64  C   UNL     1      -2.964  20.717   6.272  1.00  0.00     0.074 A 
ATOM     65  C   UNL     1      -2.084  21.662   5.570  1.00  0.00     0.031 C 
ATOM     66  C   UNL     1      -4.238  21.038   6.745  1.00  0.00     0.037 A 
BRANCH  53  67
ATOM     67  C   UNL     1      -7.486  16.654   9.370  1.00  0.00     0.057 A 
ATOM     68  C   UNL     1      -7.503  16.169  10.667  1.00  0.00     0.134 A 
ATOM     69  C   UNL     1      -8.610  16.820   8.683  1.00  0.00     0.134 A 
ATOM     70  F   UNL     1      -6.447  16.222  11.475  1.00  0.00    -0.206 F 
ATOM     71  C   UNL     1      -8.744  15.611  11.055  1.00  0.00     0.040 A 
ATOM     72  C   UNL     1      -9.809  16.372   9.183  1.00  0.00     0.040 A 
ATOM     73  F   UNL     1      -8.575  17.427   7.499  1.00  0.00    -0.206 F 
ATOM     74  C   UNL     1      -9.889  15.829  10.435  1.00  0.00     0.006 A 
ENDBRANCH  53  67
BRANCH  54  75
ATOM     75  C   UNL     1       1.180  18.967   5.088  1.00  0.00     0.057 A 
ATOM     76  C   UNL     1       1.972  19.961   5.638  1.00  0.00     0.134 A 
ATOM     77  C   UNL     1       1.568  18.294   4.011  1.00  0.00     0.134 A 
ATOM     78  F   UNL     1       1.752  20.482   6.842  1.00  0.00    -0.206 F 
ATOM     79  C   UNL     1       3.037  20.374   4.802  1.00  0.00     0.040 A 
ATOM     80  C   UNL     1       2.695  18.668   3.321  1.00  0.00     0.040 A 
ATOM     81  F   UNL     1       0.859  17.247   3.598  1.00  0.00    -0.206 F 
ATOM     82  C   UNL     1       3.494  19.682   3.774  1.00  0.00     0.006 A 
ENDBRANCH  54  75
BRANCH  66  83
ATOM     83  C   UNL     1      -4.733  22.462   6.554  1.00  0.00     0.057 A 
ATOM     84  C   UNL     1      -4.844  22.969   5.269  1.00  0.00     0.134 A 
ATOM     85  C   UNL     1      -5.051  23.196   7.614  1.00  0.00     0.134 A 
ATOM     86  F   UNL     1      -4.783  22.207   4.181  1.00  0.00    -0.206 F 
ATOM     87  C   UNL     1      -5.027  24.371   5.221  1.00  0.00     0.040 A 
ATOM     88  C   UNL     1      -5.352  24.529   7.476  1.00  0.00     0.040 A 
ATOM     89  F   UNL     1      -5.078  22.635   8.819  1.00  0.00    -0.206 F 
ATOM     90  C   UNL     1      -5.421  25.111   6.241  1.00  0.00     0.006 A 
ENDBRANCH  66  83
ENDBRANCH  40  41
ENDBRANCH  32  35
ENDBRANCH  30  31
ENDBRANCH   1  30
TORSDOF 14
