REMARK SMILES Cc1oc2cc3c(cc2c1C)[C@H](C)[C@@H](CC(=O)N[C@H](CC1=c2ccccc2=NC1)C(=O)NCCCCNC(=O)c1ccc(-c2c4nc(c(-c5c(F)cccc5F)c5ccc([nH]5)c(-c5c(F)cccc5F)c5nc(c(-c6c(F)cccc6F)c6ccc2[nH]6)C=C5)C=C4)cc1)C(=O)O3
REMARK SMILES IDX 34 1 33 2 32 3 30 4 31 5 19 7 18 8 16 9 17 10 15 12 14 13
REMARK SMILES IDX 1 14 2 15 3 16 10 17 4 18 9 19 11 20 5 21 8 22 6 23 7 24
REMARK SMILES IDX 96 25 12 26 94 27 13 28 95 29 20 30 21 31 22 32 29 33 23 34
REMARK SMILES IDX 27 35 28 36 24 37 26 38 25 39 35 40 36 41 37 42 38 43 39 45
REMARK SMILES IDX 40 46 41 47 93 48 42 49 92 50 43 51 44 52 45 53 86 54 46 55
REMARK SMILES IDX 91 56 85 57 87 58 47 59 90 60 84 61 83 62 48 64 74 65 57 66
REMARK SMILES IDX 73 67 58 68 61 69 72 70 88 71 59 72 60 73 71 75 89 76 62 77
REMARK SMILES IDX 49 78 50 79 55 80 51 81 52 82 54 83 56 84 53 85 75 86 76 87
REMARK SMILES IDX 81 88 77 89 78 90 80 91 82 92 79 93 63 94 64 95 69 96 65 97
REMARK SMILES IDX 66 98 68 99 70 100 67 101
REMARK H PARENT 32 6 18 11 37 44 87 63 61 74
REMARK Flexibility Score: inf
ROOT
ATOM      1  C   UNL     1      -3.766  -5.186 -12.340  1.00  0.00     0.023 C 
ENDROOT
BRANCH   1   2
ATOM      2  C   UNL     1      -3.892  -4.681 -10.217  1.00  0.00     0.116 C 
BRANCH   2   3
ATOM      3  N   UNL     1      -3.843  -5.554  -8.935  1.00  0.00    -0.354 N 
ATOM      4  C   UNL     1      -2.814  -5.676  -8.033  1.00  0.00     0.242 C 
ATOM      5  O   UNL     1      -2.713  -6.740  -7.418  1.00  0.00    -0.273 OA
ATOM      6  H   UNL     1      -4.649  -6.087  -8.745  1.00  0.00     0.163 HD
BRANCH   4   7
ATOM      7  C   UNL     1      -1.699  -4.601  -7.942  1.00  0.00     0.175 C 
BRANCH   7   8
ATOM      8  N   UNL     1      -2.118  -3.179  -7.986  1.00  0.00    -0.344 N 
ATOM      9  C   UNL     1      -2.658  -2.331  -7.073  1.00  0.00     0.221 C 
ATOM     10  O   UNL     1      -2.818  -1.159  -7.425  1.00  0.00    -0.275 OA
ATOM     11  H   UNL     1      -1.973  -2.760  -8.865  1.00  0.00     0.164 HD
BRANCH   9  12
ATOM     12  C   UNL     1      -3.127  -2.774  -5.695  1.00  0.00     0.116 C 
BRANCH  12  13
ATOM     13  C   UNL     1      -4.637  -3.040  -5.736  1.00  0.00     0.116 C 
ATOM     14  C   UNL     1     -12.276  -6.212  -3.892  1.00  0.00     0.088 C 
ATOM     15  C   UNL     1     -10.932  -5.612  -4.018  1.00  0.00     0.105 A 
ATOM     16  O   UNL     1     -10.350  -5.723  -5.242  1.00  0.00    -0.461 OA
ATOM     17  C   UNL     1     -10.097  -4.940  -3.141  1.00  0.00    -0.002 A 
ATOM     18  C   UNL     1      -9.143  -5.107  -5.167  1.00  0.00     0.138 A 
ATOM     19  C   UNL     1      -8.951  -4.560  -3.905  1.00  0.00     0.024 A 
ATOM     20  C   UNL     1     -10.317  -4.675  -1.701  1.00  0.00     0.049 C 
ATOM     21  C   UNL     1      -8.214  -5.064  -6.191  1.00  0.00     0.095 A 
ATOM     22  C   UNL     1      -7.762  -3.839  -3.647  1.00  0.00     0.020 A 
ATOM     23  C   UNL     1      -7.021  -4.413  -5.880  1.00  0.00     0.138 A 
ATOM     24  C   UNL     1      -6.795  -3.726  -4.659  1.00  0.00    -0.001 A 
ATOM     25  O   UNL     1      -6.016  -4.578  -6.838  1.00  0.00    -0.426 OA
ATOM     26  C   UNL     1      -5.444  -3.017  -4.415  1.00  0.00     0.035 C 
ATOM     27  C   UNL     1      -4.852  -4.464  -6.130  1.00  0.00     0.315 C 
ATOM     28  C   UNL     1      -5.594  -1.603  -3.846  1.00  0.00     0.014 C 
ATOM     29  O   UNL     1      -4.211  -5.404  -5.686  1.00  0.00    -0.251 OA
ENDBRANCH  12  13
ENDBRANCH   9  12
ENDBRANCH   7   8
BRANCH   7  30
ATOM     30  C   UNL     1      -0.616  -4.904  -9.036  1.00  0.00     0.068 C 
BRANCH  30  31
ATOM     31  C   UNL     1      -1.099  -5.431 -10.381  1.00  0.00    -0.037 C 
ATOM     32  C   UNL     1      -2.042  -4.918 -11.191  1.00  0.00     0.001 A 
ATOM     33  C   UNL     1      -1.043  -6.968 -10.567  1.00  0.00     0.174 C 
ATOM     34  C   UNL     1      -2.965  -3.332 -11.570  1.00  0.00     0.010 A 
ATOM     35  C   UNL     1      -3.127  -6.496 -10.900  1.00  0.00     0.065 A 
ATOM     36  N   UNL     1      -2.426  -7.544 -10.615  1.00  0.00    -0.280 NA
ATOM     37  C   UNL     1      -4.548  -3.311 -11.705  1.00  0.00     0.001 A 
ATOM     38  C   UNL     1      -5.041  -6.232 -11.034  1.00  0.00     0.028 A 
ATOM     39  C   UNL     1      -5.632  -4.824 -11.350  1.00  0.00     0.002 A 
ENDBRANCH  30  31
ENDBRANCH   7  30
ENDBRANCH   4   7
ENDBRANCH   2   3
ENDBRANCH   1   2
BRANCH   1  40
ATOM     40  C   UNL     1      -4.848  -5.605 -13.574  1.00  0.00     0.023 C 
BRANCH  40  41
ATOM     41  C   UNL     1      -5.903  -4.625 -14.082  1.00  0.00     0.116 C 
BRANCH  41  42
ATOM     42  N   UNL     1      -5.551  -3.761 -15.197  1.00  0.00    -0.352 N 
ATOM     43  C   UNL     1      -6.358  -3.550 -16.307  1.00  0.00     0.251 C 
ATOM     44  H   UNL     1      -4.684  -3.295 -15.163  1.00  0.00     0.163 HD
ATOM     45  O   UNL     1      -6.169  -2.656 -17.116  1.00  0.00    -0.269 OA
BRANCH  43  46
ATOM     46  C   UNL     1      -7.450  -4.530 -16.474  1.00  0.00     0.039 A 
ATOM     47  C   UNL     1      -8.552  -4.428 -15.611  1.00  0.00     0.014 A 
ATOM     48  C   UNL     1      -7.061  -5.751 -17.038  1.00  0.00     0.014 A 
ATOM     49  C   UNL     1      -9.142  -5.602 -15.158  1.00  0.00     0.010 A 
ATOM     50  C   UNL     1      -7.675  -6.915 -16.599  1.00  0.00     0.010 A 
ATOM     51  C   UNL     1      -8.661  -6.844 -15.604  1.00  0.00    -0.014 A 
BRANCH  51  52
ATOM     52  C   UNL     1      -9.373  -8.034 -15.113  1.00  0.00     0.031 A 
ATOM     53  C   UNL     1     -10.285  -8.501 -16.205  1.00  0.00     0.074 A 
ATOM     54  C   UNL     1      -8.843  -8.958 -14.282  1.00  0.00     0.049 A 
ATOM     55  N   UNL     1      -9.839  -9.160 -17.235  1.00  0.00    -0.248 NA
ATOM     56  C   UNL     1     -11.598  -7.890 -16.412  1.00  0.00     0.031 C 
ATOM     57  C   UNL     1      -7.430  -9.351 -14.212  1.00  0.00     0.029 A 
ATOM     58  N   UNL     1      -9.480  -9.860 -13.456  1.00  0.00    -0.354 N 
ATOM     59  C   UNL     1     -10.760  -8.994 -18.250  1.00  0.00     0.074 A 
ATOM     60  C   UNL     1     -11.838  -8.206 -17.693  1.00  0.00     0.031 C 
ATOM     61  C   UNL     1      -7.344 -10.538 -13.575  1.00  0.00     0.029 A 
ATOM     62  C   UNL     1      -8.664 -10.927 -13.084  1.00  0.00     0.049 A 
ATOM     63  H   UNL     1     -10.414  -9.761 -13.160  1.00  0.00     0.167 HD
ATOM     64  C   UNL     1     -10.575  -9.495 -19.498  1.00  0.00     0.037 A 
ATOM     65  C   UNL     1      -9.111 -12.209 -12.958  1.00  0.00     0.037 A 
ATOM     66  C   UNL     1      -9.370 -10.241 -19.703  1.00  0.00     0.049 A 
ATOM     67  C   UNL     1      -9.193 -12.619 -14.414  1.00  0.00     0.074 A 
ATOM     68  C   UNL     1      -8.147 -10.076 -20.314  1.00  0.00     0.029 A 
ATOM     69  N   UNL     1      -9.317 -11.500 -19.154  1.00  0.00    -0.354 N 
ATOM     70  N   UNL     1      -8.194 -12.958 -15.187  1.00  0.00    -0.248 NA
ATOM     71  C   UNL     1     -10.422 -12.273 -15.131  1.00  0.00     0.031 C 
ATOM     72  C   UNL     1      -7.285 -11.045 -19.706  1.00  0.00     0.029 A 
ATOM     73  C   UNL     1      -8.031 -11.711 -18.734  1.00  0.00     0.049 A 
ATOM     74  H   UNL     1     -10.066 -12.134 -19.078  1.00  0.00     0.167 HD
ATOM     75  C   UNL     1      -8.585 -12.596 -16.482  1.00  0.00     0.074 A 
ATOM     76  C   UNL     1      -9.979 -12.221 -16.379  1.00  0.00     0.031 C 
ATOM     77  C   UNL     1      -7.716 -12.438 -17.524  1.00  0.00     0.037 A 
BRANCH  64  78
ATOM     78  C   UNL     1     -11.631  -9.536 -20.520  1.00  0.00     0.057 A 
ATOM     79  C   UNL     1     -12.360 -10.726 -20.633  1.00  0.00     0.134 A 
ATOM     80  C   UNL     1     -11.812  -8.557 -21.495  1.00  0.00     0.134 A 
ATOM     81  F   UNL     1     -12.211 -11.695 -19.713  1.00  0.00    -0.206 F 
ATOM     82  C   UNL     1     -13.206 -10.966 -21.709  1.00  0.00     0.040 A 
ATOM     83  C   UNL     1     -12.670  -8.780 -22.576  1.00  0.00     0.040 A 
ATOM     84  F   UNL     1     -11.137  -7.400 -21.441  1.00  0.00    -0.206 F 
ATOM     85  C   UNL     1     -13.353  -9.993 -22.693  1.00  0.00     0.006 A 
ENDBRANCH  64  78
BRANCH  65  86
ATOM     86  C   UNL     1     -10.228 -12.404 -11.975  1.00  0.00     0.057 A 
ATOM     87  C   UNL     1     -10.083 -11.853 -10.685  1.00  0.00     0.134 A 
ATOM     88  C   UNL     1     -11.438 -13.067 -12.213  1.00  0.00     0.134 A 
ATOM     89  F   UNL     1      -8.914 -11.314 -10.305  1.00  0.00    -0.206 F 
ATOM     90  C   UNL     1     -11.129 -11.818  -9.758  1.00  0.00     0.040 A 
ATOM     91  C   UNL     1     -12.505 -13.016 -11.306  1.00  0.00     0.040 A 
ATOM     92  F   UNL     1     -11.641 -13.770 -13.334  1.00  0.00    -0.206 F 
ATOM     93  C   UNL     1     -12.362 -12.365 -10.086  1.00  0.00     0.006 A 
ENDBRANCH  65  86
BRANCH  77  94
ATOM     94  C   UNL     1      -6.312 -12.864 -17.271  1.00  0.00     0.057 A 
ATOM     95  C   UNL     1      -6.002 -14.221 -17.141  1.00  0.00     0.134 A 
ATOM     96  C   UNL     1      -5.252 -11.948 -17.222  1.00  0.00     0.134 A 
ATOM     97  F   UNL     1      -6.970 -15.150 -17.194  1.00  0.00    -0.206 F 
ATOM     98  C   UNL     1      -4.684 -14.654 -16.991  1.00  0.00     0.040 A 
ATOM     99  C   UNL     1      -3.928 -12.372 -17.102  1.00  0.00     0.040 A 
ATOM    100  F   UNL     1      -5.475 -10.627 -17.319  1.00  0.00    -0.206 F 
ATOM    101  C   UNL     1      -3.641 -13.730 -16.987  1.00  0.00     0.006 A 
ENDBRANCH  77  94
ENDBRANCH  51  52
ENDBRANCH  43  46
ENDBRANCH  41  42
ENDBRANCH  40  41
ENDBRANCH   1  40
TORSDOF 16
