REMARK SMILES C[NH2+][C@]1(C(=O)NCCCCNC(=O)c2ccc(-c3c4nc(c(-c5c(F)cccc5F)c5ccc([nH]5)c(-c5c(F)cccc5F)c5nc(c(-c6c(F)cccc6F)c6ccc3[nH]6)C=C5)C=C4)cc2)CCC[C@@H]1CCn1nc(C)c(Cl)c1C
REMARK SMILES IDX 8 1 7 2 6 3 4 4 5 5 3 7 68 8 71 9 69 10 70 11 2 12 1 13
REMARK SMILES IDX 72 16 73 17 74 18 75 19 80 20 76 21 78 22 81 23 77 24 79 25
REMARK SMILES IDX 9 26 10 27 11 28 12 29 13 31 14 32 15 33 67 34 16 35 66 36
REMARK SMILES IDX 17 37 18 38 19 39 60 40 20 41 65 42 59 43 61 44 21 45 64 46
REMARK SMILES IDX 58 47 57 48 22 50 48 51 31 52 47 53 32 54 35 55 46 56 62 57
REMARK SMILES IDX 33 58 34 59 45 61 63 62 36 63 23 64 24 65 29 66 25 67 26 68
REMARK SMILES IDX 28 69 30 70 27 71 49 72 50 73 55 74 51 75 52 76 54 77 56 78
REMARK SMILES IDX 53 79 37 80 38 81 43 82 39 83 40 84 42 85 44 86 41 87
REMARK H PARENT 6 6 2 14 2 15 11 30 61 49 35 60
REMARK Flexibility Score: inf
ROOT
ATOM      1  C   UNL     1       1.020   1.066  -5.109  1.00  0.00     0.023 C 
ENDROOT
BRANCH   1   2
ATOM      2  C   UNL     1       0.473   0.065  -4.099  1.00  0.00     0.116 C 
BRANCH   2   3
ATOM      3  N   UNL     1       1.076   0.211  -2.785  1.00  0.00    -0.351 N 
ATOM      4  C   UNL     1       0.577   0.209  -1.513  1.00  0.00     0.281 C 
ATOM      5  O   UNL     1       1.454   0.234  -0.644  1.00  0.00    -0.268 OA
ATOM      6  H   UNL     1       2.051   0.339  -2.818  1.00  0.00     0.163 HD
BRANCH   4   7
ATOM      7  C   UNL     1      -0.964   0.143  -1.204  1.00  0.00     0.178 C 
ATOM      8  C   UNL     1      -1.724   1.302  -1.887  1.00  0.00     0.079 C 
ATOM      9  C   UNL     1      -1.613  -1.112  -1.855  1.00  0.00     0.062 C 
ATOM     10  C   UNL     1      -3.122   0.771  -2.212  1.00  0.00     0.008 C 
ATOM     11  C   UNL     1      -3.093  -0.745  -2.009  1.00  0.00     0.011 C 
BRANCH   7  12
ATOM     12  N   UNL     1      -1.385   0.260   0.226  1.00  0.00    -0.336 N 
ATOM     13  C   UNL     1      -0.378   0.262   1.267  1.00  0.00     0.331 C 
ATOM     14  H   UNL     1      -1.903   1.135   0.313  1.00  0.00     0.346 HD
ATOM     15  H   UNL     1      -1.903  -0.602   0.395  1.00  0.00     0.346 HD
ENDBRANCH   7  12
BRANCH   9  16
ATOM     16  C   UNL     1      -1.355  -2.440  -1.123  1.00  0.00     0.034 C 
BRANCH  16  17
ATOM     17  C   UNL     1      -1.636  -3.677  -1.985  1.00  0.00     0.145 C 
BRANCH  17  18
ATOM     18  N   UNL     1      -0.707  -3.852  -3.092  1.00  0.00    -0.268 N 
ATOM     19  N   UNL     1       0.529  -4.317  -2.812  1.00  0.00    -0.176 NA
ATOM     20  C   UNL     1      -0.911  -3.639  -4.435  1.00  0.00     0.054 A 
ATOM     21  C   UNL     1       1.114  -4.462  -4.007  1.00  0.00     0.078 A 
ATOM     22  C   UNL     1       0.250  -4.064  -5.049  1.00  0.00     0.084 A 
ATOM     23  C   UNL     1      -2.137  -3.058  -5.036  1.00  0.00     0.068 C 
ATOM     24  C   UNL     1       2.496  -4.994  -4.096  1.00  0.00     0.070 C 
ATOM     25  Cl  UNL     1       0.591  -4.093  -6.709  1.00  0.00    -0.080 Cl
ENDBRANCH  17  18
ENDBRANCH  16  17
ENDBRANCH   9  16
ENDBRANCH   4   7
ENDBRANCH   2   3
ENDBRANCH   1   2
BRANCH   1  26
ATOM     26  C   UNL     1       2.514   0.942  -5.403  1.00  0.00     0.023 C 
BRANCH  26  27
ATOM     27  C   UNL     1       2.992  -0.453  -5.788  1.00  0.00     0.116 C 
BRANCH  27  28
ATOM     28  N   UNL     1       2.315  -0.986  -6.961  1.00  0.00    -0.352 N 
ATOM     29  C   UNL     1       2.847  -1.524  -8.107  1.00  0.00     0.251 C 
ATOM     30  H   UNL     1       1.331  -0.955  -6.928  1.00  0.00     0.163 HD
ATOM     31  O   UNL     1       2.120  -1.802  -9.057  1.00  0.00    -0.269 OA
BRANCH  29  32
ATOM     32  C   UNL     1       4.306  -1.729  -8.213  1.00  0.00     0.039 A 
ATOM     33  C   UNL     1       4.959  -1.299  -9.370  1.00  0.00     0.014 A 
ATOM     34  C   UNL     1       5.030  -2.308  -7.167  1.00  0.00     0.014 A 
ATOM     35  C   UNL     1       6.351  -1.367  -9.442  1.00  0.00     0.010 A 
ATOM     36  C   UNL     1       6.420  -2.305  -7.208  1.00  0.00     0.010 A 
ATOM     37  C   UNL     1       7.094  -1.825  -8.342  1.00  0.00    -0.014 A 
BRANCH  37  38
ATOM     38  C   UNL     1       8.578  -1.787  -8.354  1.00  0.00     0.031 A 
ATOM     39  C   UNL     1       9.369  -3.062  -8.292  1.00  0.00     0.074 A 
ATOM     40  C   UNL     1       9.210  -0.597  -8.352  1.00  0.00     0.049 A 
ATOM     41  N   UNL     1      10.666  -3.227  -8.235  1.00  0.00    -0.248 NA
ATOM     42  C   UNL     1       8.601  -4.316  -8.263  1.00  0.00     0.031 C 
ATOM     43  C   UNL     1       8.553   0.712  -8.352  1.00  0.00     0.029 A 
ATOM     44  N   UNL     1      10.548  -0.295  -8.339  1.00  0.00    -0.354 N 
ATOM     45  C   UNL     1      10.868  -4.597  -8.148  1.00  0.00     0.074 A 
ATOM     46  C   UNL     1       9.561  -5.216  -8.109  1.00  0.00     0.031 C 
ATOM     47  C   UNL     1       9.489   1.674  -8.366  1.00  0.00     0.029 A 
ATOM     48  C   UNL     1      10.809   1.053  -8.342  1.00  0.00     0.049 A 
ATOM     49  H   UNL     1      11.255  -0.981  -8.330  1.00  0.00     0.167 HD
ATOM     50  C   UNL     1      12.037  -5.280  -8.126  1.00  0.00     0.037 A 
ATOM     51  C   UNL     1      11.982   1.714  -8.325  1.00  0.00     0.037 A 
ATOM     52  C   UNL     1      13.336  -4.664  -8.193  1.00  0.00     0.049 A 
ATOM     53  C   UNL     1      13.265   0.933  -8.313  1.00  0.00     0.074 A 
ATOM     54  C   UNL     1      14.578  -5.272  -8.240  1.00  0.00     0.029 A 
ATOM     55  N   UNL     1      13.559  -3.296  -8.222  1.00  0.00    -0.354 N 
ATOM     56  N   UNL     1      13.442  -0.365  -8.303  1.00  0.00    -0.248 NA
ATOM     57  C   UNL     1      14.513   1.710  -8.318  1.00  0.00     0.031 C 
ATOM     58  C   UNL     1      15.555  -4.271  -8.263  1.00  0.00     0.029 A 
ATOM     59  C   UNL     1      14.920  -3.040  -8.270  1.00  0.00     0.049 A 
ATOM     60  H   UNL     1      12.855  -2.608  -8.209  1.00  0.00     0.167 HD
ATOM     61  C   UNL     1      14.816  -0.563  -8.326  1.00  0.00     0.074 A 
ATOM     62  C   UNL     1      15.427   0.750  -8.364  1.00  0.00     0.031 C 
ATOM     63  C   UNL     1      15.510  -1.727  -8.316  1.00  0.00     0.037 A 
BRANCH  50  64
ATOM     64  C   UNL     1      11.960  -6.775  -8.034  1.00  0.00     0.057 A 
ATOM     65  C   UNL     1      11.518  -7.557  -9.110  1.00  0.00     0.134 A 
ATOM     66  C   UNL     1      12.355  -7.443  -6.868  1.00  0.00     0.134 A 
ATOM     67  F   UNL     1      11.113  -6.978 -10.250  1.00  0.00    -0.206 F 
ATOM     68  C   UNL     1      11.447  -8.948  -9.020  1.00  0.00     0.040 A 
ATOM     69  C   UNL     1      12.312  -8.835  -6.776  1.00  0.00     0.040 A 
ATOM     70  F   UNL     1      12.793  -6.755  -5.803  1.00  0.00    -0.206 F 
ATOM     71  C   UNL     1      11.850  -9.591  -7.852  1.00  0.00     0.006 A 
ENDBRANCH  50  64
BRANCH  51  72
ATOM     72  C   UNL     1      11.998   3.198  -8.349  1.00  0.00     0.057 A 
ATOM     73  C   UNL     1      12.411   3.894  -9.491  1.00  0.00     0.134 A 
ATOM     74  C   UNL     1      11.609   3.954  -7.237  1.00  0.00     0.134 A 
ATOM     75  F   UNL     1      12.813   3.224 -10.581  1.00  0.00    -0.206 F 
ATOM     76  C   UNL     1      12.454   5.289  -9.521  1.00  0.00     0.040 A 
ATOM     77  C   UNL     1      11.625   5.349  -7.261  1.00  0.00     0.040 A 
ATOM     78  F   UNL     1      11.196   3.345  -6.116  1.00  0.00    -0.206 F 
ATOM     79  C   UNL     1      12.055   6.021  -8.404  1.00  0.00     0.006 A 
ENDBRANCH  51  72
BRANCH  63  80
ATOM     80  C   UNL     1      17.005  -1.632  -8.380  1.00  0.00     0.057 A 
ATOM     81  C   UNL     1      17.765  -1.219  -7.279  1.00  0.00     0.134 A 
ATOM     82  C   UNL     1      17.692  -1.993  -9.546  1.00  0.00     0.134 A 
ATOM     83  F   UNL     1      17.165  -0.847  -6.139  1.00  0.00    -0.206 F 
ATOM     84  C   UNL     1      19.158  -1.149  -7.343  1.00  0.00     0.040 A 
ATOM     85  C   UNL     1      19.085  -1.950  -9.613  1.00  0.00     0.040 A 
ATOM     86  F   UNL     1      17.021  -2.404 -10.632  1.00  0.00    -0.206 F 
ATOM     87  C   UNL     1      19.821  -1.522  -8.511  1.00  0.00     0.006 A 
ENDBRANCH  63  80
ENDBRANCH  37  38
ENDBRANCH  29  32
ENDBRANCH  27  28
ENDBRANCH  26  27
ENDBRANCH   1  26
TORSDOF 15
