REMARK SMILES CC1=C(C)C[C@@H](C(=O)N[C@H](C)C(C)(C)C)[C@@H](C(=O)NCCCCNC(=O)c2ccc(-c3c4nc(c(-c5c(F)cccc5F)c5ccc([nH]5)c(-c5c(F)cccc5F)c5nc(c(-c6c(F)cccc6F)c6ccc3[nH]6)C=C5)C=C4)cc2)C1
REMARK SMILES IDX 21 1 20 2 19 3 17 4 18 5 16 7 1 8 2 9 3 10 81 11 4 12 5 13
REMARK SMILES IDX 6 14 7 15 8 16 9 17 10 19 11 20 12 21 13 22 14 23 15 24
REMARK SMILES IDX 22 25 23 26 24 27 25 28 26 30 27 31 28 32 80 33 29 34 79 35
REMARK SMILES IDX 30 36 31 37 32 38 73 39 33 40 78 41 72 42 74 43 34 44 77 45
REMARK SMILES IDX 71 46 70 47 35 49 61 50 44 51 60 52 45 53 48 54 59 55 75 56
REMARK SMILES IDX 46 57 47 58 58 60 76 61 49 62 36 63 37 64 42 65 38 66 39 67
REMARK SMILES IDX 41 68 43 69 40 70 62 71 63 72 68 73 64 74 65 75 67 76 69 77
REMARK SMILES IDX 66 78 50 79 51 80 56 81 52 82 53 83 55 84 57 85 54 86
REMARK H PARENT 19 6 9 18 24 29 74 48 48 59
REMARK Flexibility Score: inf
ROOT
ATOM      1  C   UNL     1       0.647  -2.514  -3.881  1.00  0.00     0.023 C 
ENDROOT
BRANCH   1   2
ATOM      2  C   UNL     1      -0.613  -2.661  -3.034  1.00  0.00     0.116 C 
BRANCH   2   3
ATOM      3  N   UNL     1      -1.811  -2.135  -3.653  1.00  0.00    -0.356 N 
ATOM      4  C   UNL     1      -3.132  -2.393  -3.489  1.00  0.00     0.224 C 
ATOM      5  O   UNL     1      -3.889  -1.567  -4.017  1.00  0.00    -0.275 OA
ATOM      6  H   UNL     1      -1.629  -1.448  -4.334  1.00  0.00     0.163 HD
BRANCH   4   7
ATOM      7  C   UNL     1      -3.752  -3.596  -2.760  1.00  0.00     0.095 C 
ATOM      8  C   UNL     1      -1.584  -6.581  -1.489  1.00  0.00     0.039 C 
ATOM      9  C   UNL     1      -2.778  -5.664  -1.518  1.00  0.00    -0.074 C 
ATOM     10  C   UNL     1      -3.569  -5.466  -0.442  1.00  0.00    -0.074 C 
ATOM     11  C   UNL     1      -3.042  -4.958  -2.830  1.00  0.00     0.045 C 
ATOM     12  C   UNL     1      -3.438  -6.209   0.867  1.00  0.00     0.039 C 
ATOM     13  C   UNL     1      -4.660  -4.427  -0.447  1.00  0.00     0.045 C 
ATOM     14  C   UNL     1      -4.492  -3.268  -1.440  1.00  0.00     0.095 C 
BRANCH  14  15
ATOM     15  C   UNL     1      -4.315  -1.892  -0.777  1.00  0.00     0.224 C 
ATOM     16  O   UNL     1      -5.210  -1.048  -0.949  1.00  0.00    -0.275 OA
ATOM     17  N   UNL     1      -3.332  -1.464   0.045  1.00  0.00    -0.353 N 
ATOM     18  H   UNL     1      -3.565  -0.578   0.404  1.00  0.00     0.163 HD
BRANCH  17  19
ATOM     19  C   UNL     1      -2.025  -1.885   0.580  1.00  0.00     0.084 C 
ATOM     20  C   UNL     1      -1.490  -3.180   0.032  1.00  0.00     0.031 C 
BRANCH  19  21
ATOM     21  C   UNL     1      -1.940  -1.821   2.153  1.00  0.00    -0.018 C 
ATOM     22  C   UNL     1      -0.788  -2.694   2.711  1.00  0.00     0.013 C 
ATOM     23  C   UNL     1      -1.655  -0.371   2.591  1.00  0.00     0.013 C 
ATOM     24  C   UNL     1      -3.250  -2.288   2.814  1.00  0.00     0.013 C 
ENDBRANCH  19  21
ENDBRANCH  17  19
ENDBRANCH  14  15
ENDBRANCH   4   7
ENDBRANCH   2   3
ENDBRANCH   1   2
BRANCH   1  25
ATOM     25  C   UNL     1       1.194  -1.090  -3.986  1.00  0.00     0.023 C 
BRANCH  25  26
ATOM     26  C   UNL     1       1.400  -0.349  -2.665  1.00  0.00     0.116 C 
BRANCH  26  27
ATOM     27  N   UNL     1       2.289  -1.035  -1.736  1.00  0.00    -0.352 N 
ATOM     28  C   UNL     1       3.473  -0.608  -1.173  1.00  0.00     0.251 C 
ATOM     29  H   UNL     1       2.000  -1.938  -1.469  1.00  0.00     0.163 HD
ATOM     30  O   UNL     1       4.131  -1.357  -0.467  1.00  0.00    -0.269 OA
BRANCH  28  31
ATOM     31  C   UNL     1       3.965   0.754  -1.472  1.00  0.00     0.039 A 
ATOM     32  C   UNL     1       5.258   0.908  -1.976  1.00  0.00     0.014 A 
ATOM     33  C   UNL     1       3.126   1.859  -1.320  1.00  0.00     0.014 A 
ATOM     34  C   UNL     1       5.672   2.161  -2.435  1.00  0.00     0.010 A 
ATOM     35  C   UNL     1       3.510   3.086  -1.852  1.00  0.00     0.010 A 
ATOM     36  C   UNL     1       4.779   3.245  -2.432  1.00  0.00    -0.014 A 
BRANCH  36  37
ATOM     37  C   UNL     1       5.131   4.542  -3.065  1.00  0.00     0.031 A 
ATOM     38  C   UNL     1       5.182   5.796  -2.240  1.00  0.00     0.074 A 
ATOM     39  C   UNL     1       5.298   4.609  -4.401  1.00  0.00     0.049 A 
ATOM     40  N   UNL     1       5.354   7.035  -2.627  1.00  0.00    -0.248 NA
ATOM     41  C   UNL     1       4.977   5.640  -0.792  1.00  0.00     0.031 C 
ATOM     42  C   UNL     1       5.207   3.477  -5.325  1.00  0.00     0.029 A 
ATOM     43  N   UNL     1       5.556   5.682  -5.217  1.00  0.00    -0.354 N 
ATOM     44  C   UNL     1       5.254   7.805  -1.476  1.00  0.00     0.074 A 
ATOM     45  C   UNL     1       4.955   6.901  -0.387  1.00  0.00     0.031 C 
ATOM     46  C   UNL     1       5.415   3.913  -6.577  1.00  0.00     0.029 A 
ATOM     47  C   UNL     1       5.618   5.358  -6.551  1.00  0.00     0.049 A 
ATOM     48  H   UNL     1       5.685   6.598  -4.879  1.00  0.00     0.167 HD
ATOM     49  C   UNL     1       5.419   9.142  -1.335  1.00  0.00     0.037 A 
ATOM     50  C   UNL     1       5.805   6.137  -7.633  1.00  0.00     0.037 A 
ATOM     51  C   UNL     1       5.743  10.037  -2.414  1.00  0.00     0.049 A 
ATOM     52  C   UNL     1       6.005   7.615  -7.452  1.00  0.00     0.074 A 
ATOM     53  C   UNL     1       6.005  11.395  -2.361  1.00  0.00     0.029 A 
ATOM     54  N   UNL     1       5.846   9.662  -3.746  1.00  0.00    -0.354 N 
ATOM     55  N   UNL     1       5.990   8.320  -6.348  1.00  0.00    -0.248 NA
ATOM     56  C   UNL     1       6.257   8.405  -8.666  1.00  0.00     0.031 C 
ATOM     57  C   UNL     1       6.228  11.849  -3.665  1.00  0.00     0.029 A 
ATOM     58  C   UNL     1       6.148  10.766  -4.526  1.00  0.00     0.049 A 
ATOM     59  H   UNL     1       5.723   8.746  -4.086  1.00  0.00     0.167 HD
ATOM     60  C   UNL     1       6.250   9.630  -6.728  1.00  0.00     0.074 A 
ATOM     61  C   UNL     1       6.432   9.620  -8.165  1.00  0.00     0.031 C 
ATOM     62  C   UNL     1       6.330  10.740  -5.955  1.00  0.00     0.037 A 
BRANCH  49  63
ATOM     63  C   UNL     1       5.251   9.711   0.044  1.00  0.00     0.057 A 
ATOM     64  C   UNL     1       6.176   9.455   1.066  1.00  0.00     0.134 A 
ATOM     65  C   UNL     1       4.157  10.527   0.354  1.00  0.00     0.134 A 
ATOM     66  F   UNL     1       7.241   8.670   0.838  1.00  0.00    -0.206 F 
ATOM     67  C   UNL     1       5.999   9.959   2.355  1.00  0.00     0.040 A 
ATOM     68  C   UNL     1       3.984  11.061   1.633  1.00  0.00     0.040 A 
ATOM     69  F   UNL     1       3.237  10.818  -0.578  1.00  0.00    -0.206 F 
ATOM     70  C   UNL     1       4.901  10.768   2.640  1.00  0.00     0.006 A 
ENDBRANCH  49  63
BRANCH  50  71
ATOM     71  C   UNL     1       5.828   5.525  -8.986  1.00  0.00     0.057 A 
ATOM     72  C   UNL     1       7.024   5.403  -9.702  1.00  0.00     0.134 A 
ATOM     73  C   UNL     1       4.662   5.038  -9.588  1.00  0.00     0.134 A 
ATOM     74  F   UNL     1       8.171   5.868  -9.184  1.00  0.00    -0.206 F 
ATOM     75  C   UNL     1       7.059   4.830 -10.974  1.00  0.00     0.040 A 
ATOM     76  C   UNL     1       4.685   4.442 -10.850  1.00  0.00     0.040 A 
ATOM     77  F   UNL     1       3.486   5.118  -8.948  1.00  0.00    -0.206 F 
ATOM     78  C   UNL     1       5.887   4.342 -11.549  1.00  0.00     0.006 A 
ENDBRANCH  50  71
BRANCH  62  79
ATOM     79  C   UNL     1       6.654  12.034  -6.641  1.00  0.00     0.057 A 
ATOM     80  C   UNL     1       5.712  12.709  -7.427  1.00  0.00     0.134 A 
ATOM     81  C   UNL     1       7.908  12.635  -6.473  1.00  0.00     0.134 A 
ATOM     82  F   UNL     1       4.498  12.179  -7.638  1.00  0.00    -0.206 F 
ATOM     83  C   UNL     1       6.011  13.931  -8.033  1.00  0.00     0.040 A 
ATOM     84  C   UNL     1       8.210  13.867  -7.054  1.00  0.00     0.040 A 
ATOM     85  F   UNL     1       8.853  12.043  -5.727  1.00  0.00    -0.206 F 
ATOM     86  C   UNL     1       7.261  14.517  -7.840  1.00  0.00     0.006 A 
ENDBRANCH  62  79
ENDBRANCH  36  37
ENDBRANCH  28  31
ENDBRANCH  26  27
ENDBRANCH  25  26
ENDBRANCH   1  25
TORSDOF 14
