REMARK SMILES O=C(NCCCCNC(=O)[C@H](F)Sc1cc2ccccc2[nH]1)c1ccc(-c2c3nc(c(-c4c(F)cccc4F)c4ccc([nH]4)c(-c4c(F)cccc4F)c4nc(c(-c5c(F)cccc5F)c5ccc2[nH]5)C=C4)C=C3)cc1
REMARK SMILES IDX 5 1 4 2 3 3 1 4 2 5 23 7 24 8 76 9 25 10 75 11 26 12 27 13
REMARK SMILES IDX 28 14 69 15 29 16 74 17 68 18 70 19 30 20 73 21 67 22 66 23
REMARK SMILES IDX 31 25 57 26 40 27 56 28 41 29 44 30 55 31 71 32 42 33 43 34
REMARK SMILES IDX 54 36 72 37 45 38 32 39 33 40 38 41 34 42 35 43 37 44 39 45
REMARK SMILES IDX 36 46 58 47 59 48 64 49 60 50 61 51 63 52 65 53 62 54 46 55
REMARK SMILES IDX 47 56 52 57 48 58 49 59 51 60 53 61 50 62 6 63 7 64 8 65
REMARK SMILES IDX 9 66 10 68 11 69 12 70 13 71 14 72 15 73 22 74 16 75 21 76
REMARK SMILES IDX 17 78 20 79 18 80 19 81
REMARK H PARENT 3 6 70 24 44 35 8 67 22 77
REMARK Flexibility Score: inf
ROOT
ATOM      1  C   UNL     1       7.764  -7.524  -0.326  1.00  0.00     0.023 C 
ENDROOT
BRANCH   1   2
ATOM      2  C   UNL     1       7.860  -9.027  -0.563  1.00  0.00     0.116 C 
BRANCH   2   3
ATOM      3  N   UNL     1       9.227  -9.515  -0.652  1.00  0.00    -0.352 N 
ATOM      4  O   UNL     1      11.032 -10.762  -0.123  1.00  0.00    -0.269 OA
ATOM      5  C   UNL     1       9.827 -10.564   0.009  1.00  0.00     0.251 C 
ATOM      6  H   UNL     1       9.809  -9.025  -1.277  1.00  0.00     0.163 HD
BRANCH   5   7
ATOM      7  C   UNL     1       9.034 -11.428   0.913  1.00  0.00     0.039 A 
ATOM      8  C   UNL     1       7.775 -11.900   0.539  1.00  0.00     0.014 A 
ATOM      9  C   UNL     1       9.557 -11.758   2.168  1.00  0.00     0.014 A 
ATOM     10  C   UNL     1       6.973 -12.544   1.476  1.00  0.00     0.010 A 
ATOM     11  C   UNL     1       8.780 -12.481   3.080  1.00  0.00     0.010 A 
ATOM     12  C   UNL     1       7.461 -12.835   2.761  1.00  0.00    -0.014 A 
BRANCH  12  13
ATOM     13  C   UNL     1       6.569 -13.507   3.743  1.00  0.00     0.031 A 
ATOM     14  C   UNL     1       6.122 -12.802   4.997  1.00  0.00     0.074 A 
ATOM     15  C   UNL     1       6.111 -14.745   3.473  1.00  0.00     0.049 A 
ATOM     16  N   UNL     1       5.289 -13.213   5.921  1.00  0.00    -0.248 NA
ATOM     17  C   UNL     1       6.686 -11.468   5.253  1.00  0.00     0.031 C 
ATOM     18  C   UNL     1       6.481 -15.542   2.302  1.00  0.00     0.029 A 
ATOM     19  N   UNL     1       5.216 -15.537   4.146  1.00  0.00    -0.354 N 
ATOM     20  C   UNL     1       5.248 -12.205   6.877  1.00  0.00     0.074 A 
ATOM     21  C   UNL     1       6.157 -11.170   6.433  1.00  0.00     0.031 C 
ATOM     22  C   UNL     1       5.775 -16.683   2.308  1.00  0.00     0.029 A 
ATOM     23  C   UNL     1       4.941 -16.719   3.504  1.00  0.00     0.049 A 
ATOM     24  H   UNL     1       4.810 -15.282   5.007  1.00  0.00     0.167 HD
ATOM     25  C   UNL     1       4.515 -12.142   8.014  1.00  0.00     0.037 A 
ATOM     26  C   UNL     1       4.107 -17.722   3.838  1.00  0.00     0.037 A 
ATOM     27  C   UNL     1       3.584 -13.154   8.443  1.00  0.00     0.049 A 
ATOM     28  C   UNL     1       3.296 -17.619   5.095  1.00  0.00     0.074 A 
ATOM     29  C   UNL     1       2.764 -13.156   9.559  1.00  0.00     0.029 A 
ATOM     30  N   UNL     1       3.349 -14.345   7.774  1.00  0.00    -0.354 N 
ATOM     31  N   UNL     1       3.242 -16.641   5.966  1.00  0.00    -0.248 NA
ATOM     32  C   UNL     1       2.428 -18.761   5.416  1.00  0.00     0.031 C 
ATOM     33  C   UNL     1       2.056 -14.363   9.582  1.00  0.00     0.029 A 
ATOM     34  C   UNL     1       2.408 -15.095   8.460  1.00  0.00     0.049 A 
ATOM     35  H   UNL     1       3.786 -14.617   6.935  1.00  0.00     0.167 HD
ATOM     36  C   UNL     1       2.322 -17.039   6.926  1.00  0.00     0.074 A 
ATOM     37  C   UNL     1       1.831 -18.341   6.522  1.00  0.00     0.031 C 
ATOM     38  C   UNL     1       1.923 -16.386   8.044  1.00  0.00     0.037 A 
BRANCH  25  39
ATOM     39  C   UNL     1       4.695 -10.936   8.891  1.00  0.00     0.057 A 
ATOM     40  C   UNL     1       4.172  -9.684   8.545  1.00  0.00     0.134 A 
ATOM     41  C   UNL     1       5.362 -11.042  10.118  1.00  0.00     0.134 A 
ATOM     42  F   UNL     1       3.533  -9.513   7.379  1.00  0.00    -0.206 F 
ATOM     43  C   UNL     1       4.322  -8.575   9.381  1.00  0.00     0.040 A 
ATOM     44  C   UNL     1       5.500  -9.946  10.972  1.00  0.00     0.040 A 
ATOM     45  F   UNL     1       5.881 -12.215  10.512  1.00  0.00    -0.206 F 
ATOM     46  C   UNL     1       4.983  -8.707  10.601  1.00  0.00     0.006 A 
ENDBRANCH  25  39
BRANCH  26  47
ATOM     47  C   UNL     1       3.983 -18.902   2.948  1.00  0.00     0.057 A 
ATOM     48  C   UNL     1       2.824 -19.119   2.195  1.00  0.00     0.134 A 
ATOM     49  C   UNL     1       5.021 -19.833   2.823  1.00  0.00     0.134 A 
ATOM     50  F   UNL     1       1.791 -18.269   2.287  1.00  0.00    -0.206 F 
ATOM     51  C   UNL     1       2.696 -20.227   1.357  1.00  0.00     0.040 A 
ATOM     52  C   UNL     1       4.916 -20.932   1.972  1.00  0.00     0.040 A 
ATOM     53  F   UNL     1       6.159 -19.674   3.514  1.00  0.00    -0.206 F 
ATOM     54  C   UNL     1       3.747 -21.134   1.240  1.00  0.00     0.006 A 
ENDBRANCH  26  47
BRANCH  38  55
ATOM     55  C   UNL     1       0.882 -17.056   8.888  1.00  0.00     0.057 A 
ATOM     56  C   UNL     1       1.185 -18.159   9.695  1.00  0.00     0.134 A 
ATOM     57  C   UNL     1      -0.436 -16.582   8.905  1.00  0.00     0.134 A 
ATOM     58  F   UNL     1       2.426 -18.669   9.711  1.00  0.00    -0.206 F 
ATOM     59  C   UNL     1       0.208 -18.784  10.472  1.00  0.00     0.040 A 
ATOM     60  C   UNL     1      -1.417 -17.184   9.694  1.00  0.00     0.040 A 
ATOM     61  F   UNL     1      -0.789 -15.525   8.158  1.00  0.00    -0.206 F 
ATOM     62  C   UNL     1      -1.097 -18.293  10.475  1.00  0.00     0.006 A 
ENDBRANCH  38  55
ENDBRANCH  12  13
ENDBRANCH   5   7
ENDBRANCH   2   3
ENDBRANCH   1   2
BRANCH   1  63
ATOM     63  C   UNL     1       8.306  -6.635  -1.447  1.00  0.00     0.023 C 
BRANCH  63  64
ATOM     64  C   UNL     1       7.748  -6.918  -2.840  1.00  0.00     0.116 C 
BRANCH  64  65
ATOM     65  N   UNL     1       6.300  -6.812  -2.900  1.00  0.00    -0.353 N 
ATOM     66  C   UNL     1       5.535  -5.962  -3.666  1.00  0.00     0.265 C 
ATOM     67  H   UNL     1       5.801  -7.428  -2.316  1.00  0.00     0.163 HD
ATOM     68  O   UNL     1       4.309  -6.078  -3.580  1.00  0.00    -0.271 OA
BRANCH  66  69
ATOM     69  C   UNL     1       6.257  -4.964  -4.586  1.00  0.00     0.319 C 
ATOM     70  F   UNL     1       6.964  -4.039  -3.872  1.00  0.00    -0.224 F 
BRANCH  69  71
ATOM     71  S   UNL     1       5.160  -4.150  -5.774  1.00  0.00    -0.061 SA
BRANCH  71  72
ATOM     72  C   UNL     1       4.294  -3.021  -4.795  1.00  0.00     0.076 A 
ATOM     73  C   UNL     1       4.404  -1.659  -4.666  1.00  0.00     0.043 A 
ATOM     74  N   UNL     1       3.241  -3.446  -4.035  1.00  0.00    -0.350 N 
ATOM     75  C   UNL     1       3.344  -1.228  -3.819  1.00  0.00     0.001 A 
ATOM     76  C   UNL     1       2.623  -2.365  -3.446  1.00  0.00     0.046 A 
ATOM     77  H   UNL     1       2.965  -4.385  -3.926  1.00  0.00     0.167 HD
ATOM     78  C   UNL     1       2.918   0.029  -3.349  1.00  0.00     0.010 A 
ATOM     79  C   UNL     1       1.489  -2.304  -2.627  1.00  0.00     0.027 A 
ATOM     80  C   UNL     1       1.783   0.108  -2.535  1.00  0.00     0.001 A 
ATOM     81  C   UNL     1       1.079  -1.043  -2.183  1.00  0.00     0.002 A 
ENDBRANCH  71  72
ENDBRANCH  69  71
ENDBRANCH  66  69
ENDBRANCH  64  65
ENDBRANCH  63  64
ENDBRANCH   1  63
TORSDOF 13
