REMARK SMILES CCC[C@H]1CCc2c(sc(NC(=O)[C@H]3[C@@H](C(=O)NCCCCNC(=O)c4ccc(-c5c6nc(c(-c7c(F)cccc7F)c7ccc([nH]7)c(-c7c(F)cccc7F)c7nc(c(-c8c(F)cccc8F)c8ccc5[nH]8)C=C7)C=C6)cc4)[C@H]4CC[C@@H]3O4)c2C(N)=O)C1
REMARK SMILES IDX 19 1 18 2 16 3 17 4 15 6 14 7 83 8 80 9 82 10 84 11 81 12
REMARK SMILES IDX 12 13 11 14 13 16 10 17 4 18 5 19 89 20 6 21 8 22 7 23 9 24
REMARK SMILES IDX 85 25 3 26 2 27 1 28 86 29 87 30 88 31 20 34 21 35 22 36
REMARK SMILES IDX 23 37 24 38 25 40 26 41 27 42 79 43 28 44 78 45 29 46 30 47
REMARK SMILES IDX 31 48 72 49 32 50 77 51 71 52 73 53 33 54 76 55 70 56 69 57
REMARK SMILES IDX 34 59 60 60 43 61 59 62 44 63 47 64 58 65 74 66 45 67 46 68
REMARK SMILES IDX 57 70 75 71 48 72 35 73 36 74 41 75 37 76 38 77 40 78 42 79
REMARK SMILES IDX 39 80 61 81 62 82 67 83 63 84 64 85 66 86 68 87 65 88 49 89
REMARK SMILES IDX 50 90 55 91 51 92 52 93 54 94 56 95 53 96
REMARK H PARENT 18 5 11 15 87 32 87 33 23 39 73 58 47 69
REMARK Flexibility Score: inf
ROOT
ATOM      1  C   UNL     1      -0.286  -4.571   2.650  1.00  0.00     0.116 C 
ENDROOT
BRANCH   1   2
ATOM      2  N   UNL     1      -0.752  -5.319   3.802  1.00  0.00    -0.356 N 
ATOM      3  C   UNL     1      -1.792  -6.192   3.909  1.00  0.00     0.226 C 
ATOM      4  O   UNL     1      -1.997  -6.711   5.004  1.00  0.00    -0.275 OA
ATOM      5  H   UNL     1      -0.241  -5.175   4.631  1.00  0.00     0.163 HD
BRANCH   3   6
ATOM      6  C   UNL     1      -2.600  -6.532   2.673  1.00  0.00     0.122 C 
ATOM      7  C   UNL     1      -3.978  -7.179   2.889  1.00  0.00     0.123 C 
ATOM      8  C   UNL     1      -3.742  -8.591   2.348  1.00  0.00     0.132 C 
ATOM      9  C   UNL     1      -1.895  -7.585   1.799  1.00  0.00     0.132 C 
ATOM     10  C   UNL     1      -2.677  -9.406   3.085  1.00  0.00     0.035 C 
ATOM     11  O   UNL     1      -3.014  -8.233   1.135  1.00  0.00    -0.373 OA
ATOM     12  C   UNL     1      -1.374  -8.773   2.597  1.00  0.00     0.035 C 
BRANCH   7  13
ATOM     13  C   UNL     1      -4.663  -7.087   4.235  1.00  0.00     0.231 C 
ATOM     14  N   UNL     1      -4.931  -5.879   4.823  1.00  0.00    -0.317 N 
ATOM     15  H   UNL     1      -5.298  -5.941   5.735  1.00  0.00     0.170 HD
ATOM     16  O   UNL     1      -5.027  -8.108   4.828  1.00  0.00    -0.274 OA
BRANCH  14  17
ATOM     17  C   UNL     1      -4.776  -4.592   4.357  1.00  0.00     0.108 A 
ATOM     18  C   UNL     1      -4.038   0.154   3.824  1.00  0.00    -0.006 C 
ATOM     19  C   UNL     1      -3.237  -0.400   2.627  1.00  0.00     0.009 C 
ATOM     20  C   UNL     1      -3.887  -0.814   5.031  1.00  0.00     0.050 C 
ATOM     21  C   UNL     1      -3.851  -1.714   2.130  1.00  0.00     0.038 C 
ATOM     22  C   UNL     1      -4.193  -2.216   4.580  1.00  0.00     0.011 A 
ATOM     23  C   UNL     1      -4.217  -2.630   3.263  1.00  0.00    -0.019 A 
ATOM     24  S   UNL     1      -4.577  -3.478   5.647  1.00  0.00    -0.122 S 
ATOM     25  C   UNL     1      -4.775  -3.953   3.128  1.00  0.00     0.077 A 
BRANCH  18  26
ATOM     26  C   UNL     1      -3.636   1.592   4.183  1.00  0.00     0.004 C 
BRANCH  26  27
ATOM     27  C   UNL     1      -3.842   2.618   3.056  1.00  0.00    -0.003 C 
ATOM     28  C   UNL     1      -5.258   2.649   2.495  1.00  0.00     0.004 C 
ENDBRANCH  26  27
ENDBRANCH  18  26
BRANCH  25  29
ATOM     29  C   UNL     1      -5.264  -4.462   1.856  1.00  0.00     0.251 C 
ATOM     30  N   UNL     1      -6.461  -5.114   1.909  1.00  0.00    -0.365 N 
ATOM     31  O   UNL     1      -4.689  -4.277   0.788  1.00  0.00    -0.269 OA
ATOM     32  H   UNL     1      -6.907  -5.253   2.775  1.00  0.00     0.159 HD
ATOM     33  H   UNL     1      -6.878  -5.444   1.081  1.00  0.00     0.159 HD
ENDBRANCH  25  29
ENDBRANCH  14  17
ENDBRANCH   7  13
ENDBRANCH   3   6
ENDBRANCH   1   2
BRANCH   1  34
ATOM     34  C   UNL     1      -0.248  -3.071   2.926  1.00  0.00     0.023 C 
BRANCH  34  35
ATOM     35  C   UNL     1       0.653  -2.632   4.082  1.00  0.00     0.023 C 
BRANCH  35  36
ATOM     36  C   UNL     1       2.077  -3.172   4.046  1.00  0.00     0.116 C 
BRANCH  36  37
ATOM     37  N   UNL     1       2.812  -2.771   2.857  1.00  0.00    -0.352 N 
ATOM     38  C   UNL     1       4.083  -2.259   2.754  1.00  0.00     0.251 C 
ATOM     39  H   UNL     1       2.330  -2.882   2.006  1.00  0.00     0.163 HD
ATOM     40  O   UNL     1       4.505  -1.870   1.670  1.00  0.00    -0.269 OA
BRANCH  38  41
ATOM     41  C   UNL     1       4.928  -2.135   3.962  1.00  0.00     0.039 A 
ATOM     42  C   UNL     1       5.585  -0.925   4.199  1.00  0.00     0.014 A 
ATOM     43  C   UNL     1       5.049  -3.190   4.871  1.00  0.00     0.014 A 
ATOM     44  C   UNL     1       6.290  -0.741   5.391  1.00  0.00     0.010 A 
ATOM     45  C   UNL     1       5.694  -2.983   6.088  1.00  0.00     0.010 A 
ATOM     46  C   UNL     1       6.308  -1.752   6.366  1.00  0.00    -0.014 A 
BRANCH  46  47
ATOM     47  C   UNL     1       6.929  -1.530   7.696  1.00  0.00     0.031 A 
ATOM     48  C   UNL     1       8.120  -2.339   8.124  1.00  0.00     0.074 A 
ATOM     49  C   UNL     1       6.367  -0.654   8.552  1.00  0.00     0.049 A 
ATOM     50  N   UNL     1       8.735  -2.356   9.279  1.00  0.00    -0.248 NA
ATOM     51  C   UNL     1       8.678  -3.269   7.130  1.00  0.00     0.031 C 
ATOM     52  C   UNL     1       5.182   0.160   8.275  1.00  0.00     0.029 A 
ATOM     53  N   UNL     1       6.708  -0.316   9.838  1.00  0.00    -0.354 N 
ATOM     54  C   UNL     1       9.741  -3.306   9.157  1.00  0.00     0.074 A 
ATOM     55  C   UNL     1       9.626  -3.875   7.831  1.00  0.00     0.031 C 
ATOM     56  C   UNL     1       4.904   0.913   9.351  1.00  0.00     0.029 A 
ATOM     57  C   UNL     1       5.864   0.607  10.407  1.00  0.00     0.049 A 
ATOM     58  H   UNL     1       7.484  -0.699  10.308  1.00  0.00     0.167 HD
ATOM     59  C   UNL     1      10.685  -3.659  10.062  1.00  0.00     0.037 A 
ATOM     60  C   UNL     1       5.855   1.138  11.644  1.00  0.00     0.037 A 
ATOM     61  C   UNL     1      10.813  -3.077  11.372  1.00  0.00     0.049 A 
ATOM     62  C   UNL     1       6.905   0.718  12.634  1.00  0.00     0.074 A 
ATOM     63  C   UNL     1      11.779  -3.321  12.334  1.00  0.00     0.029 A 
ATOM     64  N   UNL     1       9.945  -2.138  11.908  1.00  0.00    -0.354 N 
ATOM     65  N   UNL     1       7.889  -0.135  12.483  1.00  0.00    -0.248 NA
ATOM     66  C   UNL     1       6.843   1.335  13.967  1.00  0.00     0.031 C 
ATOM     67  C   UNL     1      11.472  -2.560  13.466  1.00  0.00     0.029 A 
ATOM     68  C   UNL     1      10.338  -1.811  13.195  1.00  0.00     0.049 A 
ATOM     69  H   UNL     1       9.165  -1.759  11.442  1.00  0.00     0.167 HD
ATOM     70  C   UNL     1       8.573  -0.143  13.691  1.00  0.00     0.074 A 
ATOM     71  C   UNL     1       7.903   0.803  14.559  1.00  0.00     0.031 C 
ATOM     72  C   UNL     1       9.659  -0.870  14.049  1.00  0.00     0.037 A 
BRANCH  59  73
ATOM     73  C   UNL     1      11.661  -4.726   9.661  1.00  0.00     0.057 A 
ATOM     74  C   UNL     1      12.665  -4.488   8.714  1.00  0.00     0.134 A 
ATOM     75  C   UNL     1      11.619  -5.994  10.255  1.00  0.00     0.134 A 
ATOM     76  F   UNL     1      12.752  -3.299   8.100  1.00  0.00    -0.206 F 
ATOM     77  C   UNL     1      13.579  -5.480   8.355  1.00  0.00     0.040 A 
ATOM     78  C   UNL     1      12.543  -6.986   9.922  1.00  0.00     0.040 A 
ATOM     79  F   UNL     1      10.686  -6.285  11.174  1.00  0.00    -0.206 F 
ATOM     80  C   UNL     1      13.523  -6.732   8.965  1.00  0.00     0.006 A 
ENDBRANCH  59  73
BRANCH  60  81
ATOM     81  C   UNL     1       4.820   2.133  12.017  1.00  0.00     0.057 A 
ATOM     82  C   UNL     1       5.151   3.480  12.203  1.00  0.00     0.134 A 
ATOM     83  C   UNL     1       3.482   1.765  12.203  1.00  0.00     0.134 A 
ATOM     84  F   UNL     1       6.420   3.889  12.059  1.00  0.00    -0.206 F 
ATOM     85  C   UNL     1       4.192   4.424  12.576  1.00  0.00     0.040 A 
ATOM     86  C   UNL     1       2.509   2.702  12.553  1.00  0.00     0.040 A 
ATOM     87  F   UNL     1       3.101   0.490  12.034  1.00  0.00    -0.206 F 
ATOM     88  C   UNL     1       2.865   4.035  12.747  1.00  0.00     0.006 A 
ENDBRANCH  60  81
BRANCH  72  89
ATOM     89  C   UNL     1      10.200  -0.655  15.431  1.00  0.00     0.057 A 
ATOM     90  C   UNL     1       9.541  -1.149  16.564  1.00  0.00     0.134 A 
ATOM     91  C   UNL     1      11.408   0.024  15.629  1.00  0.00     0.134 A 
ATOM     92  F   UNL     1       8.372  -1.796  16.443  1.00  0.00    -0.206 F 
ATOM     93  C   UNL     1      10.055  -0.957  17.847  1.00  0.00     0.040 A 
ATOM     94  C   UNL     1      11.945   0.202  16.905  1.00  0.00     0.040 A 
ATOM     95  F   UNL     1      12.092   0.517  14.585  1.00  0.00    -0.206 F 
ATOM     96  C   UNL     1      11.264  -0.285  18.019  1.00  0.00     0.006 A 
ENDBRANCH  72  89
ENDBRANCH  46  47
ENDBRANCH  38  41
ENDBRANCH  36  37
ENDBRANCH  35  36
ENDBRANCH  34  35
ENDBRANCH   1  34
TORSDOF 16
