REMARK SMILES COC(=O)[C@H]1CCN(S(=O)(=O)N2CCC[C@H](C(=O)NCCCCNC(=O)c3ccc(-c4c5nc(c(-c6c(F)cccc6F)c6ccc([nH]6)c(-c6c(F)cccc6F)c6nc(c(-c7c(F)cccc7F)c7ccc4[nH]7)C=C6)C=C5)cc3)C2)C1
REMARK SMILES IDX 20 1 19 2 17 3 18 4 16 6 12 7 13 8 81 9 14 10 15 11 9 12
REMARK SMILES IDX 10 13 11 14 8 15 5 16 6 17 82 18 7 19 3 20 4 21 2 22 1 23
REMARK SMILES IDX 21 24 22 25 23 26 24 27 25 28 26 30 27 31 28 32 80 33 29 34
REMARK SMILES IDX 79 35 30 36 31 37 32 38 73 39 33 40 78 41 72 42 74 43 34 44
REMARK SMILES IDX 77 45 71 46 70 47 35 49 61 50 44 51 60 52 45 53 48 54 59 55
REMARK SMILES IDX 75 56 46 57 47 58 58 60 76 61 49 62 36 63 37 64 42 65 38 66
REMARK SMILES IDX 39 67 41 68 43 69 40 70 62 71 63 72 68 73 64 74 65 75 67 76
REMARK SMILES IDX 69 77 66 78 50 79 51 80 56 81 52 82 53 83 55 84 57 85 54 86
REMARK H PARENT 19 5 24 29 74 48 48 59
REMARK Flexibility Score: inf
ROOT
ATOM      1  C   UNL     1      -0.170  11.014  -1.368  1.00  0.00     0.116 C 
ENDROOT
BRANCH   1   2
ATOM      2  N   UNL     1       0.548  11.270  -2.593  1.00  0.00    -0.356 N 
ATOM      3  C   UNL     1       1.700  10.749  -3.078  1.00  0.00     0.224 C 
ATOM      4  O   UNL     1       2.040  11.132  -4.205  1.00  0.00    -0.275 OA
ATOM      5  H   UNL     1       0.128  11.940  -3.179  1.00  0.00     0.163 HD
BRANCH   3   6
ATOM      6  C   UNL     1       2.583   9.743  -2.335  1.00  0.00     0.094 C 
ATOM      7  N   UNL     1       1.306   8.210  -0.836  1.00  0.00    -0.188 NA
ATOM      8  C   UNL     1       2.083   8.569   0.359  1.00  0.00     0.103 C 
ATOM      9  C   UNL     1       1.966   8.366  -2.144  1.00  0.00     0.117 C 
ATOM     10  C   UNL     1       2.683   9.968   0.234  1.00  0.00     0.018 C 
ATOM     11  C   UNL     1       3.335  10.261  -1.111  1.00  0.00     0.016 C 
BRANCH   7  12
ATOM     12  S   UNL     1       0.027   7.142  -0.680  1.00  0.00     0.282 S 
ATOM     13  O   UNL     1      -0.504   6.847  -1.989  1.00  0.00    -0.195 OA
ATOM     14  O   UNL     1      -0.835   7.643   0.367  1.00  0.00    -0.195 OA
BRANCH  12  15
ATOM     15  N   UNL     1       0.762   5.736  -0.085  1.00  0.00    -0.188 NA
ATOM     16  C   UNL     1       0.184   3.502  -0.882  1.00  0.00     0.116 C 
ATOM     17  C   UNL     1       1.238   4.148  -1.771  1.00  0.00     0.033 C 
ATOM     18  C   UNL     1      -0.231   4.610   0.095  1.00  0.00     0.118 C 
ATOM     19  C   UNL     1       1.883   5.145  -0.842  1.00  0.00     0.104 C 
BRANCH  16  20
ATOM     20  C   UNL     1      -1.023   2.956  -1.608  1.00  0.00     0.310 C 
ATOM     21  O   UNL     1      -2.036   2.579  -1.032  1.00  0.00    -0.252 OA
BRANCH  20  22
ATOM     22  O   UNL     1      -0.822   2.886  -2.950  1.00  0.00    -0.469 OA
ATOM     23  C   UNL     1      -1.941   2.425  -3.708  1.00  0.00     0.282 C 
ENDBRANCH  20  22
ENDBRANCH  16  20
ENDBRANCH  12  15
ENDBRANCH   7  12
ENDBRANCH   3   6
ENDBRANCH   1   2
BRANCH   1  24
ATOM     24  C   UNL     1      -0.110  12.193  -0.405  1.00  0.00     0.023 C 
BRANCH  24  25
ATOM     25  C   UNL     1      -1.204  13.226  -0.623  1.00  0.00     0.023 C 
BRANCH  25  26
ATOM     26  C   UNL     1      -2.620  12.672  -0.528  1.00  0.00     0.116 C 
BRANCH  26  27
ATOM     27  N   UNL     1      -2.915  12.016   0.742  1.00  0.00    -0.352 N 
ATOM     28  C   UNL     1      -4.031  12.168   1.533  1.00  0.00     0.251 C 
ATOM     29  H   UNL     1      -2.232  11.388   1.072  1.00  0.00     0.163 HD
ATOM     30  O   UNL     1      -4.108  11.651   2.641  1.00  0.00    -0.269 OA
BRANCH  28  31
ATOM     31  C   UNL     1      -5.123  13.022   1.029  1.00  0.00     0.039 A 
ATOM     32  C   UNL     1      -5.545  14.104   1.801  1.00  0.00     0.014 A 
ATOM     33  C   UNL     1      -5.608  12.831  -0.268  1.00  0.00     0.014 A 
ATOM     34  C   UNL     1      -6.379  15.062   1.226  1.00  0.00     0.010 A 
ATOM     35  C   UNL     1      -6.352  13.837  -0.867  1.00  0.00     0.010 A 
ATOM     36  C   UNL     1      -6.734  14.970  -0.131  1.00  0.00    -0.014 A 
BRANCH  36  37
ATOM     37  C   UNL     1      -7.469  16.067  -0.808  1.00  0.00     0.031 A 
ATOM     38  C   UNL     1      -8.816  15.805  -1.420  1.00  0.00     0.074 A 
ATOM     39  C   UNL     1      -6.889  17.277  -0.937  1.00  0.00     0.049 A 
ATOM     40  N   UNL     1      -9.584  16.615  -2.102  1.00  0.00    -0.248 NA
ATOM     41  C   UNL     1      -9.359  14.445  -1.272  1.00  0.00     0.031 C 
ATOM     42  C   UNL     1      -5.558  17.637  -0.442  1.00  0.00     0.029 A 
ATOM     43  N   UNL     1      -7.341  18.428  -1.532  1.00  0.00    -0.354 N 
ATOM     44  C   UNL     1     -10.691  15.863  -2.470  1.00  0.00     0.074 A 
ATOM     45  C   UNL     1     -10.467  14.516  -1.994  1.00  0.00     0.031 C 
ATOM     46  C   UNL     1      -5.316  18.927  -0.724  1.00  0.00     0.029 A 
ATOM     47  C   UNL     1      -6.451  19.473  -1.461  1.00  0.00     0.049 A 
ATOM     48  H   UNL     1      -8.220  18.499  -1.969  1.00  0.00     0.167 HD
ATOM     49  C   UNL     1     -11.807  16.265  -3.122  1.00  0.00     0.037 A 
ATOM     50  C   UNL     1      -6.534  20.727  -1.946  1.00  0.00     0.037 A 
ATOM     51  C   UNL     1     -12.031  17.610  -3.579  1.00  0.00     0.049 A 
ATOM     52  C   UNL     1      -7.774  21.141  -2.690  1.00  0.00     0.074 A 
ATOM     53  C   UNL     1     -13.157  18.136  -4.187  1.00  0.00     0.029 A 
ATOM     54  N   UNL     1     -11.107  18.640  -3.489  1.00  0.00    -0.354 N 
ATOM     55  N   UNL     1      -8.853  20.444  -2.950  1.00  0.00    -0.248 NA
ATOM     56  C   UNL     1      -7.807  22.516  -3.209  1.00  0.00     0.031 C 
ATOM     57  C   UNL     1     -12.892  19.467  -4.521  1.00  0.00     0.029 A 
ATOM     58  C   UNL     1     -11.622  19.789  -4.067  1.00  0.00     0.049 A 
ATOM     59  H   UNL     1     -10.216  18.566  -3.076  1.00  0.00     0.167 HD
ATOM     60  C   UNL     1      -9.700  21.298  -3.646  1.00  0.00     0.074 A 
ATOM     61  C   UNL     1      -9.018  22.572  -3.744  1.00  0.00     0.031 C 
ATOM     62  C   UNL     1     -10.928  21.048  -4.162  1.00  0.00     0.037 A 
BRANCH  49  63
ATOM     63  C   UNL     1     -12.870  15.236  -3.378  1.00  0.00     0.057 A 
ATOM     64  C   UNL     1     -13.630  14.682  -2.339  1.00  0.00     0.134 A 
ATOM     65  C   UNL     1     -13.161  14.818  -4.683  1.00  0.00     0.134 A 
ATOM     66  F   UNL     1     -13.395  15.029  -1.064  1.00  0.00    -0.206 F 
ATOM     67  C   UNL     1     -14.622  13.732  -2.585  1.00  0.00     0.040 A 
ATOM     68  C   UNL     1     -14.171  13.891  -4.944  1.00  0.00     0.040 A 
ATOM     69  F   UNL     1     -12.475  15.310  -5.725  1.00  0.00    -0.206 F 
ATOM     70  C   UNL     1     -14.900  13.340  -3.893  1.00  0.00     0.006 A 
ENDBRANCH  49  63
BRANCH  50  71
ATOM     71  C   UNL     1      -5.415  21.684  -1.741  1.00  0.00     0.057 A 
ATOM     72  C   UNL     1      -5.564  22.807  -0.919  1.00  0.00     0.134 A 
ATOM     73  C   UNL     1      -4.177  21.509  -2.372  1.00  0.00     0.134 A 
ATOM     74  F   UNL     1      -6.731  23.042  -0.302  1.00  0.00    -0.206 F 
ATOM     75  C   UNL     1      -4.532  23.732  -0.748  1.00  0.00     0.040 A 
ATOM     76  C   UNL     1      -3.127  22.410  -2.188  1.00  0.00     0.040 A 
ATOM     77  F   UNL     1      -3.966  20.451  -3.169  1.00  0.00    -0.206 F 
ATOM     78  C   UNL     1      -3.306  23.531  -1.380  1.00  0.00     0.006 A 
ENDBRANCH  50  71
BRANCH  62  79
ATOM     79  C   UNL     1     -11.619  22.177  -4.870  1.00  0.00     0.057 A 
ATOM     80  C   UNL     1     -11.185  22.639  -6.120  1.00  0.00     0.134 A 
ATOM     81  C   UNL     1     -12.757  22.778  -4.318  1.00  0.00     0.134 A 
ATOM     82  F   UNL     1     -10.094  22.115  -6.697  1.00  0.00    -0.206 F 
ATOM     83  C   UNL     1     -11.847  23.672  -6.785  1.00  0.00     0.040 A 
ATOM     84  C   UNL     1     -13.445  23.791  -4.988  1.00  0.00     0.040 A 
ATOM     85  F   UNL     1     -13.232  22.377  -3.129  1.00  0.00    -0.206 F 
ATOM     86  C   UNL     1     -12.986  24.244  -6.223  1.00  0.00     0.006 A 
ENDBRANCH  62  79
ENDBRANCH  36  37
ENDBRANCH  28  31
ENDBRANCH  26  27
ENDBRANCH  25  26
ENDBRANCH  24  25
ENDBRANCH   1  24
TORSDOF 15
