REMARK SMILES O=C(NCCCCNC(=O)c1ccccc1Nc1nc(Cl)nc(Nc2ccc(N3CCOCC3=O)cc2)n1)c1ccc(-c2c3nc(c(-c4c(F)cccc4F)c4ccc([nH]4)c(-c4c(F)cccc4F)c4nc(c(-c5c(F)cccc5F)c5ccc2[nH]5)C=C4)C=C3)cc1
REMARK SMILES IDX 7 1 6 2 5 3 4 4 3 5 1 6 2 7 39 9 40 10 92 11 41 12 91 13
REMARK SMILES IDX 42 14 43 15 44 16 85 17 45 18 90 19 84 20 86 21 46 22 89 23
REMARK SMILES IDX 83 24 82 25 47 27 73 28 56 29 72 30 57 31 60 32 71 33 87 34
REMARK SMILES IDX 58 35 59 36 70 38 88 39 61 40 48 41 49 42 54 43 50 44 51 45
REMARK SMILES IDX 53 46 55 47 52 48 74 49 75 50 80 51 76 52 77 53 79 54 81 55
REMARK SMILES IDX 78 56 62 57 63 58 68 59 64 60 65 61 67 62 69 63 66 64 8 65
REMARK SMILES IDX 9 66 10 68 11 69 12 70 16 71 13 72 15 73 14 74 17 75 18 77
REMARK SMILES IDX 19 78 38 79 20 80 23 81 21 82 22 83 24 84 25 86 26 87 37 88
REMARK SMILES IDX 27 89 36 90 28 91 29 92 30 93 34 94 31 95 33 96 35 97 32 98
REMARK H PARENT 3 8 86 26 60 37 8 67 17 76 24 85
REMARK Flexibility Score: inf
ROOT
ATOM      1  C   UNL     1       4.824  -2.209   3.825  1.00  0.00     0.116 C 
ENDROOT
BRANCH   1   2
ATOM      2  C   UNL     1       4.434  -0.735   3.770  1.00  0.00     0.023 C 
BRANCH   2   3
ATOM      3  C   UNL     1       4.899   0.022   2.525  1.00  0.00     0.023 C 
BRANCH   3   4
ATOM      4  C   UNL     1       4.538  -0.625   1.193  1.00  0.00     0.116 C 
BRANCH   4   5
ATOM      5  N   UNL     1       3.102  -0.724   0.986  1.00  0.00    -0.352 N 
ATOM      6  O   UNL     1       1.081  -0.186   0.142  1.00  0.00    -0.269 OA
ATOM      7  C   UNL     1       2.305  -0.105   0.055  1.00  0.00     0.251 C 
ATOM      8  H   UNL     1       2.630  -1.326   1.607  1.00  0.00     0.163 HD
BRANCH   7   9
ATOM      9  C   UNL     1       2.912   0.682  -1.038  1.00  0.00     0.039 A 
ATOM     10  C   UNL     1       3.985   0.178  -1.777  1.00  0.00     0.014 A 
ATOM     11  C   UNL     1       2.381   1.939  -1.339  1.00  0.00     0.014 A 
ATOM     12  C   UNL     1       4.615   0.983  -2.722  1.00  0.00     0.010 A 
ATOM     13  C   UNL     1       2.964   2.714  -2.343  1.00  0.00     0.010 A 
ATOM     14  C   UNL     1       4.103   2.254  -3.023  1.00  0.00    -0.014 A 
BRANCH  14  15
ATOM     15  C   UNL     1       4.724   3.079  -4.088  1.00  0.00     0.031 A 
ATOM     16  C   UNL     1       5.355   4.403  -3.766  1.00  0.00     0.074 A 
ATOM     17  C   UNL     1       4.678   2.646  -5.361  1.00  0.00     0.049 A 
ATOM     18  N   UNL     1       5.851   5.302  -4.579  1.00  0.00    -0.248 NA
ATOM     19  C   UNL     1       5.426   4.771  -2.345  1.00  0.00     0.031 C 
ATOM     20  C   UNL     1       4.088   1.379  -5.797  1.00  0.00     0.029 A 
ATOM     21  N   UNL     1       5.113   3.229  -6.524  1.00  0.00    -0.354 N 
ATOM     22  C   UNL     1       6.270   6.352  -3.773  1.00  0.00     0.074 A 
ATOM     23  C   UNL     1       5.946   5.989  -2.409  1.00  0.00     0.031 C 
ATOM     24  C   UNL     1       4.197   1.280  -7.129  1.00  0.00     0.029 A 
ATOM     25  C   UNL     1       4.802   2.502  -7.646  1.00  0.00     0.049 A 
ATOM     26  H   UNL     1       5.599   4.085  -6.550  1.00  0.00     0.167 HD
ATOM     27  C   UNL     1       6.870   7.511  -4.140  1.00  0.00     0.037 A 
ATOM     28  C   UNL     1       4.944   2.801  -8.950  1.00  0.00     0.037 A 
ATOM     29  C   UNL     1       7.184   7.861  -5.502  1.00  0.00     0.049 A 
ATOM     30  C   UNL     1       5.566   4.110  -9.340  1.00  0.00     0.074 A 
ATOM     31  C   UNL     1       7.832   8.988  -5.975  1.00  0.00     0.029 A 
ATOM     32  N   UNL     1       6.854   7.095  -6.612  1.00  0.00    -0.354 N 
ATOM     33  N   UNL     1       6.000   5.076  -8.569  1.00  0.00    -0.248 NA
ATOM     34  C   UNL     1       5.719   4.371 -10.777  1.00  0.00     0.031 C 
ATOM     35  C   UNL     1       7.835   8.937  -7.373  1.00  0.00     0.029 A 
ATOM     36  C   UNL     1       7.253   7.744  -7.770  1.00  0.00     0.049 A 
ATOM     37  H   UNL     1       6.403   6.221  -6.582  1.00  0.00     0.167 HD
ATOM     38  C   UNL     1       6.503   6.049  -9.422  1.00  0.00     0.074 A 
ATOM     39  C   UNL     1       6.320   5.554 -10.771  1.00  0.00     0.031 C 
ATOM     40  C   UNL     1       7.072   7.239  -9.110  1.00  0.00     0.037 A 
BRANCH  27  41
ATOM     41  C   UNL     1       7.184   8.502  -3.054  1.00  0.00     0.057 A 
ATOM     42  C   UNL     1       8.159   8.259  -2.076  1.00  0.00     0.134 A 
ATOM     43  C   UNL     1       6.503   9.726  -2.990  1.00  0.00     0.134 A 
ATOM     44  F   UNL     1       8.845   7.106  -2.072  1.00  0.00    -0.206 F 
ATOM     45  C   UNL     1       8.413   9.175  -1.053  1.00  0.00     0.040 A 
ATOM     46  C   UNL     1       6.771  10.663  -1.990  1.00  0.00     0.040 A 
ATOM     47  F   UNL     1       5.566  10.033  -3.900  1.00  0.00    -0.206 F 
ATOM     48  C   UNL     1       7.720  10.383  -1.010  1.00  0.00     0.006 A 
ENDBRANCH  27  41
BRANCH  28  49
ATOM     49  C   UNL     1       4.462   1.835  -9.967  1.00  0.00     0.057 A 
ATOM     50  C   UNL     1       5.356   1.088 -10.741  1.00  0.00     0.134 A 
ATOM     51  C   UNL     1       3.093   1.589 -10.141  1.00  0.00     0.134 A 
ATOM     52  F   UNL     1       6.677   1.288 -10.627  1.00  0.00    -0.206 F 
ATOM     53  C   UNL     1       4.907   0.132 -11.653  1.00  0.00     0.040 A 
ATOM     54  C   UNL     1       2.632   0.618 -11.029  1.00  0.00     0.040 A 
ATOM     55  F   UNL     1       2.188   2.264  -9.417  1.00  0.00    -0.206 F 
ATOM     56  C   UNL     1       3.541  -0.112 -11.791  1.00  0.00     0.006 A 
ENDBRANCH  28  49
BRANCH  40  57
ATOM     57  C   UNL     1       7.587   8.081 -10.241  1.00  0.00     0.057 A 
ATOM     58  C   UNL     1       6.730   8.781 -11.098  1.00  0.00     0.134 A 
ATOM     59  C   UNL     1       8.966   8.255 -10.419  1.00  0.00     0.134 A 
ATOM     60  F   UNL     1       5.400   8.646 -10.990  1.00  0.00    -0.206 F 
ATOM     61  C   UNL     1       7.227   9.622 -12.095  1.00  0.00     0.040 A 
ATOM     62  C   UNL     1       9.474   9.114 -11.395  1.00  0.00     0.040 A 
ATOM     63  F   UNL     1       9.841   7.617  -9.627  1.00  0.00    -0.206 F 
ATOM     64  C   UNL     1       8.602   9.800 -12.237  1.00  0.00     0.006 A 
ENDBRANCH  40  57
ENDBRANCH  14  15
ENDBRANCH   7   9
ENDBRANCH   4   5
ENDBRANCH   3   4
ENDBRANCH   2   3
ENDBRANCH   1   2
BRANCH   1  65
ATOM     65  N   UNL     1       6.261  -2.421   3.764  1.00  0.00    -0.352 N 
ATOM     66  C   UNL     1       7.037  -3.293   4.489  1.00  0.00     0.253 C 
ATOM     67  H   UNL     1       6.745  -1.862   3.114  1.00  0.00     0.163 HD
ATOM     68  O   UNL     1       8.255  -3.299   4.335  1.00  0.00    -0.269 OA
BRANCH  66  69
ATOM     69  C   UNL     1       6.424  -4.205   5.480  1.00  0.00     0.063 A 
ATOM     70  C   UNL     1       6.911  -4.120   6.793  1.00  0.00     0.016 A 
ATOM     71  C   UNL     1       5.423  -5.134   5.141  1.00  0.00     0.054 A 
ATOM     72  C   UNL     1       6.363  -4.916   7.797  1.00  0.00     0.001 A 
ATOM     73  C   UNL     1       4.853  -5.886   6.182  1.00  0.00     0.027 A 
ATOM     74  C   UNL     1       5.322  -5.787   7.494  1.00  0.00     0.002 A 
BRANCH  71  75
ATOM     75  N   UNL     1       4.995  -5.310   3.815  1.00  0.00    -0.323 N 
ATOM     76  H   UNL     1       5.658  -5.074   3.126  1.00  0.00     0.170 HD
BRANCH  75  77
ATOM     77  C   UNL     1       3.776  -5.766   3.331  1.00  0.00     0.233 A 
ATOM     78  N   UNL     1       2.664  -5.494   3.994  1.00  0.00    -0.182 NA
ATOM     79  N   UNL     1       3.820  -6.460   2.201  1.00  0.00    -0.176 NA
ATOM     80  C   UNL     1       1.575  -5.979   3.428  1.00  0.00     0.228 A 
ATOM     81  C   UNL     1       2.667  -6.962   1.769  1.00  0.00     0.233 A 
ATOM     82  Cl  UNL     1       0.105  -5.671   4.239  1.00  0.00    -0.041 Cl
ATOM     83  N   UNL     1       1.498  -6.718   2.338  1.00  0.00    -0.182 NA
BRANCH  81  84
ATOM     84  N   UNL     1       2.766  -7.892   0.738  1.00  0.00    -0.324 N 
ATOM     85  H   UNL     1       3.665  -8.019   0.356  1.00  0.00     0.170 HD
BRANCH  84  86
ATOM     86  C   UNL     1       1.750  -8.667   0.177  1.00  0.00     0.041 A 
ATOM     87  C   UNL     1       1.858 -10.062   0.179  1.00  0.00     0.028 A 
ATOM     88  C   UNL     1       0.565  -8.090  -0.283  1.00  0.00     0.028 A 
ATOM     89  C   UNL     1       0.794 -10.863  -0.252  1.00  0.00     0.028 A 
ATOM     90  C   UNL     1      -0.475  -8.883  -0.769  1.00  0.00     0.028 A 
ATOM     91  C   UNL     1      -0.377 -10.277  -0.741  1.00  0.00     0.044 A 
BRANCH  91  92
ATOM     92  N   UNL     1      -1.480 -11.081  -1.148  1.00  0.00    -0.308 N 
ATOM     93  C   UNL     1      -2.000 -12.032  -0.158  1.00  0.00     0.154 C 
ATOM     94  C   UNL     1      -2.233 -10.735  -2.275  1.00  0.00     0.253 C 
ATOM     95  C   UNL     1      -3.035 -12.993  -0.728  1.00  0.00     0.183 C 
ATOM     96  C   UNL     1      -3.504 -11.566  -2.505  1.00  0.00     0.260 C 
ATOM     97  O   UNL     1      -1.893  -9.895  -3.111  1.00  0.00    -0.272 OA
ATOM     98  O   UNL     1      -4.056 -12.253  -1.393  1.00  0.00    -0.370 OA
ENDBRANCH  91  92
ENDBRANCH  84  86
ENDBRANCH  81  84
ENDBRANCH  75  77
ENDBRANCH  71  75
ENDBRANCH  66  69
ENDBRANCH   1  65
TORSDOF 16
