REMARK SMILES CCC(CC)(NC(=O)NC[C@H](C)[NH+]1CCCCC1)C(=O)NCCCCNC(=O)c1ccc(-c2c3nc(c(-c4c(F)cccc4F)c4ccc([nH]4)c(-c4c(F)cccc4F)c4nc(c(-c5c(F)cccc5F)c5ccc2[nH]5)C=C4)C=C3)cc1
REMARK SMILES IDX 22 1 21 2 19 3 20 4 3 6 2 7 1 8 4 9 5 10 6 11 7 12 8 14 9 15
REMARK SMILES IDX 10 17 11 18 12 19 13 20 14 21 18 22 15 24 17 25 16 26 23 27
REMARK SMILES IDX 24 28 25 29 26 30 27 31 28 33 29 34 30 35 82 36 31 37 81 38
REMARK SMILES IDX 32 39 33 40 34 41 75 42 35 43 80 44 74 45 76 46 36 47 79 48
REMARK SMILES IDX 73 49 72 50 37 52 63 53 46 54 62 55 47 56 50 57 61 58 77 59
REMARK SMILES IDX 48 60 49 61 60 63 78 64 51 65 38 66 39 67 44 68 40 69 41 70
REMARK SMILES IDX 43 71 45 72 42 73 64 74 65 75 70 76 66 77 67 78 69 79 71 80
REMARK SMILES IDX 68 81 52 82 53 83 58 84 54 85 55 86 57 87 59 88 56 89
REMARK H PARENT 21 5 6 13 9 16 13 23 26 32 76 51 50 62
REMARK Flexibility Score: inf
ROOT
ATOM      1  C   UNL     1       4.107  -3.958   5.032  1.00  0.00     0.116 C 
ENDROOT
BRANCH   1   2
ATOM      2  N   UNL     1       3.881  -4.508   3.698  1.00  0.00    -0.354 N 
ATOM      3  C   UNL     1       4.506  -5.505   2.988  1.00  0.00     0.245 C 
ATOM      4  O   UNL     1       3.903  -5.918   1.992  1.00  0.00    -0.272 OA
ATOM      5  H   UNL     1       3.137  -4.082   3.214  1.00  0.00     0.163 HD
BRANCH   3   6
ATOM      6  C   UNL     1       5.824  -6.174   3.489  1.00  0.00     0.120 C 
BRANCH   6   7
ATOM      7  C   UNL     1       6.604  -7.045   2.460  1.00  0.00     0.035 C 
ATOM      8  C   UNL     1       5.910  -8.282   1.900  1.00  0.00     0.007 C 
ENDBRANCH   6   7
BRANCH   6   9
ATOM      9  C   UNL     1       5.387  -7.072   4.701  1.00  0.00     0.035 C 
ATOM     10  C   UNL     1       6.503  -7.646   5.566  1.00  0.00     0.007 C 
ENDBRANCH   6   9
BRANCH   6  11
ATOM     11  N   UNL     1       6.719  -5.082   3.922  1.00  0.00    -0.324 N 
ATOM     12  C   UNL     1       7.303  -4.037   3.334  1.00  0.00     0.315 C 
ATOM     13  H   UNL     1       6.938  -5.139   4.880  1.00  0.00     0.166 HD
ATOM     14  O   UNL     1       8.142  -3.432   4.012  1.00  0.00    -0.249 OA
ATOM     15  N   UNL     1       7.050  -3.552   2.122  1.00  0.00    -0.332 N 
ATOM     16  H   UNL     1       7.563  -2.724   1.978  1.00  0.00     0.165 HD
BRANCH  15  17
ATOM     17  C   UNL     1       6.251  -3.857   0.933  1.00  0.00     0.182 C 
BRANCH  17  18
ATOM     18  C   UNL     1       5.069  -2.870   0.676  1.00  0.00     0.200 C 
ATOM     19  C   UNL     1       4.333  -3.238  -0.623  1.00  0.00     0.077 C 
BRANCH  18  20
ATOM     20  N   UNL     1       5.384  -1.433   0.836  1.00  0.00    -0.331 N 
ATOM     21  C   UNL     1       6.544  -0.921   0.107  1.00  0.00     0.262 C 
ATOM     22  C   UNL     1       4.230  -0.540   0.638  1.00  0.00     0.262 C 
ATOM     23  H   UNL     1       5.654  -1.412   1.819  1.00  0.00     0.348 HD
ATOM     24  C   UNL     1       6.955   0.413   0.740  1.00  0.00     0.062 C 
ATOM     25  C   UNL     1       4.520   0.840   1.236  1.00  0.00     0.062 C 
ATOM     26  C   UNL     1       5.820   1.432   0.698  1.00  0.00     0.012 C 
ENDBRANCH  18  20
ENDBRANCH  17  18
ENDBRANCH  15  17
ENDBRANCH   6  11
ENDBRANCH   3   6
ENDBRANCH   1   2
BRANCH   1  27
ATOM     27  C   UNL     1       4.640  -2.525   5.108  1.00  0.00     0.023 C 
BRANCH  27  28
ATOM     28  C   UNL     1       4.000  -1.497   4.190  1.00  0.00     0.023 C 
BRANCH  28  29
ATOM     29  C   UNL     1       2.484  -1.393   4.226  1.00  0.00     0.116 C 
BRANCH  29  30
ATOM     30  N   UNL     1       2.014  -0.610   5.352  1.00  0.00    -0.352 N 
ATOM     31  C   UNL     1       1.354   0.593   5.382  1.00  0.00     0.251 C 
ATOM     32  H   UNL     1       2.197  -1.004   6.235  1.00  0.00     0.163 HD
ATOM     33  O   UNL     1       1.227   1.172   6.464  1.00  0.00    -0.269 OA
BRANCH  31  34
ATOM     34  C   UNL     1       0.794   1.224   4.158  1.00  0.00     0.039 A 
ATOM     35  C   UNL     1       0.803   2.622   4.071  1.00  0.00     0.014 A 
ATOM     36  C   UNL     1       0.178   0.485   3.144  1.00  0.00     0.014 A 
ATOM     37  C   UNL     1       0.222   3.269   2.975  1.00  0.00     0.010 A 
ATOM     38  C   UNL     1      -0.333   1.127   2.011  1.00  0.00     0.010 A 
ATOM     39  C   UNL     1      -0.343   2.528   1.926  1.00  0.00    -0.014 A 
BRANCH  39  40
ATOM     40  C   UNL     1      -0.998   3.207   0.774  1.00  0.00     0.031 A 
ATOM     41  C   UNL     1      -2.479   3.048   0.539  1.00  0.00     0.074 A 
ATOM     42  C   UNL     1      -0.269   3.951  -0.081  1.00  0.00     0.049 A 
ATOM     43  N   UNL     1      -3.221   3.524  -0.431  1.00  0.00    -0.248 NA
ATOM     44  C   UNL     1      -3.220   2.227   1.509  1.00  0.00     0.031 C 
ATOM     45  C   UNL     1       1.176   4.167   0.004  1.00  0.00     0.029 A 
ATOM     46  N   UNL     1      -0.648   4.663  -1.193  1.00  0.00    -0.354 N 
ATOM     47  C   UNL     1      -4.504   3.045  -0.198  1.00  0.00     0.074 A 
ATOM     48  C   UNL     1      -4.433   2.205   0.977  1.00  0.00     0.031 C 
ATOM     49  C   UNL     1       1.558   4.975  -0.999  1.00  0.00     0.029 A 
ATOM     50  C   UNL     1       0.393   5.310  -1.814  1.00  0.00     0.049 A 
ATOM     51  H   UNL     1      -1.577   4.705  -1.514  1.00  0.00     0.167 HD
ATOM     52  C   UNL     1      -5.646   3.298  -0.883  1.00  0.00     0.037 A 
ATOM     53  C   UNL     1       0.409   6.084  -2.916  1.00  0.00     0.037 A 
ATOM     54  C   UNL     1      -5.736   4.165  -2.028  1.00  0.00     0.049 A 
ATOM     55  C   UNL     1      -0.872   6.362  -3.652  1.00  0.00     0.074 A 
ATOM     56  C   UNL     1      -6.861   4.525  -2.751  1.00  0.00     0.029 A 
ATOM     57  N   UNL     1      -4.661   4.814  -2.614  1.00  0.00    -0.354 N 
ATOM     58  N   UNL     1      -2.084   5.939  -3.390  1.00  0.00    -0.248 NA
ATOM     59  C   UNL     1      -0.781   7.231  -4.836  1.00  0.00     0.031 C 
ATOM     60  C   UNL     1      -6.461   5.369  -3.794  1.00  0.00     0.029 A 
ATOM     61  C   UNL     1      -5.093   5.561  -3.697  1.00  0.00     0.049 A 
ATOM     62  H   UNL     1      -3.728   4.753  -2.305  1.00  0.00     0.167 HD
ATOM     63  C   UNL     1      -2.902   6.505  -4.360  1.00  0.00     0.074 A 
ATOM     64  C   UNL     1      -2.051   7.313  -5.208  1.00  0.00     0.031 C 
ATOM     65  C   UNL     1      -4.239   6.366  -4.531  1.00  0.00     0.037 A 
BRANCH  52  66
ATOM     66  C   UNL     1      -6.901   2.630  -0.403  1.00  0.00     0.057 A 
ATOM     67  C   UNL     1      -7.543   3.030   0.776  1.00  0.00     0.134 A 
ATOM     68  C   UNL     1      -7.492   1.599  -1.145  1.00  0.00     0.134 A 
ATOM     69  F   UNL     1      -7.022   4.003   1.537  1.00  0.00    -0.206 F 
ATOM     70  C   UNL     1      -8.715   2.411   1.214  1.00  0.00     0.040 A 
ATOM     71  C   UNL     1      -8.677   0.990  -0.729  1.00  0.00     0.040 A 
ATOM     72  F   UNL     1      -6.932   1.174  -2.287  1.00  0.00    -0.206 F 
ATOM     73  C   UNL     1      -9.289   1.391   0.457  1.00  0.00     0.006 A 
ENDBRANCH  52  66
BRANCH  53  74
ATOM     74  C   UNL     1       1.688   6.676  -3.382  1.00  0.00     0.057 A 
ATOM     75  C   UNL     1       1.942   8.045  -3.241  1.00  0.00     0.134 A 
ATOM     76  C   UNL     1       2.679   5.891  -3.980  1.00  0.00     0.134 A 
ATOM     77  F   UNL     1       1.020   8.850  -2.695  1.00  0.00    -0.206 F 
ATOM     78  C   UNL     1       3.133   8.616  -3.692  1.00  0.00     0.040 A 
ATOM     79  C   UNL     1       3.884   6.445  -4.417  1.00  0.00     0.040 A 
ATOM     80  F   UNL     1       2.495   4.572  -4.139  1.00  0.00    -0.206 F 
ATOM     81  C   UNL     1       4.111   7.813  -4.277  1.00  0.00     0.006 A 
ENDBRANCH  53  74
BRANCH  65  82
ATOM     82  C   UNL     1      -4.870   7.122  -5.662  1.00  0.00     0.057 A 
ATOM     83  C   UNL     1      -4.718   6.717  -6.994  1.00  0.00     0.134 A 
ATOM     84  C   UNL     1      -5.670   8.244  -5.412  1.00  0.00     0.134 A 
ATOM     85  F   UNL     1      -3.954   5.657  -7.299  1.00  0.00    -0.206 F 
ATOM     86  C   UNL     1      -5.325   7.413  -8.040  1.00  0.00     0.040 A 
ATOM     87  C   UNL     1      -6.300   8.935  -6.448  1.00  0.00     0.040 A 
ATOM     88  F   UNL     1      -5.862   8.679  -4.158  1.00  0.00    -0.206 F 
ATOM     89  C   UNL     1      -6.124   8.522  -7.768  1.00  0.00     0.006 A 
ENDBRANCH  65  82
ENDBRANCH  39  40
ENDBRANCH  31  34
ENDBRANCH  29  30
ENDBRANCH  28  29
ENDBRANCH  27  28
ENDBRANCH   1  27
TORSDOF 17
