REMARK SMILES C[C@@H]1CN(S(=O)(=O)c2cccc(C(=O)N3CCC[C@@H]3C(=O)NCCCCNC(=O)c3ccc(-c4c5nc(c(-c6c(F)cccc6F)c6ccc([nH]6)c(-c6c(F)cccc6F)c6nc(c(-c7c(F)cccc7F)c7ccc4[nH]7)C=C6)C=C5)cc3)c2)C[C@H](C)O1
REMARK SMILES IDX 23 1 22 2 20 3 21 4 19 6 15 7 16 8 17 9 18 10 13 11 14 12
REMARK SMILES IDX 12 13 8 14 9 15 84 16 10 17 11 18 5 19 6 20 7 21 4 22 1 23
REMARK SMILES IDX 2 24 3 25 88 26 86 27 85 28 87 29 24 30 25 31 26 32 27 33
REMARK SMILES IDX 28 34 29 36 30 37 31 38 83 39 32 40 82 41 33 42 34 43 35 44
REMARK SMILES IDX 76 45 36 46 81 47 75 48 77 49 37 50 80 51 74 52 73 53 38 55
REMARK SMILES IDX 64 56 47 57 63 58 48 59 51 60 62 61 78 62 49 63 50 64 61 66
REMARK SMILES IDX 79 67 52 68 39 69 40 70 45 71 41 72 42 73 44 74 46 75 43 76
REMARK SMILES IDX 65 77 66 78 71 79 67 80 68 81 70 82 72 83 69 84 53 85 54 86
REMARK SMILES IDX 59 87 55 88 56 89 58 90 60 91 57 92
REMARK H PARENT 22 5 27 35 77 54 51 65
REMARK Flexibility Score: inf
ROOT
ATOM      1  C   UNL     1      -2.088  -0.798   0.927  1.00  0.00     0.116 C 
ENDROOT
BRANCH   1   2
ATOM      2  N   UNL     1      -3.295  -0.276   1.506  1.00  0.00    -0.354 N 
ATOM      3  C   UNL     1      -4.586  -0.665   1.298  1.00  0.00     0.242 C 
ATOM      4  O   UNL     1      -5.464   0.046   1.802  1.00  0.00    -0.273 OA
ATOM      5  H   UNL     1      -3.172   0.467   2.141  1.00  0.00     0.163 HD
BRANCH   3   6
ATOM      6  C   UNL     1      -4.971  -1.790   0.306  1.00  0.00     0.174 C 
ATOM      7  N   UNL     1      -4.093  -2.953   0.160  1.00  0.00    -0.327 N 
ATOM      8  C   UNL     1      -4.259  -3.488  -1.179  1.00  0.00     0.121 C 
ATOM      9  C   UNL     1      -4.294  -2.228  -2.016  1.00  0.00     0.024 C 
ATOM     10  C   UNL     1      -5.047  -1.226  -1.131  1.00  0.00     0.037 C 
BRANCH   7  11
ATOM     11  C   UNL     1      -3.724  -3.693   1.266  1.00  0.00     0.254 C 
ATOM     12  O   UNL     1      -4.392  -3.689   2.296  1.00  0.00    -0.269 OA
BRANCH  11  13
ATOM     13  C   UNL     1      -2.340  -4.288   1.286  1.00  0.00     0.041 A 
ATOM     14  C   UNL     1      -0.107  -4.622   0.364  1.00  0.00     0.083 A 
ATOM     15  C   UNL     1       0.314  -5.184   1.574  1.00  0.00     0.022 A 
ATOM     16  C   UNL     1      -1.424  -4.171   0.228  1.00  0.00     0.035 A 
ATOM     17  C   UNL     1      -0.586  -5.306   2.634  1.00  0.00     0.002 A 
ATOM     18  C   UNL     1      -1.905  -4.868   2.488  1.00  0.00     0.014 A 
BRANCH  14  19
ATOM     19  S   UNL     1       0.908  -4.818  -1.091  1.00  0.00     0.243 S 
ATOM     20  O   UNL     1       0.044  -5.382  -2.109  1.00  0.00    -0.207 OA
ATOM     21  O   UNL     1       2.098  -5.532  -0.674  1.00  0.00    -0.207 OA
BRANCH  19  22
ATOM     22  N   UNL     1       1.401  -3.240  -1.653  1.00  0.00    -0.193 NA
ATOM     23  C   UNL     1       1.087   0.037  -2.396  1.00  0.00     0.040 C 
ATOM     24  C   UNL     1       0.847  -1.252  -3.177  1.00  0.00     0.130 C 
ATOM     25  C   UNL     1       0.333  -2.464  -2.365  1.00  0.00     0.134 C 
ATOM     26  O   UNL     1       1.963  -1.565  -4.010  1.00  0.00    -0.373 OA
ATOM     27  C   UNL     1       3.049  -2.208  -3.341  1.00  0.00     0.130 C 
ATOM     28  C   UNL     1       2.609  -3.440  -2.547  1.00  0.00     0.134 C 
ATOM     29  C   UNL     1       3.927  -1.238  -2.562  1.00  0.00     0.040 C 
ENDBRANCH  19  22
ENDBRANCH  14  19
ENDBRANCH  11  13
ENDBRANCH   7  11
ENDBRANCH   3   6
ENDBRANCH   1   2
BRANCH   1  30
ATOM     30  C   UNL     1      -1.232   0.277   0.287  1.00  0.00     0.023 C 
BRANCH  30  31
ATOM     31  C   UNL     1      -0.244   0.990   1.195  1.00  0.00     0.023 C 
BRANCH  31  32
ATOM     32  C   UNL     1       0.654   0.098   2.046  1.00  0.00     0.116 C 
BRANCH  32  33
ATOM     33  N   UNL     1       1.354  -0.951   1.313  1.00  0.00    -0.352 N 
ATOM     34  C   UNL     1       2.697  -1.214   1.199  1.00  0.00     0.251 C 
ATOM     35  H   UNL     1       0.769  -1.571   0.821  1.00  0.00     0.163 HD
ATOM     36  O   UNL     1       3.090  -2.198   0.580  1.00  0.00    -0.269 OA
BRANCH  34  37
ATOM     37  C   UNL     1       3.695  -0.315   1.796  1.00  0.00     0.039 A 
ATOM     38  C   UNL     1       4.799   0.082   1.028  1.00  0.00     0.014 A 
ATOM     39  C   UNL     1       3.581   0.080   3.126  1.00  0.00     0.014 A 
ATOM     40  C   UNL     1       5.767   0.917   1.580  1.00  0.00     0.010 A 
ATOM     41  C   UNL     1       4.500   0.970   3.654  1.00  0.00     0.010 A 
ATOM     42  C   UNL     1       5.613   1.366   2.895  1.00  0.00    -0.014 A 
BRANCH  42  43
ATOM     43  C   UNL     1       6.677   2.104   3.600  1.00  0.00     0.031 A 
ATOM     44  C   UNL     1       7.387   1.390   4.711  1.00  0.00     0.074 A 
ATOM     45  C   UNL     1       6.903   3.400   3.337  1.00  0.00     0.049 A 
ATOM     46  N   UNL     1       8.106   1.874   5.685  1.00  0.00    -0.248 NA
ATOM     47  C   UNL     1       7.202  -0.072   4.760  1.00  0.00     0.031 C 
ATOM     48  C   UNL     1       6.274   4.176   2.270  1.00  0.00     0.029 A 
ATOM     49  N   UNL     1       7.708   4.300   3.982  1.00  0.00    -0.354 N 
ATOM     50  C   UNL     1       8.394   0.789   6.504  1.00  0.00     0.074 A 
ATOM     51  C   UNL     1       7.763  -0.372   5.920  1.00  0.00     0.031 C 
ATOM     52  C   UNL     1       6.718   5.444   2.334  1.00  0.00     0.029 A 
ATOM     53  C   UNL     1       7.619   5.572   3.475  1.00  0.00     0.049 A 
ATOM     54  H   UNL     1       8.294   4.058   4.735  1.00  0.00     0.167 HD
ATOM     55  C   UNL     1       9.120   0.774   7.645  1.00  0.00     0.037 A 
ATOM     56  C   UNL     1       8.188   6.709   3.912  1.00  0.00     0.037 A 
ATOM     57  C   UNL     1       9.790   1.934   8.167  1.00  0.00     0.049 A 
ATOM     58  C   UNL     1       9.046   6.658   5.147  1.00  0.00     0.074 A 
ATOM     59  C   UNL     1      10.596   2.042   9.284  1.00  0.00     0.029 A 
ATOM     60  N   UNL     1       9.743   3.190   7.578  1.00  0.00    -0.354 N 
ATOM     61  N   UNL     1       9.305   5.638   5.931  1.00  0.00    -0.248 NA
ATOM     62  C   UNL     1       9.685   7.913   5.559  1.00  0.00     0.031 C 
ATOM     63  C   UNL     1      11.030   3.371   9.376  1.00  0.00     0.029 A 
ATOM     64  C   UNL     1      10.515   4.080   8.301  1.00  0.00     0.049 A 
ATOM     65  H   UNL     1       9.235   3.414   6.765  1.00  0.00     0.167 HD
ATOM     66  C   UNL     1      10.161   6.118   6.911  1.00  0.00     0.074 A 
ATOM     67  C   UNL     1      10.379   7.522   6.620  1.00  0.00     0.031 C 
ATOM     68  C   UNL     1      10.721   5.464   7.959  1.00  0.00     0.037 A 
BRANCH  55  69
ATOM     69  C   UNL     1       9.190  -0.524   8.392  1.00  0.00     0.057 A 
ATOM     70  C   UNL     1       9.900  -1.628   7.902  1.00  0.00     0.134 A 
ATOM     71  C   UNL     1       8.499  -0.685   9.599  1.00  0.00     0.134 A 
ATOM     72  F   UNL     1      10.562  -1.548   6.738  1.00  0.00    -0.206 F 
ATOM     73  C   UNL     1       9.887  -2.857   8.565  1.00  0.00     0.040 A 
ATOM     74  C   UNL     1       8.501  -1.901  10.285  1.00  0.00     0.040 A 
ATOM     75  F   UNL     1       7.795   0.330  10.123  1.00  0.00    -0.206 F 
ATOM     76  C   UNL     1       9.187  -2.995   9.762  1.00  0.00     0.006 A 
ENDBRANCH  55  69
BRANCH  56  77
ATOM     77  C   UNL     1       7.992   7.973   3.163  1.00  0.00     0.057 A 
ATOM     78  C   UNL     1       9.029   8.509   2.390  1.00  0.00     0.134 A 
ATOM     79  C   UNL     1       6.775   8.663   3.178  1.00  0.00     0.134 A 
ATOM     80  F   UNL     1      10.222   7.899   2.349  1.00  0.00    -0.206 F 
ATOM     81  C   UNL     1       8.867   9.692   1.668  1.00  0.00     0.040 A 
ATOM     82  C   UNL     1       6.593   9.838   2.446  1.00  0.00     0.040 A 
ATOM     83  F   UNL     1       5.740   8.196   3.892  1.00  0.00    -0.206 F 
ATOM     84  C   UNL     1       7.644  10.358   1.691  1.00  0.00     0.006 A 
ENDBRANCH  56  77
BRANCH  68  85
ATOM     85  C   UNL     1      11.660   6.250   8.820  1.00  0.00     0.057 A 
ATOM     86  C   UNL     1      11.197   7.165   9.771  1.00  0.00     0.134 A 
ATOM     87  C   UNL     1      13.042   6.053   8.719  1.00  0.00     0.134 A 
ATOM     88  F   UNL     1       9.883   7.403   9.903  1.00  0.00    -0.206 F 
ATOM     89  C   UNL     1      12.081   7.875  10.583  1.00  0.00     0.040 A 
ATOM     90  C   UNL     1      13.935   6.742   9.538  1.00  0.00     0.040 A 
ATOM     91  F   UNL     1      13.543   5.182   7.830  1.00  0.00    -0.206 F 
ATOM     92  C   UNL     1      13.454   7.659  10.471  1.00  0.00     0.006 A 
ENDBRANCH  68  85
ENDBRANCH  42  43
ENDBRANCH  34  37
ENDBRANCH  32  33
ENDBRANCH  31  32
ENDBRANCH  30  31
ENDBRANCH   1  30
TORSDOF 15
