REMARK SMILES O=C(NCCCCNC(=O)[C@H]1CCCN1C(=S)Nc1ccccc1)c1ccc(-c2c3nc(c(-c4c(F)cccc4F)c4ccc([nH]4)c(-c4c(F)cccc4F)c4nc(c(-c5c(F)cccc5F)c5ccc2[nH]5)C=C4)C=C3)cc1
REMARK SMILES IDX 6 1 5 2 4 3 3 4 1 5 2 6 25 8 26 9 78 10 27 11 77 12 28 13
REMARK SMILES IDX 29 14 30 15 71 16 31 17 76 18 70 19 72 20 32 21 75 22 69 23
REMARK SMILES IDX 68 24 33 26 59 27 42 28 58 29 43 30 46 31 57 32 73 33 44 34
REMARK SMILES IDX 45 35 56 37 74 38 47 39 34 40 35 41 40 42 36 43 37 44 39 45
REMARK SMILES IDX 41 46 38 47 60 48 61 49 66 50 62 51 63 52 65 53 67 54 64 55
REMARK SMILES IDX 48 56 49 57 54 58 50 59 51 60 53 61 55 62 52 63 7 64 8 65
REMARK SMILES IDX 9 66 10 68 11 69 12 70 15 71 13 72 14 73 16 74 17 75 18 76
REMARK SMILES IDX 19 78 20 79 24 80 21 81 23 82 22 83
REMARK H PARENT 3 7 72 25 46 36 8 67 18 77
REMARK Flexibility Score: inf
ROOT
ATOM      1  C   UNL     1       3.967  -9.386   2.604  1.00  0.00     0.023 C 
ENDROOT
BRANCH   1   2
ATOM      2  C   UNL     1       2.455  -9.533   2.457  1.00  0.00     0.023 C 
BRANCH   2   3
ATOM      3  C   UNL     1       1.993 -10.035   1.098  1.00  0.00     0.116 C 
BRANCH   3   4
ATOM      4  N   UNL     1       2.613 -11.293   0.710  1.00  0.00    -0.352 N 
ATOM      5  O   UNL     1       2.647 -13.410  -0.088  1.00  0.00    -0.269 OA
ATOM      6  C   UNL     1       2.032 -12.368   0.081  1.00  0.00     0.251 C 
ATOM      7  H   UNL     1       3.570 -11.385   0.926  1.00  0.00     0.163 HD
BRANCH   6   8
ATOM      8  C   UNL     1       0.628 -12.246  -0.354  1.00  0.00     0.039 A 
ATOM      9  C   UNL     1       0.222 -11.141  -1.107  1.00  0.00     0.014 A 
ATOM     10  C   UNL     1      -0.291 -13.214   0.052  1.00  0.00     0.014 A 
ATOM     11  C   UNL     1      -1.130 -10.934  -1.341  1.00  0.00     0.010 A 
ATOM     12  C   UNL     1      -1.641 -13.043  -0.250  1.00  0.00     0.010 A 
ATOM     13  C   UNL     1      -2.071 -11.887  -0.921  1.00  0.00    -0.014 A 
BRANCH  13  14
ATOM     14  C   UNL     1      -3.504 -11.687  -1.234  1.00  0.00     0.031 A 
ATOM     15  C   UNL     1      -4.509 -11.472  -0.142  1.00  0.00     0.074 A 
ATOM     16  C   UNL     1      -3.888 -11.710  -2.523  1.00  0.00     0.049 A 
ATOM     17  N   UNL     1      -5.809 -11.350  -0.231  1.00  0.00    -0.248 NA
ATOM     18  C   UNL     1      -3.990 -11.389   1.232  1.00  0.00     0.031 C 
ATOM     19  C   UNL     1      -2.992 -11.909  -3.665  1.00  0.00     0.029 A 
ATOM     20  N   UNL     1      -5.126 -11.564  -3.091  1.00  0.00    -0.354 N 
ATOM     21  C   UNL     1      -6.268 -11.206   1.071  1.00  0.00     0.074 A 
ATOM     22  C   UNL     1      -5.108 -11.268   1.936  1.00  0.00     0.031 C 
ATOM     23  C   UNL     1      -3.706 -11.850  -4.798  1.00  0.00     0.029 A 
ATOM     24  C   UNL     1      -5.113 -11.673  -4.459  1.00  0.00     0.049 A 
ATOM     25  H   UNL     1      -5.944 -11.398  -2.569  1.00  0.00     0.167 HD
ATOM     26  C   UNL     1      -7.541 -11.036   1.501  1.00  0.00     0.037 A 
ATOM     27  C   UNL     1      -6.126 -11.664  -5.343  1.00  0.00     0.037 A 
ATOM     28  C   UNL     1      -8.685 -10.960   0.628  1.00  0.00     0.049 A 
ATOM     29  C   UNL     1      -7.527 -11.498  -4.840  1.00  0.00     0.074 A 
ATOM     30  C   UNL     1     -10.013 -10.759   0.960  1.00  0.00     0.029 A 
ATOM     31  N   UNL     1      -8.633 -11.085  -0.753  1.00  0.00    -0.354 N 
ATOM     32  N   UNL     1      -7.947 -11.350  -3.607  1.00  0.00    -0.248 NA
ATOM     33  C   UNL     1      -8.595 -11.503  -5.847  1.00  0.00     0.031 C 
ATOM     34  C   UNL     1     -10.770 -10.800  -0.217  1.00  0.00     0.029 A 
ATOM     35  C   UNL     1      -9.908 -10.984  -1.286  1.00  0.00     0.049 A 
ATOM     36  H   UNL     1      -7.811 -11.225  -1.277  1.00  0.00     0.167 HD
ATOM     37  C   UNL     1      -9.327 -11.227  -3.689  1.00  0.00     0.074 A 
ATOM     38  C   UNL     1      -9.670 -11.307  -5.095  1.00  0.00     0.031 C 
ATOM     39  C   UNL     1     -10.227 -11.064  -2.689  1.00  0.00     0.037 A 
BRANCH  26  40
ATOM     40  C   UNL     1      -7.767 -10.949   2.982  1.00  0.00     0.057 A 
ATOM     41  C   UNL     1      -7.399  -9.820   3.725  1.00  0.00     0.134 A 
ATOM     42  C   UNL     1      -8.389 -11.999   3.670  1.00  0.00     0.134 A 
ATOM     43  F   UNL     1      -6.788  -8.784   3.130  1.00  0.00    -0.206 F 
ATOM     44  C   UNL     1      -7.621  -9.748   5.102  1.00  0.00     0.040 A 
ATOM     45  C   UNL     1      -8.636 -11.930   5.042  1.00  0.00     0.040 A 
ATOM     46  F   UNL     1      -8.771 -13.108   3.018  1.00  0.00    -0.206 F 
ATOM     47  C   UNL     1      -8.246 -10.804   5.763  1.00  0.00     0.006 A 
ENDBRANCH  26  40
BRANCH  27  48
ATOM     48  C   UNL     1      -5.831 -11.826  -6.785  1.00  0.00     0.057 A 
ATOM     49  C   UNL     1      -5.937 -10.749  -7.670  1.00  0.00     0.134 A 
ATOM     50  C   UNL     1      -5.386 -13.050  -7.303  1.00  0.00     0.134 A 
ATOM     51  F   UNL     1      -6.369  -9.557  -7.233  1.00  0.00    -0.206 F 
ATOM     52  C   UNL     1      -5.613 -10.881  -9.021  1.00  0.00     0.040 A 
ATOM     53  C   UNL     1      -5.036 -13.190  -8.645  1.00  0.00     0.040 A 
ATOM     54  F   UNL     1      -5.252 -14.116  -6.500  1.00  0.00    -0.206 F 
ATOM     55  C   UNL     1      -5.152 -12.103  -9.509  1.00  0.00     0.006 A 
ENDBRANCH  27  48
BRANCH  39  56
ATOM     56  C   UNL     1     -11.665 -10.929  -3.088  1.00  0.00     0.057 A 
ATOM     57  C   UNL     1     -12.421 -12.031  -3.505  1.00  0.00     0.134 A 
ATOM     58  C   UNL     1     -12.307  -9.686  -3.022  1.00  0.00     0.134 A 
ATOM     59  F   UNL     1     -11.857 -13.244  -3.603  1.00  0.00    -0.206 F 
ATOM     60  C   UNL     1     -13.764 -11.898  -3.859  1.00  0.00     0.040 A 
ATOM     61  C   UNL     1     -13.654  -9.545  -3.353  1.00  0.00     0.040 A 
ATOM     62  F   UNL     1     -11.637  -8.593  -2.626  1.00  0.00    -0.206 F 
ATOM     63  C   UNL     1     -14.386 -10.653  -3.777  1.00  0.00     0.006 A 
ENDBRANCH  39  56
ENDBRANCH  13  14
ENDBRANCH   6   8
ENDBRANCH   3   4
ENDBRANCH   2   3
ENDBRANCH   1   2
BRANCH   1  64
ATOM     64  C   UNL     1       4.616  -8.452   1.590  1.00  0.00     0.116 C 
BRANCH  64  65
ATOM     65  N   UNL     1       4.300  -7.072   1.872  1.00  0.00    -0.354 N 
ATOM     66  C   UNL     1       4.979  -6.104   2.538  1.00  0.00     0.242 C 
ATOM     67  H   UNL     1       3.430  -6.778   1.516  1.00  0.00     0.163 HD
ATOM     68  O   UNL     1       4.340  -5.066   2.760  1.00  0.00    -0.273 OA
BRANCH  66  69
ATOM     69  C   UNL     1       6.403  -6.258   3.125  1.00  0.00     0.173 C 
ATOM     70  C   UNL     1       6.357  -6.436   4.647  1.00  0.00     0.037 C 
ATOM     71  N   UNL     1       7.341  -7.296   2.660  1.00  0.00    -0.337 N 
ATOM     72  C   UNL     1       6.627  -7.909   4.865  1.00  0.00     0.024 C 
ATOM     73  C   UNL     1       7.541  -8.295   3.716  1.00  0.00     0.120 C 
BRANCH  71  74
ATOM     74  C   UNL     1       7.975  -7.376   1.433  1.00  0.00     0.174 C 
ATOM     75  S   UNL     1       8.810  -8.738   0.893  1.00  0.00    -0.041 S 
BRANCH  74  76
ATOM     76  N   UNL     1       7.798  -6.402   0.498  1.00  0.00    -0.333 N 
ATOM     77  H   UNL     1       7.622  -6.738  -0.410  1.00  0.00     0.169 HD
BRANCH  76  78
ATOM     78  C   UNL     1       7.822  -5.003   0.604  1.00  0.00     0.040 A 
ATOM     79  C   UNL     1       7.184  -4.268  -0.397  1.00  0.00     0.026 A 
ATOM     80  C   UNL     1       8.486  -4.334   1.634  1.00  0.00     0.026 A 
ATOM     81  C   UNL     1       7.098  -2.878  -0.297  1.00  0.00     0.002 A 
ATOM     82  C   UNL     1       8.395  -2.945   1.738  1.00  0.00     0.002 A 
ATOM     83  C   UNL     1       7.684  -2.220   0.783  1.00  0.00     0.000 A 
ENDBRANCH  76  78
ENDBRANCH  74  76
ENDBRANCH  71  74
ENDBRANCH  66  69
ENDBRANCH  64  65
ENDBRANCH   1  64
TORSDOF 14
