REMARK SMILES O=C(CCc1nc(-c2ccccc2)c(-c2ccccc2)o1)NCCCCNC(=O)c1ccc(-c2c3nc(c(-c4c(F)cccc4F)c4ccc([nH]4)c(-c4c(F)cccc4F)c4nc(c(-c5c(F)cccc5F)c5ccc2[nH]5)C=C4)C=C3)cc1
REMARK SMILES IDX 24 1 23 2 22 3 1 4 2 5 3 7 4 8 5 9 6 10 21 11 7 12 14 13
REMARK SMILES IDX 8 14 9 15 13 16 10 17 12 18 11 19 15 20 16 21 20 22 17 23
REMARK SMILES IDX 19 24 18 25 25 26 26 27 27 28 28 29 29 31 30 32 31 33 83 34
REMARK SMILES IDX 32 35 82 36 33 37 34 38 35 39 76 40 36 41 81 42 75 43 77 44
REMARK SMILES IDX 37 45 80 46 74 47 73 48 38 50 64 51 47 52 63 53 48 54 51 55
REMARK SMILES IDX 62 56 78 57 49 58 50 59 61 61 79 62 52 63 39 64 40 65 45 66
REMARK SMILES IDX 41 67 42 68 44 69 46 70 43 71 65 72 66 73 71 74 67 75 68 76
REMARK SMILES IDX 70 77 72 78 69 79 53 80 54 81 59 82 55 83 56 84 58 85 60 86
REMARK SMILES IDX 57 87
REMARK H PARENT 22 6 27 30 77 49 51 60
REMARK Flexibility Score: inf
ROOT
ATOM      1  C   UNL     1       2.230   2.107   3.036  1.00  0.00     0.023 C 
ENDROOT
BRANCH   1   2
ATOM      2  C   UNL     1       2.011   2.039   1.526  1.00  0.00     0.116 C 
BRANCH   2   3
ATOM      3  N   UNL     1       2.708   0.931   0.904  1.00  0.00    -0.356 N 
ATOM      4  O   UNL     1       0.944   0.238  -0.397  1.00  0.00    -0.275 OA
ATOM      5  C   UNL     1       2.114   0.128  -0.044  1.00  0.00     0.220 C 
ATOM      6  H   UNL     1       3.638   0.745   1.169  1.00  0.00     0.163 HD
BRANCH   5   7
ATOM      7  C   UNL     1       3.035  -0.901  -0.662  1.00  0.00     0.110 C 
BRANCH   7   8
ATOM      8  C   UNL     1       3.846  -0.295  -1.802  1.00  0.00     0.107 C 
BRANCH   8   9
ATOM      9  C   UNL     1       4.930   0.584  -1.293  1.00  0.00     0.196 A 
ATOM     10  N   UNL     1       6.007   0.247  -0.615  1.00  0.00    -0.213 NA
ATOM     11  O   UNL     1       4.758   1.930  -1.458  1.00  0.00    -0.440 OA
ATOM     12  C   UNL     1       6.610   1.452  -0.342  1.00  0.00     0.117 A 
ATOM     13  C   UNL     1       5.855   2.492  -0.854  1.00  0.00     0.162 A 
BRANCH  12  14
ATOM     14  C   UNL     1       7.822   1.572   0.437  1.00  0.00     0.004 A 
ATOM     15  C   UNL     1       7.782   2.119   1.723  1.00  0.00     0.010 A 
ATOM     16  C   UNL     1       9.046   1.151  -0.088  1.00  0.00     0.010 A 
ATOM     17  C   UNL     1       8.952   2.280   2.464  1.00  0.00     0.001 A 
ATOM     18  C   UNL     1      10.221   1.321   0.651  1.00  0.00     0.001 A 
ATOM     19  C   UNL     1      10.175   1.894   1.923  1.00  0.00     0.000 A 
ENDBRANCH  12  14
BRANCH  13  20
ATOM     20  C   UNL     1       5.934   3.945  -0.891  1.00  0.00     0.020 A 
ATOM     21  C   UNL     1       4.776   4.726  -0.753  1.00  0.00     0.012 A 
ATOM     22  C   UNL     1       7.167   4.596  -1.029  1.00  0.00     0.012 A 
ATOM     23  C   UNL     1       4.855   6.120  -0.709  1.00  0.00     0.001 A 
ATOM     24  C   UNL     1       7.245   5.991  -1.005  1.00  0.00     0.001 A 
ATOM     25  C   UNL     1       6.091   6.752  -0.832  1.00  0.00     0.000 A 
ENDBRANCH  13  20
ENDBRANCH   8   9
ENDBRANCH   7   8
ENDBRANCH   5   7
ENDBRANCH   2   3
ENDBRANCH   1   2
BRANCH   1  26
ATOM     26  C   UNL     1       3.678   2.311   3.491  1.00  0.00     0.023 C 
BRANCH  26  27
ATOM     27  C   UNL     1       4.369   3.577   2.994  1.00  0.00     0.116 C 
BRANCH  27  28
ATOM     28  N   UNL     1       3.793   4.811   3.490  1.00  0.00    -0.352 N 
ATOM     29  C   UNL     1       4.431   5.955   3.922  1.00  0.00     0.251 C 
ATOM     30  H   UNL     1       2.810   4.837   3.522  1.00  0.00     0.163 HD
ATOM     31  O   UNL     1       3.771   6.870   4.404  1.00  0.00    -0.269 OA
BRANCH  29  32
ATOM     32  C   UNL     1       5.911   6.087   3.846  1.00  0.00     0.039 A 
ATOM     33  C   UNL     1       6.597   6.656   4.924  1.00  0.00     0.014 A 
ATOM     34  C   UNL     1       6.628   5.691   2.717  1.00  0.00     0.014 A 
ATOM     35  C   UNL     1       7.995   6.760   4.895  1.00  0.00     0.010 A 
ATOM     36  C   UNL     1       8.022   5.754   2.703  1.00  0.00     0.010 A 
ATOM     37  C   UNL     1       8.723   6.278   3.795  1.00  0.00    -0.014 A 
BRANCH  37  38
ATOM     38  C   UNL     1      10.211   6.256   3.793  1.00  0.00     0.031 A 
ATOM     39  C   UNL     1      11.000   7.102   2.831  1.00  0.00     0.074 A 
ATOM     40  C   UNL     1      10.856   5.397   4.607  1.00  0.00     0.049 A 
ATOM     41  N   UNL     1      12.298   7.183   2.676  1.00  0.00    -0.248 NA
ATOM     42  C   UNL     1      10.232   7.955   1.912  1.00  0.00     0.031 C 
ATOM     43  C   UNL     1      10.212   4.478   5.547  1.00  0.00     0.029 A 
ATOM     44  N   UNL     1      12.197   5.141   4.760  1.00  0.00    -0.354 N 
ATOM     45  C   UNL     1      12.504   8.096   1.649  1.00  0.00     0.074 A 
ATOM     46  C   UNL     1      11.194   8.502   1.182  1.00  0.00     0.031 C 
ATOM     47  C   UNL     1      11.155   3.764   6.180  1.00  0.00     0.029 A 
ATOM     48  C   UNL     1      12.469   4.159   5.681  1.00  0.00     0.049 A 
ATOM     49  H   UNL     1      12.897   5.617   4.257  1.00  0.00     0.167 HD
ATOM     50  C   UNL     1      13.675   8.570   1.157  1.00  0.00     0.037 A 
ATOM     51  C   UNL     1      13.642   3.633   6.081  1.00  0.00     0.037 A 
ATOM     52  C   UNL     1      14.978   8.170   1.625  1.00  0.00     0.049 A 
ATOM     53  C   UNL     1      14.926   4.161   5.505  1.00  0.00     0.074 A 
ATOM     54  C   UNL     1      16.218   8.652   1.239  1.00  0.00     0.029 A 
ATOM     55  N   UNL     1      15.212   7.182   2.569  1.00  0.00    -0.354 N 
ATOM     56  N   UNL     1      15.105   5.101   4.609  1.00  0.00    -0.248 NA
ATOM     57  C   UNL     1      16.172   3.565   6.008  1.00  0.00     0.031 C 
ATOM     58  C   UNL     1      17.203   7.919   1.910  1.00  0.00     0.029 A 
ATOM     59  C   UNL     1      16.576   7.018   2.754  1.00  0.00     0.049 A 
ATOM     60  H   UNL     1      14.513   6.673   3.039  1.00  0.00     0.167 HD
ATOM     61  C   UNL     1      16.481   5.234   4.469  1.00  0.00     0.074 A 
ATOM     62  C   UNL     1      17.089   4.285   5.377  1.00  0.00     0.031 C 
ATOM     63  C   UNL     1      17.176   6.073   3.663  1.00  0.00     0.037 A 
BRANCH  50  64
ATOM     64  C   UNL     1      13.607   9.587   0.053  1.00  0.00     0.057 A 
ATOM     65  C   UNL     1      13.164  10.896   0.282  1.00  0.00     0.134 A 
ATOM     66  C   UNL     1      14.050   9.275  -1.239  1.00  0.00     0.134 A 
ATOM     67  F   UNL     1      12.722  11.261   1.496  1.00  0.00    -0.206 F 
ATOM     68  C   UNL     1      13.141  11.850  -0.737  1.00  0.00     0.040 A 
ATOM     69  C   UNL     1      14.057  10.228  -2.260  1.00  0.00     0.040 A 
ATOM     70  F   UNL     1      14.499   8.044  -1.527  1.00  0.00    -0.206 F 
ATOM     71  C   UNL     1      13.597  11.519  -2.011  1.00  0.00     0.006 A 
ENDBRANCH  50  64
BRANCH  51  72
ATOM     72  C   UNL     1      13.660   2.564   7.111  1.00  0.00     0.057 A 
ATOM     73  C   UNL     1      14.138   2.816   8.402  1.00  0.00     0.134 A 
ATOM     74  C   UNL     1      13.210   1.269   6.829  1.00  0.00     0.134 A 
ATOM     75  F   UNL     1      14.600   4.034   8.725  1.00  0.00    -0.206 F 
ATOM     76  C   UNL     1      14.188   1.814   9.372  1.00  0.00     0.040 A 
ATOM     77  C   UNL     1      13.230   0.264   7.797  1.00  0.00     0.040 A 
ATOM     78  F   UNL     1      12.732   0.968   5.613  1.00  0.00    -0.206 F 
ATOM     79  C   UNL     1      13.728   0.534   9.070  1.00  0.00     0.006 A 
ENDBRANCH  51  72
BRANCH  63  80
ATOM     80  C   UNL     1      18.674   6.030   3.752  1.00  0.00     0.057 A 
ATOM     81  C   UNL     1      19.416   4.952   3.253  1.00  0.00     0.134 A 
ATOM     82  C   UNL     1      19.385   7.096   4.318  1.00  0.00     0.134 A 
ATOM     83  F   UNL     1      18.797   3.893   2.711  1.00  0.00    -0.206 F 
ATOM     84  C   UNL     1      20.810   4.925   3.336  1.00  0.00     0.040 A 
ATOM     85  C   UNL     1      20.779   7.093   4.382  1.00  0.00     0.040 A 
ATOM     86  F   UNL     1      18.737   8.164   4.808  1.00  0.00    -0.206 F 
ATOM     87  C   UNL     1      21.496   6.001   3.896  1.00  0.00     0.006 A 
ENDBRANCH  63  80
ENDBRANCH  37  38
ENDBRANCH  29  32
ENDBRANCH  27  28
ENDBRANCH  26  27
ENDBRANCH   1  26
TORSDOF 15
