REMARK SMILES C[C@@H](C(=O)NCCCCNC(=O)c1ccc(-c2c3nc(c(-c4c(F)cccc4F)c4ccc([nH]4)c(-c4c(F)cccc4F)c4nc(c(-c5c(F)cccc5F)c5ccc2[nH]5)C=C4)C=C3)cc1)c1ccc(C[C@H]2CCC[C@@H]2O)cc1F
REMARK SMILES IDX 6 1 5 2 3 3 4 4 2 6 1 7 67 8 68 9 79 10 69 11 78 12 80 13
REMARK SMILES IDX 70 14 71 15 72 16 73 17 76 18 74 19 75 20 77 21 7 23 8 24
REMARK SMILES IDX 9 25 10 26 11 27 12 29 13 30 14 31 66 32 15 33 65 34 16 35
REMARK SMILES IDX 17 36 18 37 59 38 19 39 64 40 58 41 60 42 20 43 63 44 57 45
REMARK SMILES IDX 56 46 21 48 47 49 30 50 46 51 31 52 34 53 45 54 61 55 32 56
REMARK SMILES IDX 33 57 44 59 62 60 35 61 22 62 23 63 28 64 24 65 25 66 27 67
REMARK SMILES IDX 29 68 26 69 48 70 49 71 54 72 50 73 51 74 53 75 55 76 52 77
REMARK SMILES IDX 36 78 37 79 42 80 38 81 39 82 41 83 43 84 40 85
REMARK H PARENT 5 5 77 22 10 28 60 47 34 58
REMARK Flexibility Score: inf
ROOT
ATOM      1  C   UNL     1       3.471  -1.810  -0.342  1.00  0.00     0.116 C 
ENDROOT
BRANCH   1   2
ATOM      2  N   UNL     1       2.389  -2.507   0.326  1.00  0.00    -0.356 N 
ATOM      3  C   UNL     1       1.090  -2.107   0.493  1.00  0.00     0.227 C 
ATOM      4  O   UNL     1       0.471  -2.603   1.437  1.00  0.00    -0.274 OA
ATOM      5  H   UNL     1       2.619  -3.385   0.709  1.00  0.00     0.163 HD
BRANCH   3   6
ATOM      6  C   UNL     1       0.500  -1.045  -0.454  1.00  0.00     0.108 C 
ATOM      7  C   UNL     1       0.915   0.326   0.109  1.00  0.00     0.023 C 
BRANCH   6   8
ATOM      8  C   UNL     1      -1.014  -1.137  -0.650  1.00  0.00    -0.000 A 
ATOM      9  C   UNL     1      -1.776   0.009  -0.932  1.00  0.00     0.008 A 
ATOM     10  C   UNL     1      -1.706  -2.351  -0.573  1.00  0.00     0.127 A 
ATOM     11  C   UNL     1      -3.170  -0.034  -0.939  1.00  0.00     0.004 A 
ATOM     12  C   UNL     1      -3.101  -2.393  -0.526  1.00  0.00     0.043 A 
ATOM     13  F   UNL     1      -1.042  -3.514  -0.525  1.00  0.00    -0.207 F 
ATOM     14  C   UNL     1      -3.844  -1.214  -0.630  1.00  0.00    -0.045 A 
BRANCH  14  15
ATOM     15  C   UNL     1      -5.329  -1.194  -0.364  1.00  0.00     0.041 C 
BRANCH  15  16
ATOM     16  C   UNL     1      -5.745  -0.617   1.006  1.00  0.00     0.022 C 
ATOM     17  C   UNL     1      -5.165  -1.326   2.242  1.00  0.00     0.007 C 
ATOM     18  C   UNL     1      -5.424   0.862   1.248  1.00  0.00     0.117 C 
ATOM     19  C   UNL     1      -4.971  -0.236   3.305  1.00  0.00     0.003 C 
ATOM     20  C   UNL     1      -5.639   1.010   2.746  1.00  0.00     0.032 C 
BRANCH  18  21
ATOM     21  O   UNL     1      -6.281   1.705   0.502  1.00  0.00    -0.393 OA
ATOM     22  H   UNL     1      -7.204   1.510   0.728  1.00  0.00     0.210 HD
ENDBRANCH  18  21
ENDBRANCH  15  16
ENDBRANCH  14  15
ENDBRANCH   6   8
ENDBRANCH   3   6
ENDBRANCH   1   2
BRANCH   1  23
ATOM     23  C   UNL     1       4.309  -1.025   0.674  1.00  0.00     0.023 C 
BRANCH  23  24
ATOM     24  C   UNL     1       5.112  -1.890   1.648  1.00  0.00     0.023 C 
BRANCH  24  25
ATOM     25  C   UNL     1       6.104  -2.842   0.995  1.00  0.00     0.116 C 
BRANCH  25  26
ATOM     26  N   UNL     1       7.054  -2.159   0.134  1.00  0.00    -0.352 N 
ATOM     27  C   UNL     1       8.400  -2.369  -0.022  1.00  0.00     0.251 C 
ATOM     28  H   UNL     1       6.675  -1.438  -0.421  1.00  0.00     0.163 HD
ATOM     29  O   UNL     1       9.062  -1.592  -0.703  1.00  0.00    -0.269 OA
BRANCH  27  30
ATOM     30  C   UNL     1       9.061  -3.504   0.657  1.00  0.00     0.039 A 
ATOM     31  C   UNL     1      10.305  -3.286   1.253  1.00  0.00     0.014 A 
ATOM     32  C   UNL     1       8.476  -4.773   0.701  1.00  0.00     0.014 A 
ATOM     33  C   UNL     1      10.934  -4.323   1.942  1.00  0.00     0.010 A 
ATOM     34  C   UNL     1       9.069  -5.787   1.452  1.00  0.00     0.010 A 
ATOM     35  C   UNL     1      10.305  -5.572   2.076  1.00  0.00    -0.014 A 
BRANCH  35  36
ATOM     36  C   UNL     1      10.935  -6.646   2.885  1.00  0.00     0.031 A 
ATOM     37  C   UNL     1      11.401  -7.921   2.239  1.00  0.00     0.074 A 
ATOM     38  C   UNL     1      11.065  -6.474   4.214  1.00  0.00     0.049 A 
ATOM     39  N   UNL     1      11.995  -8.951   2.786  1.00  0.00    -0.248 NA
ATOM     40  C   UNL     1      11.150  -8.069   0.797  1.00  0.00     0.031 C 
ATOM     41  C   UNL     1      10.589  -5.311   4.968  1.00  0.00     0.029 A 
ATOM     42  N   UNL     1      11.637  -7.276   5.169  1.00  0.00    -0.354 N 
ATOM     43  C   UNL     1      12.192  -9.864   1.758  1.00  0.00     0.074 A 
ATOM     44  C   UNL     1      11.598  -9.295   0.568  1.00  0.00     0.031 C 
ATOM     45  C   UNL     1      10.918  -5.461   6.261  1.00  0.00     0.029 A 
ATOM     46  C   UNL     1      11.601  -6.738   6.433  1.00  0.00     0.049 A 
ATOM     47  H   UNL     1      12.037  -8.153   4.967  1.00  0.00     0.167 HD
ATOM     48  C   UNL     1      12.837 -11.055   1.796  1.00  0.00     0.037 A 
ATOM     49  C   UNL     1      12.071  -7.219   7.598  1.00  0.00     0.037 A 
ATOM     50  C   UNL     1      13.435 -11.617   2.979  1.00  0.00     0.049 A 
ATOM     51  C   UNL     1      12.794  -8.537   7.608  1.00  0.00     0.074 A 
ATOM     52  C   UNL     1      14.142 -12.800   3.110  1.00  0.00     0.029 A 
ATOM     53  N   UNL     1      13.396 -11.034   4.236  1.00  0.00    -0.354 N 
ATOM     54  N   UNL     1      13.036  -9.355   6.613  1.00  0.00    -0.248 NA
ATOM     55  C   UNL     1      13.322  -8.990   8.902  1.00  0.00     0.031 C 
ATOM     56  C   UNL     1      14.500 -12.950   4.455  1.00  0.00     0.029 A 
ATOM     57  C   UNL     1      14.056 -11.838   5.152  1.00  0.00     0.049 A 
ATOM     58  H   UNL     1      12.964 -10.175   4.447  1.00  0.00     0.167 HD
ATOM     59  C   UNL     1      13.758 -10.409   7.155  1.00  0.00     0.074 A 
ATOM     60  C   UNL     1      13.941 -10.111   8.561  1.00  0.00     0.031 C 
ATOM     61  C   UNL     1      14.223 -11.529   6.548  1.00  0.00     0.037 A 
BRANCH  48  62
ATOM     62  C   UNL     1      12.945 -11.823   0.510  1.00  0.00     0.057 A 
ATOM     63  C   UNL     1      13.778 -11.393  -0.532  1.00  0.00     0.134 A 
ATOM     64  C   UNL     1      12.251 -13.026   0.328  1.00  0.00     0.134 A 
ATOM     65  F   UNL     1      14.460 -10.243  -0.426  1.00  0.00    -0.206 F 
ATOM     66  C   UNL     1      13.901 -12.121  -1.717  1.00  0.00     0.040 A 
ATOM     67  C   UNL     1      12.386 -13.776  -0.843  1.00  0.00     0.040 A 
ATOM     68  F   UNL     1      11.441 -13.498   1.287  1.00  0.00    -0.206 F 
ATOM     69  C   UNL     1      13.210 -13.321  -1.871  1.00  0.00     0.006 A 
ENDBRANCH  48  62
BRANCH  49  70
ATOM     70  C   UNL     1      11.895  -6.441   8.851  1.00  0.00     0.057 A 
ATOM     71  C   UNL     1      12.987  -5.850   9.497  1.00  0.00     0.134 A 
ATOM     72  C   UNL     1      10.635  -6.286   9.440  1.00  0.00     0.134 A 
ATOM     73  F   UNL     1      14.222  -5.978   8.990  1.00  0.00    -0.206 F 
ATOM     74  C   UNL     1      12.837  -5.157  10.700  1.00  0.00     0.040 A 
ATOM     75  C   UNL     1      10.467  -5.573  10.627  1.00  0.00     0.040 A 
ATOM     76  F   UNL     1       9.548  -6.819   8.864  1.00  0.00    -0.206 F 
ATOM     77  C   UNL     1      11.572  -5.014  11.266  1.00  0.00     0.006 A 
ENDBRANCH  49  70
BRANCH  61  78
ATOM     78  C   UNL     1      14.986 -12.497   7.404  1.00  0.00     0.057 A 
ATOM     79  C   UNL     1      14.352 -13.274   8.383  1.00  0.00     0.134 A 
ATOM     80  C   UNL     1      16.368 -12.656   7.247  1.00  0.00     0.134 A 
ATOM     81  F   UNL     1      13.032 -13.159   8.593  1.00  0.00    -0.206 F 
ATOM     82  C   UNL     1      15.072 -14.148   9.199  1.00  0.00     0.040 A 
ATOM     83  C   UNL     1      17.094 -13.548   8.037  1.00  0.00     0.040 A 
ATOM     84  F   UNL     1      17.035 -11.950   6.321  1.00  0.00    -0.206 F 
ATOM     85  C   UNL     1      16.447 -14.289   9.024  1.00  0.00     0.006 A 
ENDBRANCH  61  78
ENDBRANCH  35  36
ENDBRANCH  27  30
ENDBRANCH  25  26
ENDBRANCH  24  25
ENDBRANCH  23  24
ENDBRANCH   1  23
TORSDOF 15
