REMARK SMILES CC1(C(=O)N[C@H](C(=O)NCCCCNC(=O)c2ccc(-c3c4nc(c(-c5c(F)cccc5F)c5ccc([nH]5)c(-c5c(F)cccc5F)c5nc(c(-c6c(F)cccc6F)c6ccc3[nH]6)C=C5)C=C4)cc2)C2CC2)CCCC1
REMARK SMILES IDX 11 1 10 2 9 3 7 4 8 5 6 7 5 8 3 9 4 10 2 12 1 13 74 14 77 15
REMARK SMILES IDX 75 16 76 17 71 18 72 19 73 20 12 21 13 22 14 23 15 24 16 26
REMARK SMILES IDX 17 27 18 28 70 29 19 30 69 31 20 32 21 33 22 34 63 35 23 36
REMARK SMILES IDX 68 37 62 38 64 39 24 40 67 41 61 42 60 43 25 45 51 46 34 47
REMARK SMILES IDX 50 48 35 49 38 50 49 51 65 52 36 53 37 54 48 56 66 57 39 58
REMARK SMILES IDX 26 59 27 60 32 61 28 62 29 63 31 64 33 65 30 66 52 67 53 68
REMARK SMILES IDX 58 69 54 70 55 71 57 72 59 73 56 74 40 75 41 76 46 77 42 78
REMARK SMILES IDX 43 79 45 80 47 81 44 82
REMARK H PARENT 9 6 5 11 14 25 64 44 38 55
REMARK Flexibility Score: inf
ROOT
ATOM      1  C   UNL     1       6.502  -0.967   1.931  1.00  0.00     0.023 C 
ENDROOT
BRANCH   1   2
ATOM      2  C   UNL     1       5.426  -1.887   2.502  1.00  0.00     0.116 C 
BRANCH   2   3
ATOM      3  N   UNL     1       4.175  -1.188   2.709  1.00  0.00    -0.354 N 
ATOM      4  C   UNL     1       2.998  -1.272   2.026  1.00  0.00     0.242 C 
ATOM      5  O   UNL     1       2.023  -0.698   2.522  1.00  0.00    -0.273 OA
ATOM      6  H   UNL     1       4.174  -0.552   3.461  1.00  0.00     0.163 HD
BRANCH   4   7
ATOM      7  C   UNL     1       2.828  -2.202   0.792  1.00  0.00     0.174 C 
BRANCH   7   8
ATOM      8  N   UNL     1       3.919  -2.089  -0.171  1.00  0.00    -0.344 N 
ATOM      9  C   UNL     1       4.163  -1.215  -1.179  1.00  0.00     0.226 C 
ATOM     10  O   UNL     1       5.236  -1.369  -1.771  1.00  0.00    -0.274 OA
ATOM     11  H   UNL     1       4.611  -2.782  -0.070  1.00  0.00     0.164 HD
BRANCH   9  12
ATOM     12  C   UNL     1       3.159  -0.138  -1.612  1.00  0.00     0.046 C 
ATOM     13  C   UNL     1       1.962  -0.793  -2.317  1.00  0.00     0.022 C 
ATOM     14  C   UNL     1       3.849   0.858  -2.574  1.00  0.00     0.016 C 
ATOM     15  C   UNL     1       2.737   0.807  -0.480  1.00  0.00     0.016 C 
ATOM     16  C   UNL     1       2.989   2.112  -2.536  1.00  0.00     0.001 C 
ATOM     17  C   UNL     1       2.400   2.150  -1.132  1.00  0.00     0.001 C 
ENDBRANCH   9  12
ENDBRANCH   7   8
BRANCH   7  18
ATOM     18  C   UNL     1       2.648  -3.641   1.254  1.00  0.00     0.021 C 
ATOM     19  C   UNL     1       1.814  -4.590   0.422  1.00  0.00     0.006 C 
ATOM     20  C   UNL     1       3.280  -4.851   0.591  1.00  0.00     0.006 C 
ENDBRANCH   7  18
ENDBRANCH   4   7
ENDBRANCH   2   3
ENDBRANCH   1   2
BRANCH   1  21
ATOM     21  C   UNL     1       6.906   0.187   2.853  1.00  0.00     0.023 C 
BRANCH  21  22
ATOM     22  C   UNL     1       7.288  -0.213   4.274  1.00  0.00     0.116 C 
BRANCH  22  23
ATOM     23  N   UNL     1       8.372  -1.181   4.327  1.00  0.00    -0.352 N 
ATOM     24  C   UNL     1       9.415  -1.253   5.217  1.00  0.00     0.251 C 
ATOM     25  H   UNL     1       8.355  -1.878   3.632  1.00  0.00     0.163 HD
ATOM     26  O   UNL     1      10.310  -2.078   5.060  1.00  0.00    -0.269 OA
BRANCH  24  27
ATOM     27  C   UNL     1       9.476  -0.302   6.345  1.00  0.00     0.039 A 
ATOM     28  C   UNL     1      10.667   0.392   6.575  1.00  0.00     0.014 A 
ATOM     29  C   UNL     1       8.358  -0.074   7.152  1.00  0.00     0.014 A 
ATOM     30  C   UNL     1      10.716   1.367   7.572  1.00  0.00     0.010 A 
ATOM     31  C   UNL     1       8.389   0.945   8.101  1.00  0.00     0.010 A 
ATOM     32  C   UNL     1       9.566   1.677   8.318  1.00  0.00    -0.014 A 
BRANCH  32  33
ATOM     33  C   UNL     1       9.574   2.769   9.323  1.00  0.00     0.031 A 
ATOM     34  C   UNL     1       9.360   2.460  10.778  1.00  0.00     0.074 A 
ATOM     35  C   UNL     1       9.709   4.047   8.916  1.00  0.00     0.049 A 
ATOM     36  N   UNL     1       9.264   3.282  11.792  1.00  0.00    -0.248 NA
ATOM     37  C   UNL     1       9.206   1.042  11.137  1.00  0.00     0.031 C 
ATOM     38  C   UNL     1       9.875   4.482   7.528  1.00  0.00     0.029 A 
ATOM     39  N   UNL     1       9.714   5.218   9.633  1.00  0.00    -0.354 N 
ATOM     40  C   UNL     1       9.025   2.483  12.903  1.00  0.00     0.074 A 
ATOM     41  C   UNL     1       8.940   1.118  12.432  1.00  0.00     0.031 C 
ATOM     42  C   UNL     1       9.986   5.819   7.496  1.00  0.00     0.029 A 
ATOM     43  C   UNL     1       9.863   6.340   8.854  1.00  0.00     0.049 A 
ATOM     44  H   UNL     1       9.620   5.250  10.612  1.00  0.00     0.167 HD
ATOM     45  C   UNL     1       8.911   2.852  14.201  1.00  0.00     0.037 A 
ATOM     46  C   UNL     1       9.890   7.642   9.196  1.00  0.00     0.037 A 
ATOM     47  C   UNL     1       9.021   4.208  14.671  1.00  0.00     0.049 A 
ATOM     48  C   UNL     1       9.757   8.025  10.644  1.00  0.00     0.074 A 
ATOM     49  C   UNL     1       8.980   4.675  15.973  1.00  0.00     0.029 A 
ATOM     50  N   UNL     1       9.193   5.315  13.853  1.00  0.00    -0.354 N 
ATOM     51  N   UNL     1       9.601   7.253  11.692  1.00  0.00    -0.248 NA
ATOM     52  C   UNL     1       9.810   9.460  10.957  1.00  0.00     0.031 C 
ATOM     53  C   UNL     1       9.085   6.070  15.940  1.00  0.00     0.029 A 
ATOM     54  C   UNL     1       9.239   6.466  14.622  1.00  0.00     0.049 A 
ATOM     55  H   UNL     1       9.270   5.287  12.872  1.00  0.00     0.167 HD
ATOM     56  C   UNL     1       9.566   8.104  12.789  1.00  0.00     0.074 A 
ATOM     57  C   UNL     1       9.731   9.450  12.280  1.00  0.00     0.031 C 
ATOM     58  C   UNL     1       9.412   7.798  14.101  1.00  0.00     0.037 A 
BRANCH  45  59
ATOM     59  C   UNL     1       8.658   1.768  15.209  1.00  0.00     0.057 A 
ATOM     60  C   UNL     1       9.643   0.832  15.549  1.00  0.00     0.134 A 
ATOM     61  C   UNL     1       7.428   1.681  15.873  1.00  0.00     0.134 A 
ATOM     62  F   UNL     1      10.839   0.853  14.941  1.00  0.00    -0.206 F 
ATOM     63  C   UNL     1       9.407  -0.167  16.494  1.00  0.00     0.040 A 
ATOM     64  C   UNL     1       7.189   0.703  16.839  1.00  0.00     0.040 A 
ATOM     65  F   UNL     1       6.442   2.549  15.599  1.00  0.00    -0.206 F 
ATOM     66  C   UNL     1       8.178  -0.229  17.148  1.00  0.00     0.006 A 
ENDBRANCH  45  59
BRANCH  46  67
ATOM     67  C   UNL     1      10.071   8.682   8.152  1.00  0.00     0.057 A 
ATOM     68  C   UNL     1      11.257   9.421   8.068  1.00  0.00     0.134 A 
ATOM     69  C   UNL     1       9.063   8.973   7.226  1.00  0.00     0.134 A 
ATOM     70  F   UNL     1      12.252   9.201   8.941  1.00  0.00    -0.206 F 
ATOM     71  C   UNL     1      11.427  10.425   7.114  1.00  0.00     0.040 A 
ATOM     72  C   UNL     1       9.229   9.957   6.250  1.00  0.00     0.040 A 
ATOM     73  F   UNL     1       7.906   8.296   7.248  1.00  0.00    -0.206 F 
ATOM     74  C   UNL     1      10.412  10.693   6.198  1.00  0.00     0.006 A 
ENDBRANCH  46  67
BRANCH  58  75
ATOM     75  C   UNL     1       9.451   8.934  15.080  1.00  0.00     0.057 A 
ATOM     76  C   UNL     1       8.397   9.848  15.197  1.00  0.00     0.134 A 
ATOM     77  C   UNL     1      10.543   9.092  15.944  1.00  0.00     0.134 A 
ATOM     78  F   UNL     1       7.329   9.760  14.389  1.00  0.00    -0.206 F 
ATOM     79  C   UNL     1       8.436  10.891  16.123  1.00  0.00     0.040 A 
ATOM     80  C   UNL     1      10.582  10.114  16.892  1.00  0.00     0.040 A 
ATOM     81  F   UNL     1      11.583   8.245  15.889  1.00  0.00    -0.206 F 
ATOM     82  C   UNL     1       9.528  11.022  16.979  1.00  0.00     0.006 A 
ENDBRANCH  58  75
ENDBRANCH  32  33
ENDBRANCH  24  27
ENDBRANCH  22  23
ENDBRANCH  21  22
ENDBRANCH   1  21
TORSDOF 14
