REMARK SMILES CN(C)c1ccc([C@H]2/C(=C(\NCCCCNC(=O)c3ccc(-c4c5nc(c(-c6c(F)cccc6F)c6ccc([nH]6)c(-c6c(F)cccc6F)c6nc(c(-c7c(F)cccc7F)c7ccc4[nH]7)C=C6)C=C5)cc3)c3ccccc3)C(=O)C(=O)N2CCC(=O)[O-])cc1
REMARK SMILES IDX 13 1 12 2 11 3 10 5 8 6 9 7 83 8 79 9 81 10 80 11 82 12 7 13
REMARK SMILES IDX 4 14 5 15 90 16 6 17 89 18 2 19 1 20 3 21 84 22 85 23 86 24
REMARK SMILES IDX 87 25 88 26 73 27 74 28 78 29 75 30 77 31 76 32 14 33 15 34
REMARK SMILES IDX 16 35 17 36 18 38 19 39 20 40 72 41 21 42 71 43 22 44 23 45
REMARK SMILES IDX 24 46 65 47 25 48 70 49 64 50 66 51 26 52 69 53 63 54 62 55
REMARK SMILES IDX 27 57 53 58 36 59 52 60 37 61 40 62 51 63 67 64 38 65 39 66
REMARK SMILES IDX 50 68 68 69 41 70 28 71 29 72 34 73 30 74 31 75 33 76 35 77
REMARK SMILES IDX 32 78 54 79 55 80 60 81 56 82 57 83 59 84 61 85 58 86 42 87
REMARK SMILES IDX 43 88 48 89 44 90 45 91 47 92 49 93 46 94
REMARK H PARENT 11 4 16 37 66 56 40 67
REMARK Flexibility Score: inf
ROOT
ATOM      1  C   UNL     1       2.853  -0.999  -5.974  1.00  0.00     0.023 C 
ENDROOT
BRANCH   1   2
ATOM      2  C   UNL     1       2.908   0.133  -6.997  1.00  0.00     0.113 C 
BRANCH   2   3
ATOM      3  N   UNL     1       2.828   1.441  -6.354  1.00  0.00    -0.384 N 
ATOM      4  H   UNL     1       2.197   1.520  -5.602  1.00  0.00     0.160 HD
BRANCH   3   5
ATOM      5  C   UNL     1       3.542   2.590  -6.684  1.00  0.00     0.051 C 
ATOM      6  C   UNL     1       2.279   4.231  -5.139  1.00  0.00     0.153 C 
ATOM      7  C   UNL     1       3.293   3.819  -6.188  1.00  0.00     0.056 C 
ATOM      8  N   UNL     1       2.994   5.279  -4.418  1.00  0.00    -0.324 N 
ATOM      9  C   UNL     1       4.073   5.061  -6.465  1.00  0.00     0.250 C 
ATOM     10  C   UNL     1       3.874   5.956  -5.239  1.00  0.00     0.295 C 
ATOM     11  O   UNL     1       4.732   5.353  -7.439  1.00  0.00    -0.283 OA
ATOM     12  O   UNL     1       4.448   7.006  -5.038  1.00  0.00    -0.265 OA
BRANCH   6  13
ATOM     13  C   UNL     1       0.986   4.742  -5.788  1.00  0.00    -0.021 A 
ATOM     14  C   UNL     1      -1.284   5.733  -7.239  1.00  0.00     0.036 A 
ATOM     15  C   UNL     1      -0.880   4.396  -7.333  1.00  0.00     0.026 A 
ATOM     16  C   UNL     1      -0.567   6.541  -6.352  1.00  0.00     0.026 A 
ATOM     17  C   UNL     1       0.233   3.908  -6.629  1.00  0.00     0.008 A 
ATOM     18  C   UNL     1       0.533   6.060  -5.633  1.00  0.00     0.008 A 
BRANCH  14  19
ATOM     19  N   UNL     1      -2.319   6.248  -8.002  1.00  0.00    -0.378 N 
ATOM     20  C   UNL     1      -2.175   7.572  -8.592  1.00  0.00     0.143 C 
ATOM     21  C   UNL     1      -3.475   5.441  -8.345  1.00  0.00     0.143 C 
ENDBRANCH  14  19
ENDBRANCH   6  13
BRANCH   8  22
ATOM     22  C   UNL     1       2.720   5.636  -3.029  1.00  0.00     0.127 C 
BRANCH  22  23
ATOM     23  C   UNL     1       3.877   5.299  -2.092  1.00  0.00     0.074 C 
BRANCH  23  24
ATOM     24  C   UNL     1       4.962   6.330  -2.203  1.00  0.00     0.043 C 
ATOM     25  O   UNL     1       4.925   7.456  -1.735  1.00  0.00    -0.550 OA
ATOM     26  O   UNL     1       5.991   5.912  -2.964  1.00  0.00    -0.550 OA
ENDBRANCH  23  24
ENDBRANCH  22  23
ENDBRANCH   8  22
BRANCH   5  27
ATOM     27  C   UNL     1       4.703   2.393  -7.582  1.00  0.00    -0.002 A 
ATOM     28  C   UNL     1       4.524   2.239  -8.963  1.00  0.00     0.010 A 
ATOM     29  C   UNL     1       5.988   2.263  -7.035  1.00  0.00     0.010 A 
ATOM     30  C   UNL     1       5.612   1.927  -9.780  1.00  0.00     0.001 A 
ATOM     31  C   UNL     1       7.076   1.968  -7.857  1.00  0.00     0.001 A 
ATOM     32  C   UNL     1       6.885   1.789  -9.226  1.00  0.00     0.000 A 
ENDBRANCH   5  27
ENDBRANCH   3   5
ENDBRANCH   2   3
ENDBRANCH   1   2
BRANCH   1  33
ATOM     33  C   UNL     1       1.574  -1.083  -5.143  1.00  0.00     0.023 C 
BRANCH  33  34
ATOM     34  C   UNL     1       0.279  -1.167  -5.943  1.00  0.00     0.116 C 
BRANCH  34  35
ATOM     35  N   UNL     1       0.188  -2.372  -6.753  1.00  0.00    -0.352 N 
ATOM     36  C   UNL     1      -0.781  -3.347  -6.770  1.00  0.00     0.251 C 
ATOM     37  H   UNL     1       0.932  -2.510  -7.383  1.00  0.00     0.163 HD
ATOM     38  O   UNL     1      -0.610  -4.371  -7.424  1.00  0.00    -0.269 OA
BRANCH  36  39
ATOM     39  C   UNL     1      -2.020  -3.181  -5.977  1.00  0.00     0.039 A 
ATOM     40  C   UNL     1      -2.490  -4.262  -5.226  1.00  0.00     0.014 A 
ATOM     41  C   UNL     1      -2.718  -1.971  -5.972  1.00  0.00     0.014 A 
ATOM     42  C   UNL     1      -3.613  -4.105  -4.410  1.00  0.00     0.010 A 
ATOM     43  C   UNL     1      -3.789  -1.792  -5.101  1.00  0.00     0.010 A 
ATOM     44  C   UNL     1      -4.248  -2.857  -4.309  1.00  0.00    -0.014 A 
BRANCH  44  45
ATOM     45  C   UNL     1      -5.388  -2.642  -3.381  1.00  0.00     0.031 A 
ATOM     46  C   UNL     1      -6.745  -2.281  -3.918  1.00  0.00     0.074 A 
ATOM     47  C   UNL     1      -5.187  -2.704  -2.050  1.00  0.00     0.049 A 
ATOM     48  N   UNL     1      -7.840  -1.981  -3.266  1.00  0.00    -0.248 NA
ATOM     49  C   UNL     1      -6.882  -2.223  -5.381  1.00  0.00     0.031 C 
ATOM     50  C   UNL     1      -3.912  -3.006  -1.399  1.00  0.00     0.029 A 
ATOM     51  N   UNL     1      -6.055  -2.507  -1.005  1.00  0.00    -0.354 N 
ATOM     52  C   UNL     1      -8.789  -1.688  -4.237  1.00  0.00     0.074 A 
ATOM     53  C   UNL     1      -8.125  -1.789  -5.519  1.00  0.00     0.031 C 
ATOM     54  C   UNL     1      -4.087  -3.004  -0.068  1.00  0.00     0.029 A 
ATOM     55  C   UNL     1      -5.474  -2.660   0.230  1.00  0.00     0.049 A 
ATOM     56  H   UNL     1      -7.005  -2.278  -1.129  1.00  0.00     0.167 HD
ATOM     57  C   UNL     1     -10.101  -1.387  -4.079  1.00  0.00     0.037 A 
ATOM     58  C   UNL     1      -5.998  -2.534   1.464  1.00  0.00     0.037 A 
ATOM     59  C   UNL     1     -10.766  -1.303  -2.805  1.00  0.00     0.049 A 
ATOM     60  C   UNL     1      -7.449  -2.173   1.615  1.00  0.00     0.074 A 
ATOM     61  C   UNL     1     -12.102  -1.053  -2.543  1.00  0.00     0.029 A 
ATOM     62  N   UNL     1     -10.142  -1.465  -1.577  1.00  0.00    -0.354 N 
ATOM     63  N   UNL     1      -8.349  -1.954   0.687  1.00  0.00    -0.248 NA
ATOM     64  C   UNL     1      -7.959  -2.045   2.988  1.00  0.00     0.031 C 
ATOM     65  C   UNL     1     -12.277  -1.021  -1.155  1.00  0.00     0.029 A 
ATOM     66  C   UNL     1     -11.061  -1.298  -0.553  1.00  0.00     0.049 A 
ATOM     67  H   UNL     1      -9.187  -1.668  -1.451  1.00  0.00     0.167 HD
ATOM     68  C   UNL     1      -9.535  -1.693   1.361  1.00  0.00     0.074 A 
ATOM     69  C   UNL     1      -9.242  -1.790   2.776  1.00  0.00     0.031 C 
ATOM     70  C   UNL     1     -10.757  -1.402   0.852  1.00  0.00     0.037 A 
BRANCH  57  71
ATOM     71  C   UNL     1     -10.899  -1.124  -5.324  1.00  0.00     0.057 A 
ATOM     72  C   UNL     1     -11.206  -2.146  -6.234  1.00  0.00     0.134 A 
ATOM     73  C   UNL     1     -11.375   0.161  -5.613  1.00  0.00     0.134 A 
ATOM     74  F   UNL     1     -10.769  -3.397  -6.024  1.00  0.00    -0.206 F 
ATOM     75  C   UNL     1     -11.925  -1.892  -7.403  1.00  0.00     0.040 A 
ATOM     76  C   UNL     1     -12.121   0.421  -6.765  1.00  0.00     0.040 A 
ATOM     77  F   UNL     1     -11.125   1.184  -4.783  1.00  0.00    -0.206 F 
ATOM     78  C   UNL     1     -12.389  -0.606  -7.668  1.00  0.00     0.006 A 
ENDBRANCH  57  71
BRANCH  58  79
ATOM     79  C   UNL     1      -5.152  -2.784   2.657  1.00  0.00     0.057 A 
ATOM     80  C   UNL     1      -5.345  -3.924   3.446  1.00  0.00     0.134 A 
ATOM     81  C   UNL     1      -4.134  -1.901   3.036  1.00  0.00     0.134 A 
ATOM     82  F   UNL     1      -6.317  -4.797   3.143  1.00  0.00    -0.206 F 
ATOM     83  C   UNL     1      -4.566  -4.171   4.577  1.00  0.00     0.040 A 
ATOM     84  C   UNL     1      -3.332  -2.148   4.152  1.00  0.00     0.040 A 
ATOM     85  F   UNL     1      -3.894  -0.795   2.317  1.00  0.00    -0.206 F 
ATOM     86  C   UNL     1      -3.552  -3.283   4.929  1.00  0.00     0.006 A 
ENDBRANCH  58  79
BRANCH  70  87
ATOM     87  C   UNL     1     -11.878  -1.202   1.830  1.00  0.00     0.057 A 
ATOM     88  C   UNL     1     -11.968  -0.057   2.631  1.00  0.00     0.134 A 
ATOM     89  C   UNL     1     -12.900  -2.154   1.944  1.00  0.00     0.134 A 
ATOM     90  F   UNL     1     -11.015   0.885   2.579  1.00  0.00    -0.206 F 
ATOM     91  C   UNL     1     -13.024   0.125   3.526  1.00  0.00     0.040 A 
ATOM     92  C   UNL     1     -13.973  -1.971   2.817  1.00  0.00     0.040 A 
ATOM     93  F   UNL     1     -12.878  -3.271   1.201  1.00  0.00    -0.206 F 
ATOM     94  C   UNL     1     -14.034  -0.832   3.616  1.00  0.00     0.006 A 
ENDBRANCH  70  87
ENDBRANCH  44  45
ENDBRANCH  36  39
ENDBRANCH  34  35
ENDBRANCH  33  34
ENDBRANCH   1  33
TORSDOF 17
