REMARK SMILES Cc1cccc(S(=O)(=O)N[C@@H](CCC(N)=O)C(=O)NCCCCNC(=O)c2ccc(-c3c4nc(c(-c5c(F)cccc5F)c5ccc([nH]5)c(-c5c(F)cccc5F)c5nc(c(-c6c(F)cccc6F)c6ccc3[nH]6)C=C5)C=C4)cc2)c1
REMARK SMILES IDX 21 1 20 2 19 3 17 4 18 5 11 7 10 8 7 10 8 11 9 12 6 13 1 14
REMARK SMILES IDX 2 15 3 16 81 17 4 18 5 19 12 20 13 21 14 22 15 23 16 24
REMARK SMILES IDX 22 27 23 28 24 29 25 30 26 32 27 33 28 34 80 35 29 36 79 37
REMARK SMILES IDX 30 38 31 39 32 40 73 41 33 42 78 43 72 44 74 45 34 46 77 47
REMARK SMILES IDX 71 48 70 49 35 51 61 52 44 53 60 54 45 55 48 56 59 57 75 58
REMARK SMILES IDX 46 59 47 60 58 62 76 63 49 64 36 65 37 66 42 67 38 68 39 69
REMARK SMILES IDX 41 70 43 71 40 72 62 73 63 74 68 75 64 76 65 77 67 78 69 79
REMARK SMILES IDX 66 80 50 81 51 82 56 83 52 84 53 85 55 86 57 87 54 88
REMARK H PARENT 19 6 10 9 15 25 15 26 24 31 74 50 48 61
REMARK Flexibility Score: inf
ROOT
ATOM      1  C   UNL     1      -1.350   7.512   1.036  1.00  0.00     0.023 C 
ENDROOT
BRANCH   1   2
ATOM      2  C   UNL     1      -1.037   6.841  -0.304  1.00  0.00     0.116 C 
BRANCH   2   3
ATOM      3  N   UNL     1       0.325   6.332  -0.388  1.00  0.00    -0.355 N 
ATOM      4  C   UNL     1       0.822   5.140  -0.843  1.00  0.00     0.238 C 
ATOM      5  O   UNL     1       2.047   4.986  -0.805  1.00  0.00    -0.273 OA
ATOM      6  H   UNL     1       1.011   6.957  -0.058  1.00  0.00     0.163 HD
BRANCH   4   7
ATOM      7  C   UNL     1      -0.100   3.973  -1.261  1.00  0.00     0.159 C 
BRANCH   7   8
ATOM      8  N   UNL     1      -1.060   3.801  -0.151  1.00  0.00    -0.199 NA
ATOM      9  H   UNL     1      -0.491   3.821   0.695  1.00  0.00     0.142 HD
BRANCH   8  10
ATOM     10  S   UNL     1      -2.111   2.534   0.067  1.00  0.00     0.241 S 
ATOM     11  O   UNL     1      -2.973   2.477  -1.102  1.00  0.00    -0.207 OA
ATOM     12  O   UNL     1      -2.653   2.719   1.386  1.00  0.00    -0.207 OA
BRANCH  10  13
ATOM     13  C   UNL     1      -1.154   1.043   0.105  1.00  0.00     0.082 A 
ATOM     14  C   UNL     1       2.460  -0.129   0.225  1.00  0.00     0.044 C 
ATOM     15  C   UNL     1       0.960  -0.139   0.172  1.00  0.00    -0.050 A 
ATOM     16  C   UNL     1       0.274  -1.344  -0.025  1.00  0.00     0.003 A 
ATOM     17  C   UNL     1       0.231   1.050   0.296  1.00  0.00     0.025 A 
ATOM     18  C   UNL     1      -1.117  -1.359  -0.139  1.00  0.00     0.002 A 
ATOM     19  C   UNL     1      -1.831  -0.163  -0.098  1.00  0.00     0.022 A 
ENDBRANCH  10  13
ENDBRANCH   8  10
ENDBRANCH   7   8
BRANCH   7  20
ATOM     20  C   UNL     1      -0.668   3.978  -2.683  1.00  0.00     0.040 C 
BRANCH  20  21
ATOM     21  C   UNL     1      -1.323   5.241  -3.225  1.00  0.00     0.102 C 
BRANCH  21  22
ATOM     22  C   UNL     1      -0.310   6.289  -3.631  1.00  0.00     0.217 C 
ATOM     23  N   UNL     1      -0.847   7.434  -4.112  1.00  0.00    -0.370 N 
ATOM     24  O   UNL     1       0.903   6.160  -3.542  1.00  0.00    -0.275 OA
ATOM     25  H   UNL     1      -1.824   7.529  -4.180  1.00  0.00     0.159 HD
ATOM     26  H   UNL     1      -0.260   8.173  -4.393  1.00  0.00     0.159 HD
ENDBRANCH  21  22
ENDBRANCH  20  21
ENDBRANCH   7  20
ENDBRANCH   4   7
ENDBRANCH   2   3
ENDBRANCH   1   2
BRANCH   1  27
ATOM     27  C   UNL     1      -0.518   8.751   1.356  1.00  0.00     0.023 C 
BRANCH  27  28
ATOM     28  C   UNL     1      -0.710   9.919   0.401  1.00  0.00     0.116 C 
BRANCH  28  29
ATOM     29  N   UNL     1      -1.901  10.722   0.639  1.00  0.00    -0.352 N 
ATOM     30  C   UNL     1      -2.351  11.861  -0.004  1.00  0.00     0.251 C 
ATOM     31  H   UNL     1      -2.477  10.403   1.372  1.00  0.00     0.163 HD
ATOM     32  O   UNL     1      -3.359  12.427   0.416  1.00  0.00    -0.269 OA
BRANCH  30  33
ATOM     33  C   UNL     1      -1.750  12.308  -1.290  1.00  0.00     0.039 A 
ATOM     34  C   UNL     1      -2.612  12.866  -2.249  1.00  0.00     0.014 A 
ATOM     35  C   UNL     1      -0.458  11.957  -1.657  1.00  0.00     0.014 A 
ATOM     36  C   UNL     1      -2.287  12.779  -3.598  1.00  0.00     0.010 A 
ATOM     37  C   UNL     1      -0.184  11.741  -2.983  1.00  0.00     0.010 A 
ATOM     38  C   UNL     1      -1.129  12.091  -3.943  1.00  0.00    -0.014 A 
BRANCH  38  39
ATOM     39  C   UNL     1      -0.836  11.609  -5.274  1.00  0.00     0.031 A 
ATOM     40  C   UNL     1       0.090  12.361  -6.122  1.00  0.00     0.074 A 
ATOM     41  C   UNL     1      -1.306  10.400  -5.646  1.00  0.00     0.049 A 
ATOM     42  N   UNL     1       0.052  12.335  -7.406  1.00  0.00    -0.248 NA
ATOM     43  C   UNL     1       1.124  13.234  -5.580  1.00  0.00     0.031 C 
ATOM     44  C   UNL     1      -0.914   9.594  -6.795  1.00  0.00     0.029 A 
ATOM     45  N   UNL     1      -2.412   9.728  -5.124  1.00  0.00    -0.354 N 
ATOM     46  C   UNL     1       1.227  12.893  -7.844  1.00  0.00     0.074 A 
ATOM     47  C   UNL     1       1.809  13.532  -6.686  1.00  0.00     0.031 C 
ATOM     48  C   UNL     1      -1.915   8.744  -7.081  1.00  0.00     0.029 A 
ATOM     49  C   UNL     1      -3.028   9.090  -6.210  1.00  0.00     0.049 A 
ATOM     50  H   UNL     1      -2.702   9.707  -4.184  1.00  0.00     0.167 HD
ATOM     51  C   UNL     1       1.677  12.598  -9.094  1.00  0.00     0.037 A 
ATOM     52  C   UNL     1      -4.299   9.370  -6.614  1.00  0.00     0.037 A 
ATOM     53  C   UNL     1       0.771  11.674  -9.772  1.00  0.00     0.049 A 
ATOM     54  C   UNL     1      -4.327   9.863  -8.045  1.00  0.00     0.074 A 
ATOM     55  C   UNL     1       0.797  10.299  -9.947  1.00  0.00     0.029 A 
ATOM     56  N   UNL     1      -0.531  12.074 -10.057  1.00  0.00    -0.354 N 
ATOM     57  N   UNL     1      -3.292  10.361  -8.666  1.00  0.00    -0.248 NA
ATOM     58  C   UNL     1      -5.513   9.822  -8.888  1.00  0.00     0.031 C 
ATOM     59  C   UNL     1      -0.498   9.874 -10.336  1.00  0.00     0.029 A 
ATOM     60  C   UNL     1      -1.313  10.990 -10.410  1.00  0.00     0.049 A 
ATOM     61  H   UNL     1      -0.852  13.004 -10.014  1.00  0.00     0.167 HD
ATOM     62  C   UNL     1      -3.624  10.663  -9.966  1.00  0.00     0.074 A 
ATOM     63  C   UNL     1      -5.029  10.303 -10.047  1.00  0.00     0.031 C 
ATOM     64  C   UNL     1      -2.696  11.170 -10.841  1.00  0.00     0.037 A 
BRANCH  51  65
ATOM     65  C   UNL     1       3.091  12.894  -9.514  1.00  0.00     0.057 A 
ATOM     66  C   UNL     1       3.834  11.986 -10.290  1.00  0.00     0.134 A 
ATOM     67  C   UNL     1       3.788  14.056  -9.138  1.00  0.00     0.134 A 
ATOM     68  F   UNL     1       3.288  10.873 -10.792  1.00  0.00    -0.206 F 
ATOM     69  C   UNL     1       5.192  12.170 -10.580  1.00  0.00     0.040 A 
ATOM     70  C   UNL     1       5.158  14.232  -9.380  1.00  0.00     0.040 A 
ATOM     71  F   UNL     1       3.159  15.077  -8.536  1.00  0.00    -0.206 F 
ATOM     72  C   UNL     1       5.869  13.279 -10.095  1.00  0.00     0.006 A 
ENDBRANCH  51  65
BRANCH  52  73
ATOM     73  C   UNL     1      -5.179   9.836  -5.505  1.00  0.00     0.057 A 
ATOM     74  C   UNL     1      -5.432   8.939  -4.447  1.00  0.00     0.134 A 
ATOM     75  C   UNL     1      -5.352  11.198  -5.238  1.00  0.00     0.134 A 
ATOM     76  F   UNL     1      -5.274   7.619  -4.633  1.00  0.00    -0.206 F 
ATOM     77  C   UNL     1      -5.684   9.384  -3.146  1.00  0.00     0.040 A 
ATOM     78  C   UNL     1      -5.624  11.652  -3.941  1.00  0.00     0.040 A 
ATOM     79  F   UNL     1      -5.096  12.114  -6.181  1.00  0.00    -0.206 F 
ATOM     80  C   UNL     1      -5.740  10.749  -2.883  1.00  0.00     0.006 A 
ENDBRANCH  52  73
BRANCH  64  81
ATOM     81  C   UNL     1      -2.920  11.798 -12.214  1.00  0.00     0.057 A 
ATOM     82  C   UNL     1      -4.160  12.152 -12.760  1.00  0.00     0.134 A 
ATOM     83  C   UNL     1      -1.811  12.194 -13.013  1.00  0.00     0.134 A 
ATOM     84  F   UNL     1      -5.311  11.937 -12.118  1.00  0.00    -0.206 F 
ATOM     85  C   UNL     1      -4.291  12.806 -13.997  1.00  0.00     0.040 A 
ATOM     86  C   UNL     1      -1.927  12.902 -14.213  1.00  0.00     0.040 A 
ATOM     87  F   UNL     1      -0.543  11.935 -12.666  1.00  0.00    -0.206 F 
ATOM     88  C   UNL     1      -3.175  13.203 -14.718  1.00  0.00     0.006 A 
ENDBRANCH  64  81
ENDBRANCH  38  39
ENDBRANCH  30  33
ENDBRANCH  28  29
ENDBRANCH  27  28
ENDBRANCH   1  27
TORSDOF 17
