REMARK SMILES CCc1ccc(C(=O)NCCCCNC(=O)c2ccc(-c3c4nc(c(-c5c(F)cccc5F)c5ccc([nH]5)c(-c5c(F)cccc5F)c5nc(c(-c6c(F)cccc6F)c6ccc3[nH]6)C=C5)C=C4)cc2)cc1S(=O)(=O)C(CC)CC
REMARK SMILES IDX 11 1 10 2 9 3 7 4 8 5 6 7 3 8 4 9 72 10 5 11 71 12 2 13 1 14
REMARK SMILES IDX 73 15 74 16 75 17 76 18 77 19 78 20 79 21 80 22 12 23 13 24
REMARK SMILES IDX 14 25 15 26 16 28 17 29 18 30 70 31 19 32 69 33 20 34 21 35
REMARK SMILES IDX 22 36 63 37 23 38 68 39 62 40 64 41 24 42 67 43 61 44 60 45
REMARK SMILES IDX 25 47 51 48 34 49 50 50 35 51 38 52 49 53 65 54 36 55 37 56
REMARK SMILES IDX 48 58 66 59 39 60 26 61 27 62 32 63 28 64 29 65 31 66 33 67
REMARK SMILES IDX 30 68 52 69 53 70 58 71 54 72 55 73 57 74 59 75 56 76 40 77
REMARK SMILES IDX 41 78 46 79 42 80 43 81 45 82 47 83 44 84
REMARK H PARENT 9 6 14 27 64 46 38 57
REMARK Flexibility Score: inf
ROOT
ATOM      1  C   UNL     1       3.973   2.671  -6.719  1.00  0.00     0.023 C 
ENDROOT
BRANCH   1   2
ATOM      2  C   UNL     1       2.617   2.039  -7.048  1.00  0.00     0.116 C 
BRANCH   2   3
ATOM      3  N   UNL     1       2.736   0.594  -7.128  1.00  0.00    -0.352 N 
ATOM      4  C   UNL     1       2.556  -0.415  -6.217  1.00  0.00     0.251 C 
ATOM      5  O   UNL     1       2.774  -1.564  -6.606  1.00  0.00    -0.269 OA
ATOM      6  H   UNL     1       3.001   0.273  -8.020  1.00  0.00     0.163 HD
BRANCH   4   7
ATOM      7  C   UNL     1       2.062  -0.212  -4.824  1.00  0.00     0.041 A 
ATOM      8  C   UNL     1       0.945   0.063  -2.201  1.00  0.00    -0.030 A 
ATOM      9  C   UNL     1       0.962  -1.173  -2.894  1.00  0.00     0.006 A 
ATOM     10  C   UNL     1       1.493   1.175  -2.853  1.00  0.00     0.071 A 
ATOM     11  C   UNL     1       1.487  -1.304  -4.182  1.00  0.00     0.014 A 
ATOM     12  C   UNL     1       2.112   0.986  -4.119  1.00  0.00     0.034 A 
BRANCH   8  13
ATOM     13  C   UNL     1       0.341  -0.009  -0.828  1.00  0.00     0.033 C 
ATOM     14  C   UNL     1       1.217  -0.764   0.168  1.00  0.00     0.009 C 
ENDBRANCH   8  13
BRANCH  10  15
ATOM     15  S   UNL     1       1.446   2.930  -2.467  1.00  0.00     0.181 S 
ATOM     16  O   UNL     1       2.845   3.332  -2.500  1.00  0.00    -0.223 OA
ATOM     17  O   UNL     1       0.561   3.477  -3.486  1.00  0.00    -0.223 OA
BRANCH  15  18
ATOM     18  C   UNL     1       0.813   3.490  -0.918  1.00  0.00     0.113 C 
BRANCH  18  19
ATOM     19  C   UNL     1      -0.722   3.685  -0.842  1.00  0.00     0.017 C 
ATOM     20  C   UNL     1      -1.661   2.550  -1.213  1.00  0.00     0.005 C 
ENDBRANCH  18  19
BRANCH  18  21
ATOM     21  C   UNL     1       1.520   2.979   0.346  1.00  0.00     0.017 C 
ATOM     22  C   UNL     1       2.890   3.613   0.585  1.00  0.00     0.005 C 
ENDBRANCH  18  21
ENDBRANCH  15  18
ENDBRANCH  10  15
ENDBRANCH   4   7
ENDBRANCH   2   3
ENDBRANCH   1   2
BRANCH   1  23
ATOM     23  C   UNL     1       4.958   2.667  -7.894  1.00  0.00     0.023 C 
BRANCH  23  24
ATOM     24  C   UNL     1       4.515   3.484  -9.102  1.00  0.00     0.116 C 
BRANCH  24  25
ATOM     25  N   UNL     1       4.308   4.892  -8.799  1.00  0.00    -0.352 N 
ATOM     26  C   UNL     1       4.483   5.971  -9.632  1.00  0.00     0.251 C 
ATOM     27  H   UNL     1       4.006   5.097  -7.885  1.00  0.00     0.163 HD
ATOM     28  O   UNL     1       4.373   7.118  -9.212  1.00  0.00    -0.269 OA
BRANCH  26  29
ATOM     29  C   UNL     1       4.854   5.730 -11.040  1.00  0.00     0.039 A 
ATOM     30  C   UNL     1       5.992   6.357 -11.552  1.00  0.00     0.014 A 
ATOM     31  C   UNL     1       4.115   4.842 -11.825  1.00  0.00     0.014 A 
ATOM     32  C   UNL     1       6.436   6.033 -12.835  1.00  0.00     0.010 A 
ATOM     33  C   UNL     1       4.591   4.476 -13.079  1.00  0.00     0.010 A 
ATOM     34  C   UNL     1       5.762   5.059 -13.590  1.00  0.00    -0.014 A 
BRANCH  34  35
ATOM     35  C   UNL     1       6.276   4.614 -14.908  1.00  0.00     0.031 A 
ATOM     36  C   UNL     1       5.480   4.876 -16.153  1.00  0.00     0.074 A 
ATOM     37  C   UNL     1       7.418   3.902 -14.969  1.00  0.00     0.049 A 
ATOM     38  N   UNL     1       5.706   4.475 -17.378  1.00  0.00    -0.248 NA
ATOM     39  C   UNL     1       4.253   5.674 -15.997  1.00  0.00     0.031 C 
ATOM     40  C   UNL     1       8.259   3.550 -13.823  1.00  0.00     0.029 A 
ATOM     41  N   UNL     1       8.060   3.332 -16.039  1.00  0.00    -0.354 N 
ATOM     42  C   UNL     1       4.647   4.959 -18.134  1.00  0.00     0.074 A 
ATOM     43  C   UNL     1       3.754   5.644 -17.224  1.00  0.00     0.031 C 
ATOM     44  C   UNL     1       9.312   2.837 -14.254  1.00  0.00     0.029 A 
ATOM     45  C   UNL     1       9.201   2.648 -15.696  1.00  0.00     0.049 A 
ATOM     46  H   UNL     1       7.734   3.406 -16.965  1.00  0.00     0.167 HD
ATOM     47  C   UNL     1       4.449   4.859 -19.469  1.00  0.00     0.037 A 
ATOM     48  C   UNL     1      10.052   1.936 -16.458  1.00  0.00     0.037 A 
ATOM     49  C   UNL     1       5.351   4.198 -20.374  1.00  0.00     0.049 A 
ATOM     50  C   UNL     1       9.795   1.819 -17.935  1.00  0.00     0.074 A 
ATOM     51  C   UNL     1       5.269   4.096 -21.752  1.00  0.00     0.029 A 
ATOM     52  N   UNL     1       6.500   3.523 -19.990  1.00  0.00    -0.354 N 
ATOM     53  N   UNL     1       8.822   2.334 -18.647  1.00  0.00    -0.248 NA
ATOM     54  C   UNL     1      10.751   1.018 -18.713  1.00  0.00     0.031 C 
ATOM     55  C   UNL     1       6.348   3.326 -22.198  1.00  0.00     0.029 A 
ATOM     56  C   UNL     1       7.123   2.982 -21.102  1.00  0.00     0.049 A 
ATOM     57  H   UNL     1       6.824   3.441 -19.064  1.00  0.00     0.167 HD
ATOM     58  C   UNL     1       9.061   1.942 -19.957  1.00  0.00     0.074 A 
ATOM     59  C   UNL     1      10.277   1.156 -19.944  1.00  0.00     0.031 C 
ATOM     60  C   UNL     1       8.337   2.208 -21.071  1.00  0.00     0.037 A 
BRANCH  47  61
ATOM     61  C   UNL     1       3.210   5.489 -20.033  1.00  0.00     0.057 A 
ATOM     62  C   UNL     1       3.067   6.880 -20.120  1.00  0.00     0.134 A 
ATOM     63  C   UNL     1       2.166   4.699 -20.528  1.00  0.00     0.134 A 
ATOM     64  F   UNL     1       4.026   7.693 -19.653  1.00  0.00    -0.206 F 
ATOM     65  C   UNL     1       1.919   7.463 -20.659  1.00  0.00     0.040 A 
ATOM     66  C   UNL     1       1.024   5.269 -21.091  1.00  0.00     0.040 A 
ATOM     67  F   UNL     1       2.242   3.360 -20.480  1.00  0.00    -0.206 F 
ATOM     68  C   UNL     1       0.895   6.656 -21.153  1.00  0.00     0.006 A 
ENDBRANCH  47  61
BRANCH  48  69
ATOM     69  C   UNL     1      11.235   1.283 -15.844  1.00  0.00     0.057 A 
ATOM     70  C   UNL     1      12.528   1.755 -16.096  1.00  0.00     0.134 A 
ATOM     71  C   UNL     1      11.106   0.170 -15.005  1.00  0.00     0.134 A 
ATOM     72  F   UNL     1      12.717   2.805 -16.908  1.00  0.00    -0.206 F 
ATOM     73  C   UNL     1      13.653   1.133 -15.550  1.00  0.00     0.040 A 
ATOM     74  C   UNL     1      12.220  -0.447 -14.434  1.00  0.00     0.040 A 
ATOM     75  F   UNL     1       9.893  -0.327 -14.720  1.00  0.00    -0.206 F 
ATOM     76  C   UNL     1      13.499   0.030 -14.713  1.00  0.00     0.006 A 
ENDBRANCH  48  69
BRANCH  60  77
ATOM     77  C   UNL     1       8.853   1.668 -22.370  1.00  0.00     0.057 A 
ATOM     78  C   UNL     1       8.746   0.310 -22.697  1.00  0.00     0.134 A 
ATOM     79  C   UNL     1       9.413   2.524 -23.327  1.00  0.00     0.134 A 
ATOM     80  F   UNL     1       8.232  -0.562 -21.817  1.00  0.00    -0.206 F 
ATOM     81  C   UNL     1       9.192  -0.180 -23.925  1.00  0.00     0.040 A 
ATOM     82  C   UNL     1       9.840   2.050 -24.567  1.00  0.00     0.040 A 
ATOM     83  F   UNL     1       9.537   3.836 -23.078  1.00  0.00    -0.206 F 
ATOM     84  C   UNL     1       9.733   0.693 -24.868  1.00  0.00     0.006 A 
ENDBRANCH  60  77
ENDBRANCH  34  35
ENDBRANCH  26  29
ENDBRANCH  24  25
ENDBRANCH  23  24
ENDBRANCH   1  23
TORSDOF 16
