REMARK SMILES CC1=CC2=[NH+]C(=O)[C@](C)(CC(=O)NCCCCNC(=O)c3ccc(-c4c5nc(c(-c6c(F)cccc6F)c6ccc([nH]6)c(-c6c(F)cccc6F)c6nc(c(-c7c(F)cccc7F)c7ccc4[nH]7)C=C6)C=C5)cc3)N2C=C1
REMARK SMILES IDX 16 1 15 2 14 3 13 4 11 5 12 6 10 8 8 9 1 10 2 11 3 12 77 13
REMARK SMILES IDX 4 14 76 15 5 16 75 17 6 18 7 20 9 21 17 22 18 23 19 24 20 26
REMARK SMILES IDX 21 27 22 28 74 29 23 30 73 31 24 32 25 33 26 34 67 35 27 36
REMARK SMILES IDX 72 37 66 38 68 39 28 40 71 41 65 42 64 43 29 45 55 46 38 47
REMARK SMILES IDX 54 48 39 49 42 50 53 51 69 52 40 53 41 54 52 56 70 57 43 58
REMARK SMILES IDX 30 59 31 60 36 61 32 62 33 63 35 64 37 65 34 66 56 67 57 68
REMARK SMILES IDX 62 69 58 70 59 71 61 72 63 73 60 74 44 75 45 76 50 77 46 78
REMARK SMILES IDX 47 79 49 80 51 81 48 82
REMARK H PARENT 13 7 5 19 18 25 68 44 42 55
REMARK Flexibility Score: inf
ROOT
ATOM      1  C   UNL     1       2.902  -4.439  -3.341  1.00  0.00     0.023 C 
ENDROOT
BRANCH   1   2
ATOM      2  C   UNL     1       1.885  -4.190  -2.251  1.00  0.00     0.023 C 
BRANCH   2   3
ATOM      3  C   UNL     1       0.428  -4.229  -2.690  1.00  0.00     0.116 C 
BRANCH   3   4
ATOM      4  N   UNL     1       0.023  -5.603  -2.903  1.00  0.00    -0.356 N 
ATOM      5  C   UNL     1      -0.570  -6.460  -2.026  1.00  0.00     0.225 C 
ATOM      6  O   UNL     1      -0.665  -7.649  -2.326  1.00  0.00    -0.275 OA
ATOM      7  H   UNL     1       0.199  -5.965  -3.801  1.00  0.00     0.163 HD
BRANCH   5   8
ATOM      8  C   UNL     1      -1.228  -5.919  -0.781  1.00  0.00     0.166 C 
BRANCH   8   9
ATOM      9  C   UNL     1      -0.388  -5.713   0.488  1.00  0.00     0.217 C 
ATOM     10  C   UNL     1       0.711  -0.149   0.448  1.00  0.00     0.045 C 
ATOM     11  C   UNL     1       0.436  -1.593   0.752  1.00  0.00    -0.039 C 
ATOM     12  C   UNL     1       1.426  -2.491   0.944  1.00  0.00     0.102 C 
ATOM     13  C   UNL     1      -0.971  -2.009   0.760  1.00  0.00     0.047 C 
ATOM     14  C   UNL     1       1.021  -3.922   0.900  1.00  0.00     0.283 C 
ATOM     15  C   UNL     1      -1.291  -3.313   0.816  1.00  0.00     0.202 C 
ATOM     16  N   UNL     1       1.876  -4.896   0.768  1.00  0.00    -0.206 N 
ATOM     17  N   UNL     1      -0.310  -4.283   0.831  1.00  0.00    -0.217 N 
ATOM     18  C   UNL     1       1.132  -6.023   0.428  1.00  0.00     0.356 C 
ATOM     19  H   UNL     1       2.853  -4.846   0.886  1.00  0.00     0.315 HD
ATOM     20  O   UNL     1       1.617  -7.102   0.108  1.00  0.00    -0.242 OA
ATOM     21  C   UNL     1      -0.912  -6.555   1.650  1.00  0.00     0.076 C 
ENDBRANCH   8   9
ENDBRANCH   5   8
ENDBRANCH   3   4
ENDBRANCH   2   3
ENDBRANCH   1   2
BRANCH   1  22
ATOM     22  C   UNL     1       2.871  -3.390  -4.424  1.00  0.00     0.116 C 
BRANCH  22  23
ATOM     23  N   UNL     1       3.088  -2.039  -3.914  1.00  0.00    -0.352 N 
ATOM     24  C   UNL     1       4.022  -1.117  -4.327  1.00  0.00     0.251 C 
ATOM     25  H   UNL     1       2.493  -1.752  -3.184  1.00  0.00     0.163 HD
ATOM     26  O   UNL     1       4.204  -0.074  -3.713  1.00  0.00    -0.269 OA
BRANCH  24  27
ATOM     27  C   UNL     1       4.822  -1.452  -5.517  1.00  0.00     0.039 A 
ATOM     28  C   UNL     1       6.213  -1.408  -5.446  1.00  0.00     0.014 A 
ATOM     29  C   UNL     1       4.173  -1.979  -6.635  1.00  0.00     0.014 A 
ATOM     30  C   UNL     1       6.958  -1.980  -6.476  1.00  0.00     0.010 A 
ATOM     31  C   UNL     1       4.911  -2.682  -7.569  1.00  0.00     0.010 A 
ATOM     32  C   UNL     1       6.312  -2.669  -7.517  1.00  0.00    -0.014 A 
BRANCH  32  33
ATOM     33  C   UNL     1       7.066  -3.348  -8.598  1.00  0.00     0.031 A 
ATOM     34  C   UNL     1       6.814  -2.945 -10.026  1.00  0.00     0.074 A 
ATOM     35  C   UNL     1       7.904  -4.363  -8.310  1.00  0.00     0.049 A 
ATOM     36  N   UNL     1       7.273  -3.475 -11.130  1.00  0.00    -0.248 NA
ATOM     37  C   UNL     1       5.881  -1.825 -10.246  1.00  0.00     0.031 C 
ATOM     38  C   UNL     1       8.182  -4.888  -6.971  1.00  0.00     0.029 A 
ATOM     39  N   UNL     1       8.672  -5.144  -9.136  1.00  0.00    -0.354 N 
ATOM     40  C   UNL     1       6.670  -2.769 -12.162  1.00  0.00     0.074 A 
ATOM     41  C   UNL     1       5.745  -1.837 -11.561  1.00  0.00     0.031 C 
ATOM     42  C   UNL     1       9.084  -5.878  -7.064  1.00  0.00     0.029 A 
ATOM     43  C   UNL     1       9.412  -6.091  -8.470  1.00  0.00     0.049 A 
ATOM     44  H   UNL     1       8.691  -5.037 -10.114  1.00  0.00     0.167 HD
ATOM     45  C   UNL     1       6.896  -2.855 -13.492  1.00  0.00     0.037 A 
ATOM     46  C   UNL     1      10.254  -7.029  -8.945  1.00  0.00     0.037 A 
ATOM     47  C   UNL     1       7.845  -3.758 -14.081  1.00  0.00     0.049 A 
ATOM     48  C   UNL     1      10.483  -7.114 -10.430  1.00  0.00     0.074 A 
ATOM     49  C   UNL     1       8.196  -3.891 -15.411  1.00  0.00     0.029 A 
ATOM     50  N   UNL     1       8.597  -4.682 -13.370  1.00  0.00    -0.354 N 
ATOM     51  N   UNL     1       9.961  -6.389 -11.392  1.00  0.00    -0.248 NA
ATOM     52  C   UNL     1      11.423  -8.142 -10.898  1.00  0.00     0.031 C 
ATOM     53  C   UNL     1       9.125  -4.931 -15.512  1.00  0.00     0.029 A 
ATOM     54  C   UNL     1       9.396  -5.404 -14.238  1.00  0.00     0.049 A 
ATOM     55  H   UNL     1       8.566  -4.804 -12.393  1.00  0.00     0.167 HD
ATOM     56  C   UNL     1      10.532  -6.851 -12.570  1.00  0.00     0.074 A 
ATOM     57  C   UNL     1      11.452  -7.908 -12.202  1.00  0.00     0.031 C 
ATOM     58  C   UNL     1      10.316  -6.441 -13.844  1.00  0.00     0.037 A 
BRANCH  45  59
ATOM     59  C   UNL     1       6.115  -1.937 -14.387  1.00  0.00     0.057 A 
ATOM     60  C   UNL     1       6.313  -0.549 -14.379  1.00  0.00     0.134 A 
ATOM     61  C   UNL     1       5.161  -2.446 -15.277  1.00  0.00     0.134 A 
ATOM     62  F   UNL     1       7.198   0.007 -13.536  1.00  0.00    -0.206 F 
ATOM     63  C   UNL     1       5.570   0.301 -15.198  1.00  0.00     0.040 A 
ATOM     64  C   UNL     1       4.436  -1.609 -16.126  1.00  0.00     0.040 A 
ATOM     65  F   UNL     1       4.920  -3.764 -15.339  1.00  0.00    -0.206 F 
ATOM     66  C   UNL     1       4.634  -0.230 -16.082  1.00  0.00     0.006 A 
ENDBRANCH  45  59
BRANCH  46  67
ATOM     67  C   UNL     1      10.956  -7.950  -8.013  1.00  0.00     0.057 A 
ATOM     68  C   UNL     1      12.344  -7.882  -7.836  1.00  0.00     0.134 A 
ATOM     69  C   UNL     1      10.265  -8.933  -7.295  1.00  0.00     0.134 A 
ATOM     70  F   UNL     1      13.066  -6.973  -8.509  1.00  0.00    -0.206 F 
ATOM     71  C   UNL     1      13.021  -8.773  -7.002  1.00  0.00     0.040 A 
ATOM     72  C   UNL     1      10.926  -9.812  -6.434  1.00  0.00     0.040 A 
ATOM     73  F   UNL     1       8.934  -9.047  -7.411  1.00  0.00    -0.206 F 
ATOM     74  C   UNL     1      12.310  -9.740  -6.295  1.00  0.00     0.006 A 
ENDBRANCH  46  67
BRANCH  58  75
ATOM     75  C   UNL     1      11.120  -7.099 -14.927  1.00  0.00     0.057 A 
ATOM     76  C   UNL     1      10.883  -8.420 -15.328  1.00  0.00     0.134 A 
ATOM     77  C   UNL     1      12.104  -6.379 -15.616  1.00  0.00     0.134 A 
ATOM     78  F   UNL     1       9.961  -9.166 -14.701  1.00  0.00    -0.206 F 
ATOM     79  C   UNL     1      11.614  -9.009 -16.360  1.00  0.00     0.040 A 
ATOM     80  C   UNL     1      12.819  -6.947 -16.671  1.00  0.00     0.040 A 
ATOM     81  F   UNL     1      12.371  -5.105 -15.290  1.00  0.00    -0.206 F 
ATOM     82  C   UNL     1      12.579  -8.268 -17.041  1.00  0.00     0.006 A 
ENDBRANCH  58  75
ENDBRANCH  32  33
ENDBRANCH  24  27
ENDBRANCH  22  23
ENDBRANCH   1  22
TORSDOF 12
