REMARK SMILES Cc1cc(F)cc(/C=C/C(=O)NCCCCNC(=O)c2ccc(-c3c4nc(c(-c5c(F)cccc5F)c5ccc([nH]5)c(-c5c(F)cccc5F)c5nc(c(-c6c(F)cccc6F)c6ccc3[nH]6)C=C5)C=C4)cc2)c1
REMARK SMILES IDX 15 1 14 2 13 3 12 4 10 5 11 6 9 8 8 9 7 10 1 11 2 12 3 13
REMARK SMILES IDX 74 14 4 15 5 16 6 17 16 18 17 19 18 20 19 22 20 23 21 24
REMARK SMILES IDX 73 25 22 26 72 27 23 28 24 29 25 30 66 31 26 32 71 33 65 34
REMARK SMILES IDX 67 35 27 36 70 37 64 38 63 39 28 41 54 42 37 43 53 44 38 45
REMARK SMILES IDX 41 46 52 47 68 48 39 49 40 50 51 52 69 53 42 54 29 55 30 56
REMARK SMILES IDX 35 57 31 58 32 59 34 60 36 61 33 62 55 63 56 64 61 65 57 66
REMARK SMILES IDX 58 67 60 68 62 69 59 70 43 71 44 72 49 73 45 74 46 75 48 76
REMARK SMILES IDX 50 77 47 78
REMARK H PARENT 12 7 17 21 67 40 41 51
REMARK Flexibility Score: inf
ROOT
ATOM      1  C   UNL     1       3.135  -6.928   1.376  1.00  0.00     0.023 C 
ENDROOT
BRANCH   1   2
ATOM      2  C   UNL     1       2.653  -5.543   0.935  1.00  0.00     0.023 C 
BRANCH   2   3
ATOM      3  C   UNL     1       1.774  -5.546  -0.316  1.00  0.00     0.116 C 
BRANCH   3   4
ATOM      4  N   UNL     1       0.436  -6.024  -0.016  1.00  0.00    -0.353 N 
ATOM      5  C   UNL     1      -0.741  -5.346   0.058  1.00  0.00     0.243 C 
ATOM      6  O   UNL     1      -1.791  -5.961   0.224  1.00  0.00    -0.270 OA
ATOM      7  H   UNL     1       0.371  -6.990   0.162  1.00  0.00     0.163 HD
BRANCH   5   8
ATOM      8  C   UNL     1      -0.781  -3.881  -0.153  1.00  0.00     0.072 C 
ATOM      9  C   UNL     1       0.007  -3.013   0.498  1.00  0.00     0.014 C 
BRANCH   9  10
ATOM     10  C   UNL     1      -0.039  -1.561   0.288  1.00  0.00    -0.022 A 
ATOM     11  C   UNL     1       2.468   1.313  -0.002  1.00  0.00     0.044 C 
ATOM     12  C   UNL     1       1.179   0.548   0.052  1.00  0.00    -0.048 A 
ATOM     13  C   UNL     1      -0.041   1.226  -0.038  1.00  0.00     0.042 A 
ATOM     14  C   UNL     1       1.169  -0.845   0.227  1.00  0.00     0.011 A 
ATOM     15  C   UNL     1      -1.235   0.518   0.034  1.00  0.00     0.124 A 
ATOM     16  F   UNL     1      -2.397   1.179  -0.046  1.00  0.00    -0.207 F 
ATOM     17  C   UNL     1      -1.246  -0.863   0.198  1.00  0.00     0.047 A 
ENDBRANCH   9  10
ENDBRANCH   5   8
ENDBRANCH   3   4
ENDBRANCH   2   3
ENDBRANCH   1   2
BRANCH   1  18
ATOM     18  C   UNL     1       4.012  -7.661   0.366  1.00  0.00     0.116 C 
BRANCH  18  19
ATOM     19  N   UNL     1       5.212  -6.925  -0.002  1.00  0.00    -0.352 N 
ATOM     20  C   UNL     1       6.442  -7.424  -0.365  1.00  0.00     0.251 C 
ATOM     21  H   UNL     1       5.135  -5.944   0.011  1.00  0.00     0.163 HD
ATOM     22  O   UNL     1       7.388  -6.674  -0.559  1.00  0.00    -0.269 OA
BRANCH  20  23
ATOM     23  C   UNL     1       6.617  -8.888  -0.472  1.00  0.00     0.039 A 
ATOM     24  C   UNL     1       7.668  -9.490   0.223  1.00  0.00     0.014 A 
ATOM     25  C   UNL     1       5.720  -9.661  -1.212  1.00  0.00     0.014 A 
ATOM     26  C   UNL     1       7.774 -10.882   0.239  1.00  0.00     0.010 A 
ATOM     27  C   UNL     1       5.790 -11.049  -1.145  1.00  0.00     0.010 A 
ATOM     28  C   UNL     1       6.812 -11.671  -0.411  1.00  0.00    -0.014 A 
BRANCH  28  29
ATOM     29  C   UNL     1       6.842 -13.151  -0.320  1.00  0.00     0.031 A 
ATOM     30  C   UNL     1       7.081 -13.979  -1.550  1.00  0.00     0.074 A 
ATOM     31  C   UNL     1       6.574 -13.750   0.857  1.00  0.00     0.049 A 
ATOM     32  N   UNL     1       7.057 -15.280  -1.688  1.00  0.00    -0.248 NA
ATOM     33  C   UNL     1       7.353 -13.245  -2.796  1.00  0.00     0.031 C 
ATOM     34  C   UNL     1       6.272 -13.057   2.111  1.00  0.00     0.029 A 
ATOM     35  N   UNL     1       6.496 -15.079   1.186  1.00  0.00    -0.354 N 
ATOM     36  C   UNL     1       7.292 -15.519  -3.035  1.00  0.00     0.074 A 
ATOM     37  C   UNL     1       7.411 -14.230  -3.681  1.00  0.00     0.031 C 
ATOM     38  C   UNL     1       6.060 -13.966   3.076  1.00  0.00     0.029 A 
ATOM     39  C   UNL     1       6.178 -15.303   2.503  1.00  0.00     0.049 A 
ATOM     40  H   UNL     1       6.653 -15.805   0.539  1.00  0.00     0.167 HD
ATOM     41  C   UNL     1       7.419 -16.707  -3.672  1.00  0.00     0.037 A 
ATOM     42  C   UNL     1       5.996 -16.457   3.172  1.00  0.00     0.037 A 
ATOM     43  C   UNL     1       7.335 -17.988  -3.023  1.00  0.00     0.049 A 
ATOM     44  C   UNL     1       6.152 -17.762   2.443  1.00  0.00     0.074 A 
ATOM     45  C   UNL     1       7.526 -19.246  -3.568  1.00  0.00     0.029 A 
ATOM     46  N   UNL     1       7.036 -18.174  -1.682  1.00  0.00    -0.354 N 
ATOM     47  N   UNL     1       6.445 -17.975   1.184  1.00  0.00    -0.248 NA
ATOM     48  C   UNL     1       5.954 -18.988   3.230  1.00  0.00     0.031 C 
ATOM     49  C   UNL     1       7.308 -20.195  -2.564  1.00  0.00     0.029 A 
ATOM     50  C   UNL     1       7.017 -19.526  -1.385  1.00  0.00     0.049 A 
ATOM     51  H   UNL     1       6.862 -17.451  -1.036  1.00  0.00     0.167 HD
ATOM     52  C   UNL     1       6.487 -19.354   1.031  1.00  0.00     0.074 A 
ATOM     53  C   UNL     1       6.204 -19.929   2.330  1.00  0.00     0.031 C 
ATOM     54  C   UNL     1       6.736 -20.080  -0.086  1.00  0.00     0.037 A 
BRANCH  41  55
ATOM     55  C   UNL     1       7.673 -16.672  -5.150  1.00  0.00     0.057 A 
ATOM     56  C   UNL     1       8.906 -16.266  -5.676  1.00  0.00     0.134 A 
ATOM     57  C   UNL     1       6.683 -17.074  -6.056  1.00  0.00     0.134 A 
ATOM     58  F   UNL     1       9.890 -15.857  -4.861  1.00  0.00    -0.206 F 
ATOM     59  C   UNL     1       9.138 -16.236  -7.052  1.00  0.00     0.040 A 
ATOM     60  C   UNL     1       6.912 -17.071  -7.433  1.00  0.00     0.040 A 
ATOM     61  F   UNL     1       5.482 -17.479  -5.618  1.00  0.00    -0.206 F 
ATOM     62  C   UNL     1       8.140 -16.645  -7.934  1.00  0.00     0.006 A 
ENDBRANCH  41  55
BRANCH  42  63
ATOM     63  C   UNL     1       5.668 -16.434   4.618  1.00  0.00     0.057 A 
ATOM     64  C   UNL     1       6.613 -16.820   5.576  1.00  0.00     0.134 A 
ATOM     65  C   UNL     1       4.408 -16.034   5.078  1.00  0.00     0.134 A 
ATOM     66  F   UNL     1       7.831 -17.230   5.193  1.00  0.00    -0.206 F 
ATOM     67  C   UNL     1       6.313 -16.826   6.938  1.00  0.00     0.040 A 
ATOM     68  C   UNL     1       4.101 -16.015   6.439  1.00  0.00     0.040 A 
ATOM     69  F   UNL     1       3.462 -15.646   4.210  1.00  0.00    -0.206 F 
ATOM     70  C   UNL     1       5.053 -16.418   7.373  1.00  0.00     0.006 A 
ENDBRANCH  42  63
BRANCH  54  71
ATOM     71  C   UNL     1       6.734 -21.572   0.053  1.00  0.00     0.057 A 
ATOM     72  C   UNL     1       5.543 -22.296   0.188  1.00  0.00     0.134 A 
ATOM     73  C   UNL     1       7.932 -22.295   0.011  1.00  0.00     0.134 A 
ATOM     74  F   UNL     1       4.364 -21.659   0.249  1.00  0.00    -0.206 F 
ATOM     75  C   UNL     1       5.545 -23.687   0.291  1.00  0.00     0.040 A 
ATOM     76  C   UNL     1       7.946 -23.688   0.092  1.00  0.00     0.040 A 
ATOM     77  F   UNL     1       9.107 -21.660  -0.122  1.00  0.00    -0.206 F 
ATOM     78  C   UNL     1       6.749 -24.387   0.236  1.00  0.00     0.006 A 
ENDBRANCH  54  71
ENDBRANCH  28  29
ENDBRANCH  20  23
ENDBRANCH  18  19
ENDBRANCH   1  18
TORSDOF 12
