REMARK SMILES CCOC(=O)CN(C)C(=O)N1CC[C@H](C(=O)NCCCCNC(=O)c2ccc(-c3c4nc(c(-c5c(F)cccc5F)c5ccc([nH]5)c(-c5c(F)cccc5F)c5nc(c(-c6c(F)cccc6F)c6ccc3[nH]6)C=C5)C=C4)cc2)[C@H]1C
REMARK SMILES IDX 15 1 16 2 17 3 14 5 11 6 12 7 79 8 13 9 80 10 9 11 10 12
REMARK SMILES IDX 7 13 8 14 6 15 4 16 5 17 3 18 2 19 1 20 18 21 19 22 20 23
REMARK SMILES IDX 21 24 22 25 23 26 24 28 25 29 26 30 78 31 27 32 77 33 28 34
REMARK SMILES IDX 29 35 30 36 71 37 31 38 76 39 70 40 72 41 32 42 75 43 69 44
REMARK SMILES IDX 68 45 33 47 59 48 42 49 58 50 43 51 46 52 57 53 73 54 44 55
REMARK SMILES IDX 45 56 56 58 74 59 47 60 34 61 35 62 40 63 36 64 37 65 39 66
REMARK SMILES IDX 41 67 38 68 60 69 61 70 66 71 62 72 63 73 65 74 67 75 64 76
REMARK SMILES IDX 48 77 49 78 54 79 50 80 51 81 53 82 55 83 52 84
REMARK H PARENT 17 4 22 27 72 46 46 57
REMARK Flexibility Score: inf
ROOT
ATOM      1  C   UNL     1       3.784  -4.754  -6.101  1.00  0.00     0.225 C 
ATOM      2  O   UNL     1       4.712  -3.966  -5.934  1.00  0.00    -0.275 OA
ATOM      3  N   UNL     1       4.082  -6.078  -6.281  1.00  0.00    -0.356 N 
ATOM      4  H   UNL     1       5.032  -6.313  -6.175  1.00  0.00     0.163 HD
ENDROOT
BRANCH   1   5
ATOM      5  C   UNL     1       2.325  -4.330  -6.145  1.00  0.00     0.102 C 
ATOM      6  N   UNL     1       1.980  -2.517  -4.626  1.00  0.00    -0.321 N 
ATOM      7  C   UNL     1       1.826  -3.762  -3.889  1.00  0.00     0.122 C 
ATOM      8  C   UNL     1       2.117  -2.794  -6.074  1.00  0.00     0.096 C 
ATOM      9  C   UNL     1       1.551  -4.831  -4.923  1.00  0.00     0.037 C 
ATOM     10  C   UNL     1       0.850  -2.478  -6.885  1.00  0.00     0.032 C 
BRANCH   6  11
ATOM     11  C   UNL     1       2.516  -1.467  -3.907  1.00  0.00     0.320 C 
ATOM     12  O   UNL     1       2.974  -1.660  -2.774  1.00  0.00    -0.248 OA
BRANCH  11  13
ATOM     13  N   UNL     1       2.505  -0.192  -4.423  1.00  0.00    -0.317 N 
ATOM     14  C   UNL     1       1.575   0.304  -5.410  1.00  0.00     0.149 C 
BRANCH  13  15
ATOM     15  C   UNL     1       3.254   0.817  -3.663  1.00  0.00     0.243 C 
BRANCH  15  16
ATOM     16  C   UNL     1       2.584   1.307  -2.372  1.00  0.00     0.325 C 
ATOM     17  O   UNL     1       3.131   2.080  -1.591  1.00  0.00    -0.250 OA
BRANCH  16  18
ATOM     18  O   UNL     1       1.319   0.822  -2.220  1.00  0.00    -0.465 OA
BRANCH  18  19
ATOM     19  C   UNL     1       0.701   1.050  -0.946  1.00  0.00     0.229 C 
ATOM     20  C   UNL     1       1.021  -0.103  -0.012  1.00  0.00     0.049 C 
ENDBRANCH  18  19
ENDBRANCH  16  18
ENDBRANCH  15  16
ENDBRANCH  13  15
ENDBRANCH  11  13
ENDBRANCH   6  11
ENDBRANCH   1   5
BRANCH   3  21
ATOM     21  C   UNL     1       3.200  -7.187  -6.604  1.00  0.00     0.116 C 
BRANCH  21  22
ATOM     22  C   UNL     1       3.486  -7.766  -7.989  1.00  0.00     0.023 C 
BRANCH  22  23
ATOM     23  C   UNL     1       4.885  -8.357  -8.165  1.00  0.00     0.023 C 
BRANCH  23  24
ATOM     24  C   UNL     1       5.260  -9.457  -7.176  1.00  0.00     0.116 C 
BRANCH  24  25
ATOM     25  N   UNL     1       4.430 -10.646  -7.305  1.00  0.00    -0.352 N 
ATOM     26  C   UNL     1       4.814 -11.963  -7.401  1.00  0.00     0.251 C 
ATOM     27  H   UNL     1       3.459 -10.485  -7.326  1.00  0.00     0.163 HD
ATOM     28  O   UNL     1       3.983 -12.835  -7.633  1.00  0.00    -0.269 OA
BRANCH  26  29
ATOM     29  C   UNL     1       6.242 -12.324  -7.261  1.00  0.00     0.039 A 
ATOM     30  C   UNL     1       6.826 -13.164  -8.213  1.00  0.00     0.014 A 
ATOM     31  C   UNL     1       7.008 -11.813  -6.210  1.00  0.00     0.014 A 
ATOM     32  C   UNL     1       8.198 -13.422  -8.162  1.00  0.00     0.010 A 
ATOM     33  C   UNL     1       8.385 -12.016  -6.199  1.00  0.00     0.010 A 
ATOM     34  C   UNL     1       8.996 -12.813  -7.180  1.00  0.00    -0.014 A 
BRANCH  34  35
ATOM     35  C   UNL     1      10.473 -12.970  -7.162  1.00  0.00     0.031 A 
ATOM     36  C   UNL     1      11.144 -13.629  -5.991  1.00  0.00     0.074 A 
ATOM     37  C   UNL     1      11.217 -12.417  -8.140  1.00  0.00     0.049 A 
ATOM     38  N   UNL     1      12.419 -13.717  -5.709  1.00  0.00    -0.248 NA
ATOM     39  C   UNL     1      10.261 -14.244  -4.988  1.00  0.00     0.031 C 
ATOM     40  C   UNL     1      10.690 -11.712  -9.310  1.00  0.00     0.029 A 
ATOM     41  N   UNL     1      12.580 -12.335  -8.289  1.00  0.00    -0.354 N 
ATOM     42  C   UNL     1      12.490 -14.367  -4.484  1.00  0.00     0.074 A 
ATOM     43  C   UNL     1      11.129 -14.620  -4.060  1.00  0.00     0.031 C 
ATOM     44  C   UNL     1      11.716 -11.269 -10.055  1.00  0.00     0.029 A 
ATOM     45  C   UNL     1      12.970 -11.619  -9.395  1.00  0.00     0.049 A 
ATOM     46  H   UNL     1      13.216 -12.750  -7.663  1.00  0.00     0.167 HD
ATOM     47  C   UNL     1      13.589 -14.730  -3.782  1.00  0.00     0.037 A 
ATOM     48  C   UNL     1      14.198 -11.261  -9.818  1.00  0.00     0.037 A 
ATOM     49  C   UNL     1      14.941 -14.508  -4.223  1.00  0.00     0.049 A 
ATOM     50  C   UNL     1      15.404 -11.678  -9.024  1.00  0.00     0.074 A 
ATOM     51  C   UNL     1      16.120 -14.914  -3.622  1.00  0.00     0.029 A 
ATOM     52  N   UNL     1      15.294 -13.815  -5.370  1.00  0.00    -0.354 N 
ATOM     53  N   UNL     1      15.460 -12.354  -7.903  1.00  0.00    -0.248 NA
ATOM     54  C   UNL     1      16.718 -11.285  -9.554  1.00  0.00     0.031 C 
ATOM     55  C   UNL     1      17.188 -14.428  -4.382  1.00  0.00     0.029 A 
ATOM     56  C   UNL     1      16.674 -13.759  -5.481  1.00  0.00     0.049 A 
ATOM     57  H   UNL     1      14.659 -13.420  -6.010  1.00  0.00     0.167 HD
ATOM     58  C   UNL     1      16.810 -12.491  -7.607  1.00  0.00     0.074 A 
ATOM     59  C   UNL     1      17.541 -11.832  -8.669  1.00  0.00     0.031 C 
ATOM     60  C   UNL     1      17.389 -13.111  -6.551  1.00  0.00     0.037 A 
BRANCH  47  61
ATOM     61  C   UNL     1      13.375 -15.401  -2.457  1.00  0.00     0.057 A 
ATOM     62  C   UNL     1      12.875 -16.706  -2.358  1.00  0.00     0.134 A 
ATOM     63  C   UNL     1      13.701 -14.742  -1.265  1.00  0.00     0.134 A 
ATOM     64  F   UNL     1      12.534 -17.388  -3.462  1.00  0.00    -0.206 F 
ATOM     65  C   UNL     1      12.680 -17.320  -1.120  1.00  0.00     0.040 A 
ATOM     66  C   UNL     1      13.536 -15.356  -0.022  1.00  0.00     0.040 A 
ATOM     67  F   UNL     1      14.191 -13.493  -1.288  1.00  0.00    -0.206 F 
ATOM     68  C   UNL     1      13.017 -16.647   0.052  1.00  0.00     0.006 A 
ENDBRANCH  47  61
BRANCH  48  69
ATOM     69  C   UNL     1      14.344 -10.464 -11.061  1.00  0.00     0.057 A 
ATOM     70  C   UNL     1      14.855 -11.038 -12.230  1.00  0.00     0.134 A 
ATOM     71  C   UNL     1      13.965  -9.117 -11.115  1.00  0.00     0.134 A 
ATOM     72  F   UNL     1      15.253 -12.319 -12.235  1.00  0.00    -0.206 F 
ATOM     73  C   UNL     1      14.996 -10.299 -13.406  1.00  0.00     0.040 A 
ATOM     74  C   UNL     1      14.078  -8.373 -12.290  1.00  0.00     0.040 A 
ATOM     75  F   UNL     1      13.460  -8.511 -10.030  1.00  0.00    -0.206 F 
ATOM     76  C   UNL     1      14.600  -8.963 -13.440  1.00  0.00     0.006 A 
ENDBRANCH  48  69
BRANCH  60  77
ATOM     77  C   UNL     1      18.888 -13.146  -6.503  1.00  0.00     0.057 A 
ATOM     78  C   UNL     1      19.643 -12.020  -6.158  1.00  0.00     0.134 A 
ATOM     79  C   UNL     1      19.577 -14.344  -6.733  1.00  0.00     0.134 A 
ATOM     80  F   UNL     1      19.042 -10.840  -5.938  1.00  0.00    -0.206 F 
ATOM     81  C   UNL     1      21.033 -12.081  -6.050  1.00  0.00     0.040 A 
ATOM     82  C   UNL     1      20.964 -14.423  -6.606  1.00  0.00     0.040 A 
ATOM     83  F   UNL     1      18.911 -15.461  -7.061  1.00  0.00    -0.206 F 
ATOM     84  C   UNL     1      21.696 -13.288  -6.264  1.00  0.00     0.006 A 
ENDBRANCH  60  77
ENDBRANCH  34  35
ENDBRANCH  26  29
ENDBRANCH  24  25
ENDBRANCH  23  24
ENDBRANCH  22  23
ENDBRANCH  21  22
ENDBRANCH   3  21
TORSDOF 17
