REMARK SMILES O=C(NCCCCNC(=O)c1ccc(N2C(=O)[C@@H]3N=NC(c4ccccc4)=C3[C@H]2c2cccc(Br)c2)cc1)c1ccc(-c2c3nc(c(-c4c(F)cccc4F)c4ccc([nH]4)c(-c4c(F)cccc4F)c4nc(c(-c5c(F)cccc5F)c5ccc2[nH]5)C=C4)C=C3)cc1
REMARK SMILES IDX 5 1 4 2 3 3 1 4 2 5 39 7 40 8 92 9 41 10 91 11 42 12 43 13
REMARK SMILES IDX 44 14 85 15 45 16 90 17 84 18 86 19 46 20 89 21 83 22 82 23
REMARK SMILES IDX 47 25 73 26 56 27 72 28 57 29 60 30 71 31 87 32 58 33 59 34
REMARK SMILES IDX 70 36 88 37 61 38 48 39 49 40 54 41 50 42 51 43 53 44 55 45
REMARK SMILES IDX 52 46 74 47 75 48 80 49 76 50 77 51 79 52 81 53 78 54 62 55
REMARK SMILES IDX 63 56 68 57 64 58 65 59 67 60 69 61 66 62 6 63 7 64 8 65
REMARK SMILES IDX 9 66 10 68 11 69 12 70 38 71 13 72 37 73 14 74 15 75 16 76
REMARK SMILES IDX 29 77 18 78 17 79 28 80 19 81 21 82 20 83 30 84 31 85 36 86
REMARK SMILES IDX 32 87 34 88 33 89 35 90 22 91 23 92 27 93 24 94 26 95 25 96
REMARK H PARENT 3 6 86 24 60 35 8 67
REMARK Flexibility Score: inf
ROOT
ATOM      1  C   UNL     1       4.901  -1.839   1.368  1.00  0.00     0.023 C 
ENDROOT
BRANCH   1   2
ATOM      2  C   UNL     1       4.596  -1.116   0.057  1.00  0.00     0.116 C 
BRANCH   2   3
ATOM      3  N   UNL     1       3.190  -0.994  -0.269  1.00  0.00    -0.352 N 
ATOM      4  O   UNL     1       1.164  -0.175  -0.604  1.00  0.00    -0.269 OA
ATOM      5  C   UNL     1       2.203  -0.105   0.059  1.00  0.00     0.251 C 
ATOM      6  H   UNL     1       2.873  -1.714  -0.860  1.00  0.00     0.163 HD
BRANCH   5   7
ATOM      7  C   UNL     1       2.259   0.856   1.193  1.00  0.00     0.039 A 
ATOM      8  C   UNL     1       3.412   1.274   1.858  1.00  0.00     0.014 A 
ATOM      9  C   UNL     1       1.013   1.350   1.628  1.00  0.00     0.014 A 
ATOM     10  C   UNL     1       3.315   2.085   2.988  1.00  0.00     0.010 A 
ATOM     11  C   UNL     1       0.910   2.163   2.749  1.00  0.00     0.010 A 
ATOM     12  C   UNL     1       2.063   2.505   3.448  1.00  0.00    -0.014 A 
BRANCH  12  13
ATOM     13  C   UNL     1       2.010   3.515   4.505  1.00  0.00     0.031 A 
ATOM     14  C   UNL     1       2.550   4.833   4.061  1.00  0.00     0.074 A 
ATOM     15  C   UNL     1       1.382   3.341   5.688  1.00  0.00     0.049 A 
ATOM     16  N   UNL     1       3.566   5.476   4.535  1.00  0.00    -0.248 NA
ATOM     17  C   UNL     1       1.984   5.436   2.839  1.00  0.00     0.031 C 
ATOM     18  C   UNL     1       0.586   2.183   6.099  1.00  0.00     0.029 A 
ATOM     19  N   UNL     1       1.229   4.199   6.742  1.00  0.00    -0.354 N 
ATOM     20  C   UNL     1       3.619   6.673   3.820  1.00  0.00     0.074 A 
ATOM     21  C   UNL     1       2.769   6.500   2.675  1.00  0.00     0.031 C 
ATOM     22  C   UNL     1      -0.145   2.504   7.191  1.00  0.00     0.029 A 
ATOM     23  C   UNL     1       0.211   3.844   7.627  1.00  0.00     0.049 A 
ATOM     24  H   UNL     1       1.789   5.000   6.865  1.00  0.00     0.167 HD
ATOM     25  C   UNL     1       4.102   7.803   4.404  1.00  0.00     0.037 A 
ATOM     26  C   UNL     1      -0.340   4.612   8.606  1.00  0.00     0.037 A 
ATOM     27  C   UNL     1       4.944   7.476   5.529  1.00  0.00     0.049 A 
ATOM     28  C   UNL     1       0.594   5.725   8.882  1.00  0.00     0.074 A 
ATOM     29  C   UNL     1       6.094   6.739   5.728  1.00  0.00     0.029 A 
ATOM     30  N   UNL     1       4.407   7.671   6.775  1.00  0.00    -0.354 N 
ATOM     31  N   UNL     1       1.746   5.585   9.471  1.00  0.00    -0.248 NA
ATOM     32  C   UNL     1       0.423   6.956   8.128  1.00  0.00     0.031 C 
ATOM     33  C   UNL     1       5.946   6.154   7.022  1.00  0.00     0.029 A 
ATOM     34  C   UNL     1       4.750   6.617   7.570  1.00  0.00     0.049 A 
ATOM     35  H   UNL     1       3.863   8.445   7.050  1.00  0.00     0.167 HD
ATOM     36  C   UNL     1       2.588   6.443   8.784  1.00  0.00     0.074 A 
ATOM     37  C   UNL     1       1.698   7.345   8.056  1.00  0.00     0.031 C 
ATOM     38  C   UNL     1       3.913   6.142   8.644  1.00  0.00     0.037 A 
BRANCH  25  39
ATOM     39  C   UNL     1       3.407   9.155   4.299  1.00  0.00     0.057 A 
ATOM     40  C   UNL     1       3.962  10.247   4.996  1.00  0.00     0.134 A 
ATOM     41  C   UNL     1       2.077   9.349   3.866  1.00  0.00     0.134 A 
ATOM     42  F   UNL     1       5.222  10.203   5.453  1.00  0.00    -0.206 F 
ATOM     43  C   UNL     1       3.210  11.373   5.356  1.00  0.00     0.040 A 
ATOM     44  C   UNL     1       1.335  10.491   4.178  1.00  0.00     0.040 A 
ATOM     45  F   UNL     1       1.381   8.421   3.203  1.00  0.00    -0.206 F 
ATOM     46  C   UNL     1       1.884  11.489   4.964  1.00  0.00     0.006 A 
ENDBRANCH  25  39
BRANCH  26  47
ATOM     47  C   UNL     1      -1.729   4.636   9.135  1.00  0.00     0.057 A 
ATOM     48  C   UNL     1      -2.049   5.334  10.313  1.00  0.00     0.134 A 
ATOM     49  C   UNL     1      -2.823   4.230   8.352  1.00  0.00     0.134 A 
ATOM     50  F   UNL     1      -1.081   5.804  11.113  1.00  0.00    -0.206 F 
ATOM     51  C   UNL     1      -3.371   5.638  10.671  1.00  0.00     0.040 A 
ATOM     52  C   UNL     1      -4.147   4.520   8.703  1.00  0.00     0.040 A 
ATOM     53  F   UNL     1      -2.643   3.623   7.172  1.00  0.00    -0.206 F 
ATOM     54  C   UNL     1      -4.426   5.240   9.857  1.00  0.00     0.006 A 
ENDBRANCH  26  47
BRANCH  38  55
ATOM     55  C   UNL     1       4.488   5.085   9.543  1.00  0.00     0.057 A 
ATOM     56  C   UNL     1       4.079   3.743   9.567  1.00  0.00     0.134 A 
ATOM     57  C   UNL     1       5.582   5.429  10.345  1.00  0.00     0.134 A 
ATOM     58  F   UNL     1       3.106   3.296   8.762  1.00  0.00    -0.206 F 
ATOM     59  C   UNL     1       4.700   2.802  10.395  1.00  0.00     0.040 A 
ATOM     60  C   UNL     1       6.234   4.492  11.146  1.00  0.00     0.040 A 
ATOM     61  F   UNL     1       6.059   6.684  10.335  1.00  0.00    -0.206 F 
ATOM     62  C   UNL     1       5.784   3.175  11.184  1.00  0.00     0.006 A 
ENDBRANCH  38  55
ENDBRANCH  12  13
ENDBRANCH   5   7
ENDBRANCH   2   3
ENDBRANCH   1   2
BRANCH   1  63
ATOM     63  C   UNL     1       4.370  -3.274   1.479  1.00  0.00     0.023 C 
BRANCH  63  64
ATOM     64  C   UNL     1       4.735  -4.232   0.343  1.00  0.00     0.116 C 
BRANCH  64  65
ATOM     65  N   UNL     1       6.161  -4.469   0.231  1.00  0.00    -0.352 N 
ATOM     66  C   UNL     1       6.847  -5.658   0.111  1.00  0.00     0.251 C 
ATOM     67  H   UNL     1       6.723  -3.660   0.243  1.00  0.00     0.163 HD
ATOM     68  O   UNL     1       8.066  -5.657   0.150  1.00  0.00    -0.269 OA
BRANCH  66  69
ATOM     69  C   UNL     1       6.120  -6.951  -0.012  1.00  0.00     0.039 A 
ATOM     70  C   UNL     1       6.479  -7.966   0.871  1.00  0.00     0.016 A 
ATOM     71  C   UNL     1       5.137  -7.199  -0.981  1.00  0.00     0.016 A 
ATOM     72  C   UNL     1       5.805  -9.190   0.832  1.00  0.00     0.027 A 
ATOM     73  C   UNL     1       4.455  -8.437  -1.019  1.00  0.00     0.027 A 
ATOM     74  C   UNL     1       4.768  -9.437  -0.096  1.00  0.00     0.045 A 
BRANCH  74  75
ATOM     75  N   UNL     1       3.963 -10.635   0.039  1.00  0.00    -0.299 N 
ATOM     76  C   UNL     1       3.581 -10.858   1.414  1.00  0.00     0.259 C 
ATOM     77  C   UNL     1       4.461 -11.908  -0.560  1.00  0.00     0.152 C 
ATOM     78  C   UNL     1       3.955 -12.259   1.785  1.00  0.00     0.248 C 
ATOM     79  O   UNL     1       3.114 -10.023   2.179  1.00  0.00    -0.271 OA
ATOM     80  C   UNL     1       4.908 -12.533   0.692  1.00  0.00     0.021 C 
ATOM     81  N   UNL     1       4.815 -12.453   2.963  1.00  0.00    -0.170 NA
ATOM     82  C   UNL     1       5.972 -13.108   1.233  1.00  0.00     0.097 C 
ATOM     83  N   UNL     1       5.872 -13.070   2.609  1.00  0.00    -0.154 NA
BRANCH  77  84
ATOM     84  C   UNL     1       3.470 -12.878  -1.261  1.00  0.00    -0.020 A 
ATOM     85  C   UNL     1       3.210 -14.173  -0.722  1.00  0.00     0.006 A 
ATOM     86  C   UNL     1       2.990 -12.641  -2.557  1.00  0.00     0.022 A 
ATOM     87  C   UNL     1       2.601 -15.197  -1.445  1.00  0.00     0.002 A 
ATOM     88  C   UNL     1       2.377 -13.682  -3.286  1.00  0.00     0.018 A 
ATOM     89  C   UNL     1       2.206 -14.959  -2.747  1.00  0.00     0.016 A 
ATOM     90  Br  UNL     1       1.831 -13.394  -5.076  1.00  0.00    -0.051 Br
ENDBRANCH  77  84
BRANCH  82  91
ATOM     91  C   UNL     1       7.176 -13.608   0.576  1.00  0.00     0.002 A 
ATOM     92  C   UNL     1       7.149 -14.803  -0.161  1.00  0.00     0.010 A 
ATOM     93  C   UNL     1       8.404 -12.997   0.842  1.00  0.00     0.010 A 
ATOM     94  C   UNL     1       8.345 -15.428  -0.527  1.00  0.00     0.001 A 
ATOM     95  C   UNL     1       9.596 -13.620   0.471  1.00  0.00     0.001 A 
ATOM     96  C   UNL     1       9.567 -14.850  -0.185  1.00  0.00     0.000 A 
ENDBRANCH  82  91
ENDBRANCH  74  75
ENDBRANCH  66  69
ENDBRANCH  64  65
ENDBRANCH  63  64
ENDBRANCH   1  63
TORSDOF 14
