REMARK SMILES O=C(COc1ccc(/C=N/NC(=O)c2cc3cc([N+](=O)[O-])ccc3o2)cc1)NCCCCNC(=O)c1ccc(-c2c3nc(c(-c4c(F)cccc4F)c4ccc([nH]4)c(-c4c(F)cccc4F)c4nc(c(-c5c(F)cccc5F)c5ccc2[nH]5)C=C4)C=C3)cc1
REMARK SMILES IDX 1 1 2 2 28 3 3 5 4 6 5 7 6 8 27 9 7 10 26 11 8 12 9 13 10 14
REMARK SMILES IDX 11 15 12 16 13 18 14 19 15 20 25 21 16 22 24 23 17 24 23 25
REMARK SMILES IDX 18 26 22 27 19 28 20 29 21 30 29 31 30 32 31 33 32 34 33 35
REMARK SMILES IDX 34 36 35 38 36 39 37 40 89 41 38 42 88 43 39 44 40 45 41 46
REMARK SMILES IDX 82 47 42 48 87 49 81 50 83 51 43 52 86 53 80 54 79 55 44 57
REMARK SMILES IDX 70 58 53 59 69 60 54 61 57 62 68 63 84 64 55 65 56 66 67 68
REMARK SMILES IDX 85 69 58 70 45 71 46 72 51 73 47 74 48 75 50 76 52 77 49 78
REMARK SMILES IDX 71 79 72 80 77 81 73 82 74 83 76 84 78 85 75 86 59 87 60 88
REMARK SMILES IDX 65 89 61 90 62 91 64 92 66 93 63 94
REMARK H PARENT 28 4 11 17 33 37 83 56 57 67
REMARK Flexibility Score: inf
ROOT
ATOM      1  O   UNL     1       1.097   0.825  -0.703  1.00  0.00    -0.271 OA
ATOM      2  C   UNL     1       2.200   0.420  -0.349  1.00  0.00     0.257 C 
ATOM      3  N   UNL     1       2.848  -0.645  -0.945  1.00  0.00    -0.353 N 
ATOM      4  H   UNL     1       3.802  -0.794  -0.752  1.00  0.00     0.163 HD
ENDROOT
BRANCH   2   5
ATOM      5  C   UNL     1       2.950   1.026   0.843  1.00  0.00     0.329 C 
BRANCH   5   6
ATOM      6  O   UNL     1       3.806   0.149   1.573  1.00  0.00    -0.484 OA
BRANCH   6   7
ATOM      7  C   UNL     1       3.187  -0.715   2.437  1.00  0.00     0.120 A 
ATOM      8  C   UNL     1       3.788  -0.877   3.687  1.00  0.00     0.047 A 
ATOM      9  C   UNL     1       2.102  -1.524   2.091  1.00  0.00     0.047 A 
ATOM     10  C   UNL     1       3.312  -1.846   4.577  1.00  0.00     0.013 A 
ATOM     11  C   UNL     1       1.643  -2.514   2.960  1.00  0.00     0.013 A 
ATOM     12  C   UNL     1       2.253  -2.679   4.199  1.00  0.00    -0.005 A 
BRANCH  12  13
ATOM     13  C   UNL     1       1.840  -3.828   5.030  1.00  0.00     0.141 C 
ATOM     14  N   UNL     1       2.234  -3.920   6.252  1.00  0.00    -0.180 NA
BRANCH  14  15
ATOM     15  N   UNL     1       2.045  -5.050   6.975  1.00  0.00    -0.240 N 
ATOM     16  C   UNL     1       1.336  -6.214   6.785  1.00  0.00     0.307 C 
ATOM     17  H   UNL     1       2.525  -5.035   7.835  1.00  0.00     0.194 HD
ATOM     18  O   UNL     1       1.780  -7.224   7.341  1.00  0.00    -0.264 OA
BRANCH  16  19
ATOM     19  C   UNL     1       0.062  -6.276   6.097  1.00  0.00     0.194 A 
ATOM     20  C   UNL     1      -0.247  -6.933   4.911  1.00  0.00     0.065 A 
ATOM     21  O   UNL     1      -1.038  -6.325   6.923  1.00  0.00    -0.451 OA
ATOM     22  C   UNL     1      -1.364  -7.766   5.225  1.00  0.00     0.028 A 
ATOM     23  C   UNL     1      -1.811  -7.347   6.471  1.00  0.00     0.135 A 
ATOM     24  C   UNL     1      -1.929  -8.922   4.655  1.00  0.00     0.097 A 
ATOM     25  C   UNL     1      -2.803  -7.984   7.213  1.00  0.00     0.055 A 
ATOM     26  C   UNL     1      -2.837  -9.659   5.444  1.00  0.00     0.270 A 
ATOM     27  C   UNL     1      -3.278  -9.194   6.695  1.00  0.00     0.089 A 
BRANCH  26  28
ATOM     28  N   UNL     1      -3.245 -10.998   4.993  1.00  0.00     0.062 N 
ATOM     29  O   UNL     1      -2.947 -11.331   3.837  1.00  0.00    -0.258 OA
ATOM     30  O   UNL     1      -3.842 -11.723   5.801  1.00  0.00    -0.258 OA
ENDBRANCH  26  28
ENDBRANCH  16  19
ENDBRANCH  14  15
ENDBRANCH  12  13
ENDBRANCH   6   7
ENDBRANCH   5   6
ENDBRANCH   2   5
BRANCH   3  31
ATOM     31  C   UNL     1       2.163  -1.547  -1.847  1.00  0.00     0.116 C 
BRANCH  31  32
ATOM     32  C   UNL     1       2.547  -1.350  -3.307  1.00  0.00     0.023 C 
BRANCH  32  33
ATOM     33  C   UNL     1       4.027  -1.580  -3.614  1.00  0.00     0.023 C 
BRANCH  33  34
ATOM     34  C   UNL     1       4.572  -2.953  -3.233  1.00  0.00     0.116 C 
BRANCH  34  35
ATOM     35  N   UNL     1       3.953  -4.041  -3.975  1.00  0.00    -0.352 N 
ATOM     36  C   UNL     1       4.540  -5.046  -4.706  1.00  0.00     0.251 C 
ATOM     37  H   UNL     1       2.969  -4.060  -3.949  1.00  0.00     0.163 HD
ATOM     38  O   UNL     1       3.842  -5.800  -5.381  1.00  0.00    -0.269 OA
BRANCH  36  39
ATOM     39  C   UNL     1       6.011  -5.206  -4.713  1.00  0.00     0.039 A 
ATOM     40  C   UNL     1       6.660  -5.426  -5.932  1.00  0.00     0.014 A 
ATOM     41  C   UNL     1       6.753  -5.139  -3.531  1.00  0.00     0.014 A 
ATOM     42  C   UNL     1       8.054  -5.502  -5.973  1.00  0.00     0.010 A 
ATOM     43  C   UNL     1       8.145  -5.137  -3.584  1.00  0.00     0.010 A 
ATOM     44  C   UNL     1       8.812  -5.315  -4.806  1.00  0.00    -0.014 A 
BRANCH  44  45
ATOM     45  C   UNL     1      10.298  -5.288  -4.846  1.00  0.00     0.031 A 
ATOM     46  C   UNL     1      11.101  -6.322  -4.105  1.00  0.00     0.074 A 
ATOM     47  C   UNL     1      10.930  -4.291  -5.499  1.00  0.00     0.049 A 
ATOM     48  N   UNL     1      12.399  -6.422  -3.970  1.00  0.00    -0.248 NA
ATOM     49  C   UNL     1      10.343  -7.368  -3.400  1.00  0.00     0.031 C 
ATOM     50  C   UNL     1      10.271  -3.202  -6.222  1.00  0.00     0.029 A 
ATOM     51  N   UNL     1      12.269  -4.027  -5.651  1.00  0.00    -0.354 N 
ATOM     52  C   UNL     1      12.612  -7.528  -3.157  1.00  0.00     0.074 A 
ATOM     53  C   UNL     1      11.309  -8.035  -2.785  1.00  0.00     0.031 C 
ATOM     54  C   UNL     1      11.206  -2.404  -6.763  1.00  0.00     0.029 A 
ATOM     55  C   UNL     1      12.528  -2.897  -6.389  1.00  0.00     0.049 A 
ATOM     56  H   UNL     1      12.977  -4.593  -5.267  1.00  0.00     0.167 HD
ATOM     57  C   UNL     1      13.786  -8.084  -2.772  1.00  0.00     0.037 A 
ATOM     58  C   UNL     1      13.697  -2.317  -6.721  1.00  0.00     0.037 A 
ATOM     59  C   UNL     1      15.083  -7.591  -3.159  1.00  0.00     0.049 A 
ATOM     60  C   UNL     1      14.986  -2.942  -6.261  1.00  0.00     0.074 A 
ATOM     61  C   UNL     1      16.328  -8.124  -2.871  1.00  0.00     0.029 A 
ATOM     62  N   UNL     1      15.302  -6.446  -3.910  1.00  0.00    -0.354 N 
ATOM     63  N   UNL     1      15.172  -4.029  -5.553  1.00  0.00    -0.248 NA
ATOM     64  C   UNL     1      16.229  -2.260  -6.652  1.00  0.00     0.031 C 
ATOM     65  C   UNL     1      17.302  -7.271  -3.401  1.00  0.00     0.029 A 
ATOM     66  C   UNL     1      16.663  -6.240  -4.070  1.00  0.00     0.049 A 
ATOM     67  H   UNL     1      14.596  -5.866  -4.276  1.00  0.00     0.167 HD
ATOM     68  C   UNL     1      16.549  -4.181  -5.443  1.00  0.00     0.074 A 
ATOM     69  C   UNL     1      17.150  -3.080  -6.167  1.00  0.00     0.031 C 
ATOM     70  C   UNL     1      17.251  -5.145  -4.800  1.00  0.00     0.037 A 
BRANCH  57  71
ATOM     71  C   UNL     1      13.724  -9.291  -1.879  1.00  0.00     0.057 A 
ATOM     72  C   UNL     1      13.257 -10.530  -2.339  1.00  0.00     0.134 A 
ATOM     73  C   UNL     1      14.174  -9.224  -0.554  1.00  0.00     0.134 A 
ATOM     74  F   UNL     1      12.801 -10.662  -3.594  1.00  0.00    -0.206 F 
ATOM     75  C   UNL     1      13.213 -11.650  -1.506  1.00  0.00     0.040 A 
ATOM     76  C   UNL     1      14.163 -10.344   0.279  1.00  0.00     0.040 A 
ATOM     77  F   UNL     1      14.642  -8.072  -0.051  1.00  0.00    -0.206 F 
ATOM     78  C   UNL     1      13.675 -11.560  -0.194  1.00  0.00     0.006 A 
ENDBRANCH  57  71
BRANCH  58  79
ATOM     79  C   UNL     1      13.710  -1.083  -7.548  1.00  0.00     0.057 A 
ATOM     80  C   UNL     1      14.200  -1.099  -8.859  1.00  0.00     0.134 A 
ATOM     81  C   UNL     1      13.252   0.142  -7.047  1.00  0.00     0.134 A 
ATOM     82  F   UNL     1      14.671  -2.237  -9.389  1.00  0.00    -0.206 F 
ATOM     83  C   UNL     1      14.256   0.061  -9.634  1.00  0.00     0.040 A 
ATOM     84  C   UNL     1      13.276   1.304  -7.820  1.00  0.00     0.040 A 
ATOM     85  F   UNL     1      12.764   0.224  -5.800  1.00  0.00    -0.206 F 
ATOM     86  C   UNL     1      13.788   1.266  -9.116  1.00  0.00     0.006 A 
ENDBRANCH  58  79
BRANCH  70  87
ATOM     87  C   UNL     1      18.750  -5.081  -4.885  1.00  0.00     0.057 A 
ATOM     88  C   UNL     1      19.491  -4.099  -4.215  1.00  0.00     0.134 A 
ATOM     89  C   UNL     1      19.462  -6.039  -5.619  1.00  0.00     0.134 A 
ATOM     90  F   UNL     1      18.871  -3.144  -3.506  1.00  0.00    -0.206 F 
ATOM     91  C   UNL     1      20.885  -4.058  -4.293  1.00  0.00     0.040 A 
ATOM     92  C   UNL     1      20.856  -6.027  -5.678  1.00  0.00     0.040 A 
ATOM     93  F   UNL     1      18.815  -7.013  -6.277  1.00  0.00    -0.206 F 
ATOM     94  C   UNL     1      21.571  -5.029  -5.020  1.00  0.00     0.006 A 
ENDBRANCH  70  87
ENDBRANCH  44  45
ENDBRANCH  36  39
ENDBRANCH  34  35
ENDBRANCH  33  34
ENDBRANCH  32  33
ENDBRANCH  31  32
ENDBRANCH   3  31
TORSDOF 17
