REMARK SMILES Cc1ccc(OCC(=O)NNC(=O)[C@H]2CCCC[C@@H]2C(=O)NCCCCNC(=O)c2ccc(-c3c4nc(c(-c5c(F)cccc5F)c5ccc([nH]5)c(-c5c(F)cccc5F)c5nc(c(-c6c(F)cccc6F)c6ccc3[nH]6)C=C5)C=C4)cc2)cc1
REMARK SMILES IDX 23 1 22 2 20 3 21 4 19 6 14 7 15 8 16 9 18 10 17 11 12 12
REMARK SMILES IDX 11 13 13 15 10 16 8 17 9 18 7 20 6 21 5 22 1 23 2 24 3 25
REMARK SMILES IDX 85 26 4 27 84 28 24 29 25 30 26 31 27 32 28 33 29 35 30 36
REMARK SMILES IDX 31 37 83 38 32 39 82 40 33 41 34 42 35 43 76 44 36 45 81 46
REMARK SMILES IDX 75 47 77 48 37 49 80 50 74 51 73 52 38 54 64 55 47 56 63 57
REMARK SMILES IDX 48 58 51 59 62 60 78 61 49 62 50 63 61 65 79 66 52 67 39 68
REMARK SMILES IDX 40 69 45 70 41 71 42 72 44 73 46 74 43 75 65 76 66 77 71 78
REMARK SMILES IDX 67 79 68 80 70 81 72 82 69 83 53 84 54 85 59 86 55 87 56 88
REMARK SMILES IDX 58 89 60 90 57 91
REMARK H PARENT 22 5 11 14 10 19 27 34 77 53 51 64
REMARK Flexibility Score: inf
ROOT
ATOM      1  C   UNL     1      -6.364   4.491   5.946  1.00  0.00     0.116 C 
ENDROOT
BRANCH   1   2
ATOM      2  N   UNL     1      -6.173   3.604   4.808  1.00  0.00    -0.356 N 
ATOM      3  C   UNL     1      -5.411   2.513   4.553  1.00  0.00     0.223 C 
ATOM      4  O   UNL     1      -5.670   1.951   3.477  1.00  0.00    -0.275 OA
ATOM      5  H   UNL     1      -6.731   3.859   4.038  1.00  0.00     0.163 HD
BRANCH   3   6
ATOM      6  C   UNL     1      -4.226   1.987   5.388  1.00  0.00     0.091 C 
ATOM      7  C   UNL     1      -4.215   0.429   5.323  1.00  0.00     0.092 C 
ATOM      8  C   UNL     1      -5.279  -0.161   6.275  1.00  0.00     0.014 C 
ATOM      9  C   UNL     1      -5.178   0.355   7.712  1.00  0.00     0.001 C 
ATOM     10  C   UNL     1      -4.029   2.427   6.836  1.00  0.00     0.014 C 
ATOM     11  C   UNL     1      -5.096   1.873   7.776  1.00  0.00     0.001 C 
BRANCH   7  12
ATOM     12  C   UNL     1      -2.829  -0.160   5.614  1.00  0.00     0.242 C 
ATOM     13  N   UNL     1      -1.805   0.028   4.725  1.00  0.00    -0.267 N 
ATOM     14  H   UNL     1      -0.917  -0.309   4.985  1.00  0.00     0.191 HD
ATOM     15  O   UNL     1      -2.585  -0.820   6.625  1.00  0.00    -0.273 OA
BRANCH  13  16
ATOM     16  N   UNL     1      -1.909   0.652   3.492  1.00  0.00    -0.265 N 
ATOM     17  C   UNL     1      -0.837   1.224   2.844  1.00  0.00     0.276 C 
ATOM     18  O   UNL     1      -0.986   1.703   1.718  1.00  0.00    -0.269 OA
ATOM     19  H   UNL     1      -2.792   0.688   3.058  1.00  0.00     0.191 HD
BRANCH  17  20
ATOM     20  C   UNL     1       0.536   1.200   3.528  1.00  0.00     0.331 C 
BRANCH  20  21
ATOM     21  O   UNL     1       0.595   1.808   4.809  1.00  0.00    -0.484 OA
BRANCH  21  22
ATOM     22  C   UNL     1       0.618   3.175   4.865  1.00  0.00     0.120 A 
ATOM     23  C   UNL     1       0.680   7.447   5.490  1.00  0.00     0.044 C 
ATOM     24  C   UNL     1       0.658   5.964   5.270  1.00  0.00    -0.051 A 
ATOM     25  C   UNL     1       0.782   5.088   6.353  1.00  0.00     0.007 A 
ATOM     26  C   UNL     1       0.530   5.431   3.984  1.00  0.00     0.007 A 
ATOM     27  C   UNL     1       0.758   3.705   6.150  1.00  0.00     0.047 A 
ATOM     28  C   UNL     1       0.511   4.046   3.782  1.00  0.00     0.047 A 
ENDBRANCH  21  22
ENDBRANCH  20  21
ENDBRANCH  17  20
ENDBRANCH  13  16
ENDBRANCH   7  12
ENDBRANCH   3   6
ENDBRANCH   1   2
BRANCH   1  29
ATOM     29  C   UNL     1      -6.134   5.969   5.621  1.00  0.00     0.023 C 
BRANCH  29  30
ATOM     30  C   UNL     1      -7.203   6.631   4.750  1.00  0.00     0.023 C 
BRANCH  30  31
ATOM     31  C   UNL     1      -8.593   6.698   5.373  1.00  0.00     0.116 C 
BRANCH  31  32
ATOM     32  N   UNL     1      -8.785   7.733   6.380  1.00  0.00    -0.352 N 
ATOM     33  C   UNL     1      -9.845   7.921   7.262  1.00  0.00     0.251 C 
ATOM     34  H   UNL     1      -8.060   8.396   6.446  1.00  0.00     0.163 HD
ATOM     35  O   UNL     1      -9.853   8.879   8.010  1.00  0.00    -0.269 OA
BRANCH  33  36
ATOM     36  C   UNL     1     -10.899   6.873   7.383  1.00  0.00     0.039 A 
ATOM     37  C   UNL     1     -11.313   6.505   8.668  1.00  0.00     0.014 A 
ATOM     38  C   UNL     1     -11.316   6.129   6.284  1.00  0.00     0.014 A 
ATOM     39  C   UNL     1     -11.898   5.255   8.868  1.00  0.00     0.010 A 
ATOM     40  C   UNL     1     -11.797   4.850   6.485  1.00  0.00     0.010 A 
ATOM     41  C   UNL     1     -12.020   4.387   7.783  1.00  0.00    -0.014 A 
BRANCH  41  42
ATOM     42  C   UNL     1     -12.237   2.954   7.935  1.00  0.00     0.031 A 
ATOM     43  C   UNL     1     -13.549   2.348   7.642  1.00  0.00     0.074 A 
ATOM     44  C   UNL     1     -11.206   2.159   8.301  1.00  0.00     0.049 A 
ATOM     45  N   UNL     1     -14.009   1.302   8.243  1.00  0.00    -0.248 NA
ATOM     46  C   UNL     1     -14.463   2.894   6.648  1.00  0.00     0.031 C 
ATOM     47  C   UNL     1     -11.171   0.700   8.303  1.00  0.00     0.029 A 
ATOM     48  N   UNL     1     -10.024   2.538   8.952  1.00  0.00    -0.354 N 
ATOM     49  C   UNL     1     -15.116   0.876   7.545  1.00  0.00     0.074 A 
ATOM     50  C   UNL     1     -15.397   1.939   6.606  1.00  0.00     0.031 C 
ATOM     51  C   UNL     1     -10.219   0.293   9.158  1.00  0.00     0.029 A 
ATOM     52  C   UNL     1      -9.698   1.475   9.821  1.00  0.00     0.049 A 
ATOM     53  H   UNL     1      -9.523   3.376   8.828  1.00  0.00     0.167 HD
ATOM     54  C   UNL     1     -15.587  -0.391   7.729  1.00  0.00     0.037 A 
ATOM     55  C   UNL     1      -9.634   1.656  11.171  1.00  0.00     0.037 A 
ATOM     56  C   UNL     1     -14.780  -1.125   8.700  1.00  0.00     0.049 A 
ATOM     57  C   UNL     1     -10.604   0.803  11.954  1.00  0.00     0.074 A 
ATOM     58  C   UNL     1     -13.743  -2.032   8.546  1.00  0.00     0.029 A 
ATOM     59  N   UNL     1     -14.772  -0.742  10.036  1.00  0.00    -0.354 N 
ATOM     60  N   UNL     1     -11.626   0.191  11.423  1.00  0.00    -0.248 NA
ATOM     61  C   UNL     1     -10.524   0.598  13.398  1.00  0.00     0.031 C 
ATOM     62  C   UNL     1     -13.085  -2.167   9.790  1.00  0.00     0.029 A 
ATOM     63  C   UNL     1     -13.728  -1.352  10.705  1.00  0.00     0.049 A 
ATOM     64  H   UNL     1     -15.419  -0.124  10.447  1.00  0.00     0.167 HD
ATOM     65  C   UNL     1     -12.346  -0.442  12.405  1.00  0.00     0.074 A 
ATOM     66  C   UNL     1     -11.598  -0.181  13.620  1.00  0.00     0.031 C 
ATOM     67  C   UNL     1     -13.503  -1.113  12.122  1.00  0.00     0.037 A 
BRANCH  54  68
ATOM     68  C   UNL     1     -16.566  -1.052   6.784  1.00  0.00     0.057 A 
ATOM     69  C   UNL     1     -16.502  -2.433   6.509  1.00  0.00     0.134 A 
ATOM     70  C   UNL     1     -17.568  -0.369   6.075  1.00  0.00     0.134 A 
ATOM     71  F   UNL     1     -15.698  -3.255   7.195  1.00  0.00    -0.206 F 
ATOM     72  C   UNL     1     -17.264  -3.049   5.508  1.00  0.00     0.040 A 
ATOM     73  C   UNL     1     -18.301  -0.958   5.034  1.00  0.00     0.040 A 
ATOM     74  F   UNL     1     -17.909   0.888   6.390  1.00  0.00    -0.206 F 
ATOM     75  C   UNL     1     -18.135  -2.301   4.732  1.00  0.00     0.006 A 
ENDBRANCH  54  68
BRANCH  55  76
ATOM     76  C   UNL     1      -9.180   3.016  11.556  1.00  0.00     0.057 A 
ATOM     77  C   UNL     1      -7.868   3.403  11.227  1.00  0.00     0.134 A 
ATOM     78  C   UNL     1     -10.084   4.034  11.869  1.00  0.00     0.134 A 
ATOM     79  F   UNL     1      -6.951   2.474  10.911  1.00  0.00    -0.206 F 
ATOM     80  C   UNL     1      -7.502   4.745  11.102  1.00  0.00     0.040 A 
ATOM     81  C   UNL     1      -9.725   5.383  11.757  1.00  0.00     0.040 A 
ATOM     82  F   UNL     1     -11.358   3.746  12.170  1.00  0.00    -0.206 F 
ATOM     83  C   UNL     1      -8.445   5.740  11.334  1.00  0.00     0.006 A 
ENDBRANCH  55  76
BRANCH  67  84
ATOM     84  C   UNL     1     -14.487  -1.691  13.115  1.00  0.00     0.057 A 
ATOM     85  C   UNL     1     -14.676  -1.217  14.421  1.00  0.00     0.134 A 
ATOM     86  C   UNL     1     -15.401  -2.695  12.711  1.00  0.00     0.134 A 
ATOM     87  F   UNL     1     -13.963  -0.193  14.907  1.00  0.00    -0.206 F 
ATOM     88  C   UNL     1     -15.658  -1.738  15.277  1.00  0.00     0.040 A 
ATOM     89  C   UNL     1     -16.418  -3.182  13.537  1.00  0.00     0.040 A 
ATOM     90  F   UNL     1     -15.362  -3.235  11.484  1.00  0.00    -0.206 F 
ATOM     91  C   UNL     1     -16.541  -2.714  14.834  1.00  0.00     0.006 A 
ENDBRANCH  67  84
ENDBRANCH  41  42
ENDBRANCH  33  36
ENDBRANCH  31  32
ENDBRANCH  30  31
ENDBRANCH  29  30
ENDBRANCH   1  29
TORSDOF 16
