REMARK SMILES C[C@H](C(=O)NCCCCNC(=O)c1ccc(-c2c3nc(c(-c4c(F)cccc4F)c4ccc([nH]4)c(-c4c(F)cccc4F)c4nc(c(-c5c(F)cccc5F)c5ccc2[nH]5)C=C4)C=C3)cc1)c1cccc(C(=O)c2ccccc2)c1
REMARK SMILES IDX 7 1 6 2 5 3 3 4 4 5 2 7 1 8 67 9 68 10 80 11 69 12 71 13
REMARK SMILES IDX 70 14 72 15 73 16 74 17 75 18 79 19 76 20 78 21 77 22 8 23
REMARK SMILES IDX 9 24 10 25 11 26 12 28 13 29 14 30 66 31 15 32 65 33 16 34
REMARK SMILES IDX 17 35 18 36 59 37 19 38 64 39 58 40 60 41 20 42 63 43 57 44
REMARK SMILES IDX 56 45 21 47 47 48 30 49 46 50 31 51 34 52 45 53 61 54 32 55
REMARK SMILES IDX 33 56 44 58 62 59 35 60 22 61 23 62 28 63 24 64 25 65 27 66
REMARK SMILES IDX 29 67 26 68 48 69 49 70 54 71 50 72 51 73 53 74 55 75 52 76
REMARK SMILES IDX 36 77 37 78 42 79 38 80 39 81 41 82 43 83 40 84
REMARK H PARENT 5 6 10 27 60 46 34 57
REMARK Flexibility Score: inf
ROOT
ATOM      1  C   UNL     1       0.901   1.161   3.360  1.00  0.00     0.023 C 
ENDROOT
BRANCH   1   2
ATOM      2  C   UNL     1       0.180   1.161   2.016  1.00  0.00     0.116 C 
BRANCH   2   3
ATOM      3  N   UNL     1       1.068   1.064   0.872  1.00  0.00    -0.356 N 
ATOM      4  C   UNL     1       1.182   0.105  -0.090  1.00  0.00     0.227 C 
ATOM      5  O   UNL     1       1.896   0.374  -1.062  1.00  0.00    -0.274 OA
ATOM      6  H   UNL     1       1.694   1.817   0.775  1.00  0.00     0.163 HD
BRANCH   4   7
ATOM      7  C   UNL     1       0.522  -1.268   0.030  1.00  0.00     0.105 C 
ATOM      8  C   UNL     1       1.077  -1.993   1.266  1.00  0.00     0.023 C 
BRANCH   7   9
ATOM      9  C   UNL     1      -1.001  -1.327  -0.065  1.00  0.00    -0.035 A 
ATOM     10  C   UNL     1      -1.808  -0.199  -0.268  1.00  0.00     0.004 A 
ATOM     11  C   UNL     1      -1.639  -2.580   0.043  1.00  0.00     0.016 A 
ATOM     12  C   UNL     1      -3.200  -0.299  -0.234  1.00  0.00     0.001 A 
ATOM     13  C   UNL     1      -3.036  -2.694   0.080  1.00  0.00     0.023 A 
ATOM     14  C   UNL     1      -3.811  -1.537  -0.041  1.00  0.00     0.012 A 
BRANCH  13  15
ATOM     15  C   UNL     1      -3.741  -4.005   0.203  1.00  0.00     0.193 C 
ATOM     16  O   UNL     1      -4.967  -4.056   0.147  1.00  0.00    -0.289 OA
BRANCH  15  17
ATOM     17  C   UNL     1      -3.002  -5.281   0.326  1.00  0.00     0.022 A 
ATOM     18  C   UNL     1      -3.255  -6.279  -0.620  1.00  0.00     0.012 A 
ATOM     19  C   UNL     1      -2.091  -5.505   1.363  1.00  0.00     0.012 A 
ATOM     20  C   UNL     1      -2.555  -7.484  -0.559  1.00  0.00     0.001 A 
ATOM     21  C   UNL     1      -1.388  -6.710   1.415  1.00  0.00     0.001 A 
ATOM     22  C   UNL     1      -1.615  -7.694   0.451  1.00  0.00     0.000 A 
ENDBRANCH  15  17
ENDBRANCH  13  15
ENDBRANCH   7   9
ENDBRANCH   4   7
ENDBRANCH   2   3
ENDBRANCH   1   2
BRANCH   1  23
ATOM     23  C   UNL     1       2.019   2.189   3.525  1.00  0.00     0.023 C 
BRANCH  23  24
ATOM     24  C   UNL     1       1.669   3.634   3.184  1.00  0.00     0.116 C 
BRANCH  24  25
ATOM     25  N   UNL     1       0.593   4.177   3.995  1.00  0.00    -0.352 N 
ATOM     26  C   UNL     1       0.528   5.336   4.728  1.00  0.00     0.251 C 
ATOM     27  H   UNL     1      -0.222   3.625   4.024  1.00  0.00     0.163 HD
ATOM     28  O   UNL     1      -0.466   5.549   5.423  1.00  0.00    -0.269 OA
BRANCH  26  29
ATOM     29  C   UNL     1       1.641   6.316   4.733  1.00  0.00     0.039 A 
ATOM     30  C   UNL     1       1.978   6.927   5.946  1.00  0.00     0.014 A 
ATOM     31  C   UNL     1       2.335   6.665   3.571  1.00  0.00     0.014 A 
ATOM     32  C   UNL     1       3.046   7.826   6.005  1.00  0.00     0.010 A 
ATOM     33  C   UNL     1       3.448   7.506   3.645  1.00  0.00     0.010 A 
ATOM     34  C   UNL     1       3.817   8.096   4.863  1.00  0.00    -0.014 A 
BRANCH  34  35
ATOM     35  C   UNL     1       5.011   8.979   4.946  1.00  0.00     0.031 A 
ATOM     36  C   UNL     1       5.054  10.291   4.212  1.00  0.00     0.074 A 
ATOM     37  C   UNL     1       6.080   8.582   5.664  1.00  0.00     0.049 A 
ATOM     38  N   UNL     1       6.010  11.186   4.175  1.00  0.00    -0.248 NA
ATOM     39  C   UNL     1       3.881  10.634   3.394  1.00  0.00     0.031 C 
ATOM     40  C   UNL     1       6.197   7.305   6.372  1.00  0.00     0.029 A 
ATOM     41  N   UNL     1       7.274   9.211   5.916  1.00  0.00    -0.354 N 
ATOM     42  C   UNL     1       5.556  12.194   3.334  1.00  0.00     0.074 A 
ATOM     43  C   UNL     1       4.263  11.774   2.835  1.00  0.00     0.031 C 
ATOM     44  C   UNL     1       7.384   7.257   6.998  1.00  0.00     0.029 A 
ATOM     45  C   UNL     1       8.121   8.486   6.719  1.00  0.00     0.049 A 
ATOM     46  H   UNL     1       7.502  10.099   5.556  1.00  0.00     0.167 HD
ATOM     47  C   UNL     1       6.145  13.374   3.025  1.00  0.00     0.037 A 
ATOM     48  C   UNL     1       9.350   8.778   7.184  1.00  0.00     0.037 A 
ATOM     49  C   UNL     1       7.424  13.804   3.529  1.00  0.00     0.049 A 
ATOM     50  C   UNL     1       9.972  10.104   6.847  1.00  0.00     0.074 A 
ATOM     51  C   UNL     1       8.085  14.999   3.300  1.00  0.00     0.029 A 
ATOM     52  N   UNL     1       8.235  13.055   4.367  1.00  0.00    -0.354 N 
ATOM     53  N   UNL     1       9.499  11.073   6.102  1.00  0.00    -0.248 NA
ATOM     54  C   UNL     1      11.293  10.382   7.429  1.00  0.00     0.031 C 
ATOM     55  C   UNL     1       9.309  14.961   3.977  1.00  0.00     0.029 A 
ATOM     56  C   UNL     1       9.393  13.758   4.659  1.00  0.00     0.049 A 
ATOM     57  H   UNL     1       8.020  12.156   4.706  1.00  0.00     0.167 HD
ATOM     58  C   UNL     1      10.453  12.082   6.142  1.00  0.00     0.074 A 
ATOM     59  C   UNL     1      11.520  11.616   7.003  1.00  0.00     0.031 C 
ATOM     60  C   UNL     1      10.447  13.284   5.517  1.00  0.00     0.037 A 
BRANCH  47  61
ATOM     61  C   UNL     1       5.398  14.298   2.108  1.00  0.00     0.057 A 
ATOM     62  C   UNL     1       4.251  14.982   2.534  1.00  0.00     0.134 A 
ATOM     63  C   UNL     1       5.845  14.537   0.803  1.00  0.00     0.134 A 
ATOM     64  F   UNL     1       3.764  14.788   3.769  1.00  0.00    -0.206 F 
ATOM     65  C   UNL     1       3.564  15.854   1.688  1.00  0.00     0.040 A 
ATOM     66  C   UNL     1       5.180  15.426  -0.044  1.00  0.00     0.040 A 
ATOM     67  F   UNL     1       6.940  13.921   0.334  1.00  0.00    -0.206 F 
ATOM     68  C   UNL     1       4.033  16.083   0.397  1.00  0.00     0.006 A 
ENDBRANCH  47  61
BRANCH  48  69
ATOM     69  C   UNL     1      10.067   7.806   8.047  1.00  0.00     0.057 A 
ATOM     70  C   UNL     1      10.250   8.050   9.413  1.00  0.00     0.134 A 
ATOM     71  C   UNL     1      10.595   6.620   7.525  1.00  0.00     0.134 A 
ATOM     72  F   UNL     1       9.783   9.180   9.965  1.00  0.00    -0.206 F 
ATOM     73  C   UNL     1      10.953   7.160  10.226  1.00  0.00     0.040 A 
ATOM     74  C   UNL     1      11.279   5.710   8.332  1.00  0.00     0.040 A 
ATOM     75  F   UNL     1      10.445   6.326   6.226  1.00  0.00    -0.206 F 
ATOM     76  C   UNL     1      11.467   5.983   9.685  1.00  0.00     0.006 A 
ENDBRANCH  48  69
BRANCH  60  77
ATOM     77  C   UNL     1      11.621  14.185   5.763  1.00  0.00     0.057 A 
ATOM     78  C   UNL     1      12.880  13.924   5.208  1.00  0.00     0.134 A 
ATOM     79  C   UNL     1      11.487  15.333   6.554  1.00  0.00     0.134 A 
ATOM     80  F   UNL     1      13.077  12.833   4.453  1.00  0.00    -0.206 F 
ATOM     81  C   UNL     1      13.972  14.758   5.455  1.00  0.00     0.040 A 
ATOM     82  C   UNL     1      12.565  16.188   6.788  1.00  0.00     0.040 A 
ATOM     83  F   UNL     1      10.306  15.645   7.109  1.00  0.00    -0.206 F 
ATOM     84  C   UNL     1      13.815  15.896   6.244  1.00  0.00     0.006 A 
ENDBRANCH  60  77
ENDBRANCH  34  35
ENDBRANCH  26  29
ENDBRANCH  24  25
ENDBRANCH  23  24
ENDBRANCH   1  23
TORSDOF 14
