REMARK SMILES O=C(NCCCCNC(=O)c1c(F)cccc1NS(=O)(=O)C(F)(F)F)c1ccc(-c2c3nc(c(-c4c(F)cccc4F)c4ccc([nH]4)c(-c4c(F)cccc4F)c4nc(c(-c5c(F)cccc5F)c5ccc2[nH]5)C=C4)C=C3)cc1
REMARK SMILES IDX 6 1 5 2 4 3 3 4 1 5 2 6 26 8 27 9 79 10 28 11 78 12 29 13
REMARK SMILES IDX 30 14 31 15 72 16 32 17 77 18 71 19 73 20 33 21 76 22 70 23
REMARK SMILES IDX 69 24 34 26 60 27 43 28 59 29 44 30 47 31 58 32 74 33 45 34
REMARK SMILES IDX 46 35 57 37 75 38 48 39 35 40 36 41 41 42 37 43 38 44 40 45
REMARK SMILES IDX 42 46 39 47 61 48 62 49 67 50 63 51 64 52 66 53 68 54 65 55
REMARK SMILES IDX 49 56 50 57 55 58 51 59 52 60 54 61 56 62 53 63 7 64 8 65
REMARK SMILES IDX 9 66 10 68 11 69 12 70 17 71 13 72 14 73 16 74 15 75 18 76
REMARK SMILES IDX 19 78 20 79 21 80 22 81 23 82 24 83 25 84
REMARK H PARENT 3 7 73 25 47 36 8 67 18 77
REMARK Flexibility Score: inf
ROOT
ATOM      1  C   UNL     1       4.377  -2.534   2.797  1.00  0.00     0.023 C 
ENDROOT
BRANCH   1   2
ATOM      2  C   UNL     1       4.868  -1.229   2.170  1.00  0.00     0.023 C 
BRANCH   2   3
ATOM      3  C   UNL     1       4.548  -1.063   0.688  1.00  0.00     0.116 C 
BRANCH   3   4
ATOM      4  N   UNL     1       3.118  -1.063   0.420  1.00  0.00    -0.352 N 
ATOM      5  O   UNL     1       1.105  -0.214  -0.130  1.00  0.00    -0.269 OA
ATOM      6  C   UNL     1       2.326  -0.086  -0.131  1.00  0.00     0.251 C 
ATOM      7  H   UNL     1       2.646  -1.890   0.672  1.00  0.00     0.163 HD
BRANCH   6   8
ATOM      8  C   UNL     1       2.937   1.133  -0.702  1.00  0.00     0.039 A 
ATOM      9  C   UNL     1       4.053   1.056  -1.539  1.00  0.00     0.014 A 
ATOM     10  C   UNL     1       2.370   2.375  -0.403  1.00  0.00     0.014 A 
ATOM     11  C   UNL     1       4.686   2.222  -1.959  1.00  0.00     0.010 A 
ATOM     12  C   UNL     1       2.962   3.543  -0.888  1.00  0.00     0.010 A 
ATOM     13  C   UNL     1       4.144   3.477  -1.642  1.00  0.00    -0.014 A 
BRANCH  13  14
ATOM     14  C   UNL     1       4.798   4.715  -2.134  1.00  0.00     0.031 A 
ATOM     15  C   UNL     1       5.408   5.696  -1.174  1.00  0.00     0.074 A 
ATOM     16  C   UNL     1       4.840   4.952  -3.459  1.00  0.00     0.049 A 
ATOM     17  N   UNL     1       5.969   6.853  -1.423  1.00  0.00    -0.248 NA
ATOM     18  C   UNL     1       5.380   5.338   0.252  1.00  0.00     0.031 C 
ATOM     19  C   UNL     1       4.292   4.068  -4.489  1.00  0.00     0.029 A 
ATOM     20  N   UNL     1       5.369   6.001  -4.165  1.00  0.00    -0.354 N 
ATOM     21  C   UNL     1       6.342   7.368  -0.189  1.00  0.00     0.074 A 
ATOM     22  C   UNL     1       5.925   6.410   0.812  1.00  0.00     0.031 C 
ATOM     23  C   UNL     1       4.537   4.597  -5.696  1.00  0.00     0.029 A 
ATOM     24  C   UNL     1       5.204   5.884  -5.523  1.00  0.00     0.049 A 
ATOM     25  H   UNL     1       5.823   6.764  -3.740  1.00  0.00     0.167 HD
ATOM     26  C   UNL     1       6.981   8.532   0.080  1.00  0.00     0.037 A 
ATOM     27  C   UNL     1       5.528   6.727  -6.521  1.00  0.00     0.037 A 
ATOM     28  C   UNL     1       7.409   9.473  -0.923  1.00  0.00     0.049 A 
ATOM     29  C   UNL     1       6.194   8.030  -6.195  1.00  0.00     0.074 A 
ATOM     30  C   UNL     1       8.093  10.663  -0.748  1.00  0.00     0.029 A 
ATOM     31  N   UNL     1       7.193   9.332  -2.285  1.00  0.00    -0.354 N 
ATOM     32  N   UNL     1       6.551   8.501  -5.025  1.00  0.00    -0.248 NA
ATOM     33  C   UNL     1       6.497   8.924  -7.322  1.00  0.00     0.031 C 
ATOM     34  C   UNL     1       8.250  11.265  -2.000  1.00  0.00     0.029 A 
ATOM     35  C   UNL     1       7.709  10.425  -2.961  1.00  0.00     0.049 A 
ATOM     36  H   UNL     1       6.739   8.568  -2.710  1.00  0.00     0.167 HD
ATOM     37  C   UNL     1       7.136   9.735  -5.273  1.00  0.00     0.074 A 
ATOM     38  C   UNL     1       7.091   9.938  -6.707  1.00  0.00     0.031 C 
ATOM     39  C   UNL     1       7.663  10.615  -4.389  1.00  0.00     0.037 A 
BRANCH  26  40
ATOM     40  C   UNL     1       7.245   8.868   1.519  1.00  0.00     0.057 A 
ATOM     41  C   UNL     1       6.556   9.916   2.143  1.00  0.00     0.134 A 
ATOM     42  C   UNL     1       8.222   8.201   2.268  1.00  0.00     0.134 A 
ATOM     43  F   UNL     1       5.613  10.603   1.480  1.00  0.00    -0.206 F 
ATOM     44  C   UNL     1       6.834  10.293   3.458  1.00  0.00     0.040 A 
ATOM     45  C   UNL     1       8.492   8.553   3.592  1.00  0.00     0.040 A 
ATOM     46  F   UNL     1       8.911   7.182   1.732  1.00  0.00    -0.206 F 
ATOM     47  C   UNL     1       7.803   9.607   4.188  1.00  0.00     0.006 A 
ENDBRANCH  26  40
BRANCH  27  48
ATOM     48  C   UNL     1       5.221   6.341  -7.919  1.00  0.00     0.057 A 
ATOM     49  C   UNL     1       3.902   6.287  -8.387  1.00  0.00     0.134 A 
ATOM     50  C   UNL     1       6.236   5.946  -8.796  1.00  0.00     0.134 A 
ATOM     51  F   UNL     1       2.885   6.644  -7.588  1.00  0.00    -0.206 F 
ATOM     52  C   UNL     1       3.601   5.826  -9.669  1.00  0.00     0.040 A 
ATOM     53  C   UNL     1       5.951   5.503 -10.088  1.00  0.00     0.040 A 
ATOM     54  F   UNL     1       7.519   5.989  -8.407  1.00  0.00    -0.206 F 
ATOM     55  C   UNL     1       4.628   5.432 -10.523  1.00  0.00     0.006 A 
ENDBRANCH  27  48
BRANCH  39  56
ATOM     56  C   UNL     1       8.264  11.875  -4.935  1.00  0.00     0.057 A 
ATOM     57  C   UNL     1       9.653  12.060  -4.930  1.00  0.00     0.134 A 
ATOM     58  C   UNL     1       7.468  12.938  -5.376  1.00  0.00     0.134 A 
ATOM     59  F   UNL     1      10.469  11.081  -4.510  1.00  0.00    -0.206 F 
ATOM     60  C   UNL     1      10.228  13.268  -5.325  1.00  0.00     0.040 A 
ATOM     61  C   UNL     1       8.034  14.144  -5.795  1.00  0.00     0.040 A 
ATOM     62  F   UNL     1       6.133  12.818  -5.415  1.00  0.00    -0.206 F 
ATOM     63  C   UNL     1       9.417  14.315  -5.759  1.00  0.00     0.006 A 
ENDBRANCH  39  56
ENDBRANCH  13  14
ENDBRANCH   6   8
ENDBRANCH   3   4
ENDBRANCH   2   3
ENDBRANCH   1   2
BRANCH   1  64
ATOM     64  C   UNL     1       4.848  -3.806   2.095  1.00  0.00     0.116 C 
BRANCH  64  65
ATOM     65  N   UNL     1       6.292  -3.959   2.158  1.00  0.00    -0.352 N 
ATOM     66  C   UNL     1       7.015  -5.050   2.570  1.00  0.00     0.256 C 
ATOM     67  H   UNL     1       6.819  -3.180   1.867  1.00  0.00     0.163 HD
ATOM     68  O   UNL     1       8.220  -4.952   2.772  1.00  0.00    -0.269 OA
BRANCH  66  69
ATOM     69  C   UNL     1       6.328  -6.314   2.872  1.00  0.00     0.099 A 
ATOM     70  C   UNL     1       5.563  -6.923   1.873  1.00  0.00     0.138 A 
ATOM     71  C   UNL     1       6.397  -6.878   4.157  1.00  0.00     0.065 A 
ATOM     72  F   UNL     1       5.502  -6.402   0.639  1.00  0.00    -0.206 F 
ATOM     73  C   UNL     1       4.797  -8.048   2.150  1.00  0.00     0.040 A 
ATOM     74  C   UNL     1       5.592  -7.989   4.432  1.00  0.00     0.028 A 
ATOM     75  C   UNL     1       4.801  -8.574   3.437  1.00  0.00     0.005 A 
BRANCH  71  76
ATOM     76  N   UNL     1       7.133  -6.242   5.227  1.00  0.00    -0.275 N 
ATOM     77  H   UNL     1       6.909  -5.327   5.512  1.00  0.00     0.180 HD
BRANCH  76  78
ATOM     78  S   UNL     1       8.400  -7.107   5.990  1.00  0.00     0.333 S 
ATOM     79  O   UNL     1       9.162  -7.761   4.942  1.00  0.00    -0.197 OA
ATOM     80  O   UNL     1       9.046  -6.096   6.815  1.00  0.00    -0.197 OA
BRANCH  78  81
ATOM     81  C   UNL     1       7.588  -8.366   7.099  1.00  0.00     0.516 C 
ATOM     82  F   UNL     1       6.407  -7.915   7.615  1.00  0.00    -0.155 F 
ATOM     83  F   UNL     1       7.297  -9.521   6.431  1.00  0.00    -0.155 F 
ATOM     84  F   UNL     1       8.371  -8.718   8.156  1.00  0.00    -0.155 F 
ENDBRANCH  78  81
ENDBRANCH  76  78
ENDBRANCH  71  76
ENDBRANCH  66  69
ENDBRANCH  64  65
ENDBRANCH   1  64
TORSDOF 14
