REMARK SMILES O=C(NCCCCNC(=O)[C@H](CO)NC(=O)[C@H](Cc1c[nH]c2ccccc12)NC(=O)c1ccc(F)cc1)c1ccc(-c2c3nc(c(-c4c(F)cccc4F)c4ccc([nH]4)c(-c4c(F)cccc4F)c4nc(c(-c5c(F)cccc5F)c5ccc2[nH]5)C=C4)C=C3)cc1
REMARK SMILES IDX 6 1 5 2 4 3 3 4 1 5 2 6 38 8 39 9 91 10 40 11 90 12 41 13
REMARK SMILES IDX 42 14 43 15 84 16 44 17 89 18 83 19 85 20 45 21 88 22 82 23
REMARK SMILES IDX 81 24 46 26 72 27 55 28 71 29 56 30 59 31 70 32 86 33 57 34
REMARK SMILES IDX 58 35 69 37 87 38 60 39 47 40 48 41 53 42 49 43 50 44 52 45
REMARK SMILES IDX 54 46 51 47 73 48 74 49 79 50 75 51 76 52 78 53 80 54 77 55
REMARK SMILES IDX 61 56 62 57 67 58 63 59 64 60 66 61 68 62 65 63 7 64 8 65
REMARK SMILES IDX 9 66 10 68 11 69 14 70 15 71 16 73 17 74 28 75 29 76 30 78
REMARK SMILES IDX 31 79 32 80 37 81 33 82 36 83 34 84 35 85 18 86 19 87 20 88
REMARK SMILES IDX 27 89 21 90 22 91 26 92 23 94 25 95 24 96 12 97 13 98
REMARK H PARENT 3 7 85 25 59 36 8 67 14 72 28 77 21 93 13 99
REMARK Flexibility Score: inf
ROOT
ATOM      1  C   UNL     1       4.986   8.525  -0.187  1.00  0.00     0.023 C 
ENDROOT
BRANCH   1   2
ATOM      2  C   UNL     1       4.357   7.636  -1.263  1.00  0.00     0.023 C 
BRANCH   2   3
ATOM      3  C   UNL     1       3.197   6.749  -0.820  1.00  0.00     0.116 C 
BRANCH   3   4
ATOM      4  N   UNL     1       2.094   7.472  -0.214  1.00  0.00    -0.352 N 
ATOM      5  O   UNL     1      -0.060   7.994   0.218  1.00  0.00    -0.269 OA
ATOM      6  C   UNL     1       0.740   7.251  -0.334  1.00  0.00     0.251 C 
ATOM      7  H   UNL     1       2.350   8.227   0.364  1.00  0.00     0.163 HD
BRANCH   6   8
ATOM      8  C   UNL     1       0.246   6.125  -1.158  1.00  0.00     0.039 A 
ATOM      9  C   UNL     1       0.762   4.835  -1.007  1.00  0.00     0.014 A 
ATOM     10  C   UNL     1      -0.765   6.371  -2.092  1.00  0.00     0.014 A 
ATOM     11  C   UNL     1       0.350   3.817  -1.859  1.00  0.00     0.010 A 
ATOM     12  C   UNL     1      -1.208   5.338  -2.922  1.00  0.00     0.010 A 
ATOM     13  C   UNL     1      -0.631   4.063  -2.828  1.00  0.00    -0.014 A 
BRANCH  13  14
ATOM     14  C   UNL     1      -1.047   2.970  -3.735  1.00  0.00     0.031 A 
ATOM     15  C   UNL     1      -0.654   2.998  -5.184  1.00  0.00     0.074 A 
ATOM     16  C   UNL     1      -1.753   1.939  -3.236  1.00  0.00     0.049 A 
ATOM     17  N   UNL     1      -0.954   2.150  -6.133  1.00  0.00    -0.248 NA
ATOM     18  C   UNL     1       0.186   4.123  -5.626  1.00  0.00     0.031 C 
ATOM     19  C   UNL     1      -2.169   1.802  -1.839  1.00  0.00     0.029 A 
ATOM     20  N   UNL     1      -2.243   0.811  -3.843  1.00  0.00    -0.354 N 
ATOM     21  C   UNL     1      -0.356   2.644  -7.285  1.00  0.00     0.074 A 
ATOM     22  C   UNL     1       0.315   3.873  -6.923  1.00  0.00     0.031 C 
ATOM     23  C   UNL     1      -2.841   0.650  -1.693  1.00  0.00     0.029 A 
ATOM     24  C   UNL     1      -2.947  -0.005  -2.992  1.00  0.00     0.049 A 
ATOM     25  H   UNL     1      -2.103   0.607  -4.795  1.00  0.00     0.167 HD
ATOM     26  C   UNL     1      -0.367   2.111  -8.528  1.00  0.00     0.037 A 
ATOM     27  C   UNL     1      -3.626  -1.141  -3.239  1.00  0.00     0.037 A 
ATOM     28  C   UNL     1      -1.019   0.875  -8.873  1.00  0.00     0.049 A 
ATOM     29  C   UNL     1      -3.657  -1.684  -4.638  1.00  0.00     0.074 A 
ATOM     30  C   UNL     1      -1.050   0.233 -10.099  1.00  0.00     0.029 A 
ATOM     31  N   UNL     1      -1.755   0.098  -7.993  1.00  0.00    -0.354 N 
ATOM     32  N   UNL     1      -3.075  -1.215  -5.715  1.00  0.00    -0.248 NA
ATOM     33  C   UNL     1      -4.444  -2.904  -4.861  1.00  0.00     0.031 C 
ATOM     34  C   UNL     1      -1.839  -0.914  -9.970  1.00  0.00     0.029 A 
ATOM     35  C   UNL     1      -2.267  -1.005  -8.656  1.00  0.00     0.049 A 
ATOM     36  H   UNL     1      -1.894   0.299  -7.040  1.00  0.00     0.167 HD
ATOM     37  C   UNL     1      -3.422  -2.081  -6.742  1.00  0.00     0.074 A 
ATOM     38  C   UNL     1      -4.247  -3.118  -6.155  1.00  0.00     0.031 C 
ATOM     39  C   UNL     1      -3.092  -2.020  -8.054  1.00  0.00     0.037 A 
BRANCH  26  40
ATOM     40  C   UNL     1       0.339   2.852  -9.623  1.00  0.00     0.057 A 
ATOM     41  C   UNL     1      -0.392   3.511 -10.620  1.00  0.00     0.134 A 
ATOM     42  C   UNL     1       1.732   2.823  -9.751  1.00  0.00     0.134 A 
ATOM     43  F   UNL     1      -1.730   3.570 -10.556  1.00  0.00    -0.206 F 
ATOM     44  C   UNL     1       0.239   4.098 -11.718  1.00  0.00     0.040 A 
ATOM     45  C   UNL     1       2.375   3.421 -10.837  1.00  0.00     0.040 A 
ATOM     46  F   UNL     1       2.488   2.217  -8.823  1.00  0.00    -0.206 F 
ATOM     47  C   UNL     1       1.627   4.050 -11.830  1.00  0.00     0.006 A 
ENDBRANCH  26  40
BRANCH  27  48
ATOM     48  C   UNL     1      -4.351  -1.815  -2.135  1.00  0.00     0.057 A 
ATOM     49  C   UNL     1      -5.492  -1.241  -1.560  1.00  0.00     0.134 A 
ATOM     50  C   UNL     1      -3.908  -3.034  -1.613  1.00  0.00     0.134 A 
ATOM     51  F   UNL     1      -5.964  -0.071  -2.014  1.00  0.00    -0.206 F 
ATOM     52  C   UNL     1      -6.154  -1.844  -0.490  1.00  0.00     0.040 A 
ATOM     53  C   UNL     1      -4.574  -3.661  -0.558  1.00  0.00     0.040 A 
ATOM     54  F   UNL     1      -2.832  -3.641  -2.135  1.00  0.00    -0.206 F 
ATOM     55  C   UNL     1      -5.696  -3.061   0.011  1.00  0.00     0.006 A 
ENDBRANCH  27  48
BRANCH  39  56
ATOM     56  C   UNL     1      -3.623  -3.098  -8.946  1.00  0.00     0.057 A 
ATOM     57  C   UNL     1      -2.779  -4.099  -9.443  1.00  0.00     0.134 A 
ATOM     58  C   UNL     1      -4.958  -3.102  -9.369  1.00  0.00     0.134 A 
ATOM     59  F   UNL     1      -1.488  -4.141  -9.082  1.00  0.00    -0.206 F 
ATOM     60  C   UNL     1      -3.243  -5.060 -10.341  1.00  0.00     0.040 A 
ATOM     61  C   UNL     1      -5.438  -4.070 -10.250  1.00  0.00     0.040 A 
ATOM     62  F   UNL     1      -5.816  -2.174  -8.918  1.00  0.00    -0.206 F 
ATOM     63  C   UNL     1      -4.576  -5.048 -10.746  1.00  0.00     0.006 A 
ENDBRANCH  39  56
ENDBRANCH  13  14
ENDBRANCH   6   8
ENDBRANCH   3   4
ENDBRANCH   2   3
ENDBRANCH   1   2
BRANCH   1  64
ATOM     64  C   UNL     1       5.491   7.815   1.066  1.00  0.00     0.116 C 
BRANCH  64  65
ATOM     65  N   UNL     1       6.582   6.892   0.797  1.00  0.00    -0.354 N 
ATOM     66  C   UNL     1       7.643   6.565   1.599  1.00  0.00     0.244 C 
ATOM     67  H   UNL     1       6.554   6.442  -0.079  1.00  0.00     0.163 HD
ATOM     68  O   UNL     1       8.364   5.628   1.248  1.00  0.00    -0.273 OA
BRANCH  66  69
ATOM     69  C   UNL     1       7.960   7.405   2.850  1.00  0.00     0.197 C 
BRANCH  69  70
ATOM     70  N   UNL     1       8.532   6.522   3.875  1.00  0.00    -0.340 N 
ATOM     71  C   UNL     1       8.232   6.269   5.174  1.00  0.00     0.243 C 
ATOM     72  H   UNL     1       9.300   6.000   3.549  1.00  0.00     0.164 HD
ATOM     73  O   UNL     1       8.980   5.465   5.749  1.00  0.00    -0.273 OA
BRANCH  71  74
ATOM     74  C   UNL     1       6.972   6.779   5.924  1.00  0.00     0.176 C 
BRANCH  74  75
ATOM     75  N   UNL     1       6.323   7.992   5.425  1.00  0.00    -0.340 N 
ATOM     76  C   UNL     1       6.143   9.240   5.946  1.00  0.00     0.251 C 
ATOM     77  H   UNL     1       5.935   7.884   4.527  1.00  0.00     0.164 HD
ATOM     78  O   UNL     1       5.586  10.092   5.256  1.00  0.00    -0.269 OA
BRANCH  76  79
ATOM     79  C   UNL     1       6.449   9.546   7.360  1.00  0.00     0.040 A 
ATOM     80  C   UNL     1       7.661   9.230   7.981  1.00  0.00     0.017 A 
ATOM     81  C   UNL     1       5.434  10.185   8.090  1.00  0.00     0.017 A 
ATOM     82  C   UNL     1       7.817   9.470   9.350  1.00  0.00     0.040 A 
ATOM     83  C   UNL     1       5.600  10.441   9.450  1.00  0.00     0.040 A 
ATOM     84  C   UNL     1       6.783  10.062  10.071  1.00  0.00     0.123 A 
ATOM     85  F   UNL     1       6.933  10.274  11.385  1.00  0.00    -0.207 F 
ENDBRANCH  76  79
ENDBRANCH  74  75
BRANCH  74  86
ATOM     86  C   UNL     1       5.973   5.617   6.099  1.00  0.00     0.072 C 
BRANCH  86  87
ATOM     87  C   UNL     1       5.171   5.313   4.871  1.00  0.00    -0.020 A 
ATOM     88  C   UNL     1       5.614   4.657   3.740  1.00  0.00     0.087 A 
ATOM     89  C   UNL     1       3.797   5.644   4.650  1.00  0.00     0.003 A 
ATOM     90  N   UNL     1       4.586   4.610   2.840  1.00  0.00    -0.361 N 
ATOM     91  C   UNL     1       3.474   5.227   3.360  1.00  0.00     0.046 A 
ATOM     92  C   UNL     1       2.797   6.271   5.424  1.00  0.00     0.010 A 
ATOM     93  H   UNL     1       4.636   4.195   1.949  1.00  0.00     0.166 HD
ATOM     94  C   UNL     1       2.212   5.440   2.798  1.00  0.00     0.026 A 
ATOM     95  C   UNL     1       1.527   6.480   4.875  1.00  0.00     0.001 A 
ATOM     96  C   UNL     1       1.245   6.084   3.572  1.00  0.00     0.002 A 
ENDBRANCH  86  87
ENDBRANCH  74  86
ENDBRANCH  71  74
ENDBRANCH  69  70
BRANCH  69  97
ATOM     97  C   UNL     1       8.967   8.497   2.449  1.00  0.00     0.191 C 
BRANCH  97  98
ATOM     98  O   UNL     1       8.315   9.742   2.203  1.00  0.00    -0.394 OA
ATOM     99  H   UNL     1       7.686   9.639   1.473  1.00  0.00     0.210 HD
ENDBRANCH  97  98
ENDBRANCH  69  97
ENDBRANCH  66  69
ENDBRANCH  64  65
ENDBRANCH   1  64
TORSDOF 19
