REMARK SMILES C[NH2+][C@@]1(C(=O)NCCCCNC(=O)c2ccc(-c3c4nc(c(-c5c(F)cccc5F)c5ccc([nH]5)c(-c5c(F)cccc5F)c5nc(c(-c6c(F)cccc6F)c6ccc3[nH]6)C=C5)C=C4)cc2)CCC[C@H]1CCSc1nccc(=O)[nH]1
REMARK SMILES IDX 7 1 6 2 4 3 5 4 3 6 68 7 71 8 69 9 70 10 2 11 1 12 72 15
REMARK SMILES IDX 73 16 74 17 75 18 76 19 81 20 77 21 79 22 78 24 80 25 8 26
REMARK SMILES IDX 9 27 10 28 11 29 12 30 13 32 14 33 15 34 67 35 16 36 66 37
REMARK SMILES IDX 17 38 18 39 19 40 60 41 20 42 65 43 59 44 61 45 21 46 64 47
REMARK SMILES IDX 58 48 57 49 22 51 48 52 31 53 47 54 32 55 35 56 46 57 62 58
REMARK SMILES IDX 33 59 34 60 45 62 63 63 36 64 23 65 24 66 29 67 25 68 26 69
REMARK SMILES IDX 28 70 30 71 27 72 49 73 50 74 55 75 51 76 52 77 54 78 56 79
REMARK SMILES IDX 53 80 37 81 38 82 43 83 39 84 40 85 42 86 44 87 41 88
REMARK H PARENT 6 5 2 13 2 14 81 23 11 31 61 50 35 61
REMARK Flexibility Score: inf
ROOT
ATOM      1  C   UNL     1      -3.935   1.423   0.848  1.00  0.00     0.116 C 
ENDROOT
BRANCH   1   2
ATOM      2  N   UNL     1      -2.685   1.687   1.512  1.00  0.00    -0.351 N 
ATOM      3  C   UNL     1      -1.455   2.034   1.043  1.00  0.00     0.281 C 
ATOM      4  O   UNL     1      -0.779   2.641   1.890  1.00  0.00    -0.268 OA
ATOM      5  H   UNL     1      -2.728   1.600   2.492  1.00  0.00     0.163 HD
BRANCH   3   6
ATOM      6  C   UNL     1      -0.898   1.805  -0.440  1.00  0.00     0.178 C 
ATOM      7  C   UNL     1      -1.345   3.017  -1.305  1.00  0.00     0.079 C 
ATOM      8  C   UNL     1      -1.448   0.563  -1.233  1.00  0.00     0.061 C 
ATOM      9  C   UNL     1      -2.611   2.637  -2.035  1.00  0.00     0.008 C 
ATOM     10  C   UNL     1      -2.540   1.130  -2.202  1.00  0.00     0.011 C 
BRANCH   6  11
ATOM     11  N   UNL     1       0.600   1.960  -0.434  1.00  0.00    -0.336 N 
ATOM     12  C   UNL     1       1.376   1.257   0.581  1.00  0.00     0.331 C 
ATOM     13  H   UNL     1       0.937   1.642  -1.343  1.00  0.00     0.346 HD
ATOM     14  H   UNL     1       0.744   2.946  -0.215  1.00  0.00     0.346 HD
ENDBRANCH   6  11
BRANCH   8  15
ATOM     15  C   UNL     1      -0.497  -0.248  -2.155  1.00  0.00     0.022 C 
BRANCH  15  16
ATOM     16  C   UNL     1       0.493  -1.274  -1.604  1.00  0.00     0.079 C 
BRANCH  16  17
ATOM     17  S   UNL     1      -0.220  -2.789  -0.903  1.00  0.00    -0.088 SA
BRANCH  17  18
ATOM     18  C   UNL     1      -0.717  -2.367   0.701  1.00  0.00     0.168 A 
ATOM     19  N   UNL     1      -0.460  -1.249   1.288  1.00  0.00    -0.233 NA
ATOM     20  N   UNL     1      -1.438  -3.368   1.269  1.00  0.00    -0.301 N 
ATOM     21  C   UNL     1      -0.968  -1.083   2.551  1.00  0.00     0.120 A 
ATOM     22  C   UNL     1      -2.006  -3.244   2.501  1.00  0.00     0.251 A 
ATOM     23  H   UNL     1      -1.554  -4.211   0.774  1.00  0.00     0.172 HD
ATOM     24  C   UNL     1      -1.728  -1.975   3.191  1.00  0.00     0.091 A 
ATOM     25  O   UNL     1      -2.712  -4.103   3.005  1.00  0.00    -0.269 OA
ENDBRANCH  17  18
ENDBRANCH  16  17
ENDBRANCH  15  16
ENDBRANCH   8  15
ENDBRANCH   3   6
ENDBRANCH   1   2
BRANCH   1  26
ATOM     26  C   UNL     1      -4.533   0.053   1.124  1.00  0.00     0.023 C 
BRANCH  26  27
ATOM     27  C   UNL     1      -5.255  -0.082   2.460  1.00  0.00     0.023 C 
BRANCH  27  28
ATOM     28  C   UNL     1      -6.278   1.005   2.770  1.00  0.00     0.116 C 
BRANCH  28  29
ATOM     29  N   UNL     1      -7.279   1.200   1.729  1.00  0.00    -0.352 N 
ATOM     30  C   UNL     1      -8.623   1.458   1.874  1.00  0.00     0.251 C 
ATOM     31  H   UNL     1      -6.951   1.140   0.802  1.00  0.00     0.163 HD
ATOM     32  O   UNL     1      -9.358   1.529   0.896  1.00  0.00    -0.269 OA
BRANCH  30  33
ATOM     33  C   UNL     1      -9.178   1.600   3.235  1.00  0.00     0.039 A 
ATOM     34  C   UNL     1     -10.276   0.821   3.602  1.00  0.00     0.014 A 
ATOM     35  C   UNL     1      -8.553   2.433   4.167  1.00  0.00     0.014 A 
ATOM     36  C   UNL     1     -10.694   0.810   4.934  1.00  0.00     0.010 A 
ATOM     37  C   UNL     1      -8.913   2.350   5.506  1.00  0.00     0.010 A 
ATOM     38  C   UNL     1      -9.984   1.536   5.905  1.00  0.00    -0.014 A 
BRANCH  38  39
ATOM     39  C   UNL     1     -10.338   1.448   7.345  1.00  0.00     0.031 A 
ATOM     40  C   UNL     1     -10.774   2.680   8.088  1.00  0.00     0.074 A 
ATOM     41  C   UNL     1     -10.195   0.279   8.000  1.00  0.00     0.049 A 
ATOM     42  N   UNL     1     -11.056   2.823   9.358  1.00  0.00    -0.248 NA
ATOM     43  C   UNL     1     -10.876   3.924   7.308  1.00  0.00     0.031 C 
ATOM     44  C   UNL     1      -9.724  -0.974   7.406  1.00  0.00     0.029 A 
ATOM     45  N   UNL     1     -10.423  -0.044   9.314  1.00  0.00    -0.354 N 
ATOM     46  C   UNL     1     -11.351   4.169   9.530  1.00  0.00     0.074 A 
ATOM     47  C   UNL     1     -11.155   4.812   8.250  1.00  0.00     0.031 C 
ATOM     48  C   UNL     1      -9.723  -1.934   8.345  1.00  0.00     0.029 A 
ATOM     49  C   UNL     1     -10.153  -1.358   9.615  1.00  0.00     0.049 A 
ATOM     50  H   UNL     1     -10.750   0.604   9.979  1.00  0.00     0.167 HD
ATOM     51  C   UNL     1     -11.772   4.808  10.647  1.00  0.00     0.037 A 
ATOM     52  C   UNL     1     -10.236  -2.022  10.784  1.00  0.00     0.037 A 
ATOM     53  C   UNL     1     -11.991   4.159  11.912  1.00  0.00     0.049 A 
ATOM     54  C   UNL     1     -10.706  -1.290  12.011  1.00  0.00     0.074 A 
ATOM     55  C   UNL     1     -12.483   4.704  13.085  1.00  0.00     0.029 A 
ATOM     56  N   UNL     1     -11.728   2.822  12.171  1.00  0.00    -0.354 N 
ATOM     57  N   UNL     1     -11.057  -0.033  12.140  1.00  0.00    -0.248 NA
ATOM     58  C   UNL     1     -10.800  -2.070  13.253  1.00  0.00     0.031 C 
ATOM     59  C   UNL     1     -12.466   3.711  14.069  1.00  0.00     0.029 A 
ATOM     60  C   UNL     1     -12.021   2.531  13.493  1.00  0.00     0.049 A 
ATOM     61  H   UNL     1     -11.383   2.176  11.513  1.00  0.00     0.167 HD
ATOM     62  C   UNL     1     -11.439   0.121  13.467  1.00  0.00     0.074 A 
ATOM     63  C   UNL     1     -11.292  -1.175  14.097  1.00  0.00     0.031 C 
ATOM     64  C   UNL     1     -11.874   1.235  14.106  1.00  0.00     0.037 A 
BRANCH  51  65
ATOM     65  C   UNL     1     -12.025   6.284  10.548  1.00  0.00     0.057 A 
ATOM     66  C   UNL     1     -13.095   6.805   9.807  1.00  0.00     0.134 A 
ATOM     67  C   UNL     1     -11.211   7.196  11.231  1.00  0.00     0.134 A 
ATOM     68  F   UNL     1     -13.906   5.988   9.117  1.00  0.00    -0.206 F 
ATOM     69  C   UNL     1     -13.328   8.179   9.726  1.00  0.00     0.040 A 
ATOM     70  C   UNL     1     -11.452   8.570  11.183  1.00  0.00     0.040 A 
ATOM     71  F   UNL     1     -10.172   6.767  11.964  1.00  0.00    -0.206 F 
ATOM     72  C   UNL     1     -12.509   9.065  10.422  1.00  0.00     0.006 A 
ENDBRANCH  51  65
BRANCH  52  73
ATOM     73  C   UNL     1      -9.883  -3.463  10.848  1.00  0.00     0.057 A 
ATOM     74  C   UNL     1     -10.862  -4.439  11.068  1.00  0.00     0.134 A 
ATOM     75  C   UNL     1      -8.561  -3.901  10.700  1.00  0.00     0.134 A 
ATOM     76  F   UNL     1     -12.144  -4.083  11.236  1.00  0.00    -0.206 F 
ATOM     77  C   UNL     1     -10.539  -5.794  11.159  1.00  0.00     0.040 A 
ATOM     78  C   UNL     1      -8.227  -5.255  10.761  1.00  0.00     0.040 A 
ATOM     79  F   UNL     1      -7.576  -3.017  10.479  1.00  0.00    -0.206 F 
ATOM     80  C   UNL     1      -9.217  -6.205  11.000  1.00  0.00     0.006 A 
ENDBRANCH  52  73
BRANCH  64  81
ATOM     81  C   UNL     1     -12.257   1.096  15.551  1.00  0.00     0.057 A 
ATOM     82  C   UNL     1     -11.303   0.900  16.557  1.00  0.00     0.134 A 
ATOM     83  C   UNL     1     -13.598   1.206  15.944  1.00  0.00     0.134 A 
ATOM     84  F   UNL     1     -10.004   0.775  16.247  1.00  0.00    -0.206 F 
ATOM     85  C   UNL     1     -11.670   0.793  17.899  1.00  0.00     0.040 A 
ATOM     86  C   UNL     1     -13.974   1.131  17.285  1.00  0.00     0.040 A 
ATOM     87  F   UNL     1     -14.562   1.405  15.032  1.00  0.00    -0.206 F 
ATOM     88  C   UNL     1     -13.009   0.917  18.267  1.00  0.00     0.006 A 
ENDBRANCH  64  81
ENDBRANCH  38  39
ENDBRANCH  30  33
ENDBRANCH  28  29
ENDBRANCH  27  28
ENDBRANCH  26  27
ENDBRANCH   1  26
TORSDOF 16
