REMARK SMILES C[C@H]1[C@@H](C(=O)NCCCCNC(=O)c2ccc(-c3c4nc(c(-c5c(F)cccc5F)c5ccc([nH]5)c(-c5c(F)cccc5F)c5nc(c(-c6c(F)cccc6F)c6ccc3[nH]6)C=C5)C=C4)cc2)CCN1C(=O)NCC(C1CC1)C1CC1
REMARK SMILES IDX 7 1 6 2 4 3 5 4 3 6 1 7 2 8 70 9 68 10 69 11 71 12 72 13
REMARK SMILES IDX 73 14 74 16 75 17 76 18 77 19 78 20 79 21 80 22 81 23 8 24
REMARK SMILES IDX 9 25 10 26 11 27 12 28 13 30 14 31 15 32 67 33 16 34 66 35
REMARK SMILES IDX 17 36 18 37 19 38 60 39 20 40 65 41 59 42 61 43 21 44 64 45
REMARK SMILES IDX 58 46 57 47 22 49 48 50 31 51 47 52 32 53 35 54 46 55 62 56
REMARK SMILES IDX 33 57 34 58 45 60 63 61 36 62 23 63 24 64 29 65 25 66 26 67
REMARK SMILES IDX 28 68 30 69 27 70 49 71 50 72 55 73 51 74 52 75 54 76 56 77
REMARK SMILES IDX 53 78 37 79 38 80 43 81 39 82 40 83 42 84 44 85 41 86
REMARK H PARENT 6 5 73 15 11 29 61 48 35 59
REMARK Flexibility Score: inf
ROOT
ATOM      1  C   UNL     1       2.610   1.754  -1.295  1.00  0.00     0.116 C 
ENDROOT
BRANCH   1   2
ATOM      2  N   UNL     1       1.348   2.005  -1.968  1.00  0.00    -0.356 N 
ATOM      3  C   UNL     1       0.074   1.618  -1.668  1.00  0.00     0.225 C 
ATOM      4  O   UNL     1      -0.794   1.882  -2.502  1.00  0.00    -0.275 OA
ATOM      5  H   UNL     1       1.425   2.550  -2.784  1.00  0.00     0.163 HD
BRANCH   3   6
ATOM      6  C   UNL     1      -0.270   0.994  -0.319  1.00  0.00     0.102 C 
ATOM      7  C   UNL     1       0.947  -1.232  -0.993  1.00  0.00     0.032 C 
ATOM      8  C   UNL     1       0.441  -0.301   0.106  1.00  0.00     0.096 C 
ATOM      9  N   UNL     1      -0.530  -1.042   0.890  1.00  0.00    -0.321 N 
ATOM     10  C   UNL     1      -1.770   0.695  -0.121  1.00  0.00     0.037 C 
ATOM     11  C   UNL     1      -1.849  -0.745   0.363  1.00  0.00     0.122 C 
BRANCH   9  12
ATOM     12  C   UNL     1      -0.358  -2.106   1.723  1.00  0.00     0.317 C 
ATOM     13  O   UNL     1      -1.322  -2.772   2.114  1.00  0.00    -0.249 OA
ATOM     14  N   UNL     1       0.851  -2.522   2.150  1.00  0.00    -0.338 N 
ATOM     15  H   UNL     1       0.777  -3.335   2.701  1.00  0.00     0.165 HD
BRANCH  14  16
ATOM     16  C   UNL     1       2.245  -2.095   2.018  1.00  0.00     0.121 C 
BRANCH  16  17
ATOM     17  C   UNL     1       2.963  -1.998   3.382  1.00  0.00     0.014 C 
BRANCH  17  18
ATOM     18  C   UNL     1       3.583  -3.304   3.855  1.00  0.00    -0.006 C 
ATOM     19  C   UNL     1       3.394  -4.659   3.211  1.00  0.00     0.004 C 
ATOM     20  C   UNL     1       4.706  -3.939   3.067  1.00  0.00     0.004 C 
ENDBRANCH  17  18
BRANCH  17  21
ATOM     21  C   UNL     1       4.014  -0.896   3.487  1.00  0.00    -0.006 C 
ATOM     22  C   UNL     1       4.827  -0.407   2.312  1.00  0.00     0.004 C 
ATOM     23  C   UNL     1       3.811   0.503   2.952  1.00  0.00     0.004 C 
ENDBRANCH  17  21
ENDBRANCH  16  17
ENDBRANCH  14  16
ENDBRANCH   9  12
ENDBRANCH   3   6
ENDBRANCH   1   2
BRANCH   1  24
ATOM     24  C   UNL     1       3.364   0.610  -1.979  1.00  0.00     0.023 C 
BRANCH  24  25
ATOM     25  C   UNL     1       4.238   1.010  -3.154  1.00  0.00     0.023 C 
BRANCH  25  26
ATOM     26  C   UNL     1       5.491   1.767  -2.767  1.00  0.00     0.116 C 
BRANCH  26  27
ATOM     27  N   UNL     1       6.396   1.012  -1.905  1.00  0.00    -0.352 N 
ATOM     28  C   UNL     1       7.751   0.812  -2.039  1.00  0.00     0.251 C 
ATOM     29  H   UNL     1       5.979   0.587  -1.121  1.00  0.00     0.163 HD
ATOM     30  O   UNL     1       8.357   0.079  -1.264  1.00  0.00    -0.269 OA
BRANCH  28  31
ATOM     31  C   UNL     1       8.454   1.456  -3.167  1.00  0.00     0.039 A 
ATOM     32  C   UNL     1       9.271   0.683  -3.995  1.00  0.00     0.014 A 
ATOM     33  C   UNL     1       8.197   2.793  -3.470  1.00  0.00     0.014 A 
ATOM     34  C   UNL     1       9.738   1.227  -5.192  1.00  0.00     0.010 A 
ATOM     35  C   UNL     1       8.553   3.285  -4.716  1.00  0.00     0.010 A 
ATOM     36  C   UNL     1       9.331   2.511  -5.590  1.00  0.00    -0.014 A 
BRANCH  36  37
ATOM     37  C   UNL     1       9.712   3.087  -6.904  1.00  0.00     0.031 A 
ATOM     38  C   UNL     1      10.470   4.386  -6.949  1.00  0.00     0.074 A 
ATOM     39  C   UNL     1       9.293   2.506  -8.046  1.00  0.00     0.049 A 
ATOM     40  N   UNL     1      10.778   5.130  -7.979  1.00  0.00    -0.248 NA
ATOM     41  C   UNL     1      10.890   4.950  -5.655  1.00  0.00     0.031 C 
ATOM     42  C   UNL     1       8.484   1.288  -8.138  1.00  0.00     0.029 A 
ATOM     43  N   UNL     1       9.482   2.875  -9.354  1.00  0.00    -0.354 N 
ATOM     44  C   UNL     1      11.385   6.263  -7.453  1.00  0.00     0.074 A 
ATOM     45  C   UNL     1      11.344   6.141  -6.014  1.00  0.00     0.031 C 
ATOM     46  C   UNL     1       8.279   0.991  -9.432  1.00  0.00     0.029 A 
ATOM     47  C   UNL     1       8.909   2.014 -10.259  1.00  0.00     0.049 A 
ATOM     48  H   UNL     1       9.981   3.681  -9.619  1.00  0.00     0.167 HD
ATOM     49  C   UNL     1      11.960   7.298  -8.109  1.00  0.00     0.037 A 
ATOM     50  C   UNL     1       8.898   2.049 -11.605  1.00  0.00     0.037 A 
ATOM     51  C   UNL     1      12.066   7.381  -9.539  1.00  0.00     0.049 A 
ATOM     52  C   UNL     1       9.600   3.174 -12.313  1.00  0.00     0.074 A 
ATOM     53  C   UNL     1      12.706   8.339 -10.303  1.00  0.00     0.029 A 
ATOM     54  N   UNL     1      11.529   6.454 -10.420  1.00  0.00    -0.354 N 
ATOM     55  N   UNL     1      10.230   4.205 -11.804  1.00  0.00    -0.248 NA
ATOM     56  C   UNL     1       9.597   3.137 -13.783  1.00  0.00     0.031 C 
ATOM     57  C   UNL     1      12.538   8.003 -11.651  1.00  0.00     0.029 A 
ATOM     58  C   UNL     1      11.820   6.820 -11.722  1.00  0.00     0.049 A 
ATOM     59  H   UNL     1      11.017   5.655 -10.158  1.00  0.00     0.167 HD
ATOM     60  C   UNL     1      10.718   4.925 -12.886  1.00  0.00     0.074 A 
ATOM     61  C   UNL     1      10.322   4.206 -14.080  1.00  0.00     0.031 C 
ATOM     62  C   UNL     1      11.427   6.079 -12.893  1.00  0.00     0.037 A 
BRANCH  49  63
ATOM     63  C   UNL     1      12.536   8.403  -7.276  1.00  0.00     0.057 A 
ATOM     64  C   UNL     1      13.691   8.219  -6.502  1.00  0.00     0.134 A 
ATOM     65  C   UNL     1      11.934   9.667  -7.246  1.00  0.00     0.134 A 
ATOM     66  F   UNL     1      14.305   7.026  -6.472  1.00  0.00    -0.206 F 
ATOM     67  C   UNL     1      14.205   9.240  -5.702  1.00  0.00     0.040 A 
ATOM     68  C   UNL     1      12.456  10.705  -6.472  1.00  0.00     0.040 A 
ATOM     69  F   UNL     1      10.827   9.912  -7.964  1.00  0.00    -0.206 F 
ATOM     70  C   UNL     1      13.589  10.490  -5.691  1.00  0.00     0.006 A 
ENDBRANCH  49  63
BRANCH  50  71
ATOM     71  C   UNL     1       8.242   0.962 -12.374  1.00  0.00     0.057 A 
ATOM     72  C   UNL     1       9.005   0.016 -13.070  1.00  0.00     0.134 A 
ATOM     73  C   UNL     1       6.850   0.843 -12.440  1.00  0.00     0.134 A 
ATOM     74  F   UNL     1      10.344   0.089 -13.057  1.00  0.00    -0.206 F 
ATOM     75  C   UNL     1       8.408  -0.999 -13.819  1.00  0.00     0.040 A 
ATOM     76  C   UNL     1       6.239  -0.179 -13.169  1.00  0.00     0.040 A 
ATOM     77  F   UNL     1       6.064   1.712 -11.789  1.00  0.00    -0.206 F 
ATOM     78  C   UNL     1       7.019  -1.100 -13.867  1.00  0.00     0.006 A 
ENDBRANCH  50  71
BRANCH  62  79
ATOM     79  C   UNL     1      11.849   6.615 -14.226  1.00  0.00     0.057 A 
ATOM     80  C   UNL     1      10.941   7.246 -15.085  1.00  0.00     0.134 A 
ATOM     81  C   UNL     1      13.187   6.542 -14.632  1.00  0.00     0.134 A 
ATOM     82  F   UNL     1       9.644   7.336 -14.756  1.00  0.00    -0.206 F 
ATOM     83  C   UNL     1      11.348   7.772 -16.311  1.00  0.00     0.040 A 
ATOM     84  C   UNL     1      13.609   7.083 -15.846  1.00  0.00     0.040 A 
ATOM     85  F   UNL     1      14.105   5.956 -13.848  1.00  0.00    -0.206 F 
ATOM     86  C   UNL     1      12.687   7.698 -16.691  1.00  0.00     0.006 A 
ENDBRANCH  62  79
ENDBRANCH  36  37
ENDBRANCH  28  31
ENDBRANCH  26  27
ENDBRANCH  25  26
ENDBRANCH  24  25
ENDBRANCH   1  24
TORSDOF 16
