REMARK SMILES C[N@@H+](Cc1ccc2nsnc2c1)Cc1ccccc1C(=O)NCCCCNC(=O)c1ccc(-c2c3nc(c(-c4c(F)cccc4F)c4ccc([nH]4)c(-c4c(F)cccc4F)c4nc(c(-c5c(F)cccc5F)c5ccc2[nH]5)C=C4)C=C3)cc1
REMARK SMILES IDX 23 1 22 2 20 3 21 4 19 6 14 7 15 8 16 9 18 10 17 11 13 12
REMARK SMILES IDX 2 13 1 14 3 16 4 17 5 18 12 19 6 20 11 21 7 22 10 23 8 24
REMARK SMILES IDX 9 25 24 26 25 27 26 28 27 29 28 30 29 32 30 33 31 34 83 35
REMARK SMILES IDX 32 36 82 37 33 38 34 39 35 40 76 41 36 42 81 43 75 44 77 45
REMARK SMILES IDX 37 46 80 47 74 48 73 49 38 51 64 52 47 53 63 54 48 55 51 56
REMARK SMILES IDX 62 57 78 58 49 59 50 60 61 62 79 63 52 64 39 65 40 66 45 67
REMARK SMILES IDX 41 68 42 69 44 70 46 71 43 72 65 73 66 74 71 75 67 76 68 77
REMARK SMILES IDX 70 78 72 79 69 80 53 81 54 82 59 83 55 84 56 85 58 86 60 87
REMARK SMILES IDX 57 88
REMARK H PARENT 22 5 2 15 27 31 77 50 51 61
REMARK Flexibility Score: inf
ROOT
ATOM      1  C   UNL     1       0.453  -1.260  -0.412  1.00  0.00     0.116 C 
ENDROOT
BRANCH   1   2
ATOM      2  N   UNL     1       0.461  -0.182   0.613  1.00  0.00    -0.352 N 
ATOM      3  C   UNL     1       0.501   1.110   1.069  1.00  0.00     0.251 C 
ATOM      4  O   UNL     1       0.268   0.981   2.297  1.00  0.00    -0.269 OA
ATOM      5  H   UNL     1       0.405  -0.695   1.452  1.00  0.00     0.163 HD
BRANCH   3   6
ATOM      6  C   UNL     1       0.716   2.596   0.624  1.00  0.00     0.048 A 
ATOM      7  C   UNL     1       1.014   3.365  -0.537  1.00  0.00     0.019 A 
ATOM      8  C   UNL     1       1.219   4.798  -0.426  1.00  0.00     0.010 A 
ATOM      9  C   UNL     1       1.046   5.523   0.732  1.00  0.00     0.001 A 
ATOM     10  C   UNL     1       0.529   3.435   1.785  1.00  0.00     0.014 A 
ATOM     11  C   UNL     1       0.669   4.832   1.848  1.00  0.00     0.001 A 
BRANCH   7  12
ATOM     12  C   UNL     1       1.121   3.069  -2.013  1.00  0.00     0.299 C 
BRANCH  12  13
ATOM     13  N   UNL     1       0.750   1.792  -2.514  1.00  0.00    -0.330 N 
ATOM     14  C   UNL     1       1.837   0.882  -2.313  1.00  0.00     0.333 C 
ATOM     15  H   UNL     1       0.622   1.804  -3.526  1.00  0.00     0.348 HD
BRANCH  13  16
ATOM     16  C   UNL     1      -0.659   1.398  -2.571  1.00  0.00     0.299 C 
BRANCH  16  17
ATOM     17  C   UNL     1      -1.659   2.154  -1.678  1.00  0.00     0.009 A 
ATOM     18  C   UNL     1      -2.234   1.538  -0.527  1.00  0.00     0.012 A 
ATOM     19  C   UNL     1      -1.936   3.511  -1.978  1.00  0.00     0.041 A 
ATOM     20  C   UNL     1      -2.970   2.236   0.462  1.00  0.00     0.032 A 
ATOM     21  C   UNL     1      -2.591   4.277  -0.984  1.00  0.00     0.105 A 
ATOM     22  C   UNL     1      -3.108   3.630   0.267  1.00  0.00     0.104 A 
ATOM     23  N   UNL     1      -2.793   5.603  -1.023  1.00  0.00    -0.173 NA
ATOM     24  N   UNL     1      -3.675   4.501   1.117  1.00  0.00    -0.173 NA
ATOM     25  S   UNL     1      -3.515   6.002   0.420  1.00  0.00     0.069 S 
ENDBRANCH  16  17
ENDBRANCH  13  16
ENDBRANCH  12  13
ENDBRANCH   7  12
ENDBRANCH   3   6
ENDBRANCH   1   2
BRANCH   1  26
ATOM     26  C   UNL     1       1.819  -1.836  -0.817  1.00  0.00     0.023 C 
BRANCH  26  27
ATOM     27  C   UNL     1       1.869  -3.321  -1.174  1.00  0.00     0.023 C 
BRANCH  27  28
ATOM     28  C   UNL     1       0.934  -3.785  -2.284  1.00  0.00     0.116 C 
BRANCH  28  29
ATOM     29  N   UNL     1       1.224  -3.281  -3.626  1.00  0.00    -0.352 N 
ATOM     30  C   UNL     1       1.039  -3.958  -4.820  1.00  0.00     0.251 C 
ATOM     31  H   UNL     1       1.587  -2.368  -3.687  1.00  0.00     0.163 HD
ATOM     32  O   UNL     1       1.326  -3.456  -5.902  1.00  0.00    -0.269 OA
BRANCH  30  33
ATOM     33  C   UNL     1       0.527  -5.343  -4.750  1.00  0.00     0.039 A 
ATOM     34  C   UNL     1       1.323  -6.395  -5.211  1.00  0.00     0.014 A 
ATOM     35  C   UNL     1      -0.648  -5.591  -4.039  1.00  0.00     0.014 A 
ATOM     36  C   UNL     1       0.990  -7.705  -4.860  1.00  0.00     0.010 A 
ATOM     37  C   UNL     1      -0.910  -6.881  -3.600  1.00  0.00     0.010 A 
ATOM     38  C   UNL     1      -0.099  -7.952  -4.007  1.00  0.00    -0.014 A 
BRANCH  38  39
ATOM     39  C   UNL     1      -0.443  -9.326  -3.562  1.00  0.00     0.031 A 
ATOM     40  C   UNL     1      -1.784  -9.899  -3.932  1.00  0.00     0.074 A 
ATOM     41  C   UNL     1       0.399 -10.024  -2.772  1.00  0.00     0.049 A 
ATOM     42  N   UNL     1      -2.324 -11.040  -3.587  1.00  0.00    -0.248 NA
ATOM     43  C   UNL     1      -2.656  -9.053  -4.764  1.00  0.00     0.031 C 
ATOM     44  C   UNL     1       1.695  -9.552  -2.280  1.00  0.00     0.029 A 
ATOM     45  N   UNL     1       0.284 -11.284  -2.240  1.00  0.00    -0.354 N 
ATOM     46  C   UNL     1      -3.600 -11.029  -4.135  1.00  0.00     0.074 A 
ATOM     47  C   UNL     1      -3.785  -9.742  -4.763  1.00  0.00     0.031 C 
ATOM     48  C   UNL     1       2.270 -10.523  -1.550  1.00  0.00     0.029 A 
ATOM     49  C   UNL     1       1.376 -11.676  -1.502  1.00  0.00     0.049 A 
ATOM     50  H   UNL     1      -0.507 -11.855  -2.375  1.00  0.00     0.167 HD
ATOM     51  C   UNL     1      -4.522 -12.018  -4.155  1.00  0.00     0.037 A 
ATOM     52  C   UNL     1       1.626 -12.840  -0.872  1.00  0.00     0.037 A 
ATOM     53  C   UNL     1      -4.312 -13.319  -3.583  1.00  0.00     0.049 A 
ATOM     54  C   UNL     1       0.607 -13.945  -0.949  1.00  0.00     0.074 A 
ATOM     55  C   UNL     1      -5.150 -14.418  -3.606  1.00  0.00     0.029 A 
ATOM     56  N   UNL     1      -3.170 -13.695  -2.893  1.00  0.00    -0.354 N 
ATOM     57  N   UNL     1      -0.566 -13.950  -1.537  1.00  0.00    -0.248 NA
ATOM     58  C   UNL     1       0.950 -15.213  -0.287  1.00  0.00     0.031 C 
ATOM     59  C   UNL     1      -4.524 -15.455  -2.906  1.00  0.00     0.029 A 
ATOM     60  C   UNL     1      -3.281 -15.011  -2.481  1.00  0.00     0.049 A 
ATOM     61  H   UNL     1      -2.395 -13.113  -2.722  1.00  0.00     0.167 HD
ATOM     62  C   UNL     1      -1.083 -15.225  -1.347  1.00  0.00     0.074 A 
ATOM     63  C   UNL     1      -0.092 -15.970  -0.599  1.00  0.00     0.031 C 
ATOM     64  C   UNL     1      -2.271 -15.735  -1.755  1.00  0.00     0.037 A 
BRANCH  51  65
ATOM     65  C   UNL     1      -5.823 -11.727  -4.844  1.00  0.00     0.057 A 
ATOM     66  C   UNL     1      -5.900 -11.559  -6.234  1.00  0.00     0.134 A 
ATOM     67  C   UNL     1      -7.010 -11.602  -4.112  1.00  0.00     0.134 A 
ATOM     68  F   UNL     1      -4.795 -11.645  -6.991  1.00  0.00    -0.206 F 
ATOM     69  C   UNL     1      -7.102 -11.238  -6.866  1.00  0.00     0.040 A 
ATOM     70  C   UNL     1      -8.224 -11.312  -4.737  1.00  0.00     0.040 A 
ATOM     71  F   UNL     1      -7.008 -11.752  -2.779  1.00  0.00    -0.206 F 
ATOM     72  C   UNL     1      -8.270 -11.119  -6.117  1.00  0.00     0.006 A 
ENDBRANCH  51  65
BRANCH  52  73
ATOM     73  C   UNL     1       2.915 -13.049  -0.162  1.00  0.00     0.057 A 
ATOM     74  C   UNL     1       3.884 -13.923  -0.673  1.00  0.00     0.134 A 
ATOM     75  C   UNL     1       3.205 -12.404   1.045  1.00  0.00     0.134 A 
ATOM     76  F   UNL     1       3.658 -14.586  -1.817  1.00  0.00    -0.206 F 
ATOM     77  C   UNL     1       5.082 -14.166   0.001  1.00  0.00     0.040 A 
ATOM     78  C   UNL     1       4.410 -12.620   1.719  1.00  0.00     0.040 A 
ATOM     79  F   UNL     1       2.324 -11.549   1.585  1.00  0.00    -0.206 F 
ATOM     80  C   UNL     1       5.349 -13.510   1.201  1.00  0.00     0.006 A 
ENDBRANCH  52  73
BRANCH  64  81
ATOM     81  C   UNL     1      -2.544 -17.175  -1.441  1.00  0.00     0.057 A 
ATOM     82  C   UNL     1      -2.857 -17.603  -0.145  1.00  0.00     0.134 A 
ATOM     83  C   UNL     1      -2.546 -18.135  -2.461  1.00  0.00     0.134 A 
ATOM     84  F   UNL     1      -2.861 -16.732   0.875  1.00  0.00    -0.206 F 
ATOM     85  C   UNL     1      -3.144 -18.940   0.129  1.00  0.00     0.040 A 
ATOM     86  C   UNL     1      -2.856 -19.471  -2.204  1.00  0.00     0.040 A 
ATOM     87  F   UNL     1      -2.264 -17.787  -3.726  1.00  0.00    -0.206 F 
ATOM     88  C   UNL     1      -3.151 -19.877  -0.904  1.00  0.00     0.006 A 
ENDBRANCH  64  81
ENDBRANCH  38  39
ENDBRANCH  30  33
ENDBRANCH  28  29
ENDBRANCH  27  28
ENDBRANCH  26  27
ENDBRANCH   1  26
TORSDOF 15
