REMARK SMILES CCCN1C(=O)CO[C@H](C(=O)NCCCCNC(=O)c2ccc(-c3c4nc(c(-c5c(F)cccc5F)c5ccc([nH]5)c(-c5c(F)cccc5F)c5nc(c(-c6c(F)cccc6F)c6ccc3[nH]6)C=C5)C=C4)cc2)[C@@H]1c1cncn1C1CC1
REMARK SMILES IDX 14 1 13 2 12 3 10 4 11 5 9 7 4 8 5 9 74 10 6 11 7 12 8 13
REMARK SMILES IDX 3 14 2 15 1 16 75 17 76 18 79 19 77 20 78 21 80 22 81 23
REMARK SMILES IDX 82 24 15 25 16 26 17 27 18 28 19 30 20 31 21 32 73 33 22 34
REMARK SMILES IDX 72 35 23 36 24 37 25 38 66 39 26 40 71 41 65 42 67 43 27 44
REMARK SMILES IDX 70 45 64 46 63 47 28 49 54 50 37 51 53 52 38 53 41 54 52 55
REMARK SMILES IDX 68 56 39 57 40 58 51 60 69 61 42 62 29 63 30 64 35 65 31 66
REMARK SMILES IDX 32 67 34 68 36 69 33 70 55 71 56 72 61 73 57 74 58 75 60 76
REMARK SMILES IDX 62 77 59 78 43 79 44 80 49 81 45 82 46 83 48 84 50 85 47 86
REMARK H PARENT 12 6 17 29 67 48 41 59
REMARK Flexibility Score: inf
ROOT
ATOM      1  C   UNL     1       3.679  -7.102  -0.647  1.00  0.00     0.023 C 
ENDROOT
BRANCH   1   2
ATOM      2  C   UNL     1       2.778  -6.058  -1.286  1.00  0.00     0.116 C 
BRANCH   2   3
ATOM      3  N   UNL     1       1.634  -6.583  -1.994  1.00  0.00    -0.354 N 
ATOM      4  C   UNL     1       0.458  -5.944  -2.263  1.00  0.00     0.251 C 
ATOM      5  O   UNL     1      -0.278  -6.432  -3.127  1.00  0.00    -0.272 OA
ATOM      6  H   UNL     1       1.711  -7.509  -2.320  1.00  0.00     0.163 HD
BRANCH   4   7
ATOM      7  C   UNL     1       0.040  -4.649  -1.531  1.00  0.00     0.236 C 
ATOM      8  N   UNL     1       0.020  -2.098  -1.528  1.00  0.00    -0.329 N 
ATOM      9  C   UNL     1      -0.697  -2.258  -0.336  1.00  0.00     0.249 C 
ATOM     10  C   UNL     1       0.413  -3.326  -2.257  1.00  0.00     0.172 C 
ATOM     11  O   UNL     1      -1.489  -1.435   0.117  1.00  0.00    -0.272 OA
ATOM     12  C   UNL     1      -0.431  -3.559   0.452  1.00  0.00     0.261 C 
ATOM     13  O   UNL     1       0.362  -4.567  -0.152  1.00  0.00    -0.356 OA
BRANCH   8  14
ATOM     14  C   UNL     1      -0.026  -0.842  -2.303  1.00  0.00     0.120 C 
BRANCH  14  15
ATOM     15  C   UNL     1      -0.454   0.475  -1.629  1.00  0.00     0.018 C 
ATOM     16  C   UNL     1       0.385   0.934  -0.444  1.00  0.00     0.006 C 
ENDBRANCH  14  15
ENDBRANCH   8  14
BRANCH  10  17
ATOM     17  C   UNL     1       1.760  -3.282  -2.935  1.00  0.00     0.064 A 
ATOM     18  C   UNL     1       1.955  -3.762  -4.233  1.00  0.00     0.136 A 
ATOM     19  N   UNL     1       3.030  -2.866  -2.567  1.00  0.00    -0.330 N 
ATOM     20  N   UNL     1       3.245  -3.663  -4.646  1.00  0.00    -0.245 NA
ATOM     21  C   UNL     1       3.863  -3.103  -3.639  1.00  0.00     0.199 A 
BRANCH  19  22
ATOM     22  C   UNL     1       3.639  -2.336  -1.361  1.00  0.00     0.088 C 
ATOM     23  C   UNL     1       3.001  -1.390  -0.382  1.00  0.00     0.027 C 
ATOM     24  C   UNL     1       3.310  -2.776   0.047  1.00  0.00     0.027 C 
ENDBRANCH  19  22
ENDBRANCH  10  17
ENDBRANCH   4   7
ENDBRANCH   2   3
ENDBRANCH   1   2
BRANCH   1  25
ATOM     25  C   UNL     1       4.311  -8.105  -1.609  1.00  0.00     0.023 C 
BRANCH  25  26
ATOM     26  C   UNL     1       4.925  -7.522  -2.880  1.00  0.00     0.116 C 
BRANCH  26  27
ATOM     27  N   UNL     1       6.007  -6.581  -2.626  1.00  0.00    -0.352 N 
ATOM     28  C   UNL     1       7.341  -6.653  -2.956  1.00  0.00     0.251 C 
ATOM     29  H   UNL     1       5.742  -5.765  -2.143  1.00  0.00     0.163 HD
ATOM     30  O   UNL     1       8.117  -5.785  -2.578  1.00  0.00    -0.269 OA
BRANCH  28  31
ATOM     31  C   UNL     1       7.846  -7.814  -3.720  1.00  0.00     0.039 A 
ATOM     32  C   UNL     1       8.934  -8.529  -3.213  1.00  0.00     0.014 A 
ATOM     33  C   UNL     1       7.217  -8.230  -4.896  1.00  0.00     0.014 A 
ATOM     34  C   UNL     1       9.313  -9.731  -3.817  1.00  0.00     0.010 A 
ATOM     35  C   UNL     1       7.549  -9.463  -5.454  1.00  0.00     0.010 A 
ATOM     36  C   UNL     1       8.579 -10.240  -4.901  1.00  0.00    -0.014 A 
BRANCH  36  37
ATOM     37  C   UNL     1       8.817 -11.613  -5.418  1.00  0.00     0.031 A 
ATOM     38  C   UNL     1       9.284 -11.831  -6.829  1.00  0.00     0.074 A 
ATOM     39  C   UNL     1       8.514 -12.672  -4.639  1.00  0.00     0.049 A 
ATOM     40  N   UNL     1       9.434 -12.955  -7.483  1.00  0.00    -0.248 NA
ATOM     41  C   UNL     1       9.601 -10.629  -7.616  1.00  0.00     0.031 C 
ATOM     42  C   UNL     1       8.003 -12.597  -3.268  1.00  0.00     0.029 A 
ATOM     43  N   UNL     1       8.570 -14.020  -4.896  1.00  0.00    -0.354 N 
ATOM     44  C   UNL     1       9.847 -12.598  -8.760  1.00  0.00     0.074 A 
ATOM     45  C   UNL     1       9.891 -11.151  -8.800  1.00  0.00     0.031 C 
ATOM     46  C   UNL     1       7.800 -13.841  -2.804  1.00  0.00     0.029 A 
ATOM     47  C   UNL     1       8.124 -14.799  -3.855  1.00  0.00     0.049 A 
ATOM     48  H   UNL     1       8.898 -14.393  -5.746  1.00  0.00     0.167 HD
ATOM     49  C   UNL     1      10.174 -13.403  -9.798  1.00  0.00     0.037 A 
ATOM     50  C   UNL     1       7.972 -16.134  -3.762  1.00  0.00     0.037 A 
ATOM     51  C   UNL     1      10.158 -14.842  -9.750  1.00  0.00     0.049 A 
ATOM     52  C   UNL     1       8.331 -17.001  -4.937  1.00  0.00     0.074 A 
ATOM     53  C   UNL     1      10.554 -15.739 -10.727  1.00  0.00     0.029 A 
ATOM     54  N   UNL     1       9.718 -15.593  -8.673  1.00  0.00    -0.354 N 
ATOM     55  N   UNL     1       8.797 -16.651  -6.110  1.00  0.00    -0.248 NA
ATOM     56  C   UNL     1       8.141 -18.450  -4.774  1.00  0.00     0.031 C 
ATOM     57  C   UNL     1      10.313 -17.034 -10.258  1.00  0.00     0.029 A 
ATOM     58  C   UNL     1       9.805 -16.943  -8.973  1.00  0.00     0.049 A 
ATOM     59  H   UNL     1       9.392 -15.223  -7.821  1.00  0.00     0.167 HD
ATOM     60  C   UNL     1       8.974 -17.833  -6.817  1.00  0.00     0.074 A 
ATOM     61  C   UNL     1       8.584 -18.912  -5.934  1.00  0.00     0.031 C 
ATOM     62  C   UNL     1       9.416 -18.008  -8.085  1.00  0.00     0.037 A 
BRANCH  49  63
ATOM     63  C   UNL     1      10.588 -12.752 -11.084  1.00  0.00     0.057 A 
ATOM     64  C   UNL     1      11.838 -12.138 -11.228  1.00  0.00     0.134 A 
ATOM     65  C   UNL     1       9.758 -12.806 -12.210  1.00  0.00     0.134 A 
ATOM     66  F   UNL     1      12.675 -12.047 -10.183  1.00  0.00    -0.206 F 
ATOM     67  C   UNL     1      12.245 -11.591 -12.445  1.00  0.00     0.040 A 
ATOM     68  C   UNL     1      10.162 -12.281 -13.439  1.00  0.00     0.040 A 
ATOM     69  F   UNL     1       8.550 -13.386 -12.140  1.00  0.00    -0.206 F 
ATOM     70  C   UNL     1      11.409 -11.670 -13.558  1.00  0.00     0.006 A 
ENDBRANCH  49  63
BRANCH  50  71
ATOM     71  C   UNL     1       7.444 -16.743  -2.515  1.00  0.00     0.057 A 
ATOM     72  C   UNL     1       8.264 -17.521  -1.689  1.00  0.00     0.134 A 
ATOM     73  C   UNL     1       6.104 -16.593  -2.139  1.00  0.00     0.134 A 
ATOM     74  F   UNL     1       9.550 -17.720  -2.009  1.00  0.00    -0.206 F 
ATOM     75  C   UNL     1       7.764 -18.148  -0.546  1.00  0.00     0.040 A 
ATOM     76  C   UNL     1       5.598 -17.193  -0.986  1.00  0.00     0.040 A 
ATOM     77  F   UNL     1       5.269 -15.856  -2.886  1.00  0.00    -0.206 F 
ATOM     78  C   UNL     1       6.427 -17.982  -0.191  1.00  0.00     0.006 A 
ENDBRANCH  50  71
BRANCH  62  79
ATOM     79  C   UNL     1       9.521 -19.417  -8.586  1.00  0.00     0.057 A 
ATOM     80  C   UNL     1       8.386 -20.166  -8.918  1.00  0.00     0.134 A 
ATOM     81  C   UNL     1      10.772 -20.019  -8.770  1.00  0.00     0.134 A 
ATOM     82  F   UNL     1       7.158 -19.652  -8.749  1.00  0.00    -0.206 F 
ATOM     83  C   UNL     1       8.490 -21.473  -9.397  1.00  0.00     0.040 A 
ATOM     84  C   UNL     1      10.890 -21.316  -9.271  1.00  0.00     0.040 A 
ATOM     85  F   UNL     1      11.899 -19.353  -8.477  1.00  0.00    -0.206 F 
ATOM     86  C   UNL     1       9.746 -22.048  -9.582  1.00  0.00     0.006 A 
ENDBRANCH  62  79
ENDBRANCH  36  37
ENDBRANCH  28  31
ENDBRANCH  26  27
ENDBRANCH  25  26
ENDBRANCH   1  25
TORSDOF 15
