REMARK SMILES CC(C)c1csc(C(=O)N2C[C@@H]3c4ccccc4OC[C@]3(C(=O)NCCCCNC(=O)c3ccc(-c4c5nc(c(-c6c(F)cccc6F)c6ccc([nH]6)c(-c6c(F)cccc6F)c6nc(c(-c7c(F)cccc7F)c7ccc4[nH]7)C=C6)C=C5)cc3)C2)n1
REMARK SMILES IDX 26 1 25 2 24 3 22 4 23 5 21 7 10 8 11 9 86 10 12 11 13 12
REMARK SMILES IDX 20 13 14 14 18 15 19 16 15 17 17 18 16 19 8 20 9 21 7 22
REMARK SMILES IDX 4 23 5 24 87 25 6 26 2 27 1 28 3 29 27 30 28 31 29 32 30 33
REMARK SMILES IDX 31 35 32 36 33 37 85 38 34 39 84 40 35 41 36 42 37 43 78 44
REMARK SMILES IDX 38 45 83 46 77 47 79 48 39 49 82 50 76 51 75 52 40 54 66 55
REMARK SMILES IDX 49 56 65 57 50 58 53 59 64 60 80 61 51 62 52 63 63 65 81 66
REMARK SMILES IDX 54 67 41 68 42 69 47 70 43 71 44 72 46 73 48 74 45 75 67 76
REMARK SMILES IDX 68 77 73 78 69 79 70 80 72 81 74 82 71 83 55 84 56 85 61 86
REMARK SMILES IDX 57 87 58 88 60 89 62 90 59 91
REMARK H PARENT 24 6 29 34 79 53 53 64
REMARK Flexibility Score: inf
ROOT
ATOM      1  C   UNL     1      -5.766  -5.106   3.840  1.00  0.00     0.023 C 
ENDROOT
BRANCH   1   2
ATOM      2  C   UNL     1      -4.532  -4.979   2.960  1.00  0.00     0.116 C 
BRANCH   2   3
ATOM      3  N   UNL     1      -3.424  -5.845   3.323  1.00  0.00    -0.355 N 
ATOM      4  C   UNL     1      -2.469  -6.311   2.449  1.00  0.00     0.232 C 
ATOM      5  O   UNL     1      -1.309  -6.396   2.863  1.00  0.00    -0.274 OA
ATOM      6  H   UNL     1      -3.350  -6.118   4.266  1.00  0.00     0.163 HD
BRANCH   4   7
ATOM      7  C   UNL     1      -2.933  -6.720   1.026  1.00  0.00     0.109 C 
ATOM      8  N   UNL     1      -3.175  -4.753  -0.415  1.00  0.00    -0.335 N 
ATOM      9  C   UNL     1      -3.666  -5.875  -1.139  1.00  0.00     0.129 C 
ATOM     10  C   UNL     1      -2.299  -5.230   0.659  1.00  0.00     0.141 C 
ATOM     11  C   UNL     1      -2.829  -6.996  -0.541  1.00  0.00     0.063 C 
ATOM     12  C   UNL     1      -3.253  -8.318  -1.121  1.00  0.00     0.000 A 
ATOM     13  C   UNL     1      -2.421  -8.192   1.398  1.00  0.00     0.249 C 
ATOM     14  C   UNL     1      -3.237  -8.562  -2.503  1.00  0.00     0.008 A 
ATOM     15  C   UNL     1      -3.554  -9.358  -0.259  1.00  0.00     0.122 A 
ATOM     16  O   UNL     1      -3.449  -9.172   1.085  1.00  0.00    -0.492 OA
ATOM     17  C   UNL     1      -3.574  -9.820  -3.000  1.00  0.00     0.001 A 
ATOM     18  C   UNL     1      -3.932 -10.606  -0.745  1.00  0.00     0.047 A 
ATOM     19  C   UNL     1      -3.934 -10.839  -2.121  1.00  0.00     0.004 A 
BRANCH   8  20
ATOM     20  C   UNL     1      -3.656  -3.474  -0.651  1.00  0.00     0.282 C 
ATOM     21  O   UNL     1      -4.731  -3.326  -1.238  1.00  0.00    -0.266 OA
BRANCH  20  22
ATOM     22  C   UNL     1      -2.811  -2.364  -0.230  1.00  0.00     0.181 A 
ATOM     23  C   UNL     1      -0.941  -1.227   0.124  1.00  0.00     0.055 A 
ATOM     24  C   UNL     1      -1.859  -0.198   0.230  1.00  0.00     0.091 A 
ATOM     25  N   UNL     1      -1.506  -2.472  -0.090  1.00  0.00    -0.236 NA
ATOM     26  S   UNL     1      -3.451  -0.792  -0.011  1.00  0.00    -0.117 S 
BRANCH  23  27
ATOM     27  C   UNL     1       0.562  -1.171   0.181  1.00  0.00     0.033 C 
ATOM     28  C   UNL     1       1.131   0.244   0.100  1.00  0.00     0.014 C 
ATOM     29  C   UNL     1       1.088  -1.894   1.421  1.00  0.00     0.014 C 
ENDBRANCH  23  27
ENDBRANCH  20  22
ENDBRANCH   8  20
ENDBRANCH   4   7
ENDBRANCH   2   3
ENDBRANCH   1   2
BRANCH   1  30
ATOM     30  C   UNL     1      -5.543  -5.099   5.350  1.00  0.00     0.023 C 
BRANCH  30  31
ATOM     31  C   UNL     1      -4.609  -4.036   5.914  1.00  0.00     0.116 C 
BRANCH  31  32
ATOM     32  N   UNL     1      -5.051  -2.667   5.706  1.00  0.00    -0.352 N 
ATOM     33  C   UNL     1      -5.271  -1.664   6.624  1.00  0.00     0.251 C 
ATOM     34  H   UNL     1      -5.218  -2.419   4.768  1.00  0.00     0.163 HD
ATOM     35  O   UNL     1      -5.677  -0.566   6.252  1.00  0.00    -0.269 OA
BRANCH  33  36
ATOM     36  C   UNL     1      -5.081  -1.924   8.069  1.00  0.00     0.039 A 
ATOM     37  C   UNL     1      -3.939  -2.569   8.543  1.00  0.00     0.014 A 
ATOM     38  C   UNL     1      -6.099  -1.565   8.957  1.00  0.00     0.014 A 
ATOM     39  C   UNL     1      -3.914  -3.048   9.850  1.00  0.00     0.010 A 
ATOM     40  C   UNL     1      -6.027  -1.962  10.295  1.00  0.00     0.010 A 
ATOM     41  C   UNL     1      -4.967  -2.768  10.737  1.00  0.00    -0.014 A 
BRANCH  41  42
ATOM     42  C   UNL     1      -4.957  -3.361  12.102  1.00  0.00     0.031 A 
ATOM     43  C   UNL     1      -6.022  -4.342  12.524  1.00  0.00     0.074 A 
ATOM     44  C   UNL     1      -3.952  -3.063  12.947  1.00  0.00     0.049 A 
ATOM     45  N   UNL     1      -6.169  -4.961  13.670  1.00  0.00    -0.248 NA
ATOM     46  C   UNL     1      -7.061  -4.668  11.534  1.00  0.00     0.031 C 
ATOM     47  C   UNL     1      -2.852  -2.140  12.659  1.00  0.00     0.029 A 
ATOM     48  N   UNL     1      -3.678  -3.522  14.210  1.00  0.00    -0.354 N 
ATOM     49  C   UNL     1      -7.323  -5.726  13.547  1.00  0.00     0.074 A 
ATOM     50  C   UNL     1      -7.855  -5.474  12.225  1.00  0.00     0.031 C 
ATOM     51  C   UNL     1      -1.995  -2.142  13.691  1.00  0.00     0.029 A 
ATOM     52  C   UNL     1      -2.516  -3.013  14.738  1.00  0.00     0.049 A 
ATOM     53  H   UNL     1      -4.258  -4.155  14.692  1.00  0.00     0.167 HD
ATOM     54  C   UNL     1      -7.884  -6.571  14.447  1.00  0.00     0.037 A 
ATOM     55  C   UNL     1      -1.941  -3.213  15.938  1.00  0.00     0.037 A 
ATOM     56  C   UNL     1      -7.344  -6.845  15.753  1.00  0.00     0.049 A 
ATOM     57  C   UNL     1      -2.605  -4.122  16.930  1.00  0.00     0.074 A 
ATOM     58  C   UNL     1      -7.829  -7.703  16.726  1.00  0.00     0.029 A 
ATOM     59  N   UNL     1      -6.194  -6.268  16.269  1.00  0.00    -0.354 N 
ATOM     60  N   UNL     1      -3.694  -4.838  16.796  1.00  0.00    -0.248 NA
ATOM     61  C   UNL     1      -1.962  -4.241  18.246  1.00  0.00     0.031 C 
ATOM     62  C   UNL     1      -6.991  -7.617  17.845  1.00  0.00     0.029 A 
ATOM     63  C   UNL     1      -5.963  -6.736  17.553  1.00  0.00     0.049 A 
ATOM     64  H   UNL     1      -5.625  -5.621  15.793  1.00  0.00     0.167 HD
ATOM     65  C   UNL     1      -3.863  -5.500  18.004  1.00  0.00     0.074 A 
ATOM     66  C   UNL     1      -2.750  -5.119  18.850  1.00  0.00     0.031 C 
ATOM     67  C   UNL     1      -4.854  -6.343  18.382  1.00  0.00     0.037 A 
BRANCH  54  68
ATOM     68  C   UNL     1      -9.164  -7.251  14.052  1.00  0.00     0.057 A 
ATOM     69  C   UNL     1     -10.379  -6.883  14.643  1.00  0.00     0.134 A 
ATOM     70  C   UNL     1      -9.192  -8.290  13.113  1.00  0.00     0.134 A 
ATOM     71  F   UNL     1     -10.423  -5.901  15.556  1.00  0.00    -0.206 F 
ATOM     72  C   UNL     1     -11.576  -7.522  14.314  1.00  0.00     0.040 A 
ATOM     73  C   UNL     1     -10.386  -8.922  12.758  1.00  0.00     0.040 A 
ATOM     74  F   UNL     1      -8.065  -8.683  12.500  1.00  0.00    -0.206 F 
ATOM     75  C   UNL     1     -11.582  -8.541  13.363  1.00  0.00     0.006 A 
ENDBRANCH  54  68
BRANCH  55  76
ATOM     76  C   UNL     1      -0.670  -2.525  16.273  1.00  0.00     0.057 A 
ATOM     77  C   UNL     1      -0.623  -1.141  16.479  1.00  0.00     0.134 A 
ATOM     78  C   UNL     1       0.526  -3.239  16.404  1.00  0.00     0.134 A 
ATOM     79  F   UNL     1      -1.736  -0.401  16.363  1.00  0.00    -0.206 F 
ATOM     80  C   UNL     1       0.570  -0.489  16.791  1.00  0.00     0.040 A 
ATOM     81  C   UNL     1       1.721  -2.604  16.742  1.00  0.00     0.040 A 
ATOM     82  F   UNL     1       0.539  -4.570  16.239  1.00  0.00    -0.206 F 
ATOM     83  C   UNL     1       1.746  -1.223  16.931  1.00  0.00     0.006 A 
ENDBRANCH  55  76
BRANCH  67  84
ATOM     84  C   UNL     1      -4.760  -6.920  19.763  1.00  0.00     0.057 A 
ATOM     85  C   UNL     1      -4.405  -8.260  19.955  1.00  0.00     0.134 A 
ATOM     86  C   UNL     1      -5.024  -6.148  20.902  1.00  0.00     0.134 A 
ATOM     87  F   UNL     1      -4.144  -9.054  18.905  1.00  0.00    -0.206 F 
ATOM     88  C   UNL     1      -4.312  -8.813  21.233  1.00  0.00     0.040 A 
ATOM     89  C   UNL     1      -4.912  -6.683  22.186  1.00  0.00     0.040 A 
ATOM     90  F   UNL     1      -5.352  -4.853  20.784  1.00  0.00    -0.206 F 
ATOM     91  C   UNL     1      -4.559  -8.021  22.353  1.00  0.00     0.006 A 
ENDBRANCH  67  84
ENDBRANCH  41  42
ENDBRANCH  33  36
ENDBRANCH  31  32
ENDBRANCH  30  31
ENDBRANCH   1  30
TORSDOF 14
