REMARK SMILES O=C(CCC(=O)Nc1cccc2c1C(=O)c1ccccc1C2=O)NCCCCNC(=O)c1ccc(-c2c3nc(c(-c4c(F)cccc4F)c4ccc([nH]4)c(-c4c(F)cccc4F)c4nc(c(-c5c(F)cccc5F)c5ccc2[nH]5)C=C4)C=C3)cc1
REMARK SMILES IDX 26 1 25 2 24 3 1 4 2 5 3 7 4 8 5 9 6 10 7 11 8 13 9 14 13 15
REMARK SMILES IDX 10 16 12 17 14 18 11 19 22 20 15 21 16 22 21 23 23 24 17 25
REMARK SMILES IDX 20 26 18 27 19 28 27 29 28 30 29 31 30 32 31 34 32 35 33 36
REMARK SMILES IDX 85 37 34 38 84 39 35 40 36 41 37 42 78 43 38 44 83 45 77 46
REMARK SMILES IDX 79 47 39 48 82 49 76 50 75 51 40 53 66 54 49 55 65 56 50 57
REMARK SMILES IDX 53 58 64 59 80 60 51 61 52 62 63 64 81 65 54 66 41 67 42 68
REMARK SMILES IDX 47 69 43 70 44 71 46 72 48 73 45 74 67 75 68 76 73 77 69 78
REMARK SMILES IDX 70 79 72 80 74 81 71 82 55 83 56 84 61 85 57 86 58 87 60 88
REMARK SMILES IDX 62 89 59 90
REMARK H PARENT 24 6 7 12 29 33 79 52 53 63
REMARK Flexibility Score: inf
ROOT
ATOM      1  C   UNL     1       4.031  -3.415   0.944  1.00  0.00     0.023 C 
ENDROOT
BRANCH   1   2
ATOM      2  C   UNL     1       4.378  -1.937   0.972  1.00  0.00     0.116 C 
BRANCH   2   3
ATOM      3  N   UNL     1       5.263  -1.427  -0.053  1.00  0.00    -0.356 N 
ATOM      4  O   UNL     1       3.845  -0.996  -1.821  1.00  0.00    -0.275 OA
ATOM      5  C   UNL     1       4.722  -0.635  -1.048  1.00  0.00     0.220 C 
ATOM      6  H   UNL     1       6.224  -1.639  -0.042  1.00  0.00     0.163 HD
BRANCH   5   7
ATOM      7  C   UNL     1       5.118   0.821  -0.960  1.00  0.00     0.110 C 
BRANCH   7   8
ATOM      8  C   UNL     1       4.014   1.565  -0.187  1.00  0.00     0.110 C 
BRANCH   8   9
ATOM      9  C   UNL     1       4.063   1.164   1.260  1.00  0.00     0.224 C 
ATOM     10  O   UNL     1       5.149   1.206   1.859  1.00  0.00    -0.275 OA
ATOM     11  N   UNL     1       3.003   0.794   2.016  1.00  0.00    -0.325 N 
ATOM     12  H   UNL     1       3.301   0.612   2.937  1.00  0.00     0.169 HD
BRANCH  11  13
ATOM     13  C   UNL     1       1.605   0.585   1.918  1.00  0.00     0.053 A 
ATOM     14  C   UNL     1       0.990   0.762   3.179  1.00  0.00     0.027 A 
ATOM     15  C   UNL     1       0.759   0.262   0.834  1.00  0.00     0.057 A 
ATOM     16  C   UNL     1      -0.392   0.735   3.352  1.00  0.00     0.003 A 
ATOM     17  C   UNL     1      -0.641   0.366   0.991  1.00  0.00     0.036 A 
ATOM     18  C   UNL     1       1.073  -0.697  -0.257  1.00  0.00     0.196 C 
ATOM     19  C   UNL     1      -1.211   0.588   2.247  1.00  0.00     0.013 A 
ATOM     20  C   UNL     1      -1.551   0.183  -0.171  1.00  0.00     0.194 C 
ATOM     21  O   UNL     1       1.641  -1.751  -0.003  1.00  0.00    -0.288 OA
ATOM     22  C   UNL     1       0.340  -0.615  -1.529  1.00  0.00     0.034 A 
ATOM     23  C   UNL     1      -0.972  -0.161  -1.482  1.00  0.00     0.034 A 
ATOM     24  O   UNL     1      -2.760   0.333  -0.049  1.00  0.00    -0.289 OA
ATOM     25  C   UNL     1       0.860  -1.125  -2.720  1.00  0.00     0.013 A 
ATOM     26  C   UNL     1      -1.749  -0.138  -2.644  1.00  0.00     0.013 A 
ATOM     27  C   UNL     1       0.096  -1.085  -3.888  1.00  0.00     0.001 A 
ATOM     28  C   UNL     1      -1.204  -0.581  -3.852  1.00  0.00     0.001 A 
ENDBRANCH  11  13
ENDBRANCH   8   9
ENDBRANCH   7   8
ENDBRANCH   5   7
ENDBRANCH   2   3
ENDBRANCH   1   2
BRANCH   1  29
ATOM     29  C   UNL     1       5.103  -4.296   1.567  1.00  0.00     0.023 C 
BRANCH  29  30
ATOM     30  C   UNL     1       5.447  -3.957   3.012  1.00  0.00     0.116 C 
BRANCH  30  31
ATOM     31  N   UNL     1       4.443  -4.328   3.999  1.00  0.00    -0.352 N 
ATOM     32  C   UNL     1       4.702  -4.660   5.319  1.00  0.00     0.251 C 
ATOM     33  H   UNL     1       3.504  -4.343   3.705  1.00  0.00     0.163 HD
ATOM     34  O   UNL     1       3.829  -4.996   6.099  1.00  0.00    -0.269 OA
BRANCH  32  35
ATOM     35  C   UNL     1       6.123  -4.633   5.733  1.00  0.00     0.039 A 
ATOM     36  C   UNL     1       6.780  -5.845   5.950  1.00  0.00     0.014 A 
ATOM     37  C   UNL     1       6.832  -3.433   5.636  1.00  0.00     0.014 A 
ATOM     38  C   UNL     1       8.176  -5.864   5.982  1.00  0.00     0.010 A 
ATOM     39  C   UNL     1       8.221  -3.471   5.586  1.00  0.00     0.010 A 
ATOM     40  C   UNL     1       8.907  -4.687   5.746  1.00  0.00    -0.014 A 
BRANCH  40  41
ATOM     41  C   UNL     1      10.390  -4.706   5.652  1.00  0.00     0.031 A 
ATOM     42  C   UNL     1      11.208  -3.926   6.641  1.00  0.00     0.074 A 
ATOM     43  C   UNL     1      10.999  -5.359   4.641  1.00  0.00     0.049 A 
ATOM     44  N   UNL     1      12.504  -3.754   6.691  1.00  0.00    -0.248 NA
ATOM     45  C   UNL     1      10.466  -3.215   7.695  1.00  0.00     0.031 C 
ATOM     46  C   UNL     1      10.321  -6.100   3.575  1.00  0.00     0.029 A 
ATOM     47  N   UNL     1      12.332  -5.497   4.342  1.00  0.00    -0.354 N 
ATOM     48  C   UNL     1      12.728  -2.903   7.765  1.00  0.00     0.074 A 
ATOM     49  C   UNL     1      11.433  -2.544   8.299  1.00  0.00     0.031 C 
ATOM     50  C   UNL     1      11.243  -6.635   2.756  1.00  0.00     0.029 A 
ATOM     51  C   UNL     1      12.573  -6.253   3.220  1.00  0.00     0.049 A 
ATOM     52  H   UNL     1      13.049  -5.092   4.881  1.00  0.00     0.167 HD
ATOM     53  C   UNL     1      13.906  -2.483   8.283  1.00  0.00     0.037 A 
ATOM     54  C   UNL     1      13.735  -6.600   2.633  1.00  0.00     0.037 A 
ATOM     55  C   UNL     1      15.195  -2.869   7.777  1.00  0.00     0.049 A 
ATOM     56  C   UNL     1      15.033  -6.143   3.241  1.00  0.00     0.074 A 
ATOM     57  C   UNL     1      16.447  -2.547   8.271  1.00  0.00     0.029 A 
ATOM     58  N   UNL     1      15.396  -3.668   6.663  1.00  0.00    -0.354 N 
ATOM     59  N   UNL     1      15.231  -5.396   4.300  1.00  0.00    -0.248 NA
ATOM     60  C   UNL     1      16.269  -6.583   2.577  1.00  0.00     0.031 C 
ATOM     61  C   UNL     1      17.407  -3.128   7.437  1.00  0.00     0.029 A 
ATOM     62  C   UNL     1      16.753  -3.842   6.446  1.00  0.00     0.049 A 
ATOM     63  H   UNL     1      14.681  -4.055   6.108  1.00  0.00     0.167 HD
ATOM     64  C   UNL     1      16.609  -5.297   4.444  1.00  0.00     0.074 A 
ATOM     65  C   UNL     1      17.199  -6.072   3.372  1.00  0.00     0.031 C 
ATOM     66  C   UNL     1      17.322  -4.625   5.380  1.00  0.00     0.037 A 
BRANCH  53  67
ATOM     67  C   UNL     1      13.843  -1.568   9.470  1.00  0.00     0.057 A 
ATOM     68  C   UNL     1      13.425  -2.024  10.728  1.00  0.00     0.134 A 
ATOM     69  C   UNL     1      14.209  -0.222   9.359  1.00  0.00     0.134 A 
ATOM     70  F   UNL     1      13.045  -3.300  10.896  1.00  0.00    -0.206 F 
ATOM     71  C   UNL     1      13.344  -1.166  11.825  1.00  0.00     0.040 A 
ATOM     72  C   UNL     1      14.157   0.640  10.456  1.00  0.00     0.040 A 
ATOM     73  F   UNL     1      14.620   0.278   8.184  1.00  0.00    -0.206 F 
ATOM     74  C   UNL     1      13.716   0.170  11.691  1.00  0.00     0.006 A 
ENDBRANCH  53  67
BRANCH  54  75
ATOM     75  C   UNL     1      13.732  -7.455   1.418  1.00  0.00     0.057 A 
ATOM     76  C   UNL     1      14.159  -8.787   1.473  1.00  0.00     0.134 A 
ATOM     77  C   UNL     1      13.317  -6.962   0.176  1.00  0.00     0.134 A 
ATOM     78  F   UNL     1      14.587  -9.311   2.631  1.00  0.00    -0.206 F 
ATOM     79  C   UNL     1      14.191  -9.594   0.334  1.00  0.00     0.040 A 
ATOM     80  C   UNL     1      13.324  -7.763  -0.967  1.00  0.00     0.040 A 
ATOM     81  F   UNL     1      12.893  -5.695   0.058  1.00  0.00    -0.206 F 
ATOM     82  C   UNL     1      13.768  -9.082  -0.891  1.00  0.00     0.006 A 
ENDBRANCH  54  75
BRANCH  66  83
ATOM     83  C   UNL     1      18.816  -4.722   5.307  1.00  0.00     0.057 A 
ATOM     84  C   UNL     1      19.552  -4.039   4.331  1.00  0.00     0.134 A 
ATOM     85  C   UNL     1      19.528  -5.468   6.254  1.00  0.00     0.134 A 
ATOM     86  F   UNL     1      18.927  -3.317   3.389  1.00  0.00    -0.206 F 
ATOM     87  C   UNL     1      20.946  -4.110   4.289  1.00  0.00     0.040 A 
ATOM     88  C   UNL     1      20.922  -5.528   6.236  1.00  0.00     0.040 A 
ATOM     89  F   UNL     1      18.882  -6.138   7.220  1.00  0.00    -0.206 F 
ATOM     90  C   UNL     1      21.634  -4.850   5.249  1.00  0.00     0.006 A 
ENDBRANCH  66  83
ENDBRANCH  40  41
ENDBRANCH  32  35
ENDBRANCH  30  31
ENDBRANCH  29  30
ENDBRANCH   1  29
TORSDOF 14
