REMARK SMILES O=C(C[C@H]1CC[C@@H](C(=O)NCCCCNC(=O)c2ccc(-c3c4nc(c(-c5c(F)cccc5F)c5ccc([nH]5)c(-c5c(F)cccc5F)c5nc(c(-c6c(F)cccc6F)c6ccc3[nH]6)C=C5)C=C4)cc2)C1)c1ccc(Cl)cc1
REMARK SMILES IDX 12 1 11 2 10 3 8 4 9 5 7 7 4 8 5 9 72 10 6 11 3 12 2 13 1 14
REMARK SMILES IDX 73 15 74 16 79 17 75 18 78 19 76 20 77 21 13 22 14 23 15 24
REMARK SMILES IDX 16 25 17 27 18 28 19 29 71 30 20 31 70 32 21 33 22 34 23 35
REMARK SMILES IDX 64 36 24 37 69 38 63 39 65 40 25 41 68 42 62 43 61 44 26 46
REMARK SMILES IDX 52 47 35 48 51 49 36 50 39 51 50 52 66 53 37 54 38 55 49 57
REMARK SMILES IDX 67 58 40 59 27 60 28 61 33 62 29 63 30 64 32 65 34 66 31 67
REMARK SMILES IDX 53 68 54 69 59 70 55 71 56 72 58 73 60 74 57 75 41 76 42 77
REMARK SMILES IDX 47 78 43 79 44 80 46 81 48 82 45 83
REMARK H PARENT 10 6 15 26 65 45 39 56
REMARK Flexibility Score: inf
ROOT
ATOM      1  C   UNL     1       1.917  -5.008   3.067  1.00  0.00     0.023 C 
ENDROOT
BRANCH   1   2
ATOM      2  C   UNL     1       2.652  -3.693   2.825  1.00  0.00     0.116 C 
BRANCH   2   3
ATOM      3  N   UNL     1       3.673  -3.373   3.801  1.00  0.00    -0.356 N 
ATOM      4  C   UNL     1       4.762  -2.555   3.715  1.00  0.00     0.223 C 
ATOM      5  O   UNL     1       5.401  -2.385   4.757  1.00  0.00    -0.275 OA
ATOM      6  H   UNL     1       3.563  -3.821   4.671  1.00  0.00     0.163 HD
BRANCH   4   7
ATOM      7  C   UNL     1       5.261  -1.999   2.372  1.00  0.00     0.079 C 
ATOM      8  C   UNL     1       4.367   0.185   1.690  1.00  0.00    -0.003 C 
ATOM      9  C   UNL     1       5.883   0.339   1.834  1.00  0.00     0.005 C 
ATOM     10  C   UNL     1       4.240  -1.317   1.468  1.00  0.00     0.017 C 
ATOM     11  C   UNL     1       6.362  -0.928   2.550  1.00  0.00     0.014 C 
BRANCH   8  12
ATOM     12  C   UNL     1       3.602   0.779   2.883  1.00  0.00     0.084 C 
BRANCH  12  13
ATOM     13  C   UNL     1       2.303   0.153   3.383  1.00  0.00     0.163 C 
ATOM     14  O   UNL     1       2.196  -0.136   4.579  1.00  0.00    -0.294 OA
BRANCH  13  15
ATOM     15  C   UNL     1       1.107  -0.097   2.513  1.00  0.00     0.018 A 
ATOM     16  C   UNL     1       1.139  -0.127   1.116  1.00  0.00     0.013 A 
ATOM     17  C   UNL     1      -0.095  -0.439   3.160  1.00  0.00     0.013 A 
ATOM     18  C   UNL     1       0.038  -0.603   0.391  1.00  0.00     0.021 A 
ATOM     19  C   UNL     1      -1.210  -0.866   2.434  1.00  0.00     0.021 A 
ATOM     20  C   UNL     1      -1.126  -0.982   1.052  1.00  0.00     0.041 A 
ATOM     21  Cl  UNL     1      -2.448  -1.617   0.157  1.00  0.00    -0.084 Cl
ENDBRANCH  13  15
ENDBRANCH  12  13
ENDBRANCH   8  12
ENDBRANCH   4   7
ENDBRANCH   2   3
ENDBRANCH   1   2
BRANCH   1  22
ATOM     22  C   UNL     1       1.214  -5.171   4.415  1.00  0.00     0.023 C 
BRANCH  22  23
ATOM     23  C   UNL     1       0.223  -4.084   4.826  1.00  0.00     0.116 C 
BRANCH  23  24
ATOM     24  N   UNL     1      -0.900  -3.923   3.915  1.00  0.00    -0.352 N 
ATOM     25  C   UNL     1      -2.255  -3.839   4.157  1.00  0.00     0.251 C 
ATOM     26  H   UNL     1      -0.650  -3.864   2.965  1.00  0.00     0.163 HD
ATOM     27  O   UNL     1      -3.027  -3.700   3.215  1.00  0.00    -0.269 OA
BRANCH  25  28
ATOM     28  C   UNL     1      -2.807  -3.977   5.526  1.00  0.00     0.039 A 
ATOM     29  C   UNL     1      -3.924  -4.804   5.695  1.00  0.00     0.014 A 
ATOM     30  C   UNL     1      -2.230  -3.355   6.635  1.00  0.00     0.014 A 
ATOM     31  C   UNL     1      -4.357  -5.136   6.979  1.00  0.00     0.010 A 
ATOM     32  C   UNL     1      -2.621  -3.735   7.920  1.00  0.00     0.010 A 
ATOM     33  C   UNL     1      -3.648  -4.673   8.098  1.00  0.00    -0.014 A 
BRANCH  33  34
ATOM     34  C   UNL     1      -3.852  -5.303   9.426  1.00  0.00     0.031 A 
ATOM     35  C   UNL     1      -4.440  -4.546  10.575  1.00  0.00     0.074 A 
ATOM     36  C   UNL     1      -3.413  -6.567   9.600  1.00  0.00     0.049 A 
ATOM     37  N   UNL     1      -4.642  -4.947  11.805  1.00  0.00    -0.248 NA
ATOM     38  C   UNL     1      -4.839  -3.155  10.319  1.00  0.00     0.031 C 
ATOM     39  C   UNL     1      -2.768  -7.385   8.568  1.00  0.00     0.029 A 
ATOM     40  N   UNL     1      -3.428  -7.381  10.703  1.00  0.00    -0.354 N 
ATOM     41  C   UNL     1      -5.191  -3.861  12.472  1.00  0.00     0.074 A 
ATOM     42  C   UNL     1      -5.257  -2.772  11.518  1.00  0.00     0.031 C 
ATOM     43  C   UNL     1      -2.468  -8.588   9.081  1.00  0.00     0.029 A 
ATOM     44  C   UNL     1      -2.863  -8.615  10.484  1.00  0.00     0.049 A 
ATOM     45  H   UNL     1      -3.806  -7.108  11.570  1.00  0.00     0.167 HD
ATOM     46  C   UNL     1      -5.613  -3.788  13.757  1.00  0.00     0.037 A 
ATOM     47  C   UNL     1      -2.675  -9.652  11.320  1.00  0.00     0.037 A 
ATOM     48  C   UNL     1      -5.544  -4.875  14.700  1.00  0.00     0.049 A 
ATOM     49  C   UNL     1      -3.136  -9.536  12.743  1.00  0.00     0.074 A 
ATOM     50  C   UNL     1      -6.003  -4.915  16.006  1.00  0.00     0.029 A 
ATOM     51  N   UNL     1      -4.966  -6.109  14.443  1.00  0.00    -0.354 N 
ATOM     52  N   UNL     1      -3.728  -8.529  13.337  1.00  0.00    -0.248 NA
ATOM     53  C   UNL     1      -2.902 -10.698  13.611  1.00  0.00     0.031 C 
ATOM     54  C   UNL     1      -5.669  -6.161  16.550  1.00  0.00     0.029 A 
ATOM     55  C   UNL     1      -5.033  -6.909  15.573  1.00  0.00     0.049 A 
ATOM     56  H   UNL     1      -4.569  -6.378  13.583  1.00  0.00     0.167 HD
ATOM     57  C   UNL     1      -3.949  -8.938  14.644  1.00  0.00     0.074 A 
ATOM     58  C   UNL     1      -3.446 -10.292  14.751  1.00  0.00     0.031 C 
ATOM     59  C   UNL     1      -4.516  -8.251  15.665  1.00  0.00     0.037 A 
BRANCH  46  60
ATOM     60  C   UNL     1      -6.190  -2.484  14.219  1.00  0.00     0.057 A 
ATOM     61  C   UNL     1      -7.461  -2.058  13.812  1.00  0.00     0.134 A 
ATOM     62  C   UNL     1      -5.487  -1.663  15.111  1.00  0.00     0.134 A 
ATOM     63  F   UNL     1      -8.181  -2.795  12.953  1.00  0.00    -0.206 F 
ATOM     64  C   UNL     1      -8.005  -0.853  14.260  1.00  0.00     0.040 A 
ATOM     65  C   UNL     1      -6.029  -0.466  15.581  1.00  0.00     0.040 A 
ATOM     66  F   UNL     1      -4.268  -2.016  15.544  1.00  0.00    -0.206 F 
ATOM     67  C   UNL     1      -7.290  -0.056  15.151  1.00  0.00     0.006 A 
ENDBRANCH  46  60
BRANCH  47  68
ATOM     68  C   UNL     1      -2.029 -10.893  10.827  1.00  0.00     0.057 A 
ATOM     69  C   UNL     1      -2.770 -12.064  10.637  1.00  0.00     0.134 A 
ATOM     70  C   UNL     1      -0.662 -10.936  10.527  1.00  0.00     0.134 A 
ATOM     71  F   UNL     1      -4.080 -12.087  10.924  1.00  0.00    -0.206 F 
ATOM     72  C   UNL     1      -2.173 -13.240  10.179  1.00  0.00     0.040 A 
ATOM     73  C   UNL     1      -0.056 -12.099  10.048  1.00  0.00     0.040 A 
ATOM     74  F   UNL     1       0.100  -9.843  10.681  1.00  0.00    -0.206 F 
ATOM     75  C   UNL     1      -0.812 -13.257   9.879  1.00  0.00     0.006 A 
ENDBRANCH  47  68
BRANCH  59  76
ATOM     76  C   UNL     1      -4.622  -8.959  16.981  1.00  0.00     0.057 A 
ATOM     77  C   UNL     1      -3.503  -9.152  17.800  1.00  0.00     0.134 A 
ATOM     78  C   UNL     1      -5.856  -9.432  17.443  1.00  0.00     0.134 A 
ATOM     79  F   UNL     1      -2.291  -8.737  17.404  1.00  0.00    -0.206 F 
ATOM     80  C   UNL     1      -3.605  -9.807  19.028  1.00  0.00     0.040 A 
ATOM     81  C   UNL     1      -5.974 -10.070  18.678  1.00  0.00     0.040 A 
ATOM     82  F   UNL     1      -6.965  -9.276  16.705  1.00  0.00    -0.206 F 
ATOM     83  C   UNL     1      -4.845 -10.262  19.473  1.00  0.00     0.006 A 
ENDBRANCH  59  76
ENDBRANCH  33  34
ENDBRANCH  25  28
ENDBRANCH  23  24
ENDBRANCH  22  23
ENDBRANCH   1  22
TORSDOF 14
