REMARK SMILES COc1c(C)cccc1C(=O)NC(=S)Nc1ccc(C(=O)NCCCCNC(=O)c2ccc(-c3c4nc(c(-c5c(F)cccc5F)c5ccc([nH]5)c(-c5c(F)cccc5F)c5nc(c(-c6c(F)cccc6F)c6ccc3[nH]6)C=C5)C=C4)cc2)cc1C
REMARK SMILES IDX 23 1 22 2 20 3 21 4 19 6 16 7 17 8 85 9 18 10 84 11 86 12
REMARK SMILES IDX 15 13 13 15 14 16 12 17 10 18 11 19 9 21 3 22 4 23 5 24 6 25
REMARK SMILES IDX 8 26 7 27 2 28 1 29 24 30 25 31 26 32 27 33 28 34 29 36
REMARK SMILES IDX 30 37 31 38 83 39 32 40 82 41 33 42 34 43 35 44 76 45 36 46
REMARK SMILES IDX 81 47 75 48 77 49 37 50 80 51 74 52 73 53 38 55 64 56 47 57
REMARK SMILES IDX 63 58 48 59 51 60 62 61 78 62 49 63 50 64 61 66 79 67 52 68
REMARK SMILES IDX 39 69 40 70 45 71 41 72 42 73 44 74 46 75 43 76 65 77 66 78
REMARK SMILES IDX 71 79 67 80 68 81 70 82 72 83 69 84 53 85 54 86 59 87 55 88
REMARK SMILES IDX 56 89 58 90 60 91 57 92
REMARK H PARENT 22 5 15 14 12 20 27 35 77 54 51 65
REMARK Flexibility Score: inf
ROOT
ATOM      1  C   UNL     1       0.537  -6.722   0.877  1.00  0.00     0.116 C 
ENDROOT
BRANCH   1   2
ATOM      2  N   UNL     1       1.906  -6.943   1.338  1.00  0.00    -0.352 N 
ATOM      3  C   UNL     1       2.990  -6.106   1.463  1.00  0.00     0.251 C 
ATOM      4  O   UNL     1       4.010  -6.512   2.015  1.00  0.00    -0.269 OA
ATOM      5  H   UNL     1       2.087  -7.871   1.613  1.00  0.00     0.163 HD
BRANCH   3   6
ATOM      6  C   UNL     1       2.902  -4.665   1.141  1.00  0.00     0.040 A 
ATOM      7  C   UNL     1       1.911  -1.151   1.088  1.00  0.00     0.043 A 
ATOM      8  C   UNL     1       1.687  -2.219  -0.402  1.00  0.00     0.027 A 
ATOM      9  C   UNL     1       2.824  -1.819   2.498  1.00  0.00    -0.027 A 
ATOM     10  C   UNL     1       2.035  -4.018  -0.310  1.00  0.00     0.016 A 
ATOM     11  C   UNL     1       3.362  -3.548   2.523  1.00  0.00     0.019 A 
ATOM     12  C   UNL     1       3.348  -0.892   3.554  1.00  0.00     0.046 C 
BRANCH   7  13
ATOM     13  N   UNL     1       1.221   0.074   1.347  1.00  0.00    -0.332 N 
ATOM     14  H   UNL     1       1.770   0.853   1.099  1.00  0.00     0.169 HD
BRANCH  13  15
ATOM     15  C   UNL     1       0.012   0.459   1.843  1.00  0.00     0.177 C 
ATOM     16  S   UNL     1      -0.121   2.108   2.180  1.00  0.00    -0.040 S 
BRANCH  15  17
ATOM     17  N   UNL     1      -1.158  -0.236   2.096  1.00  0.00    -0.299 N 
ATOM     18  C   UNL     1      -1.865  -1.469   2.160  1.00  0.00     0.261 C 
ATOM     19  O   UNL     1      -3.065  -1.500   2.422  1.00  0.00    -0.269 OA
ATOM     20  H   UNL     1      -1.813   0.450   2.357  1.00  0.00     0.172 HD
BRANCH  18  21
ATOM     21  C   UNL     1      -1.118  -2.701   2.031  1.00  0.00     0.082 A 
ATOM     22  C   UNL     1      -0.048  -2.646   1.139  1.00  0.00     0.134 A 
ATOM     23  C   UNL     1       1.388  -3.161   1.531  1.00  0.00    -0.008 A 
ATOM     24  C   UNL     1       3.263  -2.691   0.676  1.00  0.00     0.048 C 
ATOM     25  C   UNL     1       1.089  -4.038   2.786  1.00  0.00     0.007 A 
ATOM     26  C   UNL     1      -1.234  -3.595   3.088  1.00  0.00     0.018 A 
ATOM     27  C   UNL     1      -0.127  -4.309   3.437  1.00  0.00     0.001 A 
BRANCH  22  28
ATOM     28  O   UNL     1      -0.575  -2.429  -0.171  1.00  0.00    -0.496 OA
ATOM     29  C   UNL     1      -0.847  -1.097  -0.700  1.00  0.00     0.278 C 
ENDBRANCH  22  28
ENDBRANCH  18  21
ENDBRANCH  15  17
ENDBRANCH  13  15
ENDBRANCH   7  13
ENDBRANCH   3   6
ENDBRANCH   1   2
BRANCH   1  30
ATOM     30  C   UNL     1       0.293  -7.292  -0.520  1.00  0.00     0.023 C 
BRANCH  30  31
ATOM     31  C   UNL     1       0.459  -8.802  -0.619  1.00  0.00     0.023 C 
BRANCH  31  32
ATOM     32  C   UNL     1      -0.689  -9.614  -0.046  1.00  0.00     0.116 C 
BRANCH  32  33
ATOM     33  N   UNL     1      -1.843  -9.722  -0.929  1.00  0.00    -0.352 N 
ATOM     34  C   UNL     1      -2.865 -10.656  -0.977  1.00  0.00     0.251 C 
ATOM     35  H   UNL     1      -1.907  -9.011  -1.607  1.00  0.00     0.163 HD
ATOM     36  O   UNL     1      -3.659 -10.611  -1.915  1.00  0.00    -0.269 OA
BRANCH  34  37
ATOM     37  C   UNL     1      -3.154 -11.560   0.178  1.00  0.00     0.039 A 
ATOM     38  C   UNL     1      -4.519 -11.753   0.447  1.00  0.00     0.014 A 
ATOM     39  C   UNL     1      -2.240 -11.660   1.210  1.00  0.00     0.014 A 
ATOM     40  C   UNL     1      -4.972 -11.595   1.745  1.00  0.00     0.010 A 
ATOM     41  C   UNL     1      -2.666 -11.284   2.447  1.00  0.00     0.010 A 
ATOM     42  C   UNL     1      -4.036 -11.197   2.685  1.00  0.00    -0.014 A 
BRANCH  42  43
ATOM     43  C   UNL     1      -4.327 -10.828   4.043  1.00  0.00     0.031 A 
ATOM     44  C   UNL     1      -4.286 -11.950   4.989  1.00  0.00     0.074 A 
ATOM     45  C   UNL     1      -4.333  -9.503   4.314  1.00  0.00     0.049 A 
ATOM     46  N   UNL     1      -4.862 -11.963   6.129  1.00  0.00    -0.248 NA
ATOM     47  C   UNL     1      -3.628 -13.227   4.684  1.00  0.00     0.031 C 
ATOM     48  C   UNL     1      -4.231  -8.805   5.586  1.00  0.00     0.029 A 
ATOM     49  N   UNL     1      -4.619  -8.479   3.398  1.00  0.00    -0.354 N 
ATOM     50  C   UNL     1      -4.312 -13.012   6.840  1.00  0.00     0.074 A 
ATOM     51  C   UNL     1      -3.715 -13.866   5.853  1.00  0.00     0.031 C 
ATOM     52  C   UNL     1      -4.775  -7.578   5.452  1.00  0.00     0.029 A 
ATOM     53  C   UNL     1      -5.339  -7.499   4.113  1.00  0.00     0.049 A 
ATOM     54  H   UNL     1      -4.368  -8.451   2.447  1.00  0.00     0.167 HD
ATOM     55  C   UNL     1      -4.262 -12.885   8.195  1.00  0.00     0.037 A 
ATOM     56  C   UNL     1      -6.666  -7.320   3.833  1.00  0.00     0.037 A 
ATOM     57  C   UNL     1      -4.909 -11.623   8.562  1.00  0.00     0.049 A 
ATOM     58  C   UNL     1      -7.523  -7.819   4.974  1.00  0.00     0.074 A 
ATOM     59  C   UNL     1      -4.396 -10.364   8.828  1.00  0.00     0.029 A 
ATOM     60  N   UNL     1      -6.251 -11.448   8.251  1.00  0.00    -0.354 N 
ATOM     61  N   UNL     1      -7.177  -8.790   5.781  1.00  0.00    -0.248 NA
ATOM     62  C   UNL     1      -8.765  -7.166   5.376  1.00  0.00     0.031 C 
ATOM     63  C   UNL     1      -5.437  -9.421   8.603  1.00  0.00     0.029 A 
ATOM     64  C   UNL     1      -6.572 -10.108   8.202  1.00  0.00     0.049 A 
ATOM     65  H   UNL     1      -6.888 -12.182   8.088  1.00  0.00     0.167 HD
ATOM     66  C   UNL     1      -8.072  -8.853   6.820  1.00  0.00     0.074 A 
ATOM     67  C   UNL     1      -9.051  -7.826   6.511  1.00  0.00     0.031 C 
ATOM     68  C   UNL     1      -7.931  -9.693   7.891  1.00  0.00     0.037 A 
BRANCH  55  69
ATOM     69  C   UNL     1      -3.422 -13.685   9.167  1.00  0.00     0.057 A 
ATOM     70  C   UNL     1      -3.244 -13.206  10.483  1.00  0.00     0.134 A 
ATOM     71  C   UNL     1      -2.743 -14.887   8.902  1.00  0.00     0.134 A 
ATOM     72  F   UNL     1      -3.859 -12.099  10.921  1.00  0.00    -0.206 F 
ATOM     73  C   UNL     1      -2.426 -13.836  11.430  1.00  0.00     0.040 A 
ATOM     74  C   UNL     1      -1.915 -15.526   9.840  1.00  0.00     0.040 A 
ATOM     75  F   UNL     1      -2.855 -15.536   7.741  1.00  0.00    -0.206 F 
ATOM     76  C   UNL     1      -1.749 -14.998  11.109  1.00  0.00     0.006 A 
ENDBRANCH  55  69
BRANCH  56  77
ATOM     77  C   UNL     1      -6.926  -7.438   2.363  1.00  0.00     0.057 A 
ATOM     78  C   UNL     1      -6.335  -6.451   1.546  1.00  0.00     0.134 A 
ATOM     79  C   UNL     1      -7.192  -8.672   1.762  1.00  0.00     0.134 A 
ATOM     80  F   UNL     1      -6.097  -5.227   2.043  1.00  0.00    -0.206 F 
ATOM     81  C   UNL     1      -5.822  -6.747   0.279  1.00  0.00     0.040 A 
ATOM     82  C   UNL     1      -6.709  -8.966   0.478  1.00  0.00     0.040 A 
ATOM     83  F   UNL     1      -7.772  -9.662   2.457  1.00  0.00    -0.206 F 
ATOM     84  C   UNL     1      -5.960  -8.030  -0.234  1.00  0.00     0.006 A 
ENDBRANCH  56  77
BRANCH  68  85
ATOM     85  C   UNL     1      -9.046 -10.123   8.823  1.00  0.00     0.057 A 
ATOM     86  C   UNL     1     -10.410  -9.995   8.527  1.00  0.00     0.134 A 
ATOM     87  C   UNL     1      -8.770 -10.844  10.013  1.00  0.00     0.134 A 
ATOM     88  F   UNL     1     -10.840  -9.488   7.366  1.00  0.00    -0.206 F 
ATOM     89  C   UNL     1     -11.415 -10.445   9.391  1.00  0.00     0.040 A 
ATOM     90  C   UNL     1      -9.764 -11.377  10.834  1.00  0.00     0.040 A 
ATOM     91  F   UNL     1      -7.522 -11.101  10.429  1.00  0.00    -0.206 F 
ATOM     92  C   UNL     1     -11.095 -11.148  10.544  1.00  0.00     0.006 A 
ENDBRANCH  68  85
ENDBRANCH  42  43
ENDBRANCH  34  37
ENDBRANCH  32  33
ENDBRANCH  31  32
ENDBRANCH  30  31
ENDBRANCH   1  30
TORSDOF 16
