REMARK SMILES CC1(C)S[C@@H](c2cccc3c2sc2ccccc23)[NH2+][C@@H]1C(=O)NCCCCNC(=O)c1ccc(-c2c3nc(c(-c4c(F)cccc4F)c4ccc([nH]4)c(-c4c(F)cccc4F)c4nc(c(-c5c(F)cccc5F)c5ccc2[nH]5)C=C4)C=C3)cc1
REMARK SMILES IDX 26 1 25 2 24 3 23 4 21 5 22 6 20 8 1 9 2 10 3 11 4 12 5 13
REMARK SMILES IDX 19 14 6 17 7 18 11 19 8 20 10 21 12 22 9 23 18 24 13 25
REMARK SMILES IDX 17 26 14 27 16 28 15 29 27 30 28 31 29 32 30 34 31 35 32 36
REMARK SMILES IDX 84 37 33 38 83 39 34 40 35 41 36 42 77 43 37 44 82 45 76 46
REMARK SMILES IDX 78 47 38 48 81 49 75 50 74 51 39 53 65 54 48 55 64 56 49 57
REMARK SMILES IDX 52 58 63 59 79 60 50 61 51 62 62 64 80 65 53 66 40 67 41 68
REMARK SMILES IDX 46 69 42 70 43 71 45 72 47 73 44 74 66 75 67 76 72 77 68 78
REMARK SMILES IDX 69 79 71 80 73 81 70 82 54 83 55 84 60 85 56 86 57 87 59 88
REMARK SMILES IDX 61 89 58 90
REMARK H PARENT 23 7 19 15 19 16 28 33 78 52 52 63
REMARK Flexibility Score: inf
ROOT
ATOM      1  C   UNL     1      -3.412   3.567  -4.010  1.00  0.00     0.023 C 
ENDROOT
BRANCH   1   2
ATOM      2  C   UNL     1      -3.046   3.656  -2.532  1.00  0.00     0.023 C 
BRANCH   2   3
ATOM      3  C   UNL     1      -2.612   2.348  -1.882  1.00  0.00     0.116 C 
BRANCH   3   4
ATOM      4  N   UNL     1      -1.450   1.766  -2.529  1.00  0.00    -0.351 N 
ATOM      5  C   UNL     1      -0.305   1.229  -2.013  1.00  0.00     0.279 C 
ATOM      6  O   UNL     1       0.523   0.862  -2.850  1.00  0.00    -0.268 OA
ATOM      7  H   UNL     1      -1.494   1.757  -3.512  1.00  0.00     0.163 HD
BRANCH   5   8
ATOM      8  C   UNL     1      -0.013   1.216  -0.482  1.00  0.00     0.289 C 
ATOM      9  C   UNL     1       1.585   0.586   1.404  1.00  0.00     0.030 C 
ATOM     10  C   UNL     1       1.006   0.159   0.038  1.00  0.00     0.077 C 
ATOM     11  C   UNL     1       2.179  -0.195  -0.877  1.00  0.00     0.030 C 
ATOM     12  S   UNL     1      -0.030  -1.327   0.330  1.00  0.00    -0.081 SA
ATOM     13  C   UNL     1      -1.592  -0.407   0.246  1.00  0.00     0.276 C 
ATOM     14  N   UNL     1      -1.255   1.017   0.315  1.00  0.00    -0.320 N 
ATOM     15  H   UNL     1      -1.096   1.292   1.284  1.00  0.00     0.348 HD
ATOM     16  H   UNL     1      -2.016   1.587  -0.054  1.00  0.00     0.348 HD
BRANCH  13  17
ATOM     17  C   UNL     1      -2.591  -0.777   1.328  1.00  0.00     0.038 A 
ATOM     18  C   UNL     1      -2.222  -0.695   2.692  1.00  0.00     0.012 A 
ATOM     19  C   UNL     1      -3.937  -1.164   1.054  1.00  0.00     0.046 A 
ATOM     20  C   UNL     1      -3.107  -0.987   3.717  1.00  0.00     0.001 A 
ATOM     21  C   UNL     1      -4.843  -1.486   2.071  1.00  0.00     0.001 A 
ATOM     22  S   UNL     1      -4.704  -1.299  -0.488  1.00  0.00    -0.135 S 
ATOM     23  C   UNL     1      -4.403  -1.388   3.416  1.00  0.00     0.010 A 
ATOM     24  C   UNL     1      -6.140  -1.891   1.558  1.00  0.00     0.000 A 
ATOM     25  C   UNL     1      -6.196  -1.819   0.168  1.00  0.00     0.036 A 
ATOM     26  C   UNL     1      -7.304  -2.327   2.244  1.00  0.00     0.010 A 
ATOM     27  C   UNL     1      -7.367  -2.149  -0.544  1.00  0.00     0.019 A 
ATOM     28  C   UNL     1      -8.465  -2.668   1.544  1.00  0.00     0.001 A 
ATOM     29  C   UNL     1      -8.495  -2.575   0.161  1.00  0.00     0.002 A 
ENDBRANCH  13  17
ENDBRANCH   5   8
ENDBRANCH   3   4
ENDBRANCH   2   3
ENDBRANCH   1   2
BRANCH   1  30
ATOM     30  C   UNL     1      -4.454   2.513  -4.358  1.00  0.00     0.116 C 
BRANCH  30  31
ATOM     31  N   UNL     1      -5.724   2.723  -3.678  1.00  0.00    -0.352 N 
ATOM     32  C   UNL     1      -6.983   2.860  -4.209  1.00  0.00     0.251 C 
ATOM     33  H   UNL     1      -5.672   2.775  -2.696  1.00  0.00     0.163 HD
ATOM     34  O   UNL     1      -7.926   3.186  -3.493  1.00  0.00    -0.269 OA
BRANCH  32  35
ATOM     35  C   UNL     1      -7.199   2.640  -5.654  1.00  0.00     0.039 A 
ATOM     36  C   UNL     1      -7.977   3.552  -6.371  1.00  0.00     0.014 A 
ATOM     37  C   UNL     1      -6.625   1.543  -6.302  1.00  0.00     0.014 A 
ATOM     38  C   UNL     1      -8.127   3.398  -7.751  1.00  0.00     0.010 A 
ATOM     39  C   UNL     1      -6.699   1.444  -7.687  1.00  0.00     0.010 A 
ATOM     40  C   UNL     1      -7.461   2.361  -8.426  1.00  0.00    -0.014 A 
BRANCH  40  41
ATOM     41  C   UNL     1      -7.572   2.201  -9.898  1.00  0.00     0.031 A 
ATOM     42  C   UNL     1      -8.186   0.954 -10.473  1.00  0.00     0.074 A 
ATOM     43  C   UNL     1      -7.070   3.145 -10.718  1.00  0.00     0.049 A 
ATOM     44  N   UNL     1      -8.315   0.594 -11.725  1.00  0.00    -0.248 NA
ATOM     45  C   UNL     1      -8.698  -0.036  -9.511  1.00  0.00     0.031 C 
ATOM     46  C   UNL     1      -6.408   4.378 -10.288  1.00  0.00     0.029 A 
ATOM     47  N   UNL     1      -7.031   3.209 -12.089  1.00  0.00    -0.354 N 
ATOM     48  C   UNL     1      -8.904  -0.664 -11.697  1.00  0.00     0.074 A 
ATOM     49  C   UNL     1      -9.049  -1.033 -10.307  1.00  0.00     0.031 C 
ATOM     50  C   UNL     1      -6.054   5.088 -11.371  1.00  0.00     0.029 A 
ATOM     51  C   UNL     1      -6.426   4.345 -12.571  1.00  0.00     0.049 A 
ATOM     52  H   UNL     1      -7.402   2.508 -12.671  1.00  0.00     0.167 HD
ATOM     53  C   UNL     1      -9.314  -1.432 -12.735  1.00  0.00     0.037 A 
ATOM     54  C   UNL     1      -6.192   4.738 -13.838  1.00  0.00     0.037 A 
ATOM     55  C   UNL     1      -9.188  -1.053 -14.118  1.00  0.00     0.049 A 
ATOM     56  C   UNL     1      -6.648   3.863 -14.973  1.00  0.00     0.074 A 
ATOM     57  C   UNL     1      -9.616  -1.738 -15.242  1.00  0.00     0.029 A 
ATOM     58  N   UNL     1      -8.586   0.114 -14.565  1.00  0.00    -0.354 N 
ATOM     59  N   UNL     1      -7.262   2.705 -14.933  1.00  0.00    -0.248 NA
ATOM     60  C   UNL     1      -6.387   4.356 -16.333  1.00  0.00     0.031 C 
ATOM     61  C   UNL     1      -9.229  -1.008 -16.371  1.00  0.00     0.029 A 
ATOM     62  C   UNL     1      -8.615   0.160 -15.949  1.00  0.00     0.049 A 
ATOM     63  H   UNL     1      -8.196   0.807 -13.984  1.00  0.00     0.167 HD
ATOM     64  C   UNL     1      -7.495   2.351 -16.256  1.00  0.00     0.074 A 
ATOM     65  C   UNL     1      -6.966   3.422 -17.074  1.00  0.00     0.031 C 
ATOM     66  C   UNL     1      -8.097   1.240 -16.750  1.00  0.00     0.037 A 
BRANCH  53  67
ATOM     67  C   UNL     1      -9.938  -2.759 -12.409  1.00  0.00     0.057 A 
ATOM     68  C   UNL     1     -11.190  -2.855 -11.784  1.00  0.00     0.134 A 
ATOM     69  C   UNL     1      -9.293  -3.956 -12.744  1.00  0.00     0.134 A 
ATOM     70  F   UNL     1     -11.857  -1.748 -11.423  1.00  0.00    -0.206 F 
ATOM     71  C   UNL     1     -11.761  -4.091 -11.475  1.00  0.00     0.040 A 
ATOM     72  C   UNL     1      -9.869  -5.198 -12.469  1.00  0.00     0.040 A 
ATOM     73  F   UNL     1      -8.096  -3.939 -13.349  1.00  0.00    -0.206 F 
ATOM     74  C   UNL     1     -11.102  -5.268 -11.825  1.00  0.00     0.006 A 
ENDBRANCH  53  67
BRANCH  54  75
ATOM     75  C   UNL     1      -5.517   6.034 -14.105  1.00  0.00     0.057 A 
ATOM     76  C   UNL     1      -6.210   7.103 -14.686  1.00  0.00     0.134 A 
ATOM     77  C   UNL     1      -4.163   6.231 -13.806  1.00  0.00     0.134 A 
ATOM     78  F   UNL     1      -7.504   6.971 -15.012  1.00  0.00    -0.206 F 
ATOM     79  C   UNL     1      -5.576   8.311 -14.984  1.00  0.00     0.040 A 
ATOM     80  C   UNL     1      -3.524   7.443 -14.073  1.00  0.00     0.040 A 
ATOM     81  F   UNL     1      -3.445   5.250 -13.241  1.00  0.00    -0.206 F 
ATOM     82  C   UNL     1      -4.229   8.484 -14.673  1.00  0.00     0.006 A 
ENDBRANCH  54  75
BRANCH  66  83
ATOM     83  C   UNL     1      -8.266   1.153 -18.239  1.00  0.00     0.057 A 
ATOM     84  C   UNL     1      -7.182   0.958 -19.105  1.00  0.00     0.134 A 
ATOM     85  C   UNL     1      -9.542   1.238 -18.813  1.00  0.00     0.134 A 
ATOM     86  F   UNL     1      -5.932   0.880 -18.623  1.00  0.00    -0.206 F 
ATOM     87  C   UNL     1      -7.357   0.881 -20.488  1.00  0.00     0.040 A 
ATOM     88  C   UNL     1      -9.733   1.130 -20.190  1.00  0.00     0.040 A 
ATOM     89  F   UNL     1     -10.626   1.413 -18.041  1.00  0.00    -0.206 F 
ATOM     90  C   UNL     1      -8.637   0.960 -21.033  1.00  0.00     0.006 A 
ENDBRANCH  66  83
ENDBRANCH  40  41
ENDBRANCH  32  35
ENDBRANCH  30  31
ENDBRANCH   1  30
TORSDOF 12
