REMARK SMILES NS(=O)(=O)c1ccc(N2N=C(C(=O)NCCCCNC(=O)c3ccc(-c4c5nc(c(-c6c(F)cccc6F)c6ccc([nH]6)c(-c6c(F)cccc6F)c6nc(c(-c7c(F)cccc7F)c7ccc4[nH]7)C=C6)C=C5)cc3)C[C@H]2c2ccco2)cc1
REMARK SMILES IDX 16 1 15 2 14 3 12 4 13 5 11 7 9 8 10 9 77 10 76 11 8 12 5 13
REMARK SMILES IDX 6 14 84 15 7 16 83 17 2 18 3 19 4 20 1 21 78 24 79 25 82 26
REMARK SMILES IDX 80 27 81 28 17 29 18 30 19 31 20 32 21 34 22 35 23 36 75 37
REMARK SMILES IDX 24 38 74 39 25 40 26 41 27 42 68 43 28 44 73 45 67 46 69 47
REMARK SMILES IDX 29 48 72 49 66 50 65 51 30 53 56 54 39 55 55 56 40 57 43 58
REMARK SMILES IDX 54 59 70 60 41 61 42 62 53 64 71 65 44 66 31 67 32 68 37 69
REMARK SMILES IDX 33 70 34 71 36 72 38 73 35 74 57 75 58 76 63 77 59 78 60 79
REMARK SMILES IDX 62 80 64 81 61 82 45 83 46 84 51 85 47 86 48 87 50 88 52 89
REMARK SMILES IDX 49 90
REMARK H PARENT 14 6 1 22 1 23 19 33 69 52 43 63
REMARK Flexibility Score: inf
ROOT
ATOM      1  C   UNL     1       4.455   8.536  -8.364  1.00  0.00     0.023 C 
ENDROOT
BRANCH   1   2
ATOM      2  C   UNL     1       3.049   8.267  -7.843  1.00  0.00     0.116 C 
BRANCH   2   3
ATOM      3  N   UNL     1       2.449   7.122  -8.500  1.00  0.00    -0.351 N 
ATOM      4  C   UNL     1       2.096   5.860  -8.092  1.00  0.00     0.267 C 
ATOM      5  O   UNL     1       1.667   5.087  -8.946  1.00  0.00    -0.268 OA
ATOM      6  H   UNL     1       2.252   7.287  -9.451  1.00  0.00     0.163 HD
BRANCH   4   7
ATOM      7  C   UNL     1       2.162   5.389  -6.647  1.00  0.00     0.128 C 
ATOM      8  N   UNL     1       1.759   4.193  -4.935  1.00  0.00    -0.254 N 
ATOM      9  N   UNL     1       1.718   4.220  -6.293  1.00  0.00    -0.171 NA
ATOM     10  C   UNL     1       2.449   5.331  -4.328  1.00  0.00     0.180 C 
ATOM     11  C   UNL     1       2.686   6.232  -5.537  1.00  0.00     0.099 C 
BRANCH   8  12
ATOM     12  C   UNL     1       1.461   3.033  -4.238  1.00  0.00     0.060 A 
ATOM     13  C   UNL     1       0.900   0.758  -2.702  1.00  0.00     0.082 A 
ATOM     14  C   UNL     1       1.905   0.708  -3.671  1.00  0.00     0.024 A 
ATOM     15  C   UNL     1       0.138   1.913  -2.527  1.00  0.00     0.024 A 
ATOM     16  C   UNL     1       2.176   1.845  -4.440  1.00  0.00     0.029 A 
ATOM     17  C   UNL     1       0.422   3.037  -3.298  1.00  0.00     0.029 A 
BRANCH  13  18
ATOM     18  S   UNL     1       0.550  -0.647  -1.694  1.00  0.00     0.238 S 
ATOM     19  O   UNL     1       1.337  -1.774  -2.140  1.00  0.00    -0.207 OA
ATOM     20  O   UNL     1      -0.873  -0.728  -1.470  1.00  0.00    -0.207 OA
BRANCH  18  21
ATOM     21  N   UNL     1       1.224  -0.184  -0.224  1.00  0.00    -0.225 NA
ATOM     22  H   UNL     1       1.087  -0.926   0.462  1.00  0.00     0.137 HD
ATOM     23  H   UNL     1       0.771   0.669   0.104  1.00  0.00     0.137 HD
ENDBRANCH  18  21
ENDBRANCH  13  18
ENDBRANCH   8  12
BRANCH  10  24
ATOM     24  C   UNL     1       1.763   6.052  -3.200  1.00  0.00     0.128 A 
ATOM     25  C   UNL     1       1.627   5.772  -1.853  1.00  0.00     0.048 A 
ATOM     26  O   UNL     1       1.128   7.231  -3.479  1.00  0.00    -0.467 OA
ATOM     27  C   UNL     1       0.844   6.814  -1.298  1.00  0.00     0.042 A 
ATOM     28  C   UNL     1       0.581   7.685  -2.326  1.00  0.00     0.195 A 
ENDBRANCH  10  24
ENDBRANCH   4   7
ENDBRANCH   2   3
ENDBRANCH   1   2
BRANCH   1  29
ATOM     29  C   UNL     1       4.487   9.214  -9.730  1.00  0.00     0.023 C 
BRANCH  29  30
ATOM     30  C   UNL     1       3.709  10.523  -9.811  1.00  0.00     0.116 C 
BRANCH  30  31
ATOM     31  N   UNL     1       4.118  11.501  -8.811  1.00  0.00    -0.352 N 
ATOM     32  C   UNL     1       4.411  12.833  -8.984  1.00  0.00     0.251 C 
ATOM     33  H   UNL     1       4.195  11.163  -7.889  1.00  0.00     0.163 HD
ATOM     34  O   UNL     1       4.864  13.501  -8.062  1.00  0.00    -0.269 OA
BRANCH  32  35
ATOM     35  C   UNL     1       4.207  13.434 -10.315  1.00  0.00     0.039 A 
ATOM     36  C   UNL     1       5.263  14.118 -10.918  1.00  0.00     0.014 A 
ATOM     37  C   UNL     1       3.002  13.238 -10.995  1.00  0.00     0.014 A 
ATOM     38  C   UNL     1       5.142  14.528 -12.246  1.00  0.00     0.010 A 
ATOM     39  C   UNL     1       2.916  13.570 -12.341  1.00  0.00     0.010 A 
ATOM     40  C   UNL     1       3.989  14.209 -12.982  1.00  0.00    -0.014 A 
BRANCH  40  41
ATOM     41  C   UNL     1       3.889  14.513 -14.431  1.00  0.00     0.031 A 
ATOM     42  C   UNL     1       2.824  15.447 -14.931  1.00  0.00     0.074 A 
ATOM     43  C   UNL     1       4.704  13.886 -15.303  1.00  0.00     0.049 A 
ATOM     44  N   UNL     1       2.516  15.766 -16.162  1.00  0.00    -0.248 NA
ATOM     45  C   UNL     1       1.974  16.086 -13.914  1.00  0.00     0.031 C 
ATOM     46  C   UNL     1       5.748  12.924 -14.945  1.00  0.00     0.029 A 
ATOM     47  N   UNL     1       4.771  13.954 -16.672  1.00  0.00    -0.354 N 
ATOM     48  C   UNL     1       1.434  16.632 -16.067  1.00  0.00     0.074 A 
ATOM     49  C   UNL     1       1.100  16.740 -14.664  1.00  0.00     0.031 C 
ATOM     50  C   UNL     1       6.368  12.512 -16.063  1.00  0.00     0.029 A 
ATOM     51  C   UNL     1       5.734  13.139 -17.218  1.00  0.00     0.049 A 
ATOM     52  H   UNL     1       4.186  14.533 -17.212  1.00  0.00     0.167 HD
ATOM     53  C   UNL     1       0.793  17.295 -17.058  1.00  0.00     0.037 A 
ATOM     54  C   UNL     1       6.059  12.911 -18.505  1.00  0.00     0.037 A 
ATOM     55  C   UNL     1       1.137  17.193 -18.452  1.00  0.00     0.049 A 
ATOM     56  C   UNL     1       5.304  13.630 -19.590  1.00  0.00     0.074 A 
ATOM     57  C   UNL     1       0.582  17.865 -19.526  1.00  0.00     0.029 A 
ATOM     58  N   UNL     1       2.118  16.357 -18.965  1.00  0.00    -0.354 N 
ATOM     59  N   UNL     1       4.330  14.502 -19.481  1.00  0.00    -0.248 NA
ATOM     60  C   UNL     1       5.692  13.334 -20.976  1.00  0.00     0.031 C 
ATOM     61  C   UNL     1       1.188  17.394 -20.695  1.00  0.00     0.029 A 
ATOM     62  C   UNL     1       2.162  16.474 -20.344  1.00  0.00     0.049 A 
ATOM     63  H   UNL     1       2.697  15.769 -18.428  1.00  0.00     0.167 HD
ATOM     64  C   UNL     1       4.011  14.880 -20.780  1.00  0.00     0.074 A 
ATOM     65  C   UNL     1       4.904  14.153 -21.658  1.00  0.00     0.031 C 
ATOM     66  C   UNL     1       3.063  15.750 -21.206  1.00  0.00     0.037 A 
BRANCH  53  67
ATOM     67  C   UNL     1      -0.349  18.189 -16.667  1.00  0.00     0.057 A 
ATOM     68  C   UNL     1      -0.147  19.375 -15.947  1.00  0.00     0.134 A 
ATOM     69  C   UNL     1      -1.662  17.878 -17.041  1.00  0.00     0.134 A 
ATOM     70  F   UNL     1       1.084  19.727 -15.546  1.00  0.00    -0.206 F 
ATOM     71  C   UNL     1      -1.213  20.203 -15.589  1.00  0.00     0.040 A 
ATOM     72  C   UNL     1      -2.732  18.714 -16.716  1.00  0.00     0.040 A 
ATOM     73  F   UNL     1      -1.927  16.762 -17.736  1.00  0.00    -0.206 F 
ATOM     74  C   UNL     1      -2.509  19.876 -15.981  1.00  0.00     0.006 A 
ENDBRANCH  53  67
BRANCH  54  75
ATOM     75  C   UNL     1       7.155  11.967 -18.843  1.00  0.00     0.057 A 
ATOM     76  C   UNL     1       8.351  12.423 -19.411  1.00  0.00     0.134 A 
ATOM     77  C   UNL     1       7.031  10.590 -18.624  1.00  0.00     0.134 A 
ATOM     78  F   UNL     1       8.524  13.729 -19.662  1.00  0.00    -0.206 F 
ATOM     79  C   UNL     1       9.374  11.543 -19.769  1.00  0.00     0.040 A 
ATOM     80  C   UNL     1       8.057   9.701 -18.951  1.00  0.00     0.040 A 
ATOM     81  F   UNL     1       5.914  10.088 -18.076  1.00  0.00    -0.206 F 
ATOM     82  C   UNL     1       9.229  10.177 -19.535  1.00  0.00     0.006 A 
ENDBRANCH  54  75
BRANCH  66  83
ATOM     83  C   UNL     1       2.963  15.995 -22.684  1.00  0.00     0.057 A 
ATOM     84  C   UNL     1       2.456  15.031 -23.563  1.00  0.00     0.134 A 
ATOM     85  C   UNL     1       3.329  17.235 -23.225  1.00  0.00     0.134 A 
ATOM     86  F   UNL     1       2.100  13.819 -23.112  1.00  0.00    -0.206 F 
ATOM     87  C   UNL     1       2.333  15.284 -24.931  1.00  0.00     0.040 A 
ATOM     88  C   UNL     1       3.183  17.511 -24.585  1.00  0.00     0.040 A 
ATOM     89  F   UNL     1       3.814  18.206 -22.437  1.00  0.00    -0.206 F 
ATOM     90  C   UNL     1       2.688  16.531 -25.443  1.00  0.00     0.006 A 
ENDBRANCH  66  83
ENDBRANCH  40  41
ENDBRANCH  32  35
ENDBRANCH  30  31
ENDBRANCH  29  30
ENDBRANCH   1  29
TORSDOF 15
