REMARK SMILES O=C(CCCNC(=O)N1CC[C@@H](C(=O)NCCCCNC(=O)c2ccc(-c3c4nc(c(-c5c(F)cccc5F)c5ccc([nH]5)c(-c5c(F)cccc5F)c5nc(c(-c6c(F)cccc6F)c6ccc3[nH]6)C=C5)C=C4)cc2)C1)NC1CC1
REMARK SMILES IDX 13 1 14 2 15 3 12 5 9 6 10 7 77 8 11 9 7 10 6 11 8 13 5 14
REMARK SMILES IDX 4 15 3 16 2 17 1 18 78 19 79 21 80 22 81 23 16 24 17 25
REMARK SMILES IDX 18 26 19 27 20 28 21 29 22 31 23 32 24 33 76 34 25 35 75 36
REMARK SMILES IDX 26 37 27 38 28 39 69 40 29 41 74 42 68 43 70 44 30 45 73 46
REMARK SMILES IDX 67 47 66 48 31 50 57 51 40 52 56 53 41 54 44 55 55 56 71 57
REMARK SMILES IDX 42 58 43 59 54 61 72 62 45 63 32 64 33 65 38 66 34 67 35 68
REMARK SMILES IDX 37 69 39 70 36 71 58 72 59 73 64 74 60 75 61 76 63 77 65 78
REMARK SMILES IDX 62 79 46 80 47 81 52 82 48 83 49 84 51 85 53 86 50 87
REMARK H PARENT 15 4 6 12 78 20 20 30 70 49 44 60
REMARK Flexibility Score: inf
ROOT
ATOM      1  C   UNL     1      10.246   4.134  -0.113  1.00  0.00     0.224 C 
ATOM      2  O   UNL     1      10.455   4.000   1.092  1.00  0.00    -0.275 OA
ATOM      3  N   UNL     1      11.263   4.577  -0.903  1.00  0.00    -0.356 N 
ATOM      4  H   UNL     1      12.141   4.639  -0.462  1.00  0.00     0.163 HD
ENDROOT
BRANCH   1   5
ATOM      5  C   UNL     1       8.923   3.766  -0.749  1.00  0.00     0.100 C 
ATOM      6  N   UNL     1       7.743   1.776  -0.294  1.00  0.00    -0.324 N 
ATOM      7  C   UNL     1       7.458   2.670   0.810  1.00  0.00     0.122 C 
ATOM      8  C   UNL     1       8.899   2.256  -1.021  1.00  0.00     0.134 C 
ATOM      9  C   UNL     1       7.739   4.026   0.200  1.00  0.00     0.037 C 
BRANCH   6  10
ATOM     10  C   UNL     1       7.208   0.551  -0.531  1.00  0.00     0.317 C 
ATOM     11  N   UNL     1       5.882   0.371  -0.296  1.00  0.00    -0.338 N 
ATOM     12  H   UNL     1       5.595  -0.536  -0.045  1.00  0.00     0.165 HD
ATOM     13  O   UNL     1       7.848  -0.380  -1.015  1.00  0.00    -0.249 OA
BRANCH  11  14
ATOM     14  C   UNL     1       4.846   1.389  -0.379  1.00  0.00     0.118 C 
BRANCH  14  15
ATOM     15  C   UNL     1       3.795   1.066  -1.442  1.00  0.00     0.031 C 
BRANCH  15  16
ATOM     16  C   UNL     1       2.991  -0.208  -1.192  1.00  0.00     0.102 C 
BRANCH  16  17
ATOM     17  C   UNL     1       2.075  -0.062   0.005  1.00  0.00     0.220 C 
ATOM     18  O   UNL     1       0.916   0.314  -0.132  1.00  0.00    -0.275 OA
ATOM     19  N   UNL     1       2.698  -0.348   1.206  1.00  0.00    -0.353 N 
ATOM     20  H   UNL     1       3.620  -0.689   1.153  1.00  0.00     0.163 HD
BRANCH  19  21
ATOM     21  C   UNL     1       2.144  -0.203   2.518  1.00  0.00     0.082 C 
ATOM     22  C   UNL     1       0.893   0.554   2.857  1.00  0.00     0.027 C 
ATOM     23  C   UNL     1       0.903  -0.947   2.919  1.00  0.00     0.027 C 
ENDBRANCH  19  21
ENDBRANCH  16  17
ENDBRANCH  15  16
ENDBRANCH  14  15
ENDBRANCH  11  14
ENDBRANCH   6  10
ENDBRANCH   1   5
BRANCH   3  24
ATOM     24  C   UNL     1      11.243   4.972  -2.299  1.00  0.00     0.116 C 
BRANCH  24  25
ATOM     25  C   UNL     1      11.139   6.491  -2.444  1.00  0.00     0.023 C 
BRANCH  25  26
ATOM     26  C   UNL     1      12.311   7.270  -1.834  1.00  0.00     0.023 C 
BRANCH  26  27
ATOM     27  C   UNL     1      13.695   6.846  -2.312  1.00  0.00     0.116 C 
BRANCH  27  28
ATOM     28  N   UNL     1      13.878   7.008  -3.746  1.00  0.00    -0.352 N 
ATOM     29  C   UNL     1      14.978   7.483  -4.420  1.00  0.00     0.251 C 
ATOM     30  H   UNL     1      13.114   6.743  -4.307  1.00  0.00     0.163 HD
ATOM     31  O   UNL     1      14.931   7.671  -5.632  1.00  0.00    -0.269 OA
BRANCH  29  32
ATOM     32  C   UNL     1      16.208   7.802  -3.667  1.00  0.00     0.039 A 
ATOM     33  C   UNL     1      16.812   9.048  -3.853  1.00  0.00     0.014 A 
ATOM     34  C   UNL     1      16.740   6.888  -2.753  1.00  0.00     0.014 A 
ATOM     35  C   UNL     1      17.907   9.411  -3.064  1.00  0.00     0.010 A 
ATOM     36  C   UNL     1      17.790   7.274  -1.927  1.00  0.00     0.010 A 
ATOM     37  C   UNL     1      18.378   8.542  -2.067  1.00  0.00    -0.014 A 
BRANCH  37  38
ATOM     38  C   UNL     1      19.481   8.926  -1.151  1.00  0.00     0.031 A 
ATOM     39  C   UNL     1      20.772   8.157  -1.176  1.00  0.00     0.074 A 
ATOM     40  C   UNL     1      19.293   9.903  -0.241  1.00  0.00     0.049 A 
ATOM     41  N   UNL     1      21.788   8.217  -0.354  1.00  0.00    -0.248 NA
ATOM     42  C   UNL     1      20.930   7.173  -2.259  1.00  0.00     0.031 C 
ATOM     43  C   UNL     1      18.081  10.713  -0.102  1.00  0.00     0.029 A 
ATOM     44  N   UNL     1      20.115  10.364   0.757  1.00  0.00    -0.354 N 
ATOM     45  C   UNL     1      22.699   7.274  -0.812  1.00  0.00     0.074 A 
ATOM     46  C   UNL     1      22.096   6.621  -1.954  1.00  0.00     0.031 C 
ATOM     47  C   UNL     1      18.241  11.573   0.917  1.00  0.00     0.029 A 
ATOM     48  C   UNL     1      19.544  11.344   1.534  1.00  0.00     0.049 A 
ATOM     49  H   UNL     1      21.028  10.025   0.903  1.00  0.00     0.167 HD
ATOM     50  C   UNL     1      23.935   6.992  -0.337  1.00  0.00     0.037 A 
ATOM     51  C   UNL     1      20.009  11.969   2.634  1.00  0.00     0.037 A 
ATOM     52  C   UNL     1      24.540   7.654   0.788  1.00  0.00     0.049 A 
ATOM     53  C   UNL     1      21.368  11.604   3.168  1.00  0.00     0.074 A 
ATOM     54  C   UNL     1      25.792   7.446   1.339  1.00  0.00     0.029 A 
ATOM     55  N   UNL     1      23.937   8.658   1.529  1.00  0.00    -0.354 N 
ATOM     56  N   UNL     1      22.229  10.728   2.709  1.00  0.00    -0.248 NA
ATOM     57  C   UNL     1      21.822  12.313   4.374  1.00  0.00     0.031 C 
ATOM     58  C   UNL     1      25.937   8.305   2.431  1.00  0.00     0.029 A 
ATOM     59  C   UNL     1      24.791   9.077   2.534  1.00  0.00     0.049 A 
ATOM     60  H   UNL     1      23.036   9.020   1.365  1.00  0.00     0.167 HD
ATOM     61  C   UNL     1      23.338  10.813   3.541  1.00  0.00     0.074 A 
ATOM     62  C   UNL     1      23.044  11.825   4.532  1.00  0.00     0.031 C 
ATOM     63  C   UNL     1      24.498  10.116   3.486  1.00  0.00     0.037 A 
BRANCH  50  64
ATOM     64  C   UNL     1      24.726   5.933  -1.045  1.00  0.00     0.057 A 
ATOM     65  C   UNL     1      25.274   6.157  -2.315  1.00  0.00     0.134 A 
ATOM     66  C   UNL     1      24.990   4.702  -0.433  1.00  0.00     0.134 A 
ATOM     67  F   UNL     1      25.048   7.312  -2.959  1.00  0.00    -0.206 F 
ATOM     68  C   UNL     1      26.043   5.186  -2.958  1.00  0.00     0.040 A 
ATOM     69  C   UNL     1      25.778   3.733  -1.057  1.00  0.00     0.040 A 
ATOM     70  F   UNL     1      24.500   4.426   0.785  1.00  0.00    -0.206 F 
ATOM     71  C   UNL     1      26.304   3.973  -2.325  1.00  0.00     0.006 A 
ENDBRANCH  50  64
BRANCH  51  72
ATOM     72  C   UNL     1      19.191  13.005   3.315  1.00  0.00     0.057 A 
ATOM     73  C   UNL     1      19.582  14.349   3.312  1.00  0.00     0.134 A 
ATOM     74  C   UNL     1      18.027  12.675   4.019  1.00  0.00     0.134 A 
ATOM     75  F   UNL     1      20.700  14.725   2.673  1.00  0.00    -0.206 F 
ATOM     76  C   UNL     1      18.865  15.322   4.010  1.00  0.00     0.040 A 
ATOM     77  C   UNL     1      17.284  13.642   4.698  1.00  0.00     0.040 A 
ATOM     78  F   UNL     1      17.593  11.406   4.055  1.00  0.00    -0.206 F 
ATOM     79  C   UNL     1      17.709  14.969   4.704  1.00  0.00     0.006 A 
ENDBRANCH  51  72
BRANCH  63  80
ATOM     80  C   UNL     1      25.567  10.467   4.476  1.00  0.00     0.057 A 
ATOM     81  C   UNL     1      25.492  10.079   5.818  1.00  0.00     0.134 A 
ATOM     82  C   UNL     1      26.723  11.139   4.057  1.00  0.00     0.134 A 
ATOM     83  F   UNL     1      24.406   9.443   6.283  1.00  0.00    -0.206 F 
ATOM     84  C   UNL     1      26.526  10.356   6.714  1.00  0.00     0.040 A 
ATOM     85  C   UNL     1      27.773  11.401   4.937  1.00  0.00     0.040 A 
ATOM     86  F   UNL     1      26.858  11.531   2.781  1.00  0.00    -0.206 F 
ATOM     87  C   UNL     1      27.675  11.010   6.271  1.00  0.00     0.006 A 
ENDBRANCH  63  80
ENDBRANCH  37  38
ENDBRANCH  29  32
ENDBRANCH  27  28
ENDBRANCH  26  27
ENDBRANCH  25  26
ENDBRANCH  24  25
ENDBRANCH   3  24
TORSDOF 17
