REMARK SMILES COc1ccc(-c2cc(Cl)cc3c2O[C@@H](C(F)(F)F)C(C(=O)NCCCCNC(=O)c2ccc(-c4c5nc(c(-c6c(F)cccc6F)c6ccc([nH]6)c(-c6c(F)cccc6F)c6nc(c(-c7c(F)cccc7F)c7ccc4[nH]7)C=C6)C=C5)cc2)=C3)cc1C
REMARK SMILES IDX 25 1 24 2 23 3 21 4 22 5 20 7 7 8 8 9 13 10 9 11 12 12 14 13
REMARK SMILES IDX 10 14 11 15 85 16 15 17 6 18 3 19 4 20 87 21 5 22 86 23
REMARK SMILES IDX 88 24 2 25 1 26 16 27 17 28 18 29 19 30 26 31 27 32 28 33
REMARK SMILES IDX 29 34 30 36 31 37 32 38 84 39 33 40 83 41 34 42 35 43 36 44
REMARK SMILES IDX 77 45 37 46 82 47 76 48 78 49 38 50 81 51 75 52 74 53 39 55
REMARK SMILES IDX 65 56 48 57 64 58 49 59 52 60 63 61 79 62 50 63 51 64 62 66
REMARK SMILES IDX 80 67 53 68 40 69 41 70 46 71 42 72 43 73 45 74 47 75 44 76
REMARK SMILES IDX 66 77 67 78 72 79 68 80 69 81 71 82 73 83 70 84 54 85 55 86
REMARK SMILES IDX 60 87 56 88 57 89 59 90 61 91 58 92
REMARK H PARENT 23 6 28 35 78 54 52 65
REMARK Flexibility Score: inf
ROOT
ATOM      1  C   UNL     1      -2.717  -1.195  -8.487  1.00  0.00     0.023 C 
ENDROOT
BRANCH   1   2
ATOM      2  C   UNL     1      -1.476  -0.299  -8.641  1.00  0.00     0.116 C 
BRANCH   2   3
ATOM      3  N   UNL     1      -0.447  -0.459  -7.625  1.00  0.00    -0.352 N 
ATOM      4  C   UNL     1       0.907  -0.654  -7.709  1.00  0.00     0.251 C 
ATOM      5  O   UNL     1       1.587  -0.123  -6.825  1.00  0.00    -0.270 OA
ATOM      6  H   UNL     1      -0.788  -0.420  -6.702  1.00  0.00     0.163 HD
BRANCH   4   7
ATOM      7  C   UNL     1       1.583  -1.586  -8.723  1.00  0.00     0.067 C 
ATOM      8  C   UNL     1       1.138  -4.248  -5.784  1.00  0.00     0.026 A 
ATOM      9  C   UNL     1       2.099  -5.250  -5.548  1.00  0.00     0.033 A 
ATOM     10  C   UNL     1       1.311  -3.557  -6.979  1.00  0.00     0.135 A 
ATOM     11  C   UNL     1       3.328  -5.212  -6.220  1.00  0.00     0.042 A 
ATOM     12  C   UNL     1       2.623  -3.255  -7.415  1.00  0.00     0.019 A 
ATOM     13  O   UNL     1       0.223  -3.329  -7.855  1.00  0.00    -0.475 OA
ATOM     14  Cl  UNL     1       4.524  -6.394  -5.857  1.00  0.00    -0.084 Cl
ATOM     15  C   UNL     1       3.634  -4.148  -7.075  1.00  0.00     0.032 A 
ATOM     16  C   UNL     1       2.794  -2.038  -8.289  1.00  0.00     0.025 C 
ATOM     17  C   UNL     1       0.760  -2.802  -9.112  1.00  0.00     0.314 C 
BRANCH   8  18
ATOM     18  C   UNL     1       0.800  -3.462  -4.552  1.00  0.00    -0.014 A 
ATOM     19  C   UNL     1       0.474  -2.186  -2.030  1.00  0.00     0.121 A 
ATOM     20  C   UNL     1      -0.578  -2.887  -2.647  1.00  0.00     0.047 A 
ATOM     21  C   UNL     1       1.712  -2.104  -2.669  1.00  0.00    -0.008 A 
ATOM     22  C   UNL     1      -0.423  -3.521  -3.894  1.00  0.00     0.013 A 
ATOM     23  C   UNL     1       1.835  -2.706  -3.936  1.00  0.00     0.016 A 
ATOM     24  C   UNL     1       2.939  -1.478  -2.067  1.00  0.00     0.048 C 
BRANCH  19  25
ATOM     25  O   UNL     1       0.198  -1.743  -0.763  1.00  0.00    -0.496 OA
ATOM     26  C   UNL     1       0.606  -0.412  -0.462  1.00  0.00     0.278 C 
ENDBRANCH  19  25
ENDBRANCH   8  18
BRANCH  17  27
ATOM     27  C   UNL     1      -0.065  -2.669 -10.399  1.00  0.00     0.429 C 
ATOM     28  F   UNL     1       0.364  -3.570 -11.326  1.00  0.00    -0.167 F 
ATOM     29  F   UNL     1      -1.381  -2.882 -10.235  1.00  0.00    -0.167 F 
ATOM     30  F   UNL     1       0.099  -1.459 -10.991  1.00  0.00    -0.167 F 
ENDBRANCH  17  27
ENDBRANCH   4   7
ENDBRANCH   2   3
ENDBRANCH   1   2
BRANCH   1  31
ATOM     31  C   UNL     1      -3.762  -0.815  -7.434  1.00  0.00     0.023 C 
BRANCH  31  32
ATOM     32  C   UNL     1      -4.259   0.621  -7.436  1.00  0.00     0.116 C 
BRANCH  32  33
ATOM     33  N   UNL     1      -5.256   0.996  -8.443  1.00  0.00    -0.352 N 
ATOM     34  C   UNL     1      -5.784   2.245  -8.726  1.00  0.00     0.251 C 
ATOM     35  H   UNL     1      -5.599   0.256  -8.995  1.00  0.00     0.163 HD
ATOM     36  O   UNL     1      -6.667   2.370  -9.549  1.00  0.00    -0.269 OA
BRANCH  34  37
ATOM     37  C   UNL     1      -5.156   3.470  -8.128  1.00  0.00     0.039 A 
ATOM     38  C   UNL     1      -4.904   4.556  -8.974  1.00  0.00     0.014 A 
ATOM     39  C   UNL     1      -4.586   3.438  -6.862  1.00  0.00     0.014 A 
ATOM     40  C   UNL     1      -3.848   5.416  -8.678  1.00  0.00     0.010 A 
ATOM     41  C   UNL     1      -3.452   4.189  -6.638  1.00  0.00     0.010 A 
ATOM     42  C   UNL     1      -3.036   5.128  -7.585  1.00  0.00    -0.014 A 
BRANCH  42  43
ATOM     43  C   UNL     1      -1.669   5.620  -7.449  1.00  0.00     0.031 A 
ATOM     44  C   UNL     1      -1.289   6.541  -6.359  1.00  0.00     0.074 A 
ATOM     45  C   UNL     1      -0.706   5.119  -8.257  1.00  0.00     0.049 A 
ATOM     46  N   UNL     1      -0.284   7.350  -6.414  1.00  0.00    -0.248 NA
ATOM     47  C   UNL     1      -2.033   6.636  -5.110  1.00  0.00     0.031 C 
ATOM     48  C   UNL     1       0.741   5.243  -8.094  1.00  0.00     0.029 A 
ATOM     49  N   UNL     1      -0.861   4.536  -9.524  1.00  0.00    -0.354 N 
ATOM     50  C   UNL     1      -0.064   7.827  -5.142  1.00  0.00     0.074 A 
ATOM     51  C   UNL     1      -1.221   7.409  -4.384  1.00  0.00     0.031 C 
ATOM     52  C   UNL     1       1.330   5.044  -9.283  1.00  0.00     0.029 A 
ATOM     53  C   UNL     1       0.275   4.916 -10.271  1.00  0.00     0.049 A 
ATOM     54  H   UNL     1      -1.611   3.975  -9.830  1.00  0.00     0.167 HD
ATOM     55  C   UNL     1       1.140   8.393  -4.834  1.00  0.00     0.037 A 
ATOM     56  C   UNL     1       0.165   5.677 -11.397  1.00  0.00     0.037 A 
ATOM     57  C   UNL     1       2.021   8.434  -6.001  1.00  0.00     0.049 A 
ATOM     58  C   UNL     1       0.891   6.998 -11.321  1.00  0.00     0.074 A 
ATOM     59  C   UNL     1       3.079   7.632  -6.402  1.00  0.00     0.029 A 
ATOM     60  N   UNL     1       1.682   9.211  -7.104  1.00  0.00    -0.354 N 
ATOM     61  N   UNL     1       1.294   7.545 -10.208  1.00  0.00    -0.248 NA
ATOM     62  C   UNL     1       1.200   7.820 -12.487  1.00  0.00     0.031 C 
ATOM     63  C   UNL     1       3.361   7.914  -7.759  1.00  0.00     0.029 A 
ATOM     64  C   UNL     1       2.478   8.891  -8.186  1.00  0.00     0.049 A 
ATOM     65  H   UNL     1       0.973   9.894  -7.111  1.00  0.00     0.167 HD
ATOM     66  C   UNL     1       1.867   8.765 -10.472  1.00  0.00     0.074 A 
ATOM     67  C   UNL     1       1.810   8.876 -11.917  1.00  0.00     0.031 C 
ATOM     68  C   UNL     1       2.324   9.571  -9.466  1.00  0.00     0.037 A 
BRANCH  55  69
ATOM     69  C   UNL     1       1.623   8.607  -3.413  1.00  0.00     0.057 A 
ATOM     70  C   UNL     1       2.992   8.530  -3.086  1.00  0.00     0.134 A 
ATOM     71  C   UNL     1       0.785   8.841  -2.310  1.00  0.00     0.134 A 
ATOM     72  F   UNL     1       3.942   8.454  -4.026  1.00  0.00    -0.206 F 
ATOM     73  C   UNL     1       3.467   8.531  -1.768  1.00  0.00     0.040 A 
ATOM     74  C   UNL     1       1.237   8.790  -0.982  1.00  0.00     0.040 A 
ATOM     75  F   UNL     1      -0.498   9.188  -2.468  1.00  0.00    -0.206 F 
ATOM     76  C   UNL     1       2.583   8.614  -0.705  1.00  0.00     0.006 A 
ENDBRANCH  55  69
BRANCH  56  77
ATOM     77  C   UNL     1      -1.085   5.424 -12.157  1.00  0.00     0.057 A 
ATOM     78  C   UNL     1      -1.248   4.172 -12.776  1.00  0.00     0.134 A 
ATOM     79  C   UNL     1      -2.236   6.191 -11.958  1.00  0.00     0.134 A 
ATOM     80  F   UNL     1      -0.181   3.387 -12.996  1.00  0.00    -0.206 F 
ATOM     81  C   UNL     1      -2.510   3.656 -13.079  1.00  0.00     0.040 A 
ATOM     82  C   UNL     1      -3.506   5.687 -12.265  1.00  0.00     0.040 A 
ATOM     83  F   UNL     1      -2.164   7.383 -11.349  1.00  0.00    -0.206 F 
ATOM     84  C   UNL     1      -3.648   4.402 -12.788  1.00  0.00     0.006 A 
ENDBRANCH  56  77
BRANCH  68  85
ATOM     85  C   UNL     1       2.764  11.018  -9.576  1.00  0.00     0.057 A 
ATOM     86  C   UNL     1       2.391  11.895 -10.605  1.00  0.00     0.134 A 
ATOM     87  C   UNL     1       3.503  11.623  -8.529  1.00  0.00     0.134 A 
ATOM     88  F   UNL     1       1.589  11.511 -11.605  1.00  0.00    -0.206 F 
ATOM     89  C   UNL     1       2.776  13.245 -10.626  1.00  0.00     0.040 A 
ATOM     90  C   UNL     1       3.842  12.980  -8.512  1.00  0.00     0.040 A 
ATOM     91  F   UNL     1       3.912  10.931  -7.456  1.00  0.00    -0.206 F 
ATOM     92  C   UNL     1       3.494  13.796  -9.573  1.00  0.00     0.006 A 
ENDBRANCH  68  85
ENDBRANCH  42  43
ENDBRANCH  34  37
ENDBRANCH  32  33
ENDBRANCH  31  32
ENDBRANCH   1  31
TORSDOF 14
