REMARK SMILES COCC[C@H](NC(=O)c1ccc(C)cc1F)C(=O)NCCCCNC(=O)c1ccc(-c2c3nc(c(-c4c(F)cccc4F)c4ccc([nH]4)c(-c4c(F)cccc4F)c4nc(c(-c5c(F)cccc5F)c5ccc2[nH]5)C=C4)C=C3)cc1
REMARK SMILES IDX 21 1 20 2 19 3 17 4 18 5 5 7 4 8 3 9 2 10 1 11 6 12 7 13
REMARK SMILES IDX 8 15 9 16 10 17 15 18 11 19 14 20 16 21 12 22 13 23 22 24
REMARK SMILES IDX 23 25 24 26 25 27 26 29 27 30 28 31 80 32 29 33 79 34 30 35
REMARK SMILES IDX 31 36 32 37 73 38 33 39 78 40 72 41 74 42 34 43 77 44 71 45
REMARK SMILES IDX 70 46 35 48 61 49 44 50 60 51 45 52 48 53 59 54 75 55 46 56
REMARK SMILES IDX 47 57 58 59 76 60 49 61 36 62 37 63 42 64 38 65 39 66 41 67
REMARK SMILES IDX 43 68 40 69 62 70 63 71 68 72 64 73 65 74 67 75 69 76 66 77
REMARK SMILES IDX 50 78 51 79 56 80 52 81 53 82 55 83 57 84 54 85
REMARK H PARENT 19 6 6 14 24 28 74 47 48 58
REMARK Flexibility Score: inf
ROOT
ATOM      1  C   UNL     1       0.613   0.286   6.203  1.00  0.00     0.023 C 
ENDROOT
BRANCH   1   2
ATOM      2  C   UNL     1       1.474  -0.701   5.423  1.00  0.00     0.116 C 
BRANCH   2   3
ATOM      3  N   UNL     1       0.670  -1.641   4.695  1.00  0.00    -0.354 N 
ATOM      4  C   UNL     1       0.380  -1.648   3.368  1.00  0.00     0.242 C 
ATOM      5  O   UNL     1      -0.293  -2.601   2.959  1.00  0.00    -0.273 OA
ATOM      6  H   UNL     1       0.280  -2.373   5.225  1.00  0.00     0.163 HD
BRANCH   4   7
ATOM      7  C   UNL     1       1.017  -0.652   2.353  1.00  0.00     0.173 C 
BRANCH   7   8
ATOM      8  C   UNL     1       2.349  -1.213   1.848  1.00  0.00     0.063 C 
BRANCH   8   9
ATOM      9  C   UNL     1       2.233  -2.379   0.863  1.00  0.00     0.162 C 
BRANCH   9  10
ATOM     10  O   UNL     1       2.270  -1.929  -0.496  1.00  0.00    -0.385 OA
ATOM     11  C   UNL     1       1.083  -1.284  -0.934  1.00  0.00     0.194 C 
ENDBRANCH   9  10
ENDBRANCH   8   9
ENDBRANCH   7   8
BRANCH   7  12
ATOM     12  N   UNL     1       0.984   0.810   2.657  1.00  0.00    -0.340 N 
ATOM     13  C   UNL     1       1.858   1.828   2.983  1.00  0.00     0.254 C 
ATOM     14  H   UNL     1       0.062   1.151   2.612  1.00  0.00     0.164 HD
ATOM     15  O   UNL     1       1.414   2.969   3.097  1.00  0.00    -0.269 OA
BRANCH  13  16
ATOM     16  C   UNL     1       3.286   1.602   3.259  1.00  0.00     0.075 A 
ATOM     17  C   UNL     1       4.193   1.262   2.260  1.00  0.00     0.017 A 
ATOM     18  C   UNL     1       3.729   1.673   4.577  1.00  0.00     0.136 A 
ATOM     19  C   UNL     1       5.422   0.698   2.616  1.00  0.00     0.004 A 
ATOM     20  C   UNL     1       4.955   1.128   4.941  1.00  0.00     0.043 A 
ATOM     21  F   UNL     1       2.943   2.156   5.547  1.00  0.00    -0.206 F 
ATOM     22  C   UNL     1       5.769   0.549   3.965  1.00  0.00    -0.048 A 
ATOM     23  C   UNL     1       6.985  -0.227   4.375  1.00  0.00     0.044 C 
ENDBRANCH  13  16
ENDBRANCH   7  12
ENDBRANCH   4   7
ENDBRANCH   2   3
ENDBRANCH   1   2
BRANCH   1  24
ATOM     24  C   UNL     1       0.119  -0.250   7.544  1.00  0.00     0.023 C 
BRANCH  24  25
ATOM     25  C   UNL     1       1.214  -0.765   8.470  1.00  0.00     0.116 C 
BRANCH  25  26
ATOM     26  N   UNL     1       2.274   0.197   8.729  1.00  0.00    -0.352 N 
ATOM     27  C   UNL     1       3.037   0.330   9.870  1.00  0.00     0.251 C 
ATOM     28  H   UNL     1       2.471   0.830   8.002  1.00  0.00     0.163 HD
ATOM     29  O   UNL     1       3.842   1.236   9.986  1.00  0.00    -0.269 OA
BRANCH  27  30
ATOM     30  C   UNL     1       2.831  -0.633  10.974  1.00  0.00     0.039 A 
ATOM     31  C   UNL     1       2.625  -0.144  12.264  1.00  0.00     0.014 A 
ATOM     32  C   UNL     1       2.800  -2.007  10.723  1.00  0.00     0.014 A 
ATOM     33  C   UNL     1       2.343  -1.037  13.299  1.00  0.00     0.010 A 
ATOM     34  C   UNL     1       2.429  -2.885  11.734  1.00  0.00     0.010 A 
ATOM     35  C   UNL     1       2.220  -2.413  13.038  1.00  0.00    -0.014 A 
BRANCH  35  36
ATOM     36  C   UNL     1       1.918  -3.370  14.131  1.00  0.00     0.031 A 
ATOM     37  C   UNL     1       2.926  -4.424  14.505  1.00  0.00     0.074 A 
ATOM     38  C   UNL     1       0.732  -3.312  14.766  1.00  0.00     0.049 A 
ATOM     39  N   UNL     1       2.855  -5.344  15.433  1.00  0.00    -0.248 NA
ATOM     40  C   UNL     1       4.165  -4.470  13.712  1.00  0.00     0.031 C 
ATOM     41  C   UNL     1      -0.353  -2.379  14.454  1.00  0.00     0.029 A 
ATOM     42  N   UNL     1       0.242  -4.053  15.811  1.00  0.00    -0.354 N 
ATOM     43  C   UNL     1       4.030  -6.078  15.327  1.00  0.00     0.074 A 
ATOM     44  C   UNL     1       4.762  -5.546  14.200  1.00  0.00     0.031 C 
ATOM     45  C   UNL     1      -1.364  -2.578  15.316  1.00  0.00     0.029 A 
ATOM     46  C   UNL     1      -1.012  -3.668  16.220  1.00  0.00     0.049 A 
ATOM     47  H   UNL     1       0.741  -4.792  16.229  1.00  0.00     0.167 HD
ATOM     48  C   UNL     1       4.478  -7.081  16.119  1.00  0.00     0.037 A 
ATOM     49  C   UNL     1      -1.784  -4.137  17.218  1.00  0.00     0.037 A 
ATOM     50  C   UNL     1       3.760  -7.591  17.256  1.00  0.00     0.049 A 
ATOM     51  C   UNL     1      -1.259  -5.245  18.090  1.00  0.00     0.074 A 
ATOM     52  C   UNL     1       4.151  -8.564  18.158  1.00  0.00     0.029 A 
ATOM     53  N   UNL     1       2.500  -7.165  17.647  1.00  0.00    -0.354 N 
ATOM     54  N   UNL     1      -0.111  -5.875  18.030  1.00  0.00    -0.248 NA
ATOM     55  C   UNL     1      -2.135  -5.697  19.180  1.00  0.00     0.031 C 
ATOM     56  C   UNL     1       3.107  -8.760  19.068  1.00  0.00     0.029 A 
ATOM     57  C   UNL     1       2.088  -7.871  18.766  1.00  0.00     0.049 A 
ATOM     58  H   UNL     1       1.975  -6.465  17.197  1.00  0.00     0.167 HD
ATOM     59  C   UNL     1      -0.114  -6.776  19.086  1.00  0.00     0.074 A 
ATOM     60  C   UNL     1      -1.370  -6.594  19.785  1.00  0.00     0.031 C 
ATOM     61  C   UNL     1       0.834  -7.676  19.447  1.00  0.00     0.037 A 
BRANCH  48  62
ATOM     62  C   UNL     1       5.813  -7.681  15.781  1.00  0.00     0.057 A 
ATOM     63  C   UNL     1       7.008  -6.963  15.937  1.00  0.00     0.134 A 
ATOM     64  C   UNL     1       5.910  -8.997  15.311  1.00  0.00     0.134 A 
ATOM     65  F   UNL     1       6.987  -5.693  16.367  1.00  0.00    -0.206 F 
ATOM     66  C   UNL     1       8.245  -7.521  15.608  1.00  0.00     0.040 A 
ATOM     67  C   UNL     1       7.144  -9.576  15.008  1.00  0.00     0.040 A 
ATOM     68  F   UNL     1       4.808  -9.743  15.142  1.00  0.00    -0.206 F 
ATOM     69  C   UNL     1       8.315  -8.834  15.148  1.00  0.00     0.006 A 
ENDBRANCH  48  62
BRANCH  49  70
ATOM     70  C   UNL     1      -3.118  -3.537  17.477  1.00  0.00     0.057 A 
ATOM     71  C   UNL     1      -3.360  -2.781  18.631  1.00  0.00     0.134 A 
ATOM     72  C   UNL     1      -4.186  -3.718  16.591  1.00  0.00     0.134 A 
ATOM     73  F   UNL     1      -2.381  -2.586  19.527  1.00  0.00    -0.206 F 
ATOM     74  C   UNL     1      -4.620  -2.250  18.908  1.00  0.00     0.040 A 
ATOM     75  C   UNL     1      -5.445  -3.170  16.842  1.00  0.00     0.040 A 
ATOM     76  F   UNL     1      -4.019  -4.424  15.463  1.00  0.00    -0.206 F 
ATOM     77  C   UNL     1      -5.667  -2.441  18.009  1.00  0.00     0.006 A 
ENDBRANCH  49  70
BRANCH  61  78
ATOM     78  C   UNL     1       0.557  -8.507  20.667  1.00  0.00     0.057 A 
ATOM     79  C   UNL     1      -0.424  -9.507  20.677  1.00  0.00     0.134 A 
ATOM     80  C   UNL     1       1.293  -8.313  21.843  1.00  0.00     0.134 A 
ATOM     81  F   UNL     1      -1.173  -9.736  19.587  1.00  0.00    -0.206 F 
ATOM     82  C   UNL     1      -0.689 -10.258  21.823  1.00  0.00     0.040 A 
ATOM     83  C   UNL     1       1.060  -9.080  22.985  1.00  0.00     0.040 A 
ATOM     84  F   UNL     1       2.256  -7.381  21.899  1.00  0.00    -0.206 F 
ATOM     85  C   UNL     1       0.058 -10.048  22.980  1.00  0.00     0.006 A 
ENDBRANCH  61  78
ENDBRANCH  35  36
ENDBRANCH  27  30
ENDBRANCH  25  26
ENDBRANCH  24  25
ENDBRANCH   1  24
TORSDOF 16
