REMARK SMILES Cc1ccc(N2CC[C@H]([NH+]3CCOCC3)[C@H](CCC(=O)NCCCCNC(=O)c3ccc(-c4c5nc(c(-c6c(F)cccc6F)c6ccc([nH]6)c(-c6c(F)cccc6F)c6nc(c(-c7c(F)cccc7F)c7ccc4[nH]7)C=C6)C=C5)cc3)C2)nc1
REMARK SMILES IDX 23 1 22 2 21 3 19 4 20 5 18 7 17 8 16 9 6 10 7 11 83 12 8 13
REMARK SMILES IDX 9 14 5 15 1 16 2 17 3 18 85 19 4 20 84 21 10 22 11 23 15 24
REMARK SMILES IDX 12 26 14 27 13 28 24 29 25 30 26 31 27 32 28 34 29 35 30 36
REMARK SMILES IDX 82 37 31 38 81 39 32 40 33 41 34 42 75 43 35 44 80 45 74 46
REMARK SMILES IDX 76 47 36 48 79 49 73 50 72 51 37 53 63 54 46 55 62 56 47 57
REMARK SMILES IDX 50 58 61 59 77 60 48 61 49 62 60 64 78 65 51 66 38 67 39 68
REMARK SMILES IDX 44 69 40 70 41 71 43 72 45 73 42 74 64 75 65 76 70 77 66 78
REMARK SMILES IDX 67 79 69 80 71 81 68 82 52 83 53 84 58 85 54 86 55 87 57 88
REMARK SMILES IDX 59 89 56 90
REMARK H PARENT 21 6 10 25 26 33 76 52 50 63
REMARK Flexibility Score: inf
ROOT
ATOM      1  C   UNL     1      -6.821   1.311  -2.984  1.00  0.00     0.023 C 
ENDROOT
BRANCH   1   2
ATOM      2  C   UNL     1      -7.063   0.024  -3.788  1.00  0.00     0.116 C 
BRANCH   2   3
ATOM      3  N   UNL     1      -6.079  -0.078  -4.849  1.00  0.00    -0.356 N 
ATOM      4  C   UNL     1      -4.876  -0.723  -4.857  1.00  0.00     0.220 C 
ATOM      5  O   UNL     1      -4.094  -0.481  -5.778  1.00  0.00    -0.275 OA
ATOM      6  H   UNL     1      -6.313   0.386  -5.685  1.00  0.00     0.163 HD
BRANCH   4   7
ATOM      7  C   UNL     1      -4.541  -1.753  -3.789  1.00  0.00     0.100 C 
BRANCH   7   8
ATOM      8  C   UNL     1      -3.695  -1.249  -2.600  1.00  0.00     0.021 C 
BRANCH   8   9
ATOM      9  C   UNL     1      -4.510  -0.602  -1.459  1.00  0.00     0.067 C 
ATOM     10  N   UNL     1      -2.938   0.196   0.300  1.00  0.00    -0.356 N 
ATOM     11  C   UNL     1      -3.544  -0.620   1.333  1.00  0.00     0.124 C 
ATOM     12  C   UNL     1      -3.759   0.600  -0.826  1.00  0.00     0.127 C 
ATOM     13  C   UNL     1      -4.147  -1.882   0.729  1.00  0.00     0.087 C 
ATOM     14  C   UNL     1      -5.166  -1.489  -0.342  1.00  0.00     0.190 C 
BRANCH  10  15
ATOM     15  C   UNL     1      -1.569   0.102   0.146  1.00  0.00     0.128 A 
ATOM     16  C   UNL     1       2.672  -0.224  -0.044  1.00  0.00     0.046 C 
ATOM     17  C   UNL     1       1.189  -0.065   0.016  1.00  0.00    -0.033 A 
ATOM     18  C   UNL     1       0.569   1.166  -0.172  1.00  0.00     0.009 A 
ATOM     19  C   UNL     1       0.368  -1.159   0.248  1.00  0.00     0.117 A 
ATOM     20  C   UNL     1      -0.821   1.246  -0.117  1.00  0.00     0.047 A 
ATOM     21  N   UNL     1      -0.978  -1.096   0.333  1.00  0.00    -0.239 NA
ENDBRANCH  10  15
BRANCH  14  22
ATOM     22  N   UNL     1      -6.090  -2.548  -0.800  1.00  0.00    -0.328 N 
ATOM     23  C   UNL     1      -7.132  -2.910   0.195  1.00  0.00     0.291 C 
ATOM     24  C   UNL     1      -5.522  -3.778  -1.375  1.00  0.00     0.291 C 
ATOM     25  H   UNL     1      -6.506  -2.060  -1.592  1.00  0.00     0.348 HD
ATOM     26  C   UNL     1      -6.819  -4.109   1.112  1.00  0.00     0.221 C 
ATOM     27  C   UNL     1      -5.246  -4.934  -0.409  1.00  0.00     0.221 C 
ATOM     28  O   UNL     1      -6.406  -5.252   0.361  1.00  0.00    -0.370 OA
ENDBRANCH  14  22
ENDBRANCH   8   9
ENDBRANCH   7   8
ENDBRANCH   4   7
ENDBRANCH   2   3
ENDBRANCH   1   2
BRANCH   1  29
ATOM     29  C   UNL     1      -7.663   2.488  -3.436  1.00  0.00     0.023 C 
BRANCH  29  30
ATOM     30  C   UNL     1      -9.106   2.369  -2.977  1.00  0.00     0.116 C 
BRANCH  30  31
ATOM     31  N   UNL     1      -9.268   2.520  -1.532  1.00  0.00    -0.352 N 
ATOM     32  C   UNL     1     -10.194   3.286  -0.854  1.00  0.00     0.251 C 
ATOM     33  H   UNL     1      -8.637   2.011  -0.973  1.00  0.00     0.163 HD
ATOM     34  O   UNL     1     -10.173   3.392   0.357  1.00  0.00    -0.269 OA
BRANCH  32  35
ATOM     35  C   UNL     1     -11.184   4.023  -1.665  1.00  0.00     0.039 A 
ATOM     36  C   UNL     1     -11.220   5.415  -1.578  1.00  0.00     0.014 A 
ATOM     37  C   UNL     1     -11.918   3.340  -2.637  1.00  0.00     0.014 A 
ATOM     38  C   UNL     1     -11.909   6.136  -2.552  1.00  0.00     0.010 A 
ATOM     39  C   UNL     1     -12.514   4.063  -3.659  1.00  0.00     0.010 A 
ATOM     40  C   UNL     1     -12.500   5.467  -3.637  1.00  0.00    -0.014 A 
BRANCH  40  41
ATOM     41  C   UNL     1     -13.085   6.206  -4.783  1.00  0.00     0.031 A 
ATOM     42  C   UNL     1     -14.536   6.020  -5.124  1.00  0.00     0.074 A 
ATOM     43  C   UNL     1     -12.291   6.952  -5.578  1.00  0.00     0.049 A 
ATOM     44  N   UNL     1     -15.206   6.462  -6.156  1.00  0.00    -0.248 NA
ATOM     45  C   UNL     1     -15.329   5.191  -4.201  1.00  0.00     0.031 C 
ATOM     46  C   UNL     1     -10.853   7.160  -5.393  1.00  0.00     0.029 A 
ATOM     47  N   UNL     1     -12.582   7.663  -6.716  1.00  0.00    -0.354 N 
ATOM     48  C   UNL     1     -16.486   5.944  -6.020  1.00  0.00     0.074 A 
ATOM     49  C   UNL     1     -16.486   5.110  -4.838  1.00  0.00     0.031 C 
ATOM     50  C   UNL     1     -10.394   7.963  -6.367  1.00  0.00     0.029 A 
ATOM     51  C   UNL     1     -11.492   8.292  -7.268  1.00  0.00     0.049 A 
ATOM     52  H   UNL     1     -13.487   7.716  -7.101  1.00  0.00     0.167 HD
ATOM     53  C   UNL     1     -17.573   6.164  -6.795  1.00  0.00     0.037 A 
ATOM     54  C   UNL     1     -11.389   9.041  -8.383  1.00  0.00     0.037 A 
ATOM     55  C   UNL     1     -17.582   7.031  -7.942  1.00  0.00     0.049 A 
ATOM     56  C   UNL     1     -12.612   9.278  -9.224  1.00  0.00     0.074 A 
ATOM     57  C   UNL     1     -18.653   7.396  -8.737  1.00  0.00     0.029 A 
ATOM     58  N   UNL     1     -16.464   7.670  -8.454  1.00  0.00    -0.354 N 
ATOM     59  N   UNL     1     -13.836   8.845  -9.040  1.00  0.00    -0.248 NA
ATOM     60  C   UNL     1     -12.441  10.103 -10.428  1.00  0.00     0.031 C 
ATOM     61  C   UNL     1     -18.176   8.227  -9.755  1.00  0.00     0.029 A 
ATOM     62  C   UNL     1     -16.814   8.408  -9.572  1.00  0.00     0.049 A 
ATOM     63  H   UNL     1     -15.555   7.609  -8.079  1.00  0.00     0.167 HD
ATOM     64  C   UNL     1     -14.583   9.357 -10.092  1.00  0.00     0.074 A 
ATOM     65  C   UNL     1     -13.678  10.146 -10.903  1.00  0.00     0.031 C 
ATOM     66  C   UNL     1     -15.899   9.187 -10.365  1.00  0.00     0.037 A 
BRANCH  53  67
ATOM     67  C   UNL     1     -18.843   5.465  -6.415  1.00  0.00     0.057 A 
ATOM     68  C   UNL     1     -19.571   5.828  -5.274  1.00  0.00     0.134 A 
ATOM     69  C   UNL     1     -19.354   4.431  -7.208  1.00  0.00     0.134 A 
ATOM     70  F   UNL     1     -19.125   6.800  -4.464  1.00  0.00    -0.206 F 
ATOM     71  C   UNL     1     -20.749   5.169  -4.921  1.00  0.00     0.040 A 
ATOM     72  C   UNL     1     -20.545   3.782  -6.880  1.00  0.00     0.040 A 
ATOM     73  F   UNL     1     -18.707   4.036  -8.315  1.00  0.00    -0.206 F 
ATOM     74  C   UNL     1     -21.243   4.147  -5.729  1.00  0.00     0.006 A 
ENDBRANCH  53  67
BRANCH  54  75
ATOM     75  C   UNL     1     -10.082   9.634  -8.764  1.00  0.00     0.057 A 
ATOM     76  C   UNL     1      -9.858  11.011  -8.654  1.00  0.00     0.134 A 
ATOM     77  C   UNL     1      -9.033   8.846  -9.251  1.00  0.00     0.134 A 
ATOM     78  F   UNL     1     -10.834  11.819  -8.213  1.00  0.00    -0.206 F 
ATOM     79  C   UNL     1      -8.643  11.587  -9.028  1.00  0.00     0.040 A 
ATOM     80  C   UNL     1      -7.805   9.406  -9.609  1.00  0.00     0.040 A 
ATOM     81  F   UNL     1      -9.182   7.519  -9.375  1.00  0.00    -0.206 F 
ATOM     82  C   UNL     1      -7.610  10.782  -9.503  1.00  0.00     0.006 A 
ENDBRANCH  54  75
BRANCH  66  83
ATOM     83  C   UNL     1     -16.444   9.875 -11.579  1.00  0.00     0.057 A 
ATOM     84  C   UNL     1     -16.184   9.399 -12.870  1.00  0.00     0.134 A 
ATOM     85  C   UNL     1     -17.284  10.989 -11.453  1.00  0.00     0.134 A 
ATOM     86  F   UNL     1     -15.376   8.344 -13.055  1.00  0.00    -0.206 F 
ATOM     87  C   UNL     1     -16.733  10.013 -13.995  1.00  0.00     0.040 A 
ATOM     88  C   UNL     1     -17.857  11.597 -12.570  1.00  0.00     0.040 A 
ATOM     89  F   UNL     1     -17.576  11.488 -10.243  1.00  0.00    -0.206 F 
ATOM     90  C   UNL     1     -17.579  11.111 -13.846  1.00  0.00     0.006 A 
ENDBRANCH  66  83
ENDBRANCH  40  41
ENDBRANCH  32  35
ENDBRANCH  30  31
ENDBRANCH  29  30
ENDBRANCH   1  29
TORSDOF 15
