REMARK SMILES C[C@@H]1[C@@H](C(=O)NCCCCNC(=O)c2ccc(-c3c4nc(c(-c5c(F)cccc5F)c5ccc([nH]5)c(-c5c(F)cccc5F)c5nc(c(-c6c(F)cccc6F)c6ccc3[nH]6)C=C5)C=C4)cc2)CCN1C(=O)CN1C(=O)CNC1=O
REMARK SMILES IDX 8 1 7 2 6 3 4 4 5 5 3 7 1 8 2 9 70 10 68 11 69 12 71 13
REMARK SMILES IDX 72 14 73 15 74 16 75 17 79 18 76 19 77 20 78 21 80 22 9 24
REMARK SMILES IDX 10 25 11 26 12 27 13 29 14 30 15 31 67 32 16 33 66 34 17 35
REMARK SMILES IDX 18 36 19 37 60 38 20 39 65 40 59 41 61 42 21 43 64 44 58 45
REMARK SMILES IDX 57 46 22 48 48 49 31 50 47 51 32 52 35 53 46 54 62 55 33 56
REMARK SMILES IDX 34 57 45 59 63 60 36 61 23 62 24 63 29 64 25 65 26 66 28 67
REMARK SMILES IDX 30 68 27 69 49 70 50 71 55 72 51 73 52 74 54 75 56 76 53 77
REMARK SMILES IDX 37 78 38 79 43 80 39 81 40 82 42 83 44 84 41 85
REMARK H PARENT 6 6 78 23 11 28 61 47 35 58
REMARK Flexibility Score: inf
ROOT
ATOM      1  C   UNL     1      -2.860   4.404  -1.060  1.00  0.00     0.023 C 
ENDROOT
BRANCH   1   2
ATOM      2  C   UNL     1      -2.453   2.991  -0.653  1.00  0.00     0.116 C 
BRANCH   2   3
ATOM      3  N   UNL     1      -1.547   2.386  -1.603  1.00  0.00    -0.356 N 
ATOM      4  C   UNL     1      -0.431   1.638  -1.389  1.00  0.00     0.225 C 
ATOM      5  O   UNL     1       0.360   1.560  -2.333  1.00  0.00    -0.275 OA
ATOM      6  H   UNL     1      -1.772   2.538  -2.550  1.00  0.00     0.163 HD
BRANCH   4   7
ATOM      7  C   UNL     1      -0.083   1.093  -0.002  1.00  0.00     0.102 C 
ATOM      8  C   UNL     1       1.940  -0.069   0.994  1.00  0.00     0.032 C 
ATOM      9  C   UNL     1       0.897  -0.103  -0.125  1.00  0.00     0.094 C 
ATOM     10  N   UNL     1       0.039  -1.298  -0.020  1.00  0.00    -0.338 N 
ATOM     11  C   UNL     1      -1.204   0.495   0.856  1.00  0.00     0.037 C 
ATOM     12  C   UNL     1      -1.291  -0.954   0.426  1.00  0.00     0.121 C 
BRANCH  10  13
ATOM     13  C   UNL     1       0.247  -2.565  -0.546  1.00  0.00     0.243 C 
ATOM     14  O   UNL     1      -0.620  -3.442  -0.495  1.00  0.00    -0.273 OA
BRANCH  13  15
ATOM     15  C   UNL     1       1.560  -2.820  -1.272  1.00  0.00     0.230 C 
BRANCH  15  16
ATOM     16  N   UNL     1       1.532  -2.603  -2.705  1.00  0.00    -0.253 N 
ATOM     17  C   UNL     1       2.523  -3.063  -3.527  1.00  0.00     0.250 C 
ATOM     18  C   UNL     1       0.757  -1.700  -3.371  1.00  0.00     0.325 C 
ATOM     19  O   UNL     1       3.401  -3.862  -3.230  1.00  0.00    -0.272 OA
ATOM     20  C   UNL     1       2.401  -2.376  -4.875  1.00  0.00     0.218 C 
ATOM     21  N   UNL     1       1.269  -1.534  -4.636  1.00  0.00    -0.329 N 
ATOM     22  O   UNL     1      -0.239  -1.123  -2.978  1.00  0.00    -0.248 OA
ATOM     23  H   UNL     1       0.900  -0.909  -5.301  1.00  0.00     0.165 HD
ENDBRANCH  15  16
ENDBRANCH  13  15
ENDBRANCH  10  13
ENDBRANCH   4   7
ENDBRANCH   2   3
ENDBRANCH   1   2
BRANCH   1  24
ATOM     24  C   UNL     1      -3.677   4.508  -2.349  1.00  0.00     0.023 C 
BRANCH  24  25
ATOM     25  C   UNL     1      -4.941   3.655  -2.396  1.00  0.00     0.116 C 
BRANCH  25  26
ATOM     26  N   UNL     1      -5.872   3.960  -1.320  1.00  0.00    -0.352 N 
ATOM     27  C   UNL     1      -7.165   4.424  -1.369  1.00  0.00     0.251 C 
ATOM     28  H   UNL     1      -5.520   3.811  -0.412  1.00  0.00     0.163 HD
ATOM     29  O   UNL     1      -7.733   4.762  -0.335  1.00  0.00    -0.269 OA
BRANCH  27  30
ATOM     30  C   UNL     1      -7.866   4.546  -2.666  1.00  0.00     0.039 A 
ATOM     31  C   UNL     1      -8.613   5.699  -2.924  1.00  0.00     0.014 A 
ATOM     32  C   UNL     1      -7.797   3.530  -3.621  1.00  0.00     0.014 A 
ATOM     33  C   UNL     1      -9.225   5.866  -4.169  1.00  0.00     0.010 A 
ATOM     34  C   UNL     1      -8.333   3.735  -4.889  1.00  0.00     0.010 A 
ATOM     35  C   UNL     1      -9.056   4.902  -5.177  1.00  0.00    -0.014 A 
BRANCH  35  36
ATOM     36  C   UNL     1      -9.636   5.088  -6.532  1.00  0.00     0.031 A 
ATOM     37  C   UNL     1     -10.666   4.122  -7.050  1.00  0.00     0.074 A 
ATOM     38  C   UNL     1      -9.185   6.079  -7.325  1.00  0.00     0.049 A 
ATOM     39  N   UNL     1     -11.225   4.061  -8.232  1.00  0.00    -0.248 NA
ATOM     40  C   UNL     1     -11.104   3.065  -6.124  1.00  0.00     0.031 C 
ATOM     41  C   UNL     1      -8.155   7.055  -6.962  1.00  0.00     0.029 A 
ATOM     42  N   UNL     1      -9.528   6.423  -8.609  1.00  0.00    -0.354 N 
ATOM     43  C   UNL     1     -12.062   2.953  -8.197  1.00  0.00     0.074 A 
ATOM     44  C   UNL     1     -11.895   2.338  -6.899  1.00  0.00     0.031 C 
ATOM     45  C   UNL     1      -7.969   7.901  -7.989  1.00  0.00     0.029 A 
ATOM     46  C   UNL     1      -8.835   7.505  -9.095  1.00  0.00     0.049 A 
ATOM     47  H   UNL     1     -10.207   5.939  -9.133  1.00  0.00     0.167 HD
ATOM     48  C   UNL     1     -12.912   2.501  -9.150  1.00  0.00     0.037 A 
ATOM     49  C   UNL     1      -8.887   8.107 -10.298  1.00  0.00     0.037 A 
ATOM     50  C   UNL     1     -13.097   3.129 -10.432  1.00  0.00     0.049 A 
ATOM     51  C   UNL     1      -9.837   7.587 -11.341  1.00  0.00     0.074 A 
ATOM     52  C   UNL     1     -13.973   2.779 -11.445  1.00  0.00     0.029 A 
ATOM     53  N   UNL     1     -12.394   4.239 -10.876  1.00  0.00    -0.354 N 
ATOM     54  N   UNL     1     -10.666   6.574 -11.273  1.00  0.00    -0.248 NA
ATOM     55  C   UNL     1      -9.865   8.299 -12.626  1.00  0.00     0.031 C 
ATOM     56  C   UNL     1     -13.771   3.654 -12.518  1.00  0.00     0.029 A 
ATOM     57  C   UNL     1     -12.805   4.578 -12.154  1.00  0.00     0.049 A 
ATOM     58  H   UNL     1     -11.705   4.715 -10.358  1.00  0.00     0.167 HD
ATOM     59  C   UNL     1     -11.338   6.549 -12.489  1.00  0.00     0.074 A 
ATOM     60  C   UNL     1     -10.825   7.653 -13.272  1.00  0.00     0.031 C 
ATOM     61  C   UNL     1     -12.296   5.690 -12.916  1.00  0.00     0.037 A 
BRANCH  48  62
ATOM     62  C   UNL     1     -13.707   1.267  -8.835  1.00  0.00     0.057 A 
ATOM     63  C   UNL     1     -14.731   1.272  -7.877  1.00  0.00     0.134 A 
ATOM     64  C   UNL     1     -13.461   0.064  -9.509  1.00  0.00     0.134 A 
ATOM     65  F   UNL     1     -15.010   2.388  -7.186  1.00  0.00    -0.206 F 
ATOM     66  C   UNL     1     -15.458   0.118  -7.578  1.00  0.00     0.040 A 
ATOM     67  C   UNL     1     -14.201  -1.089  -9.239  1.00  0.00     0.040 A 
ATOM     68  F   UNL     1     -12.501  -0.011 -10.443  1.00  0.00    -0.206 F 
ATOM     69  C   UNL     1     -15.197  -1.066  -8.265  1.00  0.00     0.006 A 
ENDBRANCH  48  62
BRANCH  49  70
ATOM     70  C   UNL     1      -8.035   9.291 -10.575  1.00  0.00     0.057 A 
ATOM     71  C   UNL     1      -8.598  10.567 -10.702  1.00  0.00     0.134 A 
ATOM     72  C   UNL     1      -6.648   9.180 -10.726  1.00  0.00     0.134 A 
ATOM     73  F   UNL     1      -9.923  10.735 -10.586  1.00  0.00    -0.206 F 
ATOM     74  C   UNL     1      -7.815  11.687 -10.989  1.00  0.00     0.040 A 
ATOM     75  C   UNL     1      -5.850  10.295 -10.988  1.00  0.00     0.040 A 
ATOM     76  F   UNL     1      -6.048   7.987 -10.607  1.00  0.00    -0.206 F 
ATOM     77  C   UNL     1      -6.436  11.552 -11.128  1.00  0.00     0.006 A 
ENDBRANCH  49  70
BRANCH  61  78
ATOM     78  C   UNL     1     -12.888   5.939 -14.272  1.00  0.00     0.057 A 
ATOM     79  C   UNL     1     -12.175   5.694 -15.452  1.00  0.00     0.134 A 
ATOM     80  C   UNL     1     -14.207   6.397 -14.396  1.00  0.00     0.134 A 
ATOM     81  F   UNL     1     -10.904   5.267 -15.402  1.00  0.00    -0.206 F 
ATOM     82  C   UNL     1     -12.744   5.917 -16.707  1.00  0.00     0.040 A 
ATOM     83  C   UNL     1     -14.796   6.597 -15.645  1.00  0.00     0.040 A 
ATOM     84  F   UNL     1     -14.948   6.644 -13.306  1.00  0.00    -0.206 F 
ATOM     85  C   UNL     1     -14.061   6.363 -16.805  1.00  0.00     0.006 A 
ENDBRANCH  61  78
ENDBRANCH  35  36
ENDBRANCH  27  30
ENDBRANCH  25  26
ENDBRANCH  24  25
ENDBRANCH   1  24
TORSDOF 14
