REMARK SMILES O=C(NCCCCNC(=O)c1cn2ccnc2s1)c1ccc(-c2c3nc(c(-c4c(F)cccc4F)c4ccc([nH]4)c(-c4c(F)cccc4F)c4nc(c(-c5c(F)cccc5F)c5ccc2[nH]5)C=C4)C=C3)cc1
REMARK SMILES IDX 4 1 3 2 1 3 2 4 19 6 20 7 72 8 21 9 71 10 22 11 23 12 24 13
REMARK SMILES IDX 65 14 25 15 70 16 64 17 66 18 26 19 69 20 63 21 62 22 27 24
REMARK SMILES IDX 53 25 36 26 52 27 37 28 40 29 51 30 67 31 38 32 39 33 50 35
REMARK SMILES IDX 68 36 41 37 28 38 29 39 34 40 30 41 31 42 33 43 35 44 32 45
REMARK SMILES IDX 54 46 55 47 60 48 56 49 57 50 59 51 61 52 58 53 42 54 43 55
REMARK SMILES IDX 48 56 44 57 45 58 47 59 49 60 46 61 5 62 6 63 7 64 8 65 9 66
REMARK SMILES IDX 10 68 11 69 12 70 18 71 13 72 17 73 14 74 16 75 15 76
REMARK H PARENT 3 5 66 23 40 34 8 67
REMARK Flexibility Score: inf
ROOT
ATOM      1  C   UNL     1       4.571   1.372   0.530  1.00  0.00     0.116 C 
ENDROOT
BRANCH   1   2
ATOM      2  N   UNL     1       3.137   1.133   0.567  1.00  0.00    -0.352 N 
ATOM      3  O   UNL     1       1.188   0.154  -0.013  1.00  0.00    -0.269 OA
ATOM      4  C   UNL     1       2.416   0.129  -0.033  1.00  0.00     0.251 C 
ATOM      5  H   UNL     1       2.612   1.778   1.093  1.00  0.00     0.163 HD
BRANCH   4   6
ATOM      6  C   UNL     1       3.122  -0.974  -0.720  1.00  0.00     0.039 A 
ATOM      7  C   UNL     1       4.206  -1.611  -0.112  1.00  0.00     0.014 A 
ATOM      8  C   UNL     1       2.680  -1.386  -1.980  1.00  0.00     0.014 A 
ATOM      9  C   UNL     1       4.918  -2.580  -0.808  1.00  0.00     0.010 A 
ATOM     10  C   UNL     1       3.349  -2.416  -2.648  1.00  0.00     0.010 A 
ATOM     11  C   UNL     1       4.480  -3.012  -2.071  1.00  0.00    -0.014 A 
BRANCH  11  12
ATOM     12  C   UNL     1       5.147  -4.173  -2.709  1.00  0.00     0.031 A 
ATOM     13  C   UNL     1       5.922  -4.032  -3.987  1.00  0.00     0.074 A 
ATOM     14  C   UNL     1       5.040  -5.373  -2.105  1.00  0.00     0.049 A 
ATOM     15  N   UNL     1       6.553  -4.956  -4.668  1.00  0.00    -0.248 NA
ATOM     16  C   UNL     1       5.997  -2.690  -4.584  1.00  0.00     0.031 C 
ATOM     17  C   UNL     1       4.290  -5.629  -0.871  1.00  0.00     0.029 A 
ATOM     18  N   UNL     1       5.559  -6.597  -2.435  1.00  0.00    -0.354 N 
ATOM     19  C   UNL     1       7.083  -4.316  -5.780  1.00  0.00     0.074 A 
ATOM     20  C   UNL     1       6.690  -2.925  -5.692  1.00  0.00     0.031 C 
ATOM     21  C   UNL     1       4.420  -6.920  -0.536  1.00  0.00     0.029 A 
ATOM     22  C   UNL     1       5.208  -7.595  -1.559  1.00  0.00     0.049 A 
ATOM     23  H   UNL     1       6.129  -6.747  -3.224  1.00  0.00     0.167 HD
ATOM     24  C   UNL     1       7.832  -4.846  -6.776  1.00  0.00     0.037 A 
ATOM     25  C   UNL     1       5.464  -8.915  -1.589  1.00  0.00     0.037 A 
ATOM     26  C   UNL     1       8.237  -6.228  -6.841  1.00  0.00     0.049 A 
ATOM     27  C   UNL     1       6.274  -9.472  -2.721  1.00  0.00     0.074 A 
ATOM     28  C   UNL     1       9.063  -6.839  -7.770  1.00  0.00     0.029 A 
ATOM     29  N   UNL     1       7.840  -7.213  -5.950  1.00  0.00    -0.354 N 
ATOM     30  N   UNL     1       6.825  -8.840  -3.728  1.00  0.00    -0.248 NA
ATOM     31  C   UNL     1       6.491 -10.924  -2.727  1.00  0.00     0.031 C 
ATOM     32  C   UNL     1       9.122  -8.204  -7.471  1.00  0.00     0.029 A 
ATOM     33  C   UNL     1       8.370  -8.435  -6.331  1.00  0.00     0.049 A 
ATOM     34  H   UNL     1       7.266  -7.066  -5.164  1.00  0.00     0.167 HD
ATOM     35  C   UNL     1       7.456  -9.815  -4.486  1.00  0.00     0.074 A 
ATOM     36  C   UNL     1       7.247 -11.076  -3.805  1.00  0.00     0.031 C 
ATOM     37  C   UNL     1       8.140  -9.681  -5.647  1.00  0.00     0.037 A 
BRANCH  24  38
ATOM     38  C   UNL     1       8.262  -3.946  -7.896  1.00  0.00     0.057 A 
ATOM     39  C   UNL     1       9.297  -3.016  -7.742  1.00  0.00     0.134 A 
ATOM     40  C   UNL     1       7.703  -4.086  -9.174  1.00  0.00     0.134 A 
ATOM     41  F   UNL     1       9.871  -2.830  -6.544  1.00  0.00    -0.206 F 
ATOM     42  C   UNL     1       9.760  -2.255  -8.818  1.00  0.00     0.040 A 
ATOM     43  C   UNL     1       8.169  -3.345 -10.261  1.00  0.00     0.040 A 
ATOM     44  F   UNL     1       6.713  -4.965  -9.390  1.00  0.00    -0.206 F 
ATOM     45  C   UNL     1       9.202  -2.427 -10.084  1.00  0.00     0.006 A 
ENDBRANCH  24  38
BRANCH  25  46
ATOM     46  C   UNL     1       4.913  -9.801  -0.535  1.00  0.00     0.057 A 
ATOM     47  C   UNL     1       5.746 -10.435   0.393  1.00  0.00     0.134 A 
ATOM     48  C   UNL     1       3.536 -10.041  -0.437  1.00  0.00     0.134 A 
ATOM     49  F   UNL     1       7.074 -10.257   0.339  1.00  0.00    -0.206 F 
ATOM     50  C   UNL     1       5.233 -11.291   1.368  1.00  0.00     0.040 A 
ATOM     51  C   UNL     1       3.007 -10.872   0.550  1.00  0.00     0.040 A 
ATOM     52  F   UNL     1       2.684  -9.456  -1.292  1.00  0.00    -0.206 F 
ATOM     53  C   UNL     1       3.858 -11.508   1.451  1.00  0.00     0.006 A 
ENDBRANCH  25  46
BRANCH  37  54
ATOM     54  C   UNL     1       8.707 -10.932  -6.247  1.00  0.00     0.057 A 
ATOM     55  C   UNL     1       7.886 -11.880  -6.870  1.00  0.00     0.134 A 
ATOM     56  C   UNL     1      10.084 -11.182  -6.218  1.00  0.00     0.134 A 
ATOM     57  F   UNL     1       6.557 -11.706  -6.913  1.00  0.00    -0.206 F 
ATOM     58  C   UNL     1       8.415 -13.046  -7.426  1.00  0.00     0.040 A 
ATOM     59  C   UNL     1      10.627 -12.332  -6.793  1.00  0.00     0.040 A 
ATOM     60  F   UNL     1      10.924 -10.309  -5.641  1.00  0.00    -0.206 F 
ATOM     61  C   UNL     1       9.790 -13.271  -7.393  1.00  0.00     0.006 A 
ENDBRANCH  37  54
ENDBRANCH  11  12
ENDBRANCH   4   6
ENDBRANCH   1   2
BRANCH   1  62
ATOM     62  C   UNL     1       4.924   2.794   0.114  1.00  0.00     0.023 C 
BRANCH  62  63
ATOM     63  C   UNL     1       4.429   3.890   1.057  1.00  0.00     0.023 C 
BRANCH  63  64
ATOM     64  C   UNL     1       4.822   3.715   2.522  1.00  0.00     0.116 C 
BRANCH  64  65
ATOM     65  N   UNL     1       6.262   3.679   2.712  1.00  0.00    -0.351 N 
ATOM     66  C   UNL     1       7.071   4.508   3.437  1.00  0.00     0.263 C 
ATOM     67  H   UNL     1       6.726   2.946   2.246  1.00  0.00     0.163 HD
ATOM     68  O   UNL     1       8.290   4.373   3.375  1.00  0.00    -0.268 OA
BRANCH  66  69
ATOM     69  C   UNL     1       6.449   5.543   4.285  1.00  0.00     0.112 A 
ATOM     70  C   UNL     1       5.513   5.342   5.229  1.00  0.00     0.118 A 
ATOM     71  S   UNL     1       6.947   7.229   4.119  1.00  0.00    -0.091 S 
ATOM     72  N   UNL     1       5.131   6.532   5.794  1.00  0.00    -0.297 N 
ATOM     73  C   UNL     1       5.776   7.641   5.333  1.00  0.00     0.194 A 
ATOM     74  C   UNL     1       4.214   6.947   6.710  1.00  0.00     0.114 A 
ATOM     75  N   UNL     1       5.354   8.750   5.871  1.00  0.00    -0.227 NA
ATOM     76  C   UNL     1       4.370   8.323   6.744  1.00  0.00     0.133 A 
ENDBRANCH  66  69
ENDBRANCH  64  65
ENDBRANCH  63  64
ENDBRANCH  62  63
ENDBRANCH   1  62
TORSDOF 11
